CHEMBL3675413
     RDKit          3D

  0  0  0  0  0  0  0  0  0  0999 V3000
M  V30 BEGIN CTAB
M  V30 COUNTS 57 60 0 0 0
M  V30 BEGIN ATOM
M  V30 1 C 1.550878 -3.937481 4.541501 0
M  V30 2 N 0.974441 -2.818662 3.777973 0
M  V30 3 C 1.934693 -2.548824 2.724131 0
M  V30 4 C 1.500777 -1.413587 1.825302 0
M  V30 5 N 1.349051 -0.211446 2.596807 0
M  V30 6 C 0.930700 0.979097 1.893243 0
M  V30 7 N 0.700331 0.940741 0.581936 0
M  V30 8 C 0.312312 2.061029 -0.048479 0
M  V30 9 N 0.132952 3.263187 0.571625 0
M  V30 10 C 0.356315 3.351912 1.911695 0
M  V30 11 C 0.187372 4.546527 2.578738 0
M  V30 12 C -0.237657 5.709520 1.803039 0
M  V30 13 N -0.427049 6.975186 2.452712 0
M  V30 14 O -0.429798 5.573145 0.570670 0
M  V30 15 C 0.415190 4.626799 3.931927 0
M  V30 16 C 0.815598 3.479973 4.594772 0
M  V30 17 C 0.971244 2.309990 3.887799 0
M  V30 18 C 0.753292 2.187831 2.532780 0
M  V30 19 C 0.262048 -1.828990 1.142849 0
M  V30 20 C -0.925645 -1.809785 1.837951 0
M  V30 21 C -2.075866 -2.194635 1.206539 0
M  V30 22 C -2.004036 -2.590115 -0.110559 0
M  V30 23 C -0.869604 -2.637158 -0.867286 0
M  V30 24 N -0.750328 -3.035291 -2.218756 0
M  V30 25 C -1.713896 -3.472821 -3.121866 0
M  V30 26 O -2.894101 -3.526938 -2.669431 0
M  V30 27 C -1.568957 -3.875299 -4.501017 0
M  V30 28 C -0.419667 -3.915127 -5.239147 0
M  V30 29 F 0.748142 -3.548230 -4.670535 0
M  V30 30 C -0.299731 -4.300670 -6.550560 0
M  V30 31 C -1.443219 -4.691745 -7.210143 0
M  V30 32 C -2.635019 -4.682114 -6.547204 0
M  V30 33 C -2.663359 -4.284617 -5.245655 0
M  V30 34 F -3.911474 -4.310509 -4.667862 0
M  V30 35 C 0.261896 -2.235292 -0.170874 0
M  V30 36 H 2.663806 -3.880052 4.497187 0
M  V30 37 H 1.248296 -4.859098 3.998787 0
M  V30 38 H 1.171419 -3.954178 5.579676 0
M  V30 39 H 0.982820 -2.024103 4.455521 0
M  V30 40 H 2.900984 -2.335841 3.226458 0
M  V30 41 H 2.025973 -3.507227 2.161681 0
M  V30 42 H 2.301422 -1.285686 1.061012 0
M  V30 43 H 1.547743 -0.260505 3.615581 0
M  V30 44 H 0.144486 1.945579 -1.120289 0
M  V30 45 H -1.285230 7.570768 2.638707 0
M  V30 46 H -1.398420 7.353534 2.504557 0
M  V30 47 H 0.258509 5.601502 4.373104 0
M  V30 48 H 0.989311 3.567037 5.660960 0
M  V30 49 H 1.283267 1.486599 4.497899 0
M  V30 50 H -0.910492 -1.490706 2.861613 0
M  V30 51 H -2.976699 -2.169781 1.767001 0
M  V30 52 H -2.938185 -2.872065 -0.524361 0
M  V30 53 H 0.215224 -2.997767 -2.610804 0
M  V30 54 H 0.623931 -4.316222 -7.090528 0
M  V30 55 H -1.407469 -5.005068 -8.243189 0
M  V30 56 H -3.516867 -4.993405 -7.087256 0
M  V30 57 H 1.250358 -2.222666 -0.656842 0
M  V30 END ATOM
M  V30 BEGIN BOND
M  V30 1 1 1 2
M  V30 2 1 2 3
M  V30 3 1 3 4
M  V30 4 1 4 5
M  V30 5 1 5 6
M  V30 6 2 6 7
M  V30 7 1 7 8
M  V30 8 2 8 9
M  V30 9 1 9 10
M  V30 10 2 10 11
M  V30 11 1 11 12
M  V30 12 1 12 13
M  V30 13 2 12 14
M  V30 14 1 11 15
M  V30 15 2 15 16
M  V30 16 1 16 17
M  V30 17 2 17 18
M  V30 18 1 4 19
M  V30 19 2 19 20
M  V30 20 1 20 21
M  V30 21 2 21 22
M  V30 22 1 22 23
M  V30 23 1 23 24
M  V30 24 1 24 25
M  V30 25 2 25 26
M  V30 26 1 25 27
M  V30 27 2 27 28
M  V30 28 1 28 29
M  V30 29 1 28 30
M  V30 30 2 30 31
M  V30 31 1 31 32
M  V30 32 2 32 33
M  V30 33 1 33 34
M  V30 34 2 23 35
M  V30 35 1 18 6
M  V30 36 1 35 19
M  V30 37 1 18 10
M  V30 38 1 33 27
M  V30 39 1 1 36
M  V30 40 1 1 37
M  V30 41 1 1 38
M  V30 42 1 2 39
M  V30 43 1 3 40
M  V30 44 1 3 41
M  V30 45 1 4 42
M  V30 46 1 5 43
M  V30 47 1 8 44
M  V30 48 1 13 45
M  V30 49 1 13 46
M  V30 50 1 15 47
M  V30 51 1 16 48
M  V30 52 1 17 49
M  V30 53 1 20 50
M  V30 54 1 21 51
M  V30 55 1 22 52
M  V30 56 1 24 53
M  V30 57 1 30 54
M  V30 58 1 31 55
M  V30 59 1 32 56
M  V30 60 1 35 57
M  V30 END BOND
M  V30 END CTAB
M  END
>  <Dataset>  (1) 
ChEMBL_Kinases

>  <Ligand_Instance>  (1) 
nan

>  <PDB_ID>  (1) 
nan

>  <Standardized_SMILES>  (1) 
CNCC(Nc1ncnc2c(C(N)=O)cccc12)c1cccc(NC(=O)c2c(F)cccc2F)c1

>  <Name>  (1) 
nan

>  <Pocket>  (1) 
nan

>  <ATP_Site>  (1) 
nan

>  <Peripheral>  (1) 
nan

>  <Num_H_Atoms_ProtBoundConf>  (1) 
nan

>  <Num_Resolved_Atoms>  (1) 
nan

>  <Num_Not_Resolved_Atoms>  (1) 
nan

$$$$
CHEMBL4203889
     RDKit          3D

  0  0  0  0  0  0  0  0  0  0999 V3000
M  V30 BEGIN CTAB
M  V30 COUNTS 50 54 0 0 0
M  V30 BEGIN ATOM
M  V30 1 N 3.885216 -5.692897 2.380653 0
M  V30 2 C 4.049216 -4.721234 1.770256 0
M  V30 3 C 4.237548 -3.501366 0.996213 0
M  V30 4 C 4.883049 -3.495415 -0.232959 0
M  V30 5 C 4.996793 -2.256089 -0.866648 0
M  V30 6 C 4.496738 -1.100180 -0.304380 0
M  V30 7 C 4.616083 0.214853 -0.958247 0
M  V30 8 C 5.647900 0.894950 -1.617115 0
M  V30 9 N 5.169697 2.107423 -2.000765 0
M  V30 10 C 3.891148 2.219099 -1.615503 0
M  V30 11 C 2.942266 3.209895 -1.738218 0
M  V30 12 C 1.640777 3.071956 -1.234264 0
M  V30 13 C 1.357242 1.891001 -0.608088 0
M  V30 14 C 0.068208 1.519223 -0.038930 0
M  V30 15 C -0.120726 0.290415 0.529227 0
M  V30 16 C -1.274807 -0.192277 1.094966 0
M  V30 17 C -2.353575 0.687488 1.073665 0
M  V30 18 C -3.601029 0.234406 1.627030 0
M  V30 19 O -4.440928 1.184525 1.847252 0
M  V30 20 N -4.154972 -0.989719 1.997562 0
M  V30 21 C -3.575762 -2.307983 1.950772 0
M  V30 22 C -4.510483 -3.419029 2.364760 0
M  V30 23 O -5.706862 -3.402399 1.661032 0
M  V30 24 C -6.186380 -2.099395 1.499734 0
M  V30 25 C -5.498401 -1.169982 2.503130 0
M  V30 26 C -2.204697 1.933181 0.512801 0
M  V30 27 C -1.037078 2.377802 -0.041427 0
M  V30 28 N 2.323456 0.959803 -0.517375 0
M  V30 29 N 3.550548 1.081414 -0.987513 0
M  V30 30 C 3.845066 -1.117246 0.941114 0
M  V30 31 C 3.741024 -2.349237 1.553963 0
M  V30 32 H 5.257266 -4.424753 -0.633815 0
M  V30 33 H 5.492198 -2.227477 -1.818405 0
M  V30 34 H 6.609966 0.385503 -1.717500 0
M  V30 35 H 3.200895 4.137814 -2.244565 0
M  V30 36 H 0.866972 3.815682 -1.308643 0
M  V30 37 H 0.738956 -0.382958 0.529756 0
M  V30 38 H -1.220358 -1.187333 1.490139 0
M  V30 39 H -2.773383 -2.327465 2.748078 0
M  V30 40 H -3.072814 -2.530920 0.993414 0
M  V30 41 H -4.002507 -4.372747 2.089413 0
M  V30 42 H -4.698741 -3.439471 3.432541 0
M  V30 43 H -7.256773 -2.106302 1.756556 0
M  V30 44 H -5.983464 -1.715005 0.483425 0
M  V30 45 H -5.540660 -1.598611 3.503578 0
M  V30 46 H -6.063687 -0.196516 2.432200 0
M  V30 47 H -3.081891 2.597149 0.515746 0
M  V30 48 H -0.947986 3.360765 -0.473042 0
M  V30 49 H 3.471212 -0.190036 1.338901 0
M  V30 50 H 3.230049 -2.301743 2.508790 0
M  V30 END ATOM
M  V30 BEGIN BOND
M  V30 1 3 1 2
M  V30 2 1 2 3
M  V30 3 2 3 4
M  V30 4 1 4 5
M  V30 5 2 5 6
M  V30 6 1 6 7
M  V30 7 2 7 8
M  V30 8 1 8 9
M  V30 9 2 9 10
M  V30 10 1 10 11
M  V30 11 2 11 12
M  V30 12 1 12 13
M  V30 13 1 13 14
M  V30 14 2 14 15
M  V30 15 1 15 16
M  V30 16 2 16 17
M  V30 17 1 17 18
M  V30 18 2 18 19
M  V30 19 1 18 20
M  V30 20 1 20 21
M  V30 21 1 21 22
M  V30 22 1 22 23
M  V30 23 1 23 24
M  V30 24 1 24 25
M  V30 25 1 17 26
M  V30 26 2 26 27
M  V30 27 2 13 28
M  V30 28 1 28 29
M  V30 29 1 6 30
M  V30 30 2 30 31
M  V30 31 1 31 3
M  V30 32 1 29 7
M  V30 33 1 29 10
M  V30 34 1 27 14
M  V30 35 1 25 20
M  V30 36 1 4 32
M  V30 37 1 5 33
M  V30 38 1 8 34
M  V30 39 1 11 35
M  V30 40 1 12 36
M  V30 41 1 15 37
M  V30 42 1 16 38
M  V30 43 1 21 39
M  V30 44 1 21 40
M  V30 45 1 22 41
M  V30 46 1 22 42
M  V30 47 1 24 43
M  V30 48 1 24 44
M  V30 49 1 25 45
M  V30 50 1 25 46
M  V30 51 1 26 47
M  V30 52 1 27 48
M  V30 53 1 30 49
M  V30 54 1 31 50
M  V30 END BOND
M  V30 END CTAB
M  END
>  <Dataset>  (2) 
ChEMBL_Kinases

>  <Ligand_Instance>  (2) 
nan

>  <PDB_ID>  (2) 
nan

>  <Standardized_SMILES>  (2) 
N#Cc1ccc(-c2cnc3ccc(-c4ccc(C(=O)N5CCOCC5)cc4)nn23)cc1

>  <Name>  (2) 
nan

>  <Pocket>  (2) 
nan

>  <ATP_Site>  (2) 
nan

>  <Peripheral>  (2) 
nan

>  <Num_H_Atoms_ProtBoundConf>  (2) 
nan

>  <Num_Resolved_Atoms>  (2) 
nan

>  <Num_Not_Resolved_Atoms>  (2) 
nan

$$$$
CHEMBL4204506
     RDKit          3D

  0  0  0  0  0  0  0  0  0  0999 V3000
M  V30 BEGIN CTAB
M  V30 COUNTS 57 61 0 0 0
M  V30 BEGIN ATOM
M  V30 1 C 1.802736 -3.585554 0.134367 0
M  V30 2 N 3.010636 -4.240279 -0.160937 0
M  V30 3 C 4.207480 -3.707504 0.462305 0
M  V30 4 C 4.511023 -2.371771 -0.109194 0
M  V30 5 N 4.174598 -2.296388 -1.524661 0
M  V30 6 C 3.612949 -1.335766 -2.457877 0
M  V30 7 O 3.417467 -1.286046 -3.688992 0
M  V30 8 C 3.243456 -0.279208 -1.515548 0
M  V30 9 C 3.664325 0.753879 -0.711672 0
M  V30 10 C 2.769870 1.413454 0.083952 0
M  V30 11 C 1.432417 1.159265 0.184597 0
M  V30 12 C 0.610427 1.908648 1.100269 0
M  V30 13 C -0.719723 1.497114 1.199326 0
M  V30 14 N -1.612651 2.022528 2.043866 0
M  V30 15 C -2.933189 1.829268 2.377094 0
M  V30 16 C -3.796091 0.814169 1.786917 0
M  V30 17 C -5.085718 1.316186 1.552169 0
M  V30 18 C -6.061689 0.500846 1.005965 0
M  V30 19 C -5.655386 -0.806716 0.723844 0
M  V30 20 C -6.697895 -1.701104 0.241441 0
M  V30 21 N -7.998674 -2.321344 0.510474 0
M  V30 22 O -6.355499 -2.156749 -0.915318 0
M  V30 23 C -4.408670 -1.364533 0.924807 0
M  V30 24 C -3.493183 -0.494313 1.474058 0
M  V30 25 C -3.263061 2.698413 3.352433 0
M  V30 26 N -2.202935 3.471633 3.683458 0
M  V30 27 C -1.170220 3.040344 2.859443 0
M  V30 28 C 0.117119 3.487278 2.805925 0
M  V30 29 N 0.982032 2.906020 1.921046 0
M  V30 30 C 0.972689 0.139445 -0.603930 0
M  V30 31 C 1.841278 -0.585967 -1.449668 0
M  V30 32 C 4.330119 -3.612692 -2.121450 0
M  V30 33 C 3.257006 -4.545493 -1.549908 0
M  V30 34 H 2.094006 -2.586476 0.594939 0
M  V30 35 H 1.156101 -4.113458 0.874191 0
M  V30 36 H 1.212242 -3.360657 -0.759132 0
M  V30 37 H 4.121054 -3.717847 1.543963 0
M  V30 38 H 5.020885 -4.420159 0.160098 0
M  V30 39 H 5.636314 -2.212964 -0.076396 0
M  V30 40 H 4.040877 -1.511708 0.383378 0
M  V30 41 H 4.705780 0.790061 -0.934311 0
M  V30 42 H 3.289947 2.201841 0.646514 0
M  V30 43 H -1.199224 0.745936 0.628787 0
M  V30 44 H -5.404180 2.333117 1.767514 0
M  V30 45 H -7.079377 0.795658 0.793998 0
M  V30 46 H -8.253527 -3.306283 0.332893 0
M  V30 47 H -8.125192 -1.286585 0.814090 0
M  V30 48 H -4.160219 -2.379160 0.687152 0
M  V30 49 H -2.496746 -0.819448 1.686936 0
M  V30 50 H -4.179138 2.879112 3.879708 0
M  V30 51 H 0.576257 4.269371 3.377410 0
M  V30 52 H -0.099367 -0.086094 -0.564390 0
M  V30 53 H 1.211547 -1.325739 -1.962039 0
M  V30 54 H 4.194150 -3.600392 -3.211704 0
M  V30 55 H 5.337383 -3.990355 -1.896061 0
M  V30 56 H 3.644207 -5.578647 -1.596587 0
M  V30 57 H 2.315189 -4.499941 -2.098461 0
M  V30 END ATOM
M  V30 BEGIN BOND
M  V30 1 1 1 2
M  V30 2 1 2 3
M  V30 3 1 3 4
M  V30 4 1 4 5
M  V30 5 1 5 6
M  V30 6 2 6 7
M  V30 7 1 6 8
M  V30 8 2 8 9
M  V30 9 1 9 10
M  V30 10 2 10 11
M  V30 11 1 11 12
M  V30 12 2 12 13
M  V30 13 1 13 14
M  V30 14 1 14 15
M  V30 15 1 15 16
M  V30 16 2 16 17
M  V30 17 1 17 18
M  V30 18 2 18 19
M  V30 19 1 19 20
M  V30 20 1 20 21
M  V30 21 2 20 22
M  V30 22 1 19 23
M  V30 23 2 23 24
M  V30 24 2 15 25
M  V30 25 1 25 26
M  V30 26 2 26 27
M  V30 27 1 27 28
M  V30 28 2 28 29
M  V30 29 1 11 30
M  V30 30 2 30 31
M  V30 31 1 5 32
M  V30 32 1 32 33
M  V30 33 1 33 2
M  V30 34 1 31 8
M  V30 35 1 29 12
M  V30 36 1 27 14
M  V30 37 1 24 16
M  V30 38 1 1 34
M  V30 39 1 1 35
M  V30 40 1 1 36
M  V30 41 1 3 37
M  V30 42 1 3 38
M  V30 43 1 4 39
M  V30 44 1 4 40
M  V30 45 1 9 41
M  V30 46 1 10 42
M  V30 47 1 13 43
M  V30 48 1 17 44
M  V30 49 1 18 45
M  V30 50 1 21 46
M  V30 51 1 21 47
M  V30 52 1 23 48
M  V30 53 1 24 49
M  V30 54 1 25 50
M  V30 55 1 28 51
M  V30 56 1 30 52
M  V30 57 1 31 53
M  V30 58 1 32 54
M  V30 59 1 32 55
M  V30 60 1 33 56
M  V30 61 1 33 57
M  V30 END BOND
M  V30 END CTAB
M  END
>  <Dataset>  (3) 
ChEMBL_Kinases

>  <Ligand_Instance>  (3) 
nan

>  <PDB_ID>  (3) 
nan

>  <Standardized_SMILES>  (3) 
CN1CCN(C(=O)c2ccc(-c3cn4c(-c5ccc(C(N)=O)cc5)cnc4cn3)cc2)CC1

>  <Name>  (3) 
nan

>  <Pocket>  (3) 
nan

>  <ATP_Site>  (3) 
nan

>  <Peripheral>  (3) 
nan

>  <Num_H_Atoms_ProtBoundConf>  (3) 
nan

>  <Num_Resolved_Atoms>  (3) 
nan

>  <Num_Not_Resolved_Atoms>  (3) 
nan

$$$$
CHEMBL3314270
     RDKit          3D

  0  0  0  0  0  0  0  0  0  0999 V3000
M  V30 BEGIN CTAB
M  V30 COUNTS 58 62 0 0 0
M  V30 BEGIN ATOM
M  V30 1 C 1.124375 -2.296308 0.253798 0
M  V30 2 N -0.252487 -2.411996 0.640583 0
M  V30 3 C -0.933925 -1.531006 1.422647 0
M  V30 4 C -0.310832 -0.314709 1.979741 0
M  V30 5 C 0.308773 0.571773 1.091264 0
M  V30 6 N 0.824370 1.623406 1.754072 0
M  V30 7 C 1.540449 2.752751 1.195446 0 CFG=2
M  V30 8 C 2.655447 3.258333 2.078999 0 CFG=1
M  V30 9 O 3.374469 2.228757 2.667553 0
M  V30 10 C 3.521185 4.113054 1.174383 0 CFG=2
M  V30 11 O 4.596616 4.666399 1.865032 0
M  V30 12 C 2.628159 5.127981 0.525406 0 CFG=1
M  V30 13 C 2.721457 5.109233 -0.985314 0
M  V30 14 O 4.016574 5.109737 -1.443022 0
M  V30 15 O 1.328472 5.127013 0.951666 0
M  V30 16 C 0.667973 3.925611 0.879579 0 CFG=1
M  V30 17 O 0.017800 3.746832 -0.336618 0
M  V30 18 N 0.527722 1.385912 3.014603 0
M  V30 19 N -0.130786 0.271523 3.189483 0
M  V30 20 N -2.202660 -1.947874 1.583898 0
M  V30 21 C -2.396586 -3.106024 0.919642 0
M  V30 22 C -3.569737 -3.953214 0.778027 0
M  V30 23 C -4.793179 -3.622719 0.214202 0
M  V30 24 C -5.810628 -4.551040 0.157443 0
M  V30 25 C -5.599868 -5.810153 0.666391 0
M  V30 26 F -6.667172 -6.667137 0.566872 0
M  V30 27 C -4.388354 -6.170630 1.236091 0
M  V30 28 C -3.389746 -5.233925 1.283045 0
M  V30 29 C -1.170338 -3.375818 0.340388 0
M  V30 30 C -0.834030 -4.534181 -0.501192 0
M  V30 31 C -1.578800 -4.560238 -1.676365 0
M  V30 32 C -1.338412 -5.623083 -2.553532 0
M  V30 33 N -0.427106 -6.600828 -2.299670 0
M  V30 34 C 0.279540 -6.538869 -1.140915 0
M  V30 35 C 0.089507 -5.515808 -0.233110 0
M  V30 36 H 1.626756 -3.284783 0.211281 0
M  V30 37 H 1.646466 -1.698111 1.041032 0
M  V30 38 H 1.249682 -1.863518 -0.760926 0
M  V30 39 H 0.410539 0.504846 -0.003897 0
M  V30 40 H 2.032901 2.458949 0.221854 0
M  V30 41 H 2.235111 3.893364 2.870055 0
M  V30 42 H 3.886817 1.690960 2.017889 0
M  V30 43 H 3.884048 3.433993 0.348912 0
M  V30 44 H 5.433057 4.428221 1.368836 0
M  V30 45 H 3.049027 6.130184 0.829742 0
M  V30 46 H 2.209703 4.213030 -1.414617 0
M  V30 47 H 2.208521 6.054989 -1.320321 0
M  V30 48 H 4.222285 4.324853 -2.025574 0
M  V30 49 H -0.135829 3.954516 1.665327 0
M  V30 50 H 0.317764 2.904256 -0.729727 0
M  V30 51 H -4.855979 -2.612704 -0.154931 0
M  V30 52 H -6.748127 -4.231304 -0.297525 0
M  V30 53 H -4.327891 -7.192853 1.608850 0
M  V30 54 H -2.471118 -5.584970 1.741303 0
M  V30 55 H -2.329711 -3.821426 -1.964270 0
M  V30 56 H -1.882145 -5.720202 -3.502988 0
M  V30 57 H 1.038518 -7.266576 -0.827745 0
M  V30 58 H 0.615967 -5.406321 0.704189 0
M  V30 END ATOM
M  V30 BEGIN BOND
M  V30 1 1 1 2
M  V30 2 1 2 3
M  V30 3 1 3 4
M  V30 4 2 4 5
M  V30 5 1 5 6
M  V30 6 1 6 7
M  V30 7 1 7 8
M  V30 8 1 8 9
M  V30 9 1 8 10
M  V30 10 1 10 11
M  V30 11 1 10 12
M  V30 12 1 12 13
M  V30 13 1 13 14
M  V30 14 1 12 15
M  V30 15 1 15 16
M  V30 16 1 16 17
M  V30 17 1 6 18
M  V30 18 2 18 19
M  V30 19 2 3 20
M  V30 20 1 20 21
M  V30 21 1 21 22
M  V30 22 2 22 23
M  V30 23 1 23 24
M  V30 24 2 24 25
M  V30 25 1 25 26
M  V30 26 1 25 27
M  V30 27 2 27 28
M  V30 28 2 21 29
M  V30 29 1 29 30
M  V30 30 2 30 31
M  V30 31 1 31 32
M  V30 32 2 32 33
M  V30 33 1 33 34
M  V30 34 2 34 35
M  V30 35 1 29 2
M  V30 36 1 35 30
M  V30 37 1 19 4
M  V30 38 1 28 22
M  V30 39 1 16 7
M  V30 40 1 1 36
M  V30 41 1 1 37
M  V30 42 1 1 38
M  V30 43 1 5 39
M  V30 44 1 7 40 CFG=3
M  V30 45 1 8 41 CFG=1
M  V30 46 1 9 42
M  V30 47 1 10 43 CFG=3
M  V30 48 1 11 44
M  V30 49 1 12 45 CFG=1
M  V30 50 1 13 46
M  V30 51 1 13 47
M  V30 52 1 14 48
M  V30 53 1 16 49 CFG=1
M  V30 54 1 17 50
M  V30 55 1 23 51
M  V30 56 1 24 52
M  V30 57 1 27 53
M  V30 58 1 28 54
M  V30 59 1 31 55
M  V30 60 1 32 56
M  V30 61 1 34 57
M  V30 62 1 35 58
M  V30 END BOND
M  V30 END CTAB
M  END
>  <Dataset>  (4) 
ChEMBL_Kinases

>  <Ligand_Instance>  (4) 
nan

>  <PDB_ID>  (4) 
nan

>  <Standardized_SMILES>  (4) 
Cn1c(-c2cn([C@@H]3[C@@H](O)[C@H](O)[C@@H](CO)O[C@H]3O)nn2)nc(-c2ccc(F)cc2)c1-c1ccncc1

>  <Name>  (4) 
nan

>  <Pocket>  (4) 
nan

>  <ATP_Site>  (4) 
nan

>  <Peripheral>  (4) 
nan

>  <Num_H_Atoms_ProtBoundConf>  (4) 
nan

>  <Num_Resolved_Atoms>  (4) 
nan

>  <Num_Not_Resolved_Atoms>  (4) 
nan

$$$$
CHEMBL4204438
     RDKit          3D

  0  0  0  0  0  0  0  0  0  0999 V3000
M  V30 BEGIN CTAB
M  V30 COUNTS 55 59 0 0 0
M  V30 BEGIN ATOM
M  V30 1 C -0.346726 -3.333262 6.013550 0
M  V30 2 N 0.810106 -2.898556 5.280137 0
M  V30 3 C 1.190326 -1.546639 5.578537 0
M  V30 4 C 2.295690 -1.119186 4.643060 0
M  V30 5 N 2.727446 -2.252907 3.885976 0
M  V30 6 C 2.832152 -2.516045 2.491749 0
M  V30 7 O 3.250627 -3.617027 2.027701 0
M  V30 8 C 2.463176 -1.531704 1.492914 0
M  V30 9 C 1.515793 -1.990472 0.588294 0
M  V30 10 C 1.071761 -1.153910 -0.420153 0
M  V30 11 C 1.537533 0.136383 -0.567137 0
M  V30 12 C 1.037343 0.982127 -1.649771 0
M  V30 13 C 1.830165 1.957778 -2.243922 0
M  V30 14 C 1.329106 2.755265 -3.279040 0
M  V30 15 C 0.033161 2.591896 -3.735770 0
M  V30 16 N -0.678853 3.208065 -4.691067 0
M  V30 17 C -1.902354 2.651406 -4.720968 0
M  V30 18 C -1.928103 1.673547 -3.757727 0
M  V30 19 C -3.113948 0.859436 -3.512694 0
M  V30 20 C -4.327271 1.549021 -3.457286 0
M  V30 21 C -5.484043 0.869016 -3.232674 0
M  V30 22 C -5.554303 -0.495247 -3.049075 0
M  V30 23 C -6.787161 -1.175228 -2.815388 0
M  V30 24 N -7.793009 -1.721616 -2.623362 0
M  V30 25 C -4.336710 -1.160707 -3.108066 0
M  V30 26 C -3.141338 -0.509893 -3.333539 0
M  V30 27 N -0.723906 1.644058 -3.152287 0
M  V30 28 C -0.258805 0.853966 -2.141713 0
M  V30 29 C 2.479524 0.572211 0.343650 0
M  V30 30 C 2.938894 -0.242065 1.358444 0
M  V30 31 C 3.130216 -3.326607 4.800132 0
M  V30 32 C 1.904428 -3.833835 5.546619 0
M  V30 33 H -1.004605 -4.009239 5.433638 0
M  V30 34 H -0.014958 -3.869447 6.927724 0
M  V30 35 H -0.966842 -2.470296 6.327665 0
M  V30 36 H 1.540940 -1.419464 6.626124 0
M  V30 37 H 0.289168 -0.917543 5.430280 0
M  V30 38 H 1.886489 -0.306473 3.994551 0
M  V30 39 H 3.124931 -0.654148 5.226230 0
M  V30 40 H 1.083903 -2.982634 0.611249 0
M  V30 41 H 0.335498 -1.501309 -1.128242 0
M  V30 42 H 2.859683 2.102865 -1.896437 0
M  V30 43 H 1.950834 3.522728 -3.747389 0
M  V30 44 H -2.676974 2.962430 -5.401892 0
M  V30 45 H -4.347151 2.634382 -3.594515 0
M  V30 46 H -6.399877 1.441405 -3.197507 0
M  V30 47 H -4.309693 -2.244781 -2.971982 0
M  V30 48 H -2.193404 -1.015453 -3.381027 0
M  V30 49 H -0.895769 0.108517 -1.702623 0
M  V30 50 H 2.869910 1.580565 0.261153 0
M  V30 51 H 3.672383 0.049753 2.093993 0
M  V30 52 H 3.575033 -4.175945 4.259374 0
M  V30 53 H 3.854026 -2.971230 5.542166 0
M  V30 54 H 1.621215 -4.831498 5.197003 0
M  V30 55 H 2.089422 -3.853390 6.638587 0
M  V30 END ATOM
M  V30 BEGIN BOND
M  V30 1 1 1 2
M  V30 2 1 2 3
M  V30 3 1 3 4
M  V30 4 1 4 5
M  V30 5 1 5 6
M  V30 6 2 6 7
M  V30 7 1 6 8
M  V30 8 2 8 9
M  V30 9 1 9 10
M  V30 10 2 10 11
M  V30 11 1 11 12
M  V30 12 1 12 13
M  V30 13 2 13 14
M  V30 14 1 14 15
M  V30 15 2 15 16
M  V30 16 1 16 17
M  V30 17 2 17 18
M  V30 18 1 18 19
M  V30 19 2 19 20
M  V30 20 1 20 21
M  V30 21 2 21 22
M  V30 22 1 22 23
M  V30 23 3 23 24
M  V30 24 1 22 25
M  V30 25 2 25 26
M  V30 26 1 18 27
M  V30 27 1 27 28
M  V30 28 1 11 29
M  V30 29 2 29 30
M  V30 30 1 5 31
M  V30 31 1 31 32
M  V30 32 1 32 2
M  V30 33 1 30 8
M  V30 34 2 28 12
M  V30 35 1 27 15
M  V30 36 1 26 19
M  V30 37 1 1 33
M  V30 38 1 1 34
M  V30 39 1 1 35
M  V30 40 1 3 36
M  V30 41 1 3 37
M  V30 42 1 4 38
M  V30 43 1 4 39
M  V30 44 1 9 40
M  V30 45 1 10 41
M  V30 46 1 13 42
M  V30 47 1 14 43
M  V30 48 1 17 44
M  V30 49 1 20 45
M  V30 50 1 21 46
M  V30 51 1 25 47
M  V30 52 1 26 48
M  V30 53 1 28 49
M  V30 54 1 29 50
M  V30 55 1 30 51
M  V30 56 1 31 52
M  V30 57 1 31 53
M  V30 58 1 32 54
M  V30 59 1 32 55
M  V30 END BOND
M  V30 END CTAB
M  END
>  <Dataset>  (5) 
ChEMBL_Kinases

>  <Ligand_Instance>  (5) 
nan

>  <PDB_ID>  (5) 
nan

>  <Standardized_SMILES>  (5) 
CN1CCN(C(=O)c2ccc(-c3ccc4ncc(-c5ccc(C#N)cc5)n4c3)cc2)CC1

>  <Name>  (5) 
nan

>  <Pocket>  (5) 
nan

>  <ATP_Site>  (5) 
nan

>  <Peripheral>  (5) 
nan

>  <Num_H_Atoms_ProtBoundConf>  (5) 
nan

>  <Num_Resolved_Atoms>  (5) 
nan

>  <Num_Not_Resolved_Atoms>  (5) 
nan

$$$$
CHEMBL3314285
     RDKit          3D

  0  0  0  0  0  0  0  0  0  0999 V3000
M  V30 BEGIN CTAB
M  V30 COUNTS 42 45 0 0 0
M  V30 BEGIN ATOM
M  V30 1 C 3.126644 -4.668242 3.887359 0
M  V30 2 S 1.792870 -5.055304 2.709437 0
M  V30 3 C 2.020173 -4.004604 1.259291 0
M  V30 4 N 2.785629 -4.456592 0.249325 0
M  V30 5 C 2.937514 -3.653305 -0.817840 0
M  V30 6 C 2.345126 -2.407986 -0.905457 0
M  V30 7 C 1.560391 -1.968441 0.153064 0
M  V30 8 C 0.841001 -0.703492 0.286963 0
M  V30 9 N 1.374296 0.530086 0.297840 0
M  V30 10 C 0.314792 1.351205 0.442332 0
M  V30 11 C 0.429111 2.808895 0.505326 0
M  V30 12 C 1.698988 3.381892 0.411314 0
M  V30 13 C 1.773033 4.763908 0.474425 0
M  V30 14 C 0.632324 5.526891 0.623860 0
M  V30 15 O 0.756020 6.919062 0.682677 0
M  V30 16 C -0.612477 4.961427 0.715822 0
M  V30 17 C -0.698016 3.592540 0.654495 0
M  V30 18 N -0.829578 0.658247 0.518191 0
M  V30 19 C -0.532634 -0.664220 0.422242 0
M  V30 20 C -1.493799 -1.764224 0.459639 0
M  V30 21 C -2.350930 -2.086585 1.516989 0
M  V30 22 C -3.202807 -3.161907 1.394091 0
M  V30 23 C -3.207663 -3.918267 0.226962 0
M  V30 24 F -4.067261 -4.954293 0.179207 0
M  V30 25 C -2.374050 -3.624666 -0.832327 0
M  V30 26 C -1.512116 -2.529849 -0.697411 0
M  V30 27 N 1.430189 -2.810453 1.216773 0
M  V30 28 H 3.719357 -3.787890 3.540430 0
M  V30 29 H 3.778886 -5.567966 3.919123 0
M  V30 30 H 2.722696 -4.413386 4.887520 0
M  V30 31 H 3.538993 -3.919250 -1.698054 0
M  V30 32 H 2.409520 -1.705889 -1.708835 0
M  V30 33 H 2.378325 0.788809 0.213554 0
M  V30 34 H 2.612509 2.813777 0.293819 0
M  V30 35 H 2.743207 5.267330 0.405945 0
M  V30 36 H 1.506849 7.292713 1.257577 0
M  V30 37 H -1.469667 5.611248 0.832008 0
M  V30 38 H -1.658646 3.100803 0.722653 0
M  V30 39 H -2.254202 -1.424052 2.371210 0
M  V30 40 H -3.849260 -3.366105 2.252080 0
M  V30 41 H -2.374743 -4.209098 -1.739727 0
M  V30 42 H -0.875702 -2.335316 -1.552176 0
M  V30 END ATOM
M  V30 BEGIN BOND
M  V30 1 1 1 2
M  V30 2 1 2 3
M  V30 3 2 3 4
M  V30 4 1 4 5
M  V30 5 2 5 6
M  V30 6 1 6 7
M  V30 7 1 7 8
M  V30 8 1 8 9
M  V30 9 1 9 10
M  V30 10 1 10 11
M  V30 11 2 11 12
M  V30 12 1 12 13
M  V30 13 2 13 14
M  V30 14 1 14 15
M  V30 15 1 14 16
M  V30 16 2 16 17
M  V30 17 2 10 18
M  V30 18 1 18 19
M  V30 19 1 19 20
M  V30 20 2 20 21
M  V30 21 1 21 22
M  V30 22 2 22 23
M  V30 23 1 23 24
M  V30 24 1 23 25
M  V30 25 2 25 26
M  V30 26 2 7 27
M  V30 27 1 27 3
M  V30 28 2 19 8
M  V30 29 1 26 20
M  V30 30 1 17 11
M  V30 31 1 1 28
M  V30 32 1 1 29
M  V30 33 1 1 30
M  V30 34 1 5 31
M  V30 35 1 6 32
M  V30 36 1 9 33
M  V30 37 1 12 34
M  V30 38 1 13 35
M  V30 39 1 15 36
M  V30 40 1 16 37
M  V30 41 1 17 38
M  V30 42 1 21 39
M  V30 43 1 22 40
M  V30 44 1 25 41
M  V30 45 1 26 42
M  V30 END BOND
M  V30 END CTAB
M  END
>  <Dataset>  (6) 
ChEMBL_Kinases

>  <Ligand_Instance>  (6) 
nan

>  <PDB_ID>  (6) 
nan

>  <Standardized_SMILES>  (6) 
CSc1nccc(-c2[nH]c(-c3ccc(O)cc3)nc2-c2ccc(F)cc2)n1

>  <Name>  (6) 
nan

>  <Pocket>  (6) 
nan

>  <ATP_Site>  (6) 
nan

>  <Peripheral>  (6) 
nan

>  <Num_H_Atoms_ProtBoundConf>  (6) 
nan

>  <Num_Resolved_Atoms>  (6) 
nan

>  <Num_Not_Resolved_Atoms>  (6) 
nan

$$$$
CHEMBL4204292
     RDKit          3D

  0  0  0  0  0  0  0  0  0  0999 V3000
M  V30 BEGIN CTAB
M  V30 COUNTS 60 65 0 0 0
M  V30 BEGIN ATOM
M  V30 1 C 1.206205 -1.748612 6.071775 0
M  V30 2 O 0.584092 -1.634970 4.847872 0
M  V30 3 C 1.444754 -1.807222 3.757307 0
M  V30 4 C 1.524553 -0.520805 2.986651 0
M  V30 5 C 2.251643 -0.796742 1.690296 0
M  V30 6 N 1.415397 -1.699710 0.924072 0
M  V30 7 C 0.784355 -1.365711 -0.305239 0
M  V30 8 N 0.931527 -0.145667 -0.852593 0
M  V30 9 C 0.340955 0.180679 -2.016291 0
M  V30 10 N 0.471347 1.453645 -2.632910 0
M  V30 11 C 1.257771 2.532761 -2.053712 0
M  V30 12 C 0.743835 2.950587 -0.720049 0
M  V30 13 N 0.991669 2.578423 0.550358 0
M  V30 14 C 0.214698 3.315091 1.389476 0
M  V30 15 C 0.037694 3.379359 2.748578 0
M  V30 16 F 0.774032 2.543237 3.513592 0
M  V30 17 C -0.834976 4.234089 3.387202 0
M  V30 18 F -0.929732 4.212727 4.739477 0
M  V30 19 C -1.577275 5.079677 2.596201 0
M  V30 20 C -1.435351 5.053406 1.222660 0
M  V30 21 C -0.547157 4.178665 0.625780 0
M  V30 22 N -0.202558 3.931578 -0.639441 0
M  V30 23 C -0.430237 -0.824887 -2.614515 0
M  V30 24 N -1.125643 -0.805020 -3.750049 0
M  V30 25 C -1.717990 -2.021339 -3.923633 0
M  V30 26 N -1.373027 -2.788436 -2.873042 0
M  V30 27 C -1.796604 -4.136083 -2.688760 0
M  V30 28 C -1.673043 -4.802567 -1.486809 0
M  V30 29 C -2.092649 -6.108600 -1.336593 0
M  V30 30 C -2.659869 -6.788299 -2.420304 0
M  V30 31 C -2.801218 -6.156129 -3.640557 0
M  V30 32 F -3.351488 -6.786417 -4.726155 0
M  V30 33 C -2.361682 -4.847135 -3.728086 0
M  V30 34 C -0.579394 -2.075650 -2.050404 0
M  V30 35 N 0.040945 -2.321992 -0.890247 0
M  V30 36 C 1.291305 -2.980103 1.542840 0
M  V30 37 C 0.941315 -2.979489 2.989245 0
M  V30 38 H 0.392157 -1.587383 6.838420 0
M  V30 39 H 1.637900 -2.743768 6.272966 0
M  V30 40 H 1.933811 -0.907672 6.254551 0
M  V30 41 H 2.495239 -2.008635 4.109341 0
M  V30 42 H 0.516174 -0.132830 2.726546 0
M  V30 43 H 2.087229 0.190897 3.633216 0
M  V30 44 H 2.450534 0.118612 1.108221 0
M  V30 45 H 3.199509 -1.311833 1.979244 0
M  V30 46 H -0.018200 1.617479 -3.538092 0
M  V30 47 H 2.308531 2.168460 -1.965887 0
M  V30 48 H 1.294875 3.398799 -2.745529 0
M  V30 49 H -2.277692 5.770375 3.053136 0
M  V30 50 H -2.035881 5.735803 0.600994 0
M  V30 51 H -0.653929 4.473855 -1.435148 0
M  V30 52 H -2.352344 -2.269398 -4.787992 0
M  V30 53 H -1.242224 -4.309645 -0.636273 0
M  V30 54 H -2.006998 -6.661796 -0.395472 0
M  V30 55 H -2.991689 -7.825911 -2.296760 0
M  V30 56 H -2.486849 -4.386395 -4.691655 0
M  V30 57 H 2.201334 -3.579815 1.332717 0
M  V30 58 H 0.448049 -3.510357 1.014482 0
M  V30 59 H 1.443833 -3.887387 3.434609 0
M  V30 60 H -0.144888 -3.178759 3.165242 0
M  V30 END ATOM
M  V30 BEGIN BOND
M  V30 1 1 1 2
M  V30 2 1 2 3
M  V30 3 1 3 4
M  V30 4 1 4 5
M  V30 5 1 5 6
M  V30 6 1 6 7
M  V30 7 2 7 8
M  V30 8 1 8 9
M  V30 9 1 9 10
M  V30 10 1 10 11
M  V30 11 1 11 12
M  V30 12 2 12 13
M  V30 13 1 13 14
M  V30 14 2 14 15
M  V30 15 1 15 16
M  V30 16 1 15 17
M  V30 17 1 17 18
M  V30 18 2 17 19
M  V30 19 1 19 20
M  V30 20 2 20 21
M  V30 21 1 21 22
M  V30 22 2 9 23
M  V30 23 1 23 24
M  V30 24 2 24 25
M  V30 25 1 25 26
M  V30 26 1 26 27
M  V30 27 2 27 28
M  V30 28 1 28 29
M  V30 29 2 29 30
M  V30 30 1 30 31
M  V30 31 1 31 32
M  V30 32 2 31 33
M  V30 33 1 26 34
M  V30 34 2 34 35
M  V30 35 1 6 36
M  V30 36 1 36 37
M  V30 37 1 37 3
M  V30 38 1 35 7
M  V30 39 1 22 12
M  V30 40 1 34 23
M  V30 41 1 21 14
M  V30 42 1 33 27
M  V30 43 1 1 38
M  V30 44 1 1 39
M  V30 45 1 1 40
M  V30 46 1 3 41
M  V30 47 1 4 42
M  V30 48 1 4 43
M  V30 49 1 5 44
M  V30 50 1 5 45
M  V30 51 1 10 46
M  V30 52 1 11 47
M  V30 53 1 11 48
M  V30 54 1 19 49
M  V30 55 1 20 50
M  V30 56 1 22 51
M  V30 57 1 25 52
M  V30 58 1 28 53
M  V30 59 1 29 54
M  V30 60 1 30 55
M  V30 61 1 33 56
M  V30 62 1 36 57
M  V30 63 1 36 58
M  V30 64 1 37 59
M  V30 65 1 37 60
M  V30 END BOND
M  V30 END CTAB
M  END
>  <Dataset>  (7) 
ChEMBL_Kinases

>  <Ligand_Instance>  (7) 
nan

>  <PDB_ID>  (7) 
nan

>  <Standardized_SMILES>  (7) 
COC1CCN(c2nc(NCc3nc4c(F)c(F)ccc4[nH]3)c3ncn(-c4cccc(F)c4)c3n2)CC1

>  <Name>  (7) 
nan

>  <Pocket>  (7) 
nan

>  <ATP_Site>  (7) 
nan

>  <Peripheral>  (7) 
nan

>  <Num_H_Atoms_ProtBoundConf>  (7) 
nan

>  <Num_Resolved_Atoms>  (7) 
nan

>  <Num_Not_Resolved_Atoms>  (7) 
nan

$$$$
CHEMBL3675411
     RDKit          3D

  0  0  0  0  0  0  0  0  0  0999 V3000
M  V30 BEGIN CTAB
M  V30 COUNTS 59 62 0 0 0
M  V30 BEGIN ATOM
M  V30 1 C 2.831220 -2.114955 5.453476 0
M  V30 2 N 1.570703 -2.095770 4.710387 0
M  V30 3 C 0.498939 -2.144568 5.653364 0
M  V30 4 C 1.563935 -0.883605 3.929013 0
M  V30 5 C 0.312177 -0.729088 3.091380 0
M  V30 6 N 0.319914 0.505384 2.304783 0
M  V30 7 C -0.802680 0.764331 1.472953 0
M  V30 8 N -1.834435 -0.093363 1.408457 0
M  V30 9 C -2.909592 0.121816 0.631296 0
M  V30 10 N -3.001775 1.225635 -0.130194 0
M  V30 11 C -2.011245 2.126440 -0.117789 0
M  V30 12 C -2.051953 3.276479 -0.877899 0
M  V30 13 C -3.202399 3.545658 -1.734513 0
M  V30 14 N -4.344600 2.708469 -1.877071 0
M  V30 15 O -3.332020 4.562883 -2.463610 0
M  V30 16 C -1.057690 4.232079 -0.898095 0
M  V30 17 C 0.038697 3.964741 -0.074994 0
M  V30 18 C 0.084453 2.828957 0.679047 0
M  V30 19 C -0.907159 1.892430 0.688643 0
M  V30 20 C 0.130805 -1.881580 2.171361 0
M  V30 21 C -0.771923 -2.871236 2.494951 0
M  V30 22 C -0.988628 -3.968474 1.687729 0
M  V30 23 C -0.287113 -4.102524 0.506971 0
M  V30 24 C 0.614919 -3.100358 0.197309 0
M  V30 25 N 1.327849 -3.265301 -1.030956 0
M  V30 26 C 0.650549 -2.682211 -2.114800 0
M  V30 27 O -0.449645 -2.131161 -1.786227 0
M  V30 28 C 1.164621 -2.706802 -3.496762 0
M  V30 29 C 2.357296 -3.289786 -3.876739 0
M  V30 30 C 2.707380 -3.233497 -5.213118 0
M  V30 31 N 1.928021 -2.635722 -6.133397 0
M  V30 32 C 0.761732 -2.062547 -5.778737 0
M  V30 33 Cl -0.264088 -1.277626 -6.982151 0
M  V30 34 C 0.356201 -2.086162 -4.454057 0
M  V30 35 C 0.851541 -1.979876 0.998644 0
M  V30 36 H 2.912468 -1.139827 5.974528 0
M  V30 37 H 3.673136 -2.136658 4.734201 0
M  V30 38 H 2.879333 -2.978117 6.138627 0
M  V30 39 H -0.149098 -3.044560 5.438909 0
M  V30 40 H 0.892318 -2.340184 6.670825 0
M  V30 41 H -0.136895 -1.238949 5.695920 0
M  V30 42 H 2.409648 -0.851032 3.227462 0
M  V30 43 H 1.693215 -0.046017 4.638248 0
M  V30 44 H -0.543547 -0.645816 3.790748 0
M  V30 45 H 1.158273 1.087664 2.428899 0
M  V30 46 H -3.702339 -0.613686 0.630532 0
M  V30 47 H -3.971263 1.913070 -2.435026 0
M  V30 48 H -5.354056 2.692669 -1.593704 0
M  V30 49 H -1.102095 5.129842 -1.498765 0
M  V30 50 H 0.844267 4.703754 -0.068638 0
M  V30 51 H 0.975211 2.718730 1.279465 0
M  V30 52 H -1.378173 -2.874809 3.390289 0
M  V30 53 H -1.699281 -4.761655 1.928331 0
M  V30 54 H -0.430855 -4.949128 -0.150703 0
M  V30 55 H 2.253222 -3.751162 -1.191532 0
M  V30 56 H 2.953639 -3.759597 -3.107426 0
M  V30 57 H 3.659553 -3.711072 -5.450270 0
M  V30 58 H -0.587482 -1.613821 -4.214678 0
M  V30 59 H 1.565658 -1.223667 0.714651 0
M  V30 END ATOM
M  V30 BEGIN BOND
M  V30 1 1 1 2
M  V30 2 1 2 3
M  V30 3 1 2 4
M  V30 4 1 4 5
M  V30 5 1 5 6
M  V30 6 1 6 7
M  V30 7 2 7 8
M  V30 8 1 8 9
M  V30 9 2 9 10
M  V30 10 1 10 11
M  V30 11 2 11 12
M  V30 12 1 12 13
M  V30 13 1 13 14
M  V30 14 2 13 15
M  V30 15 1 12 16
M  V30 16 2 16 17
M  V30 17 1 17 18
M  V30 18 2 18 19
M  V30 19 1 5 20
M  V30 20 2 20 21
M  V30 21 1 21 22
M  V30 22 2 22 23
M  V30 23 1 23 24
M  V30 24 1 24 25
M  V30 25 1 25 26
M  V30 26 2 26 27
M  V30 27 1 26 28
M  V30 28 2 28 29
M  V30 29 1 29 30
M  V30 30 2 30 31
M  V30 31 1 31 32
M  V30 32 1 32 33
M  V30 33 2 32 34
M  V30 34 2 24 35
M  V30 35 1 19 7
M  V30 36 1 35 20
M  V30 37 1 19 11
M  V30 38 1 34 28
M  V30 39 1 1 36
M  V30 40 1 1 37
M  V30 41 1 1 38
M  V30 42 1 3 39
M  V30 43 1 3 40
M  V30 44 1 3 41
M  V30 45 1 4 42
M  V30 46 1 4 43
M  V30 47 1 5 44
M  V30 48 1 6 45
M  V30 49 1 9 46
M  V30 50 1 14 47
M  V30 51 1 14 48
M  V30 52 1 16 49
M  V30 53 1 17 50
M  V30 54 1 18 51
M  V30 55 1 21 52
M  V30 56 1 22 53
M  V30 57 1 23 54
M  V30 58 1 25 55
M  V30 59 1 29 56
M  V30 60 1 30 57
M  V30 61 1 34 58
M  V30 62 1 35 59
M  V30 END BOND
M  V30 END CTAB
M  END
>  <Dataset>  (8) 
ChEMBL_Kinases

>  <Ligand_Instance>  (8) 
nan

>  <PDB_ID>  (8) 
nan

>  <Standardized_SMILES>  (8) 
CN(C)CC(Nc1ncnc2c(C(N)=O)cccc12)c1cccc(NC(=O)c2ccnc(Cl)c2)c1

>  <Name>  (8) 
nan

>  <Pocket>  (8) 
nan

>  <ATP_Site>  (8) 
nan

>  <Peripheral>  (8) 
nan

>  <Num_H_Atoms_ProtBoundConf>  (8) 
nan

>  <Num_Resolved_Atoms>  (8) 
nan

>  <Num_Not_Resolved_Atoms>  (8) 
nan

$$$$
CHEMBL4203994
     RDKit          3D

  0  0  0  0  0  0  0  0  0  0999 V3000
M  V30 BEGIN CTAB
M  V30 COUNTS 72 76 0 0 0
M  V30 BEGIN ATOM
M  V30 1 C 4.716851 -1.550706 2.684667 0
M  V30 2 C 4.893632 -2.765773 1.783510 0
M  V30 3 N 3.961816 -2.646432 0.707248 0
M  V30 4 C 2.592336 -2.782126 1.124204 0
M  V30 5 C 1.744645 -2.032411 0.127117 0
M  V30 6 C 2.250887 -2.199702 -1.294085 0
M  V30 7 C 3.080020 -1.035132 -1.730502 0
M  V30 8 C 3.596667 -1.169754 -3.151323 0
M  V30 9 C 2.450514 0.267479 -1.570256 0
M  V30 10 C 1.177894 0.410053 -2.102962 0
M  V30 11 N 0.584739 1.614214 -1.960225 0
M  V30 12 C 1.195274 2.658367 -1.323065 0
M  V30 13 N 0.275394 3.769542 -1.351087 0
M  V30 14 C -0.281659 3.591491 -0.043276 0
M  V30 15 C -1.200666 2.635598 0.328413 0
M  V30 16 C -1.699670 2.531508 1.604067 0
M  V30 17 C -2.655475 1.502494 1.964645 0
M  V30 18 C -3.080067 1.498071 3.296303 0
M  V30 19 C -3.984322 0.526037 3.729549 0
M  V30 20 F -4.412424 0.494931 5.004754 0
M  V30 21 C -4.397672 -0.377151 2.782001 0
M  V30 22 N -5.256995 -1.399607 2.979706 0
M  V30 23 C -5.412735 -2.071414 1.812312 0
M  V30 24 C -6.265083 -3.265683 1.605575 0
M  V30 25 N -4.666949 -1.498364 0.860138 0
M  V30 26 C -4.385226 -1.689536 -0.516651 0
M  V30 27 C -5.180315 -2.807137 -1.133714 0
M  V30 28 C -4.652823 -0.447704 -1.351632 0
M  V30 29 C -4.035346 -0.447526 1.458265 0
M  V30 30 C -3.134647 0.549372 1.097829 0
M  V30 31 N -1.276129 3.391494 2.514591 0
M  V30 32 C -0.365269 4.349900 2.173554 0
M  V30 33 N 0.133080 4.461766 0.923667 0
M  V30 34 C 2.459276 2.488952 -0.804105 0
M  V30 35 N 3.052001 1.293324 -0.943671 0
M  V30 36 C 3.021240 -3.506392 -1.338043 0
M  V30 37 C 4.191551 -3.528382 -0.401402 0
M  V30 38 H 4.194255 -0.724366 2.125809 0
M  V30 39 H 4.046241 -1.766794 3.542012 0
M  V30 40 H 5.706891 -1.146657 2.977836 0
M  V30 41 H 4.623976 -3.681757 2.356366 0
M  V30 42 H 5.917299 -2.793966 1.387366 0
M  V30 43 H 2.456811 -2.408867 2.155118 0
M  V30 44 H 2.344353 -3.864695 1.113737 0
M  V30 45 H 1.770689 -0.953987 0.403599 0
M  V30 46 H 0.681362 -2.352932 0.229956 0
M  V30 47 H 1.350996 -2.360497 -1.924887 0
M  V30 48 H 4.007252 -1.032049 -1.103151 0
M  V30 49 H 2.856684 -1.558900 -3.859620 0
M  V30 50 H 4.554197 -1.727554 -3.164961 0
M  V30 51 H 3.854731 -0.138021 -3.504645 0
M  V30 52 H 0.688333 -0.428335 -2.615827 0
M  V30 53 H 0.126091 4.458333 -2.143802 0
M  V30 54 H -1.484742 1.982045 -0.481073 0
M  V30 55 H -2.737995 2.215149 4.004627 0
M  V30 56 H -7.290407 -3.029127 1.242684 0
M  V30 57 H -6.452642 -3.710801 2.634062 0
M  V30 58 H -5.751665 -4.067309 1.065641 0
M  V30 59 H -3.289217 -1.959700 -0.578914 0
M  V30 60 H -4.689388 -3.810855 -1.027919 0
M  V30 61 H -6.251133 -2.802999 -0.869013 0
M  V30 62 H -5.200308 -2.673330 -2.268592 0
M  V30 63 H -5.467614 -0.637200 -2.112363 0
M  V30 64 H -3.761018 -0.230588 -1.957212 0
M  V30 65 H -5.018251 0.407263 -0.769055 0
M  V30 66 H -2.793349 0.566182 0.073725 0
M  V30 67 H -0.048063 5.035687 2.962172 0
M  V30 68 H 2.782466 3.401168 -0.342444 0
M  V30 69 H 2.297303 -4.285928 -0.953672 0
M  V30 70 H 3.287254 -3.819818 -2.357819 0
M  V30 71 H 4.380157 -4.548168 0.018279 0
M  V30 72 H 5.156377 -3.282421 -0.933499 0
M  V30 END ATOM
M  V30 BEGIN BOND
M  V30 1 1 1 2
M  V30 2 1 2 3
M  V30 3 1 3 4
M  V30 4 1 4 5
M  V30 5 1 5 6
M  V30 6 1 6 7
M  V30 7 1 7 8
M  V30 8 1 7 9
M  V30 9 2 9 10
M  V30 10 1 10 11
M  V30 11 2 11 12
M  V30 12 1 12 13
M  V30 13 1 13 14
M  V30 14 2 14 15
M  V30 15 1 15 16
M  V30 16 1 16 17
M  V30 17 2 17 18
M  V30 18 1 18 19
M  V30 19 1 19 20
M  V30 20 2 19 21
M  V30 21 1 21 22
M  V30 22 2 22 23
M  V30 23 1 23 24
M  V30 24 1 23 25
M  V30 25 1 25 26
M  V30 26 1 26 27
M  V30 27 1 26 28
M  V30 28 1 25 29
M  V30 29 2 29 30
M  V30 30 2 16 31
M  V30 31 1 31 32
M  V30 32 2 32 33
M  V30 33 1 12 34
M  V30 34 2 34 35
M  V30 35 1 6 36
M  V30 36 1 36 37
M  V30 37 1 37 3
M  V30 38 1 35 9
M  V30 39 1 33 14
M  V30 40 1 30 17
M  V30 41 1 29 21
M  V30 42 1 1 38
M  V30 43 1 1 39
M  V30 44 1 1 40
M  V30 45 1 2 41
M  V30 46 1 2 42
M  V30 47 1 4 43
M  V30 48 1 4 44
M  V30 49 1 5 45
M  V30 50 1 5 46
M  V30 51 1 6 47
M  V30 52 1 7 48
M  V30 53 1 8 49
M  V30 54 1 8 50
M  V30 55 1 8 51
M  V30 56 1 10 52
M  V30 57 1 13 53
M  V30 58 1 15 54
M  V30 59 1 18 55
M  V30 60 1 24 56
M  V30 61 1 24 57
M  V30 62 1 24 58
M  V30 63 1 26 59
M  V30 64 1 27 60
M  V30 65 1 27 61
M  V30 66 1 27 62
M  V30 67 1 28 63
M  V30 68 1 28 64
M  V30 69 1 28 65
M  V30 70 1 30 66
M  V30 71 1 32 67
M  V30 72 1 34 68
M  V30 73 1 36 69
M  V30 74 1 36 70
M  V30 75 1 37 71
M  V30 76 1 37 72
M  V30 END BOND
M  V30 END CTAB
M  END
>  <Dataset>  (9) 
ChEMBL_Kinases

>  <Ligand_Instance>  (9) 
nan

>  <PDB_ID>  (9) 
nan

>  <Standardized_SMILES>  (9) 
CCN1CCC(C(C)c2cnc(Nc3cc(-c4cc(F)c5nc(C)n(C(C)C)c5c4)ncn3)cn2)CC1

>  <Name>  (9) 
nan

>  <Pocket>  (9) 
nan

>  <ATP_Site>  (9) 
nan

>  <Peripheral>  (9) 
nan

>  <Num_H_Atoms_ProtBoundConf>  (9) 
nan

>  <Num_Resolved_Atoms>  (9) 
nan

>  <Num_Not_Resolved_Atoms>  (9) 
nan

$$$$
CHEMBL4203904
     RDKit          3D

  0  0  0  0  0  0  0  0  0  0999 V3000
M  V30 BEGIN CTAB
M  V30 COUNTS 54 59 0 0 0
M  V30 BEGIN ATOM
M  V30 1 F 5.413014 -5.361558 0.276359 0
M  V30 2 C 4.375902 -4.685125 0.883372 0
M  V30 3 C 3.859525 -5.419155 1.922655 0
M  V30 4 C 2.793780 -4.853904 2.634207 0
M  V30 5 C 2.242262 -3.598972 2.338924 0
M  V30 6 C 2.851529 -2.966435 1.276408 0
M  V30 7 N 2.389782 -1.663080 0.854570 0
M  V30 8 C 2.904319 -0.435130 0.992073 0
M  V30 9 N 2.013579 0.352279 0.375611 0
M  V30 10 C 0.963600 -0.461154 -0.125319 0
M  V30 11 C 0.280470 0.518061 -0.653682 0
M  V30 12 N -0.448746 1.562948 -1.217663 0
M  V30 13 C 0.215640 2.803373 -0.807733 0
M  V30 14 C -0.089363 2.986785 0.650848 0
M  V30 15 N 0.429471 2.640362 1.830462 0
M  V30 16 C -0.357624 3.112710 2.824981 0
M  V30 17 C -0.279032 3.027012 4.213539 0
M  V30 18 F 0.756740 2.361025 4.727430 0
M  V30 19 C -1.243533 3.600095 5.006432 0
M  V30 20 F -1.194611 3.514112 6.365410 0
M  V30 21 C -2.323868 4.284395 4.459438 0
M  V30 22 C -2.386809 4.364978 3.077139 0
M  V30 23 C -1.429895 3.792180 2.262667 0
M  V30 24 N -1.213209 3.682126 0.928329 0
M  V30 25 N -0.732072 -0.340883 -1.137805 0
M  V30 26 C -0.782123 -1.677300 -0.993553 0
M  V30 27 N -1.864581 -2.528716 -1.515219 0
M  V30 28 C -1.887668 -3.911088 -1.177387 0
M  V30 29 C -2.894403 -4.710999 -1.917421 0
M  V30 30 S -3.202626 -4.117758 -3.610189 0
M  V30 31 C -2.719638 -2.363563 -3.744401 0
M  V30 32 C -2.805293 -1.768661 -2.350665 0
M  V30 33 N 0.182227 -2.358462 -0.338100 0
M  V30 34 C 1.229563 -1.732497 0.194239 0
M  V30 35 C 3.890457 -3.449199 0.533935 0
M  V30 36 H 4.092392 -6.380439 2.344432 0
M  V30 37 H 2.280663 -5.325513 3.487263 0
M  V30 38 H 1.441564 -3.165990 2.872319 0
M  V30 39 H 3.845534 -0.240222 1.507201 0
M  V30 40 H -1.221683 1.871436 -1.775094 0
M  V30 41 H 1.321267 2.700947 -0.890335 0
M  V30 42 H -0.114813 3.655320 -1.383527 0
M  V30 43 H -3.123015 4.763946 5.032629 0
M  V30 44 H -3.212667 4.887881 2.624115 0
M  V30 45 H -1.941080 4.152447 0.320832 0
M  V30 46 H -0.866239 -4.372480 -1.248651 0
M  V30 47 H -2.110237 -3.982204 -0.069607 0
M  V30 48 H -3.860116 -4.749655 -1.344017 0
M  V30 49 H -2.602170 -5.792215 -2.003156 0
M  V30 50 H -1.658033 -2.331678 -4.050893 0
M  V30 51 H -3.365537 -1.789894 -4.411448 0
M  V30 52 H -2.546743 -0.702924 -2.420695 0
M  V30 53 H -3.823773 -1.880384 -1.919144 0
M  V30 54 H 4.418880 -3.040637 -0.303413 0
M  V30 END ATOM
M  V30 BEGIN BOND
M  V30 1 1 1 2
M  V30 2 2 2 3
M  V30 3 1 3 4
M  V30 4 2 4 5
M  V30 5 1 5 6
M  V30 6 1 6 7
M  V30 7 1 7 8
M  V30 8 2 8 9
M  V30 9 1 9 10
M  V30 10 2 10 11
M  V30 11 1 11 12
M  V30 12 1 12 13
M  V30 13 1 13 14
M  V30 14 2 14 15
M  V30 15 1 15 16
M  V30 16 2 16 17
M  V30 17 1 17 18
M  V30 18 1 17 19
M  V30 19 1 19 20
M  V30 20 2 19 21
M  V30 21 1 21 22
M  V30 22 2 22 23
M  V30 23 1 23 24
M  V30 24 1 11 25
M  V30 25 2 25 26
M  V30 26 1 26 27
M  V30 27 1 27 28
M  V30 28 1 28 29
M  V30 29 1 29 30
M  V30 30 1 30 31
M  V30 31 1 31 32
M  V30 32 1 26 33
M  V30 33 2 33 34
M  V30 34 2 6 35
M  V30 35 1 35 2
M  V30 36 1 34 7
M  V30 37 1 34 10
M  V30 38 1 24 14
M  V30 39 1 32 27
M  V30 40 1 23 16
M  V30 41 1 3 36
M  V30 42 1 4 37
M  V30 43 1 5 38
M  V30 44 1 8 39
M  V30 45 1 12 40
M  V30 46 1 13 41
M  V30 47 1 13 42
M  V30 48 1 21 43
M  V30 49 1 22 44
M  V30 50 1 24 45
M  V30 51 1 28 46
M  V30 52 1 28 47
M  V30 53 1 29 48
M  V30 54 1 29 49
M  V30 55 1 31 50
M  V30 56 1 31 51
M  V30 57 1 32 52
M  V30 58 1 32 53
M  V30 59 1 35 54
M  V30 END BOND
M  V30 END CTAB
M  END
>  <Dataset>  (10) 
ChEMBL_Kinases

>  <Ligand_Instance>  (10) 
nan

>  <PDB_ID>  (10) 
nan

>  <Standardized_SMILES>  (10) 
Fc1cccc(-n2cnc3c(NCc4nc5c(F)c(F)ccc5[nH]4)nc(N4CCSCC4)nc32)c1

>  <Name>  (10) 
nan

>  <Pocket>  (10) 
nan

>  <ATP_Site>  (10) 
nan

>  <Peripheral>  (10) 
nan

>  <Num_H_Atoms_ProtBoundConf>  (10) 
nan

>  <Num_Resolved_Atoms>  (10) 
nan

>  <Num_Not_Resolved_Atoms>  (10) 
nan

$$$$
CHEMBL3675410
     RDKit          3D

  0  0  0  0  0  0  0  0  0  0999 V3000
M  V30 BEGIN CTAB
M  V30 COUNTS 74 78 0 0 0
M  V30 BEGIN ATOM
M  V30 1 C 3.874755 -4.236024 4.334919 0
M  V30 2 N 2.633326 -4.410793 3.609975 0
M  V30 3 C 2.101224 -5.751110 3.749411 0
M  V30 4 C 2.727557 -3.992391 2.241060 0
M  V30 5 C 2.890581 -2.491517 2.195962 0
M  V30 6 N 2.995242 -1.965444 0.837123 0
M  V30 7 C 3.141054 -0.564995 0.638968 0
M  V30 8 N 3.178974 0.249527 1.701268 0
M  V30 9 C 3.314178 1.572660 1.528988 0
M  V30 10 N 3.418555 2.159616 0.314113 0
M  V30 11 C 3.380543 1.333867 -0.766105 0
M  V30 12 C 3.480282 1.873443 -2.025730 0
M  V30 13 C 3.621517 3.307880 -2.077208 0
M  V30 14 N 3.735620 4.020477 -3.281818 0
M  V30 15 O 3.704525 4.386573 -1.489919 0
M  V30 16 C 3.456042 1.170414 -3.196627 0
M  V30 17 C 3.314956 -0.204345 -3.001406 0
M  V30 18 C 3.210437 -0.792890 -1.749066 0
M  V30 19 C 3.243088 -0.018269 -0.615343 0
M  V30 20 C 1.705827 -1.905179 2.895782 0
M  V30 21 C 1.665214 -1.412622 4.199349 0
M  V30 22 C 0.486721 -0.908110 4.672367 0
M  V30 23 C -0.696209 -0.845757 3.945066 0
M  V30 24 C -0.667287 -1.324189 2.671266 0
M  V30 25 N -1.797792 -1.312238 1.837818 0
M  V30 26 C -2.870427 -2.200855 1.567519 0
M  V30 27 O -2.927885 -3.284451 2.152576 0
M  V30 28 C -3.897275 -1.829277 0.601214 0
M  V30 29 C -4.892145 -2.768255 0.414479 0
M  V30 30 C -5.892606 -2.443454 -0.506583 0
M  V30 31 N -5.915267 -1.288752 -1.190619 0
M  V30 32 C -4.937750 -0.351335 -1.015610 0
M  V30 33 N -4.981913 0.866270 -1.756774 0
M  V30 34 C -4.051790 1.974568 -1.652783 0
M  V30 35 C -3.360186 2.231807 -2.978925 0
M  V30 36 C -4.074496 1.490859 -4.097592 0
M  V30 37 C -5.542208 1.796103 -3.903620 0
M  V30 38 C -6.043062 1.051883 -2.720682 0
M  V30 39 C -3.955475 -0.674952 -0.108433 0
M  V30 40 C 0.521456 -1.846730 2.156662 0
M  V30 41 H 4.658102 -3.842445 3.647340 0
M  V30 42 H 4.202132 -5.194221 4.808835 0
M  V30 43 H 3.768517 -3.508965 5.161112 0
M  V30 44 H 2.897654 -6.419088 4.087068 0
M  V30 45 H 1.263064 -5.742807 4.481004 0
M  V30 46 H 1.746536 -6.058961 2.748457 0
M  V30 47 H 1.807853 -4.328638 1.719937 0
M  V30 48 H 3.640506 -4.480567 1.803369 0
M  V30 49 H 3.800617 -2.224180 2.757214 0
M  V30 50 H 2.950000 -2.707752 0.110212 0
M  V30 51 H 3.335636 2.161476 2.454015 0
M  V30 52 H 3.849759 4.106347 -4.301554 0
M  V30 53 H 3.817663 4.558610 -4.155222 0
M  V30 54 H 3.532659 1.573811 -4.185907 0
M  V30 55 H 3.283772 -0.860410 -3.861008 0
M  V30 56 H 3.104140 -1.851771 -1.685968 0
M  V30 57 H 2.581634 -1.473271 4.729040 0
M  V30 58 H 0.497489 -0.529993 5.703193 0
M  V30 59 H -1.583480 -0.433698 4.390793 0
M  V30 60 H -1.670813 -0.377524 1.390154 0
M  V30 61 H -4.961770 -3.742353 0.925164 0
M  V30 62 H -6.719501 -3.106950 -0.728949 0
M  V30 63 H -4.605005 2.862108 -1.285826 0
M  V30 64 H -3.251512 1.768690 -0.920510 0
M  V30 65 H -2.296061 1.981065 -2.976700 0
M  V30 66 H -3.459484 3.313108 -3.191618 0
M  V30 67 H -3.952221 0.413992 -3.864214 0
M  V30 68 H -3.667229 1.809917 -5.065247 0
M  V30 69 H -6.126375 1.625350 -4.830031 0
M  V30 70 H -5.579868 2.900414 -3.670345 0
M  V30 71 H -6.943947 1.518999 -2.258685 0
M  V30 72 H -6.332727 0.017334 -3.071574 0
M  V30 73 H -3.159948 0.020747 0.074177 0
M  V30 74 H 0.510517 -2.225592 1.122697 0
M  V30 END ATOM
M  V30 BEGIN BOND
M  V30 1 1 1 2
M  V30 2 1 2 3
M  V30 3 1 2 4
M  V30 4 1 4 5
M  V30 5 1 5 6
M  V30 6 1 6 7
M  V30 7 2 7 8
M  V30 8 1 8 9
M  V30 9 2 9 10
M  V30 10 1 10 11
M  V30 11 2 11 12
M  V30 12 1 12 13
M  V30 13 1 13 14
M  V30 14 2 13 15
M  V30 15 1 12 16
M  V30 16 2 16 17
M  V30 17 1 17 18
M  V30 18 2 18 19
M  V30 19 1 5 20
M  V30 20 2 20 21
M  V30 21 1 21 22
M  V30 22 2 22 23
M  V30 23 1 23 24
M  V30 24 1 24 25
M  V30 25 1 25 26
M  V30 26 2 26 27
M  V30 27 1 26 28
M  V30 28 2 28 29
M  V30 29 1 29 30
M  V30 30 2 30 31
M  V30 31 1 31 32
M  V30 32 1 32 33
M  V30 33 1 33 34
M  V30 34 1 34 35
M  V30 35 1 35 36
M  V30 36 1 36 37
M  V30 37 1 37 38
M  V30 38 2 32 39
M  V30 39 2 24 40
M  V30 40 1 19 7
M  V30 41 1 40 20
M  V30 42 1 19 11
M  V30 43 1 39 28
M  V30 44 1 38 33
M  V30 45 1 1 41
M  V30 46 1 1 42
M  V30 47 1 1 43
M  V30 48 1 3 44
M  V30 49 1 3 45
M  V30 50 1 3 46
M  V30 51 1 4 47
M  V30 52 1 4 48
M  V30 53 1 5 49
M  V30 54 1 6 50
M  V30 55 1 9 51
M  V30 56 1 14 52
M  V30 57 1 14 53
M  V30 58 1 16 54
M  V30 59 1 17 55
M  V30 60 1 18 56
M  V30 61 1 21 57
M  V30 62 1 22 58
M  V30 63 1 23 59
M  V30 64 1 25 60
M  V30 65 1 29 61
M  V30 66 1 30 62
M  V30 67 1 34 63
M  V30 68 1 34 64
M  V30 69 1 35 65
M  V30 70 1 35 66
M  V30 71 1 36 67
M  V30 72 1 36 68
M  V30 73 1 37 69
M  V30 74 1 37 70
M  V30 75 1 38 71
M  V30 76 1 38 72
M  V30 77 1 39 73
M  V30 78 1 40 74
M  V30 END BOND
M  V30 END CTAB
M  END
>  <Dataset>  (11) 
ChEMBL_Kinases

>  <Ligand_Instance>  (11) 
nan

>  <PDB_ID>  (11) 
nan

>  <Standardized_SMILES>  (11) 
CN(C)CC(Nc1ncnc2c(C(N)=O)cccc12)c1cccc(NC(=O)c2ccnc(N3CCCCC3)c2)c1

>  <Name>  (11) 
nan

>  <Pocket>  (11) 
nan

>  <ATP_Site>  (11) 
nan

>  <Peripheral>  (11) 
nan

>  <Num_H_Atoms_ProtBoundConf>  (11) 
nan

>  <Num_Resolved_Atoms>  (11) 
nan

>  <Num_Not_Resolved_Atoms>  (11) 
nan

$$$$
CHEMBL3675412
     RDKit          3D

  0  0  0  0  0  0  0  0  0  0999 V3000
M  V30 BEGIN CTAB
M  V30 COUNTS 57 60 0 0 0
M  V30 BEGIN ATOM
M  V30 1 C 3.272613 -1.833299 2.624112 0
M  V30 2 N 2.388851 -2.796169 3.240261 0
M  V30 3 C 1.213083 -3.026427 2.447155 0
M  V30 4 C 0.278784 -1.828850 2.400533 0
M  V30 5 N 0.853612 -0.670385 1.852557 0
M  V30 6 C 1.431826 0.494765 1.301231 0
M  V30 7 N 1.956847 0.718741 0.088023 0
M  V30 8 C 2.476789 1.889024 -0.284687 0
M  V30 9 N 2.465715 2.875043 0.606659 0
M  V30 10 C 1.969635 2.756485 1.833763 0
M  V30 11 C 2.038267 3.879115 2.627189 0
M  V30 12 C 2.604975 5.153078 2.218997 0
M  V30 13 N 3.116456 5.202494 0.908242 0
M  V30 14 O 2.651386 6.163199 2.962702 0
M  V30 15 C 1.533333 3.798471 3.906944 0
M  V30 16 C 0.988433 2.610093 4.329950 0
M  V30 17 C 0.941248 1.498761 3.489506 0
M  V30 18 C 1.437704 1.545073 2.202558 0
M  V30 19 C -1.063887 -2.217088 1.824316 0
M  V30 20 C -2.111350 -2.638976 2.655079 0
M  V30 21 C -3.306754 -2.974347 2.055305 0
M  V30 22 C -3.537030 -2.921654 0.697032 0
M  V30 23 C -2.501957 -2.502062 -0.151871 0
M  V30 24 N -2.704072 -2.435734 -1.551753 0
M  V30 25 C -2.428059 -3.527579 -2.435129 0
M  V30 26 O -1.999499 -4.484335 -1.749900 0
M  V30 27 C -2.692444 -3.293063 -3.847002 0
M  V30 28 C -3.204082 -2.149739 -4.415569 0
M  V30 29 C -3.374021 -2.132558 -5.770092 0
M  V30 30 C -3.062200 -3.193281 -6.592332 0
M  V30 31 C -2.541843 -4.367878 -6.050217 0
M  V30 32 C -2.377609 -4.359667 -4.663039 0
M  V30 33 C -1.319832 -2.173526 0.473623 0
M  V30 34 H 3.217106 -0.836683 3.123686 0
M  V30 35 H 4.318117 -2.184131 2.866209 0
M  V30 36 H 3.187225 -1.790911 1.523286 0
M  V30 37 H 2.075278 -2.359694 4.160806 0
M  V30 38 H 1.543516 -3.214794 1.388235 0
M  V30 39 H 0.682824 -3.935546 2.798502 0
M  V30 40 H 0.064656 -1.668992 3.531533 0
M  V30 41 H 0.935590 -1.289155 0.982422 0
M  V30 42 H 2.865648 1.912686 -1.304553 0
M  V30 43 H 3.647978 5.197245 0.019302 0
M  V30 44 H 2.229051 5.451397 0.386867 0
M  V30 45 H 1.594696 4.692010 4.521880 0
M  V30 46 H 0.584738 2.529658 5.340197 0
M  V30 47 H 0.510315 0.603942 3.861140 0
M  V30 48 H -1.890951 -2.664652 3.699110 0
M  V30 49 H -4.073208 -3.292969 2.763929 0
M  V30 50 H -4.506513 -3.203827 0.310585 0
M  V30 51 H -3.070533 -1.486026 -1.779997 0
M  V30 52 H -3.438275 -1.341924 -3.760349 0
M  V30 53 H -3.787385 -1.182135 -6.141675 0
M  V30 54 H -3.217439 -3.121954 -7.653166 0
M  V30 55 H -2.283646 -5.223004 -6.657065 0
M  V30 56 H -1.964568 -5.305712 -4.282796 0
M  V30 57 H -0.557123 -1.856301 -0.241140 0
M  V30 END ATOM
M  V30 BEGIN BOND
M  V30 1 1 1 2
M  V30 2 1 2 3
M  V30 3 1 3 4
M  V30 4 1 4 5
M  V30 5 1 5 6
M  V30 6 2 6 7
M  V30 7 1 7 8
M  V30 8 2 8 9
M  V30 9 1 9 10
M  V30 10 2 10 11
M  V30 11 1 11 12
M  V30 12 1 12 13
M  V30 13 2 12 14
M  V30 14 1 11 15
M  V30 15 2 15 16
M  V30 16 1 16 17
M  V30 17 2 17 18
M  V30 18 1 4 19
M  V30 19 2 19 20
M  V30 20 1 20 21
M  V30 21 2 21 22
M  V30 22 1 22 23
M  V30 23 1 23 24
M  V30 24 1 24 25
M  V30 25 2 25 26
M  V30 26 1 25 27
M  V30 27 2 27 28
M  V30 28 1 28 29
M  V30 29 2 29 30
M  V30 30 1 30 31
M  V30 31 2 31 32
M  V30 32 2 23 33
M  V30 33 1 18 6
M  V30 34 1 33 19
M  V30 35 1 18 10
M  V30 36 1 32 27
M  V30 37 1 1 34
M  V30 38 1 1 35
M  V30 39 1 1 36
M  V30 40 1 2 37
M  V30 41 1 3 38
M  V30 42 1 3 39
M  V30 43 1 4 40
M  V30 44 1 5 41
M  V30 45 1 8 42
M  V30 46 1 13 43
M  V30 47 1 13 44
M  V30 48 1 15 45
M  V30 49 1 16 46
M  V30 50 1 17 47
M  V30 51 1 20 48
M  V30 52 1 21 49
M  V30 53 1 22 50
M  V30 54 1 24 51
M  V30 55 1 28 52
M  V30 56 1 29 53
M  V30 57 1 30 54
M  V30 58 1 31 55
M  V30 59 1 32 56
M  V30 60 1 33 57
M  V30 END BOND
M  V30 END CTAB
M  END
>  <Dataset>  (12) 
ChEMBL_Kinases

>  <Ligand_Instance>  (12) 
nan

>  <PDB_ID>  (12) 
nan

>  <Standardized_SMILES>  (12) 
CNCC(Nc1ncnc2c(C(N)=O)cccc12)c1cccc(NC(=O)c2ccccc2)c1

>  <Name>  (12) 
nan

>  <Pocket>  (12) 
nan

>  <ATP_Site>  (12) 
nan

>  <Peripheral>  (12) 
nan

>  <Num_H_Atoms_ProtBoundConf>  (12) 
nan

>  <Num_Resolved_Atoms>  (12) 
nan

>  <Num_Not_Resolved_Atoms>  (12) 
nan

$$$$
CHEMBL3675458
     RDKit          3D

  0  0  0  0  0  0  0  0  0  0999 V3000
M  V30 BEGIN CTAB
M  V30 COUNTS 60 63 0 0 0
M  V30 BEGIN ATOM
M  V30 1 C 6.881098 -1.424209 -1.741534 0
M  V30 2 N 5.471201 -1.120713 -1.498810 0
M  V30 3 C 4.566484 -2.220792 -1.362684 0
M  V30 4 C 4.830698 -3.010832 -0.071717 0
M  V30 5 O 3.955705 -4.080570 0.068611 0
M  V30 6 C 5.100197 0.248741 -1.414516 0
M  V30 7 C 3.815211 0.651892 -1.194509 0
M  V30 8 C 3.439885 1.965492 -1.109701 0
M  V30 9 C 2.092453 2.470408 -0.881062 0
M  V30 10 O 1.784812 3.684651 -0.807821 0
M  V30 11 N 1.024060 1.558076 -0.725078 0
M  V30 12 C -0.370036 1.676119 -0.496307 0
M  V30 13 C -1.075744 1.741063 -1.686810 0
M  V30 14 C -2.470634 1.859426 -1.720934 0
M  V30 15 C -3.105512 1.908114 -0.505340 0
M  V30 16 C -2.443123 1.846353 0.697394 0
M  V30 17 C -2.996709 1.869224 2.076043 0
M  V30 18 N -3.141981 0.496985 2.521533 0
M  V30 19 C -3.951600 -0.517435 1.955112 0
M  V30 20 N -4.722707 -0.324728 0.887505 0
M  V30 21 C -5.497345 -1.246435 0.322727 0
M  V30 22 N -5.524645 -2.482394 0.851275 0
M  V30 23 C -4.772849 -2.776214 1.940680 0
M  V30 24 C -4.801228 -4.041431 2.481595 0
M  V30 25 C -5.644120 -5.055185 1.866431 0
M  V30 26 N -5.772956 -6.390657 2.321008 0
M  V30 27 O -6.317810 -4.713839 0.840307 0
M  V30 28 C -4.051639 -4.389829 3.593473 0
M  V30 29 C -3.251477 -3.401656 4.160521 0
M  V30 30 C -3.250070 -2.148565 3.591125 0
M  V30 31 C -3.988430 -1.786182 2.486590 0
M  V30 32 C -1.068578 1.730090 0.711912 0
M  V30 33 C 4.414587 2.953377 -1.254434 0
M  V30 34 C 5.710278 2.539191 -1.476356 0
M  V30 35 N 6.006694 1.229967 -1.547892 0
M  V30 36 H 7.292440 -0.777277 -2.547349 0
M  V30 37 H 7.481197 -1.334361 -0.819207 0
M  V30 38 H 6.964822 -2.469069 -2.098379 0
M  V30 39 H 4.728714 -2.998516 -2.169715 0
M  V30 40 H 3.494983 -1.971208 -1.462897 0
M  V30 41 H 5.869489 -3.401180 -0.101270 0
M  V30 42 H 4.800911 -2.349548 0.823320 0
M  V30 43 H 3.692544 -4.204113 1.017856 0
M  V30 44 H 3.023227 -0.043195 -1.073958 0
M  V30 45 H 1.104469 0.519661 -0.758206 0
M  V30 46 H -0.641818 1.708714 -2.696215 0
M  V30 47 H -3.048854 1.911930 -2.618466 0
M  V30 48 H -4.170164 2.009262 -0.438206 0
M  V30 49 H -2.423021 2.512498 2.749646 0
M  V30 50 H -4.019132 2.312013 2.019542 0
M  V30 51 H -2.554565 0.336524 3.343554 0
M  V30 52 H -6.048673 -0.888189 -0.540300 0
M  V30 53 H -4.847335 -6.885773 2.178309 0
M  V30 54 H -6.483867 -7.035071 2.748020 0
M  V30 55 H -4.131895 -5.410384 3.956593 0
M  V30 56 H -2.688604 -3.699341 5.012807 0
M  V30 57 H -2.610455 -1.461735 4.090127 0
M  V30 58 H -0.405843 1.670893 1.567145 0
M  V30 59 H 4.212880 4.013308 -1.203110 0
M  V30 60 H 6.491053 3.291687 -1.593108 0
M  V30 END ATOM
M  V30 BEGIN BOND
M  V30 1 1 1 2
M  V30 2 1 2 3
M  V30 3 1 3 4
M  V30 4 1 4 5
M  V30 5 1 2 6
M  V30 6 2 6 7
M  V30 7 1 7 8
M  V30 8 1 8 9
M  V30 9 2 9 10
M  V30 10 1 9 11
M  V30 11 1 11 12
M  V30 12 2 12 13
M  V30 13 1 13 14
M  V30 14 2 14 15
M  V30 15 1 15 16
M  V30 16 1 16 17
M  V30 17 1 17 18
M  V30 18 1 18 19
M  V30 19 2 19 20
M  V30 20 1 20 21
M  V30 21 2 21 22
M  V30 22 1 22 23
M  V30 23 2 23 24
M  V30 24 1 24 25
M  V30 25 1 25 26
M  V30 26 2 25 27
M  V30 27 1 24 28
M  V30 28 2 28 29
M  V30 29 1 29 30
M  V30 30 2 30 31
M  V30 31 2 16 32
M  V30 32 2 8 33
M  V30 33 1 33 34
M  V30 34 2 34 35
M  V30 35 1 35 6
M  V30 36 1 32 12
M  V30 37 1 31 19
M  V30 38 1 31 23
M  V30 39 1 1 36
M  V30 40 1 1 37
M  V30 41 1 1 38
M  V30 42 1 3 39
M  V30 43 1 3 40
M  V30 44 1 4 41
M  V30 45 1 4 42
M  V30 46 1 5 43
M  V30 47 1 7 44
M  V30 48 1 11 45
M  V30 49 1 13 46
M  V30 50 1 14 47
M  V30 51 1 15 48
M  V30 52 1 17 49
M  V30 53 1 17 50
M  V30 54 1 18 51
M  V30 55 1 21 52
M  V30 56 1 26 53
M  V30 57 1 26 54
M  V30 58 1 28 55
M  V30 59 1 29 56
M  V30 60 1 30 57
M  V30 61 1 32 58
M  V30 62 1 33 59
M  V30 63 1 34 60
M  V30 END BOND
M  V30 END CTAB
M  END
>  <Dataset>  (13) 
ChEMBL_Kinases

>  <Ligand_Instance>  (13) 
nan

>  <PDB_ID>  (13) 
nan

>  <Standardized_SMILES>  (13) 
CN(CCO)c1cc(C(=O)Nc2cccc(CNc3ncnc4c(C(N)=O)cccc34)c2)ccn1

>  <Name>  (13) 
nan

>  <Pocket>  (13) 
nan

>  <ATP_Site>  (13) 
nan

>  <Peripheral>  (13) 
nan

>  <Num_H_Atoms_ProtBoundConf>  (13) 
nan

>  <Num_Resolved_Atoms>  (13) 
nan

>  <Num_Not_Resolved_Atoms>  (13) 
nan

$$$$
CHEMBL4209496
     RDKit          3D

  0  0  0  0  0  0  0  0  0  0999 V3000
M  V30 BEGIN CTAB
M  V30 COUNTS 54 58 0 0 0
M  V30 BEGIN ATOM
M  V30 1 C 3.363171 2.509470 3.053203 0
M  V30 2 N 4.016034 1.247408 3.343789 0
M  V30 3 C 5.298008 1.120167 2.797171 0
M  V30 4 C 5.661543 -0.170441 2.132676 0
M  V30 5 N 4.416505 -0.703268 1.575424 0
M  V30 6 C 4.200521 -0.818345 0.161201 0
M  V30 7 O 5.204188 -0.406218 -0.478862 0
M  V30 8 C 2.925209 -1.362738 -0.245036 0
M  V30 9 C 1.821242 -0.600406 0.082132 0
M  V30 10 C 0.573035 -1.067135 -0.279683 0
M  V30 11 C 0.372192 -2.254208 -0.950539 0
M  V30 12 C -0.929295 -2.779712 -1.350680 0
M  V30 13 C -2.125154 -2.139581 -1.100777 0
M  V30 14 N -3.328961 -2.617863 -1.467230 0
M  V30 15 C -4.584878 -2.108663 -1.295726 0
M  V30 16 C -5.011258 -0.889615 -0.660682 0
M  V30 17 C -4.538392 -0.469308 0.543333 0
M  V30 18 C -4.895373 0.693431 1.226173 0
M  V30 19 C -5.842862 1.508123 0.596116 0
M  V30 20 O -6.244871 2.682197 1.220427 0
M  V30 21 C -6.357489 1.126096 -0.633467 0
M  V30 22 C -5.953698 -0.042923 -1.248578 0
M  V30 23 C -5.421875 -3.049434 -1.886893 0
M  V30 24 N -4.690308 -4.085300 -2.393841 0
M  V30 25 C -3.386079 -3.796849 -2.121365 0
M  V30 26 C -2.208915 -4.466509 -2.388818 0
M  V30 27 N -1.014956 -3.971238 -2.013994 0
M  V30 28 C 1.503532 -2.980415 -1.255875 0
M  V30 29 C 2.780558 -2.574365 -0.924829 0
M  V30 30 C 3.488532 -1.075447 2.653095 0
M  V30 31 C 3.160770 0.136963 3.460429 0
M  V30 32 H 4.043303 3.184349 2.517725 0
M  V30 33 H 2.428664 2.275108 2.473024 0
M  V30 34 H 3.036734 3.041265 3.982544 0
M  V30 35 H 6.056776 1.294603 3.614231 0
M  V30 36 H 5.489337 1.929063 2.064011 0
M  V30 37 H 6.021008 -0.882571 2.925144 0
M  V30 38 H 6.435057 -0.012161 1.354324 0
M  V30 39 H 1.903343 0.339501 0.606049 0
M  V30 40 H -0.294600 -0.475178 -0.026263 0
M  V30 41 H -2.113054 -1.192809 -0.581014 0
M  V30 42 H -3.803130 -1.044500 1.098601 0
M  V30 43 H -4.501148 0.985899 2.166081 0
M  V30 44 H -5.863944 3.553992 0.873525 0
M  V30 45 H -7.077128 1.808779 -1.043541 0
M  V30 46 H -6.385999 -0.306791 -2.218607 0
M  V30 47 H -6.517630 -3.019947 -1.966203 0
M  V30 48 H -2.188313 -5.419246 -2.911382 0
M  V30 49 H 1.409921 -3.919800 -1.781686 0
M  V30 50 H 3.675956 -3.128583 -1.154772 0
M  V30 51 H 4.058941 -1.796607 3.278730 0
M  V30 52 H 2.610004 -1.623992 2.281819 0
M  V30 53 H 3.078674 -0.170962 4.530565 0
M  V30 54 H 2.137512 0.463261 3.177497 0
M  V30 END ATOM
M  V30 BEGIN BOND
M  V30 1 1 1 2
M  V30 2 1 2 3
M  V30 3 1 3 4
M  V30 4 1 4 5
M  V30 5 1 5 6
M  V30 6 2 6 7
M  V30 7 1 6 8
M  V30 8 2 8 9
M  V30 9 1 9 10
M  V30 10 2 10 11
M  V30 11 1 11 12
M  V30 12 2 12 13
M  V30 13 1 13 14
M  V30 14 1 14 15
M  V30 15 1 15 16
M  V30 16 2 16 17
M  V30 17 1 17 18
M  V30 18 2 18 19
M  V30 19 1 19 20
M  V30 20 1 19 21
M  V30 21 2 21 22
M  V30 22 2 15 23
M  V30 23 1 23 24
M  V30 24 2 24 25
M  V30 25 1 25 26
M  V30 26 2 26 27
M  V30 27 1 11 28
M  V30 28 2 28 29
M  V30 29 1 5 30
M  V30 30 1 30 31
M  V30 31 1 31 2
M  V30 32 1 29 8
M  V30 33 1 27 12
M  V30 34 1 25 14
M  V30 35 1 22 16
M  V30 36 1 1 32
M  V30 37 1 1 33
M  V30 38 1 1 34
M  V30 39 1 3 35
M  V30 40 1 3 36
M  V30 41 1 4 37
M  V30 42 1 4 38
M  V30 43 1 9 39
M  V30 44 1 10 40
M  V30 45 1 13 41
M  V30 46 1 17 42
M  V30 47 1 18 43
M  V30 48 1 20 44
M  V30 49 1 21 45
M  V30 50 1 22 46
M  V30 51 1 23 47
M  V30 52 1 26 48
M  V30 53 1 28 49
M  V30 54 1 29 50
M  V30 55 1 30 51
M  V30 56 1 30 52
M  V30 57 1 31 53
M  V30 58 1 31 54
M  V30 END BOND
M  V30 END CTAB
M  END
>  <Dataset>  (14) 
ChEMBL_Kinases

>  <Ligand_Instance>  (14) 
nan

>  <PDB_ID>  (14) 
nan

>  <Standardized_SMILES>  (14) 
CN1CCN(C(=O)c2ccc(-c3cn4c(-c5ccc(O)cc5)cnc4cn3)cc2)CC1

>  <Name>  (14) 
nan

>  <Pocket>  (14) 
nan

>  <ATP_Site>  (14) 
nan

>  <Peripheral>  (14) 
nan

>  <Num_H_Atoms_ProtBoundConf>  (14) 
nan

>  <Num_Resolved_Atoms>  (14) 
nan

>  <Num_Not_Resolved_Atoms>  (14) 
nan

$$$$
CHEMBL4209329
     RDKit          3D

  0  0  0  0  0  0  0  0  0  0999 V3000
M  V30 BEGIN CTAB
M  V30 COUNTS 64 69 0 0 0
M  V30 BEGIN ATOM
M  V30 1 C 2.802532 1.109912 3.576167 0
M  V30 2 C 3.377763 -0.042490 2.801351 0
M  V30 3 C 2.561024 -1.308174 3.054022 0
M  V30 4 C 4.823506 -0.330123 3.125058 0
M  V30 5 C 5.288232 -1.011913 1.829348 0
M  V30 6 C 4.515279 -0.274054 0.793793 0
M  V30 7 N 4.555503 0.016281 -0.517842 0
M  V30 8 C 3.455987 0.768759 -0.754102 0
M  V30 9 C 3.081220 1.291731 -1.961432 0
M  V30 10 F 3.796940 1.114016 -3.103525 0
M  V30 11 C 1.914100 2.044464 -2.042603 0
M  V30 12 C 1.214276 2.204344 -0.868149 0
M  V30 13 C -0.062650 2.963220 -0.851179 0
M  V30 14 N -1.089548 2.456145 -0.150711 0
M  V30 15 C -2.313088 3.015058 -0.059840 0
M  V30 16 N -3.162234 2.222678 0.766513 0
M  V30 17 C -3.472934 0.935676 0.260372 0
M  V30 18 C -2.982872 0.504864 -0.964858 0
M  V30 19 C -3.229541 -0.748825 -1.501103 0
M  V30 20 C -4.006249 -1.650349 -0.801928 0
M  V30 21 C -4.347109 -3.030572 -1.223630 0
M  V30 22 N -3.438289 -4.020519 -0.737305 0
M  V30 23 C -2.075576 -3.875966 -1.124177 0
M  V30 24 C -1.150936 -4.592391 -0.148029 0
M  V30 25 N -1.726236 -5.855747 0.197902 0
M  V30 26 C -3.012310 -5.731143 0.867663 0
M  V30 27 C -3.631462 -4.364737 0.644155 0
M  V30 28 C -4.487783 -1.187931 0.430074 0
M  V30 29 N -4.231993 0.037322 0.927916 0
M  V30 30 N -2.530767 4.165684 -0.715025 0
M  V30 31 C -1.514429 4.721068 -1.442345 0
M  V30 32 C -0.262730 4.143747 -1.531521 0
M  V30 33 F 0.746368 4.669652 -2.235015 0
M  V30 34 C 1.585649 1.682039 0.348372 0
M  V30 35 C 2.745548 0.933001 0.432553 0
M  V30 36 N 3.436848 0.265262 1.388342 0
M  V30 37 H 1.725688 0.885324 3.743605 0
M  V30 38 H 3.328543 1.155072 4.562811 0
M  V30 39 H 2.956593 2.052148 3.035930 0
M  V30 40 H 1.499918 -1.080103 3.250436 0
M  V30 41 H 2.653502 -1.988987 2.191133 0
M  V30 42 H 2.960580 -1.846614 3.945808 0
M  V30 43 H 5.374683 0.616229 3.216299 0
M  V30 44 H 4.949994 -1.020178 3.984153 0
M  V30 45 H 6.385381 -0.761486 1.748428 0
M  V30 46 H 5.110910 -2.086466 1.838718 0
M  V30 47 H 1.572313 2.480032 -2.966421 0
M  V30 48 H -3.579211 2.471411 1.690205 0
M  V30 49 H -2.373987 1.114130 -1.594105 0
M  V30 50 H -2.850120 -1.071154 -2.446374 0
M  V30 51 H -5.346607 -3.270075 -0.823081 0
M  V30 52 H -4.400374 -3.115520 -2.320281 0
M  V30 53 H -1.943585 -4.426339 -2.100244 0
M  V30 54 H -1.730570 -2.856116 -1.337669 0
M  V30 55 H -0.842985 -3.961912 0.705103 0
M  V30 56 H -0.205105 -4.827841 -0.714207 0
M  V30 57 H -1.035139 -6.369964 0.818050 0
M  V30 58 H -2.824402 -5.920388 1.947164 0
M  V30 59 H -3.655914 -6.549572 0.482330 0
M  V30 60 H -3.179480 -3.651580 1.363992 0
M  V30 61 H -4.712210 -4.448122 0.828083 0
M  V30 62 H -5.105254 -1.802719 1.063448 0
M  V30 63 H -1.733877 5.646173 -1.951976 0
M  V30 64 H 1.039141 1.809251 1.263094 0
M  V30 END ATOM
M  V30 BEGIN BOND
M  V30 1 1 1 2
M  V30 2 1 2 3
M  V30 3 1 2 4
M  V30 4 1 4 5
M  V30 5 1 5 6
M  V30 6 2 6 7
M  V30 7 1 7 8
M  V30 8 2 8 9
M  V30 9 1 9 10
M  V30 10 1 9 11
M  V30 11 2 11 12
M  V30 12 1 12 13
M  V30 13 2 13 14
M  V30 14 1 14 15
M  V30 15 1 15 16
M  V30 16 1 16 17
M  V30 17 2 17 18
M  V30 18 1 18 19
M  V30 19 2 19 20
M  V30 20 1 20 21
M  V30 21 1 21 22
M  V30 22 1 22 23
M  V30 23 1 23 24
M  V30 24 1 24 25
M  V30 25 1 25 26
M  V30 26 1 26 27
M  V30 27 1 20 28
M  V30 28 2 28 29
M  V30 29 2 15 30
M  V30 30 1 30 31
M  V30 31 2 31 32
M  V30 32 1 32 33
M  V30 33 1 12 34
M  V30 34 2 34 35
M  V30 35 1 35 36
M  V30 36 1 36 2
M  V30 37 1 36 6
M  V30 38 1 35 8
M  V30 39 1 32 13
M  V30 40 1 29 17
M  V30 41 1 27 22
M  V30 42 1 1 37
M  V30 43 1 1 38
M  V30 44 1 1 39
M  V30 45 1 3 40
M  V30 46 1 3 41
M  V30 47 1 3 42
M  V30 48 1 4 43
M  V30 49 1 4 44
M  V30 50 1 5 45
M  V30 51 1 5 46
M  V30 52 1 11 47
M  V30 53 1 16 48
M  V30 54 1 18 49
M  V30 55 1 19 50
M  V30 56 1 21 51
M  V30 57 1 21 52
M  V30 58 1 23 53
M  V30 59 1 23 54
M  V30 60 1 24 55
M  V30 61 1 24 56
M  V30 62 1 25 57
M  V30 63 1 26 58
M  V30 64 1 26 59
M  V30 65 1 27 60
M  V30 66 1 27 61
M  V30 67 1 28 62
M  V30 68 1 31 63
M  V30 69 1 34 64
M  V30 END BOND
M  V30 END CTAB
M  END
>  <Dataset>  (15) 
ChEMBL_Kinases

>  <Ligand_Instance>  (15) 
nan

>  <PDB_ID>  (15) 
nan

>  <Standardized_SMILES>  (15) 
CC1(C)CCc2nc3c(F)cc(-c4nc(Nc5ccc(CN6CCNCC6)cn5)ncc4F)cc3n21

>  <Name>  (15) 
nan

>  <Pocket>  (15) 
nan

>  <ATP_Site>  (15) 
nan

>  <Peripheral>  (15) 
nan

>  <Num_H_Atoms_ProtBoundConf>  (15) 
nan

>  <Num_Resolved_Atoms>  (15) 
nan

>  <Num_Not_Resolved_Atoms>  (15) 
nan

$$$$
CHEMBL3675457
     RDKit          3D

  0  0  0  0  0  0  0  0  0  0999 V3000
M  V30 BEGIN CTAB
M  V30 COUNTS 55 58 0 0 0
M  V30 BEGIN ATOM
M  V30 1 C 2.540338 -2.469035 3.912743 0
M  V30 2 C 1.212687 -2.084512 3.318249 0 CFG=1
M  V30 3 N 1.120878 -0.633946 3.183463 0
M  V30 4 C 2.086724 0.015083 2.353807 0
M  V30 5 N 3.039476 -0.689269 1.723244 0
M  V30 6 C 3.958135 -0.128278 0.940825 0
M  V30 7 N 3.980481 1.220469 0.733948 0
M  V30 8 C 3.055425 2.005819 1.331896 0
M  V30 9 C 3.029937 3.382408 1.157888 0
M  V30 10 C 4.042201 3.973679 0.299422 0
M  V30 11 N 5.035909 3.201691 -0.353993 0
M  V30 12 O 4.063152 5.233950 0.106868 0
M  V30 13 C 2.097536 4.174683 1.760571 0
M  V30 14 C 1.164356 3.538834 2.564625 0
M  V30 15 C 1.200640 2.179631 2.727926 0
M  V30 16 C 2.136116 1.367677 2.125655 0
M  V30 17 C 1.110213 -2.609118 1.910704 0
M  V30 18 C 1.873810 -3.584662 1.316620 0
M  V30 19 C 1.618100 -3.921743 0.005338 0
M  V30 20 C 0.643362 -3.349912 -0.768509 0
M  V30 21 C -0.128092 -2.373352 -0.188832 0
M  V30 22 N -1.157853 -1.738897 -0.938013 0
M  V30 23 C -2.462894 -2.285333 -0.926552 0
M  V30 24 O -2.456931 -3.328346 -0.182508 0
M  V30 25 C -3.641076 -1.789051 -1.620524 0
M  V30 26 C -4.792445 -2.558705 -1.403992 0
M  V30 27 C -5.989185 -2.219668 -1.990776 0
M  V30 28 C -7.189142 -3.052273 -1.743539 0
M  V30 29 F -7.622947 -3.704262 -2.876539 0
M  V30 30 F -6.954829 -3.999600 -0.751094 0
M  V30 31 F -8.222077 -2.256120 -1.258073 0
M  V30 32 C -6.137283 -1.124858 -2.813837 0
M  V30 33 C -5.000117 -0.373178 -3.021687 0
M  V30 34 C -3.803491 -0.716535 -2.431835 0
M  V30 35 F -2.696494 0.016691 -2.635604 0
M  V30 36 C 0.110327 -2.012993 1.138651 0
M  V30 37 H 2.490686 -3.432103 4.458213 0
M  V30 38 H 2.829347 -1.685837 4.653069 0
M  V30 39 H 3.354918 -2.548263 3.171428 0
M  V30 40 H 0.371296 -2.475914 3.920861 0
M  V30 41 H 0.366161 -0.176980 3.695716 0
M  V30 42 H 4.723516 -0.678660 0.432156 0
M  V30 43 H 5.923225 3.024108 0.201149 0
M  V30 44 H 5.085895 2.754763 -1.295009 0
M  V30 45 H 2.049360 5.248008 1.646445 0
M  V30 46 H 0.421037 4.172641 3.044723 0
M  V30 47 H 0.429419 1.791932 3.373128 0
M  V30 48 H 2.623648 -4.007199 1.952289 0
M  V30 49 H 2.265780 -4.697250 -0.380285 0
M  V30 50 H 0.492858 -3.662093 -1.798992 0
M  V30 51 H -0.990699 -0.882765 -1.498902 0
M  V30 52 H -4.787373 -3.453593 -0.764603 0
M  V30 53 H -7.029986 -0.797424 -3.304549 0
M  V30 54 H -5.009289 0.497067 -3.644713 0
M  V30 55 H -0.529664 -1.238343 1.538590 0
M  V30 END ATOM
M  V30 BEGIN BOND
M  V30 1 1 1 2
M  V30 2 1 2 3
M  V30 3 1 3 4
M  V30 4 2 4 5
M  V30 5 1 5 6
M  V30 6 2 6 7
M  V30 7 1 7 8
M  V30 8 2 8 9
M  V30 9 1 9 10
M  V30 10 1 10 11
M  V30 11 2 10 12
M  V30 12 1 9 13
M  V30 13 2 13 14
M  V30 14 1 14 15
M  V30 15 2 15 16
M  V30 16 1 2 17
M  V30 17 2 17 18
M  V30 18 1 18 19
M  V30 19 2 19 20
M  V30 20 1 20 21
M  V30 21 1 21 22
M  V30 22 1 22 23
M  V30 23 2 23 24
M  V30 24 1 23 25
M  V30 25 2 25 26
M  V30 26 1 26 27
M  V30 27 1 27 28
M  V30 28 1 28 29
M  V30 29 1 28 30
M  V30 30 1 28 31
M  V30 31 2 27 32
M  V30 32 1 32 33
M  V30 33 2 33 34
M  V30 34 1 34 35
M  V30 35 2 21 36
M  V30 36 1 16 4
M  V30 37 1 36 17
M  V30 38 1 16 8
M  V30 39 1 34 25
M  V30 40 1 1 37
M  V30 41 1 1 38
M  V30 42 1 1 39
M  V30 43 1 2 40 CFG=1
M  V30 44 1 3 41
M  V30 45 1 6 42
M  V30 46 1 11 43
M  V30 47 1 11 44
M  V30 48 1 13 45
M  V30 49 1 14 46
M  V30 50 1 15 47
M  V30 51 1 18 48
M  V30 52 1 19 49
M  V30 53 1 20 50
M  V30 54 1 22 51
M  V30 55 1 26 52
M  V30 56 1 32 53
M  V30 57 1 33 54
M  V30 58 1 36 55
M  V30 END BOND
M  V30 END CTAB
M  END
>  <Dataset>  (16) 
ChEMBL_Kinases

>  <Ligand_Instance>  (16) 
nan

>  <PDB_ID>  (16) 
nan

>  <Standardized_SMILES>  (16) 
C[C@@H](Nc1ncnc2c(C(N)=O)cccc12)c1cccc(NC(=O)c2cc(C(F)(F)F)ccc2F)c1

>  <Name>  (16) 
nan

>  <Pocket>  (16) 
nan

>  <ATP_Site>  (16) 
nan

>  <Peripheral>  (16) 
nan

>  <Num_H_Atoms_ProtBoundConf>  (16) 
nan

>  <Num_Resolved_Atoms>  (16) 
nan

>  <Num_Not_Resolved_Atoms>  (16) 
nan

$$$$
CHEMBL4209318
     RDKit          3D

  0  0  0  0  0  0  0  0  0  0999 V3000
M  V30 BEGIN CTAB
M  V30 COUNTS 64 69 0 0 0
M  V30 BEGIN ATOM
M  V30 1 C 3.163219 -0.767724 1.680349 0
M  V30 2 C 4.049413 -0.627458 0.456867 0
M  V30 3 C 5.444772 -1.090645 0.717308 0
M  V30 4 C 6.309655 -0.087089 0.014695 0
M  V30 5 C 5.414313 1.046691 -0.262477 0
M  V30 6 N 5.528526 2.330164 -0.707084 0
M  V30 7 C 4.271502 2.859082 -0.743695 0
M  V30 8 C 3.795839 4.098825 -1.108600 0
M  V30 9 F 4.610465 5.094099 -1.534491 0
M  V30 10 C 2.454497 4.397781 -1.059675 0
M  V30 11 C 1.561528 3.427260 -0.633022 0
M  V30 12 C 0.090666 3.540035 -0.507948 0
M  V30 13 N -0.517207 3.086373 0.600191 0
M  V30 14 C -1.825904 3.111204 0.848237 0
M  V30 15 N -2.188972 2.560292 2.107715 0
M  V30 16 C -2.274891 1.117618 2.090392 0
M  V30 17 C -2.031494 0.394160 0.940151 0
M  V30 18 C -2.082105 -0.985552 0.887214 0
M  V30 19 C -2.396739 -1.688175 2.059473 0
M  V30 20 C -2.424287 -3.143979 1.934887 0
M  V30 21 N -3.687556 -3.735760 1.639542 0
M  V30 22 C -4.311254 -3.268428 0.446105 0
M  V30 23 C -3.786486 -3.835056 -0.833763 0
M  V30 24 N -3.616353 -5.253138 -0.813620 0
M  V30 25 C -2.265582 -5.698229 -1.076204 0
M  V30 26 C -4.194456 -5.801030 0.382856 0
M  V30 27 C -3.597162 -5.189769 1.604584 0
M  V30 28 C -2.637242 -0.938971 3.196849 0
M  V30 29 N -2.573016 0.403573 3.187383 0
M  V30 30 N -2.618445 3.645742 -0.111401 0
M  V30 31 C -2.117595 4.127880 -1.256417 0
M  V30 32 C -0.744381 4.083346 -1.476469 0
M  V30 33 F -0.163475 4.549363 -2.605490 0
M  V30 34 C 2.113610 2.192008 -0.278232 0
M  V30 35 C 3.448660 1.838118 -0.307598 0
M  V30 36 N 4.152654 0.730528 -0.013665 0
M  V30 37 H 2.700469 -1.796559 1.636095 0
M  V30 38 H 2.358043 -0.037671 1.672512 0
M  V30 39 H 3.795342 -0.766046 2.577865 0
M  V30 40 H 3.615813 -1.259679 -0.344561 0
M  V30 41 H 5.610592 -2.087335 0.233751 0
M  V30 42 H 5.678422 -1.170371 1.802540 0
M  V30 43 H 6.711026 -0.524056 -0.947441 0
M  V30 44 H 7.151748 0.186371 0.681784 0
M  V30 45 H 1.975377 5.325959 -1.320079 0
M  V30 46 H -2.399272 3.024720 3.017638 0
M  V30 47 H -1.786138 0.902346 0.016016 0
M  V30 48 H -1.881970 -1.486079 -0.033776 0
M  V30 49 H -1.694251 -3.489373 1.141952 0
M  V30 50 H -2.050640 -3.662425 2.868920 0
M  V30 51 H -5.415672 -3.409905 0.495214 0
M  V30 52 H -4.181765 -2.155815 0.395593 0
M  V30 53 H -2.848246 -3.356857 -1.156480 0
M  V30 54 H -4.550232 -3.606197 -1.616000 0
M  V30 55 H -1.802625 -6.122906 -0.181858 0
M  V30 56 H -2.315889 -6.482857 -1.861075 0
M  V30 57 H -1.665950 -4.844626 -1.460169 0
M  V30 58 H -5.299781 -5.641621 0.322780 0
M  V30 59 H -4.006745 -6.901467 0.453184 0
M  V30 60 H -2.522973 -5.531329 1.634861 0
M  V30 61 H -4.094860 -5.652038 2.498982 0
M  V30 62 H -2.878872 -1.520828 4.088318 0
M  V30 63 H -2.769195 4.550392 -2.003538 0
M  V30 64 H 1.423992 1.407732 0.055739 0
M  V30 END ATOM
M  V30 BEGIN BOND
M  V30 1 1 1 2
M  V30 2 1 2 3
M  V30 3 1 3 4
M  V30 4 1 4 5
M  V30 5 2 5 6
M  V30 6 1 6 7
M  V30 7 2 7 8
M  V30 8 1 8 9
M  V30 9 1 8 10
M  V30 10 2 10 11
M  V30 11 1 11 12
M  V30 12 2 12 13
M  V30 13 1 13 14
M  V30 14 1 14 15
M  V30 15 1 15 16
M  V30 16 2 16 17
M  V30 17 1 17 18
M  V30 18 2 18 19
M  V30 19 1 19 20
M  V30 20 1 20 21
M  V30 21 1 21 22
M  V30 22 1 22 23
M  V30 23 1 23 24
M  V30 24 1 24 25
M  V30 25 1 24 26
M  V30 26 1 26 27
M  V30 27 1 19 28
M  V30 28 2 28 29
M  V30 29 2 14 30
M  V30 30 1 30 31
M  V30 31 2 31 32
M  V30 32 1 32 33
M  V30 33 1 11 34
M  V30 34 2 34 35
M  V30 35 1 35 36
M  V30 36 1 36 2
M  V30 37 1 36 5
M  V30 38 1 35 7
M  V30 39 1 32 12
M  V30 40 1 29 16
M  V30 41 1 27 21
M  V30 42 1 1 37
M  V30 43 1 1 38
M  V30 44 1 1 39
M  V30 45 1 2 40
M  V30 46 1 3 41
M  V30 47 1 3 42
M  V30 48 1 4 43
M  V30 49 1 4 44
M  V30 50 1 10 45
M  V30 51 1 15 46
M  V30 52 1 17 47
M  V30 53 1 18 48
M  V30 54 1 20 49
M  V30 55 1 20 50
M  V30 56 1 22 51
M  V30 57 1 22 52
M  V30 58 1 23 53
M  V30 59 1 23 54
M  V30 60 1 25 55
M  V30 61 1 25 56
M  V30 62 1 25 57
M  V30 63 1 26 58
M  V30 64 1 26 59
M  V30 65 1 27 60
M  V30 66 1 27 61
M  V30 67 1 28 62
M  V30 68 1 31 63
M  V30 69 1 34 64
M  V30 END BOND
M  V30 END CTAB
M  END
>  <Dataset>  (17) 
ChEMBL_Kinases

>  <Ligand_Instance>  (17) 
nan

>  <PDB_ID>  (17) 
nan

>  <Standardized_SMILES>  (17) 
CC1CCc2nc3c(F)cc(-c4nc(Nc5ccc(CN6CCN(C)CC6)cn5)ncc4F)cc3n21

>  <Name>  (17) 
nan

>  <Pocket>  (17) 
nan

>  <ATP_Site>  (17) 
nan

>  <Peripheral>  (17) 
nan

>  <Num_H_Atoms_ProtBoundConf>  (17) 
nan

>  <Num_Resolved_Atoms>  (17) 
nan

>  <Num_Not_Resolved_Atoms>  (17) 
nan

$$$$
CHEMBL4209206
     RDKit          3D

  0  0  0  0  0  0  0  0  0  0999 V3000
M  V30 BEGIN CTAB
M  V30 COUNTS 54 59 0 0 0
M  V30 BEGIN ATOM
M  V30 1 Cl -3.163527 5.298741 -0.791619 0
M  V30 2 C -3.439834 3.642797 -1.281578 0
M  V30 3 C -3.204580 2.699777 -0.302517 0
M  V30 4 C -3.392249 1.359198 -0.583605 0
M  V30 5 N -3.244142 0.246299 0.156740 0
M  V30 6 C -3.551077 -0.841880 -0.566839 0
M  V30 7 C -3.575014 -2.307392 -0.293703 0
M  V30 8 N -2.331110 -2.946504 -0.586404 0
M  V30 9 C -1.115322 -2.597945 0.062389 0
M  V30 10 N -1.048863 -1.626632 1.016418 0
M  V30 11 C 0.114100 -1.317078 1.615993 0
M  V30 12 N 0.163825 -0.302369 2.609732 0
M  V30 13 C -0.974012 0.461138 3.078086 0
M  V30 14 C -0.716163 1.900820 2.675818 0
M  V30 15 N 0.533568 2.376645 3.254516 0
M  V30 16 C 1.646880 1.531196 2.889096 0
M  V30 17 C 1.399831 0.073282 3.265920 0
M  V30 18 N 1.257909 -1.944416 1.306953 0
M  V30 19 C 1.301174 -2.930218 0.367358 0
M  V30 20 C 0.096139 -3.229203 -0.232880 0
M  V30 21 N 0.312092 -4.218737 -1.131324 0
M  V30 22 C 1.612668 -4.537495 -1.102110 0
M  V30 23 N 2.214926 -3.749733 -0.186491 0
M  V30 24 C 3.594486 -3.713080 0.205903 0
M  V30 25 C 4.555328 -3.048291 -0.541975 0
M  V30 26 C 5.875615 -3.052813 -0.103245 0
M  V30 27 C 6.277981 -3.697564 1.058174 0
M  V30 28 N 5.313804 -4.343351 1.774638 0
M  V30 29 C 4.040900 -4.348207 1.366351 0
M  V30 30 N -3.898250 -0.365302 -1.793032 0
M  V30 31 C -3.813148 0.974356 -1.840295 0
M  V30 32 C -4.050330 1.912442 -2.824376 0
M  V30 33 C -3.864152 3.268853 -2.551870 0
M  V30 34 Cl -4.137500 4.534596 -3.730640 0
M  V30 35 H -2.874100 2.937475 0.699600 0
M  V30 36 H -4.388045 -2.798655 -0.866151 0
M  V30 37 H -3.873462 -2.454793 0.785127 0
M  V30 38 H -2.273120 -3.703102 -1.298233 0
M  V30 39 H -1.909209 0.135966 2.611096 0
M  V30 40 H -1.060670 0.400507 4.196533 0
M  V30 41 H -1.518198 2.570585 3.030285 0
M  V30 42 H -0.680284 1.950309 1.586895 0
M  V30 43 H 0.710186 3.304616 2.803428 0
M  V30 44 H 1.856743 1.634132 1.806731 0
M  V30 45 H 2.523108 1.910799 3.477639 0
M  V30 46 H 2.279376 -0.490083 2.942271 0
M  V30 47 H 1.301219 0.078282 4.379458 0
M  V30 48 H 2.127307 -5.287686 -1.692377 0
M  V30 49 H 4.247820 -2.541167 -1.452607 0
M  V30 50 H 6.568210 -2.516525 -0.733584 0
M  V30 51 H 7.328848 -3.652867 1.330195 0
M  V30 52 H 3.315286 -4.889531 1.993891 0
M  V30 53 H -4.204383 -0.904467 -2.645183 0
M  V30 54 H -4.377626 1.630824 -3.805897 0
M  V30 END ATOM
M  V30 BEGIN BOND
M  V30 1 1 1 2
M  V30 2 2 2 3
M  V30 3 1 3 4
M  V30 4 1 4 5
M  V30 5 2 5 6
M  V30 6 1 6 7
M  V30 7 1 7 8
M  V30 8 1 8 9
M  V30 9 2 9 10
M  V30 10 1 10 11
M  V30 11 1 11 12
M  V30 12 1 12 13
M  V30 13 1 13 14
M  V30 14 1 14 15
M  V30 15 1 15 16
M  V30 16 1 16 17
M  V30 17 2 11 18
M  V30 18 1 18 19
M  V30 19 2 19 20
M  V30 20 1 20 21
M  V30 21 2 21 22
M  V30 22 1 22 23
M  V30 23 1 23 24
M  V30 24 2 24 25
M  V30 25 1 25 26
M  V30 26 2 26 27
M  V30 27 1 27 28
M  V30 28 2 28 29
M  V30 29 1 6 30
M  V30 30 1 30 31
M  V30 31 1 31 32
M  V30 32 2 32 33
M  V30 33 1 33 34
M  V30 34 1 33 2
M  V30 35 2 31 4
M  V30 36 1 20 9
M  V30 37 1 29 24
M  V30 38 1 17 12
M  V30 39 1 23 19
M  V30 40 1 3 35
M  V30 41 1 7 36
M  V30 42 1 7 37
M  V30 43 1 8 38
M  V30 44 1 13 39
M  V30 45 1 13 40
M  V30 46 1 14 41
M  V30 47 1 14 42
M  V30 48 1 15 43
M  V30 49 1 16 44
M  V30 50 1 16 45
M  V30 51 1 17 46
M  V30 52 1 17 47
M  V30 53 1 22 48
M  V30 54 1 25 49
M  V30 55 1 26 50
M  V30 56 1 27 51
M  V30 57 1 29 52
M  V30 58 1 30 53
M  V30 59 1 32 54
M  V30 END BOND
M  V30 END CTAB
M  END
>  <Dataset>  (18) 
ChEMBL_Kinases

>  <Ligand_Instance>  (18) 
nan

>  <PDB_ID>  (18) 
nan

>  <Standardized_SMILES>  (18) 
Clc1cc2nc(CNc3nc(N4CCNCC4)nc4c3ncn4-c3cccnc3)[nH]c2cc1Cl

>  <Name>  (18) 
nan

>  <Pocket>  (18) 
nan

>  <ATP_Site>  (18) 
nan

>  <Peripheral>  (18) 
nan

>  <Num_H_Atoms_ProtBoundConf>  (18) 
nan

>  <Num_Resolved_Atoms>  (18) 
nan

>  <Num_Not_Resolved_Atoms>  (18) 
nan

$$$$
CHEMBL4209180
     RDKit          3D

  0  0  0  0  0  0  0  0  0  0999 V3000
M  V30 BEGIN CTAB
M  V30 COUNTS 53 58 0 0 0
M  V30 BEGIN ATOM
M  V30 1 C 0.298898 -4.459524 5.945836 0
M  V30 2 C 1.405275 -5.153988 5.450033 0
M  V30 3 N 2.291193 -4.595150 4.599907 0
M  V30 4 C 2.163218 -3.324062 4.173185 0
M  V30 5 C 1.071222 -2.593698 4.644189 0
M  V30 6 N 0.833770 -1.225423 4.253829 0
M  V30 7 C 1.101135 -0.047550 4.845602 0
M  V30 8 N 0.665548 0.941824 4.044739 0
M  V30 9 C 0.126856 0.372812 2.953643 0
M  V30 10 C -0.457096 0.990470 1.840438 0
M  V30 11 N -0.555302 2.404573 1.730747 0
M  V30 12 C -1.132348 3.132159 0.638442 0
M  V30 13 C -0.458582 2.889446 -0.665894 0
M  V30 14 N 0.599380 3.619523 -1.110349 0
M  V30 15 C 0.977351 3.171839 -2.299919 0
M  V30 16 C 1.979058 3.535898 -3.196449 0
M  V30 17 C 2.107424 2.837464 -4.395029 0
M  V30 18 C 1.264628 1.783605 -4.728142 0
M  V30 19 C 0.253660 1.401164 -3.845289 0
M  V30 20 C 0.167671 2.132576 -2.658971 0
M  V30 21 N -0.687046 2.002214 -1.631406 0
M  V30 22 N -0.910890 0.141659 0.900448 0
M  V30 23 C -0.831599 -1.197930 0.981057 0
M  V30 24 N -1.324109 -2.057741 -0.040044 0
M  V30 25 C -1.910132 -1.548436 -1.260627 0
M  V30 26 C -2.543134 -2.742316 -1.983650 0
M  V30 27 O -1.585187 -3.692705 -2.282976 0
M  V30 28 C -0.828707 -4.087865 -1.213249 0
M  V30 29 C -1.256160 -3.491732 0.110197 0
M  V30 30 N -0.261501 -1.741795 2.071474 0
M  V30 31 C 0.218162 -0.998845 3.056143 0
M  V30 32 C 0.141100 -3.147017 5.523198 0
M  V30 33 H -0.369742 -4.974586 6.625268 0
M  V30 34 H 1.532274 -6.176084 5.775917 0
M  V30 35 H 2.814796 -2.794204 3.499714 0
M  V30 36 H 1.596854 -0.122616 5.816357 0
M  V30 37 H -0.155478 2.952782 2.549928 0
M  V30 38 H -2.225949 2.887510 0.533157 0
M  V30 39 H -1.095917 4.204613 0.828747 0
M  V30 40 H 2.653091 4.344091 -2.980455 0
M  V30 41 H 2.864190 3.065709 -5.140590 0
M  V30 42 H 1.344590 1.226526 -5.651843 0
M  V30 43 H -0.426905 0.595505 -4.048331 0
M  V30 44 H -1.447354 1.288751 -1.590328 0
M  V30 45 H -2.731928 -0.839312 -1.027224 0
M  V30 46 H -1.147255 -1.067526 -1.916002 0
M  V30 47 H -3.297309 -3.206912 -1.322787 0
M  V30 48 H -3.049175 -2.401234 -2.904647 0
M  V30 49 H -0.896035 -5.211625 -1.175691 0
M  V30 50 H 0.240534 -3.777054 -1.367280 0
M  V30 51 H -0.561180 -3.796497 0.919381 0
M  V30 52 H -2.292610 -3.876871 0.315396 0
M  V30 53 H -0.687182 -2.586398 5.877801 0
M  V30 END ATOM
M  V30 BEGIN BOND
M  V30 1 2 1 2
M  V30 2 1 2 3
M  V30 3 2 3 4
M  V30 4 1 4 5
M  V30 5 1 5 6
M  V30 6 1 6 7
M  V30 7 2 7 8
M  V30 8 1 8 9
M  V30 9 2 9 10
M  V30 10 1 10 11
M  V30 11 1 11 12
M  V30 12 1 12 13
M  V30 13 2 13 14
M  V30 14 1 14 15
M  V30 15 2 15 16
M  V30 16 1 16 17
M  V30 17 2 17 18
M  V30 18 1 18 19
M  V30 19 2 19 20
M  V30 20 1 20 21
M  V30 21 1 10 22
M  V30 22 2 22 23
M  V30 23 1 23 24
M  V30 24 1 24 25
M  V30 25 1 25 26
M  V30 26 1 26 27
M  V30 27 1 27 28
M  V30 28 1 28 29
M  V30 29 1 23 30
M  V30 30 2 30 31
M  V30 31 2 5 32
M  V30 32 1 32 1
M  V30 33 1 31 6
M  V30 34 1 31 9
M  V30 35 1 21 13
M  V30 36 1 29 24
M  V30 37 1 20 15
M  V30 38 1 1 33
M  V30 39 1 2 34
M  V30 40 1 4 35
M  V30 41 1 7 36
M  V30 42 1 11 37
M  V30 43 1 12 38
M  V30 44 1 12 39
M  V30 45 1 16 40
M  V30 46 1 17 41
M  V30 47 1 18 42
M  V30 48 1 19 43
M  V30 49 1 21 44
M  V30 50 1 25 45
M  V30 51 1 25 46
M  V30 52 1 26 47
M  V30 53 1 26 48
M  V30 54 1 28 49
M  V30 55 1 28 50
M  V30 56 1 29 51
M  V30 57 1 29 52
M  V30 58 1 32 53
M  V30 END BOND
M  V30 END CTAB
M  END
>  <Dataset>  (19) 
ChEMBL_Kinases

>  <Ligand_Instance>  (19) 
nan

>  <PDB_ID>  (19) 
nan

>  <Standardized_SMILES>  (19) 
c1cncc(-n2cnc3c(NCc4nc5ccccc5[nH]4)nc(N4CCOCC4)nc32)c1

>  <Name>  (19) 
nan

>  <Pocket>  (19) 
nan

>  <ATP_Site>  (19) 
nan

>  <Peripheral>  (19) 
nan

>  <Num_H_Atoms_ProtBoundConf>  (19) 
nan

>  <Num_Resolved_Atoms>  (19) 
nan

>  <Num_Not_Resolved_Atoms>  (19) 
nan

$$$$
CHEMBL4209049
     RDKit          3D

  0  0  0  0  0  0  0  0  0  0999 V3000
M  V30 BEGIN CTAB
M  V30 COUNTS 90 96 0 0 0
M  V30 BEGIN ATOM
M  V30 1 C 0.518243 -6.540873 -0.493441 0
M  V30 2 S 1.037076 -6.548465 -2.200730 0
M  V30 3 C 0.906566 -4.930989 -3.020326 0 CFG=1
M  V30 4 C 1.897691 -4.061455 -2.338434 0
M  V30 5 O 2.512816 -4.356252 -1.264807 0
M  V30 6 N 2.225303 -2.804125 -2.875009 0
M  V30 7 C 3.061860 -1.700049 -2.578295 0
M  V30 8 C 4.376619 -1.858899 -3.035731 0
M  V30 9 C 5.363636 -0.897544 -2.867227 0
M  V30 10 C 5.019929 0.251685 -2.223534 0
M  V30 11 N 5.684222 1.357898 -1.898262 0
M  V30 12 N 4.867577 2.211356 -1.261984 0
M  V30 13 C 3.642423 1.651710 -1.168635 0
M  V30 14 C 2.520109 2.333495 -0.541583 0
M  V30 15 C 2.402536 3.673321 -0.934912 0
M  V30 16 C 1.380861 4.491574 -0.443810 0
M  V30 17 C 0.474077 3.945282 0.451625 0
M  V30 18 O -0.490828 4.843878 0.869567 0
M  V30 19 C -1.522152 4.551720 1.761750 0
M  V30 20 C -2.896699 4.707847 1.143517 0
M  V30 21 C -1.484939 5.360009 3.042243 0
M  V30 22 N 0.610181 2.672710 0.806731 0
M  V30 23 C 1.583422 1.866485 0.348555 0
M  V30 24 C 3.745501 0.418408 -1.774798 0
M  V30 25 C 2.775312 -0.514840 -1.933987 0
M  V30 26 C 1.130712 -5.096512 -4.484072 0
M  V30 27 C -0.160039 -4.738789 -5.140520 0
M  V30 28 N -1.042521 -4.169242 -4.160865 0
M  V30 29 C -1.344694 -2.752583 -4.423518 0
M  V30 30 C -2.242319 -2.149681 -3.449769 0
M  V30 31 O -2.358673 -0.933381 -3.827880 0
M  V30 32 N -3.105540 -1.891726 -2.370563 0
M  V30 33 C -3.673668 -0.590137 -2.099080 0
M  V30 34 C -3.083322 -0.205671 -0.757440 0
M  V30 35 C -3.228546 -1.050132 0.250399 0
M  V30 36 C -2.692801 -0.757580 1.562855 0
M  V30 37 C -1.989722 0.383676 1.867435 0
M  V30 38 C -1.473345 0.675445 3.110480 0
M  V30 39 C -1.651981 -0.212624 4.149462 0
M  V30 40 C -1.111995 0.082219 5.470697 0
M  V30 41 N -0.422876 1.220428 5.728838 0
M  V30 42 C 0.075533 1.492257 6.950633 0
M  V30 43 C -0.121384 0.584823 7.969981 0
M  V30 44 C -0.828388 -0.596957 7.731533 0
M  V30 45 N -1.302319 -0.807380 6.479474 0
M  V30 46 C -2.353272 -1.386783 3.913124 0
M  V30 47 C -2.837175 -1.602077 2.639652 0
M  V30 48 C -3.967848 -2.275637 -0.094152 0
M  V30 49 C -3.528600 -2.894621 -1.415484 0
M  V30 50 C -0.448662 -4.330469 -2.874316 0
M  V30 51 H 1.425654 -6.541200 0.156216 0
M  V30 52 H -0.055047 -7.470802 -0.213261 0
M  V30 53 H -0.127098 -5.692425 -0.212441 0
M  V30 54 H 1.832975 -2.403192 -3.751856 0
M  V30 55 H 4.717963 -2.760914 -3.562266 0
M  V30 56 H 6.369162 -1.051937 -3.232102 0
M  V30 57 H 6.692185 1.563050 -2.094661 0
M  V30 58 H 3.100390 4.148437 -1.643910 0
M  V30 59 H 1.339483 5.534598 -0.788759 0
M  V30 60 H -1.428325 3.502163 2.049365 0
M  V30 61 H -3.582795 3.933761 1.544338 0
M  V30 62 H -3.285700 5.704987 1.465426 0
M  V30 63 H -2.837538 4.639853 0.024319 0
M  V30 64 H -0.566826 5.136180 3.619882 0
M  V30 65 H -2.328005 4.961960 3.661671 0
M  V30 66 H -1.663234 6.431785 2.891188 0
M  V30 67 H 1.721304 0.832312 0.616181 0
M  V30 68 H 1.763700 -0.433199 -1.600854 0
M  V30 69 H 1.983756 -4.470230 -4.820522 0
M  V30 70 H 1.431141 -6.151246 -4.713070 0
M  V30 71 H -0.580503 -5.674731 -5.586801 0
M  V30 72 H -0.011067 -4.051187 -6.017348 0
M  V30 73 H -0.382927 -2.214129 -4.538624 0
M  V30 74 H -1.811078 -2.678997 -5.455461 0
M  V30 75 H -4.769809 -0.729389 -1.891801 0
M  V30 76 H -3.474889 0.184788 -2.828915 0
M  V30 77 H -2.570148 0.737797 -0.678770 0
M  V30 78 H -1.795304 1.138776 1.130761 0
M  V30 79 H -0.928716 1.559156 3.341317 0
M  V30 80 H 0.632213 2.405609 7.170232 0
M  V30 81 H 0.243026 0.713228 8.996229 0
M  V30 82 H -1.039430 -1.376935 8.462638 0
M  V30 83 H -2.481565 -2.066160 4.736373 0
M  V30 84 H -3.366593 -2.539963 2.561259 0
M  V30 85 H -3.941954 -3.021844 0.704803 0
M  V30 86 H -5.054212 -1.966957 -0.161554 0
M  V30 87 H -2.828515 -3.715045 -1.264646 0
M  V30 88 H -4.476972 -3.323392 -1.858827 0
M  V30 89 H -0.436528 -3.340778 -2.369104 0
M  V30 90 H -1.069818 -4.969627 -2.192524 0
M  V30 END ATOM
M  V30 BEGIN BOND
M  V30 1 1 1 2
M  V30 2 1 3 2 CFG=1
M  V30 3 1 3 4
M  V30 4 2 4 5
M  V30 5 1 4 6
M  V30 6 1 6 7
M  V30 7 2 7 8
M  V30 8 1 8 9
M  V30 9 2 9 10
M  V30 10 1 10 11
M  V30 11 1 11 12
M  V30 12 2 12 13
M  V30 13 1 13 14
M  V30 14 2 14 15
M  V30 15 1 15 16
M  V30 16 2 16 17
M  V30 17 1 17 18
M  V30 18 1 18 19
M  V30 19 1 19 20
M  V30 20 1 19 21
M  V30 21 1 17 22
M  V30 22 2 22 23
M  V30 23 1 13 24
M  V30 24 2 24 25
M  V30 25 1 3 26
M  V30 26 1 26 27
M  V30 27 1 27 28
M  V30 28 1 28 29
M  V30 29 1 29 30
M  V30 30 2 30 31
M  V30 31 1 30 32
M  V30 32 1 32 33
M  V30 33 1 33 34
M  V30 34 2 34 35
M  V30 35 1 35 36
M  V30 36 2 36 37
M  V30 37 1 37 38
M  V30 38 2 38 39
M  V30 39 1 39 40
M  V30 40 2 40 41
M  V30 41 1 41 42
M  V30 42 2 42 43
M  V30 43 1 43 44
M  V30 44 2 44 45
M  V30 45 1 39 46
M  V30 46 2 46 47
M  V30 47 1 35 48
M  V30 48 1 48 49
M  V30 49 1 28 50
M  V30 50 1 50 3
M  V30 51 1 25 7
M  V30 52 1 49 32
M  V30 53 1 24 10
M  V30 54 1 47 36
M  V30 55 1 23 14
M  V30 56 1 45 40
M  V30 57 1 1 51
M  V30 58 1 1 52
M  V30 59 1 1 53
M  V30 60 1 6 54
M  V30 61 1 8 55
M  V30 62 1 9 56
M  V30 63 1 11 57
M  V30 64 1 15 58
M  V30 65 1 16 59
M  V30 66 1 19 60
M  V30 67 1 20 61
M  V30 68 1 20 62
M  V30 69 1 20 63
M  V30 70 1 21 64
M  V30 71 1 21 65
M  V30 72 1 21 66
M  V30 73 1 23 67
M  V30 74 1 25 68
M  V30 75 1 26 69
M  V30 76 1 26 70
M  V30 77 1 27 71
M  V30 78 1 27 72
M  V30 79 1 29 73
M  V30 80 1 29 74
M  V30 81 1 33 75
M  V30 82 1 33 76
M  V30 83 1 34 77
M  V30 84 1 37 78
M  V30 85 1 38 79
M  V30 86 1 42 80
M  V30 87 1 43 81
M  V30 88 1 44 82
M  V30 89 1 46 83
M  V30 90 1 47 84
M  V30 91 1 48 85
M  V30 92 1 48 86
M  V30 93 1 49 87
M  V30 94 1 49 88
M  V30 95 1 50 89
M  V30 96 1 50 90
M  V30 END BOND
M  V30 END CTAB
M  END
>  <Dataset>  (20) 
ChEMBL_Kinases

>  <Ligand_Instance>  (20) 
nan

>  <PDB_ID>  (20) 
nan

>  <Standardized_SMILES>  (20) 
CS[C@@]1(C(=O)Nc2ccc3[nH]nc(-c4ccc(OC(C)C)nc4)c3c2)CCN(CC(=O)N2CC=C(c3ccc(-c4ncccn4)cc3)CC2)C1

>  <Name>  (20) 
nan

>  <Pocket>  (20) 
nan

>  <ATP_Site>  (20) 
nan

>  <Peripheral>  (20) 
nan

>  <Num_H_Atoms_ProtBoundConf>  (20) 
nan

>  <Num_Resolved_Atoms>  (20) 
nan

>  <Num_Not_Resolved_Atoms>  (20) 
nan

$$$$
CHEMBL3675456
     RDKit          3D

  0  0  0  0  0  0  0  0  0  0999 V3000
M  V30 BEGIN CTAB
M  V30 COUNTS 57 60 0 0 0
M  V30 BEGIN ATOM
M  V30 1 C 4.329463 -2.055004 3.271444 0
M  V30 2 N 3.231242 -2.316160 2.408133 0
M  V30 3 C 3.399944 -1.965092 1.034479 0
M  V30 4 C 2.190004 -2.276568 0.189344 0
M  V30 5 N 0.987977 -1.595997 0.604149 0
M  V30 6 C 0.930729 -0.153681 0.575849 0
M  V30 7 N 2.000645 0.527175 0.154337 0
M  V30 8 C 1.968996 1.867272 0.115057 0
M  V30 9 N 0.895946 2.603379 0.483823 0
M  V30 10 C -0.209585 1.947659 0.917554 0
M  V30 11 C -1.311479 2.679319 1.297209 0
M  V30 12 C -1.288661 4.135604 1.233462 0
M  V30 13 N -0.114173 4.788905 0.774408 0
M  V30 14 O -2.312860 4.800122 1.586900 0
M  V30 15 C -2.429892 1.961449 1.738040 0
M  V30 16 C -2.442466 0.555900 1.796086 0
M  V30 17 O -3.636763 0.131030 2.254198 0
M  V30 18 C -4.164193 -1.122691 2.492405 0
M  V30 19 C -4.260710 -2.016370 1.327518 0
M  V30 20 C -5.448470 -1.785939 0.625997 0
M  V30 21 C -5.787695 -2.508744 -0.512617 0
M  V30 22 C -4.950414 -3.492564 -0.995331 0
M  V30 23 C -3.781080 -3.714495 -0.298447 0
M  V30 24 C -3.442143 -3.000532 0.829747 0
M  V30 25 C -1.281270 -0.055915 1.390120 0
M  V30 26 C -0.158650 0.571971 0.951059 0
M  V30 27 C 2.459273 -2.044593 -1.259417 0
M  V30 28 C 1.327910 -2.182004 -2.057043 0
M  V30 29 C 1.395242 -2.001514 -3.426401 0
M  V30 30 C 2.600692 -1.680015 -4.016213 0
M  V30 31 C 3.732060 -1.543562 -3.210704 0
M  V30 32 Cl 5.296773 -1.136431 -3.892496 0
M  V30 33 C 3.663867 -1.724496 -1.839157 0
M  V30 34 H 4.412617 -2.747201 4.116825 0
M  V30 35 H 5.265714 -2.224251 2.663422 0
M  V30 36 H 4.380922 -1.020914 3.661702 0
M  V30 37 H 2.663710 -3.143533 2.586188 0
M  V30 38 H 3.704027 -0.920882 0.883318 0
M  V30 39 H 4.274171 -2.577299 0.682388 0
M  V30 40 H 2.041962 -3.370127 0.277335 0
M  V30 41 H 0.193678 -2.196371 0.913910 0
M  V30 42 H 2.809014 2.468601 -0.218423 0
M  V30 43 H -0.358771 5.502352 0.051331 0
M  V30 44 H 0.027898 5.548609 0.062896 0
M  V30 45 H -3.252932 2.638416 2.016657 0
M  V30 46 H -5.133388 -1.096354 3.045112 0
M  V30 47 H -3.475279 -1.644023 3.224541 0
M  V30 48 H -6.215336 -1.055466 0.865121 0
M  V30 49 H -6.692961 -2.362825 -1.082652 0
M  V30 50 H -5.098571 -4.119487 -1.863169 0
M  V30 51 H -3.033604 -4.462157 -0.573888 0
M  V30 52 H -2.557758 -3.126521 1.421043 0
M  V30 53 H -1.352958 -1.109586 1.460847 0
M  V30 54 H 0.327532 -2.434066 -1.688821 0
M  V30 55 H 0.549585 -2.095755 -4.092292 0
M  V30 56 H 2.705552 -1.526292 -5.101534 0
M  V30 57 H 4.486930 -1.636040 -1.164261 0
M  V30 END ATOM
M  V30 BEGIN BOND
M  V30 1 1 1 2
M  V30 2 1 2 3
M  V30 3 1 3 4
M  V30 4 1 4 5
M  V30 5 1 5 6
M  V30 6 2 6 7
M  V30 7 1 7 8
M  V30 8 2 8 9
M  V30 9 1 9 10
M  V30 10 2 10 11
M  V30 11 1 11 12
M  V30 12 1 12 13
M  V30 13 2 12 14
M  V30 14 1 11 15
M  V30 15 2 15 16
M  V30 16 1 16 17
M  V30 17 1 17 18
M  V30 18 1 18 19
M  V30 19 2 19 20
M  V30 20 1 20 21
M  V30 21 2 21 22
M  V30 22 1 22 23
M  V30 23 2 23 24
M  V30 24 1 16 25
M  V30 25 2 25 26
M  V30 26 1 4 27
M  V30 27 2 27 28
M  V30 28 1 28 29
M  V30 29 2 29 30
M  V30 30 1 30 31
M  V30 31 1 31 32
M  V30 32 2 31 33
M  V30 33 1 26 6
M  V30 34 1 33 27
M  V30 35 1 26 10
M  V30 36 1 24 19
M  V30 37 1 1 34
M  V30 38 1 1 35
M  V30 39 1 1 36
M  V30 40 1 2 37
M  V30 41 1 3 38
M  V30 42 1 3 39
M  V30 43 1 4 40
M  V30 44 1 5 41
M  V30 45 1 8 42
M  V30 46 1 13 43
M  V30 47 1 13 44
M  V30 48 1 15 45
M  V30 49 1 18 46
M  V30 50 1 18 47
M  V30 51 1 20 48
M  V30 52 1 21 49
M  V30 53 1 22 50
M  V30 54 1 23 51
M  V30 55 1 24 52
M  V30 56 1 25 53
M  V30 57 1 28 54
M  V30 58 1 29 55
M  V30 59 1 30 56
M  V30 60 1 33 57
M  V30 END BOND
M  V30 END CTAB
M  END
>  <Dataset>  (21) 
ChEMBL_Kinases

>  <Ligand_Instance>  (21) 
nan

>  <PDB_ID>  (21) 
nan

>  <Standardized_SMILES>  (21) 
CNCC(Nc1ncnc2c(C(N)=O)cc(OCc3ccccc3)cc12)c1cccc(Cl)c1

>  <Name>  (21) 
nan

>  <Pocket>  (21) 
nan

>  <ATP_Site>  (21) 
nan

>  <Peripheral>  (21) 
nan

>  <Num_H_Atoms_ProtBoundConf>  (21) 
nan

>  <Num_Resolved_Atoms>  (21) 
nan

>  <Num_Not_Resolved_Atoms>  (21) 
nan

$$$$
CHEMBL3298822
     RDKit          3D

  0  0  0  0  0  0  0  0  0  0999 V3000
M  V30 BEGIN CTAB
M  V30 COUNTS 52 55 0 0 0
M  V30 BEGIN ATOM
M  V30 1 O -1.031244 0.182005 1.658166 0
M  V30 2 C -1.026898 0.103184 0.382233 0
M  V30 3 C -0.757309 1.053670 -0.695100 0
M  V30 4 C -0.405540 2.435877 -0.198103 0
M  V30 5 C -1.539172 2.990034 0.612507 0
M  V30 6 N -1.169078 4.219992 1.273938 0
M  V30 7 C 0.084723 4.195418 1.963127 0
M  V30 8 O 0.343214 4.965432 2.933999 0
M  V30 9 C 1.133713 3.264004 1.565757 0
M  V30 10 C 2.408594 2.959987 1.968186 0
M  V30 11 C 2.905524 1.952036 1.173956 0
M  V30 12 C 4.199595 1.328589 1.245806 0
M  V30 13 C 4.553341 0.326204 0.375819 0
M  V30 14 C 5.800427 -0.294618 0.423672 0
M  V30 15 N 6.668182 0.128189 1.371014 0
M  V30 16 C 6.305412 1.106640 2.210258 0
M  V30 17 Cl 7.545897 1.533948 3.375101 0
M  V30 18 N 5.101114 1.714467 2.172928 0
M  V30 19 C 1.903373 1.643348 0.271997 0
M  V30 20 N 0.840678 2.453088 0.531425 0
M  V30 21 N -1.366956 -1.225977 0.000493 0
M  V30 22 C -1.634427 -2.166828 1.099207 0
M  V30 23 C -1.968749 -3.493603 0.458409 0
M  V30 24 C -3.181438 -3.420121 -0.445320 0
M  V30 25 C -3.553266 -4.869663 -0.753964 0
M  V30 26 C -2.333614 -5.786525 -0.659933 0
M  V30 27 C -1.910725 -5.902215 0.795413 0
M  V30 28 C -2.228890 -4.575608 1.454466 0
M  V30 29 H 0.074106 0.727154 -1.377129 0
M  V30 30 H -1.657743 1.132433 -1.338219 0
M  V30 31 H -0.282796 3.114453 -1.067143 0
M  V30 32 H -1.961875 2.306069 1.358920 0
M  V30 33 H -2.330232 3.284364 -0.138151 0
M  V30 34 H -1.720318 5.128646 1.303305 0
M  V30 35 H 2.924532 3.450884 2.787532 0
M  V30 36 H 3.880074 -0.020043 -0.378673 0
M  V30 37 H 6.043299 -1.088914 -0.287073 0
M  V30 38 H 2.016347 0.866481 -0.494241 0
M  V30 39 H -1.422050 -1.513086 -1.021087 0
M  V30 40 H -0.652510 -2.320460 1.609833 0
M  V30 41 H -2.416568 -1.812479 1.771595 0
M  V30 42 H -1.093441 -3.790782 -0.165813 0
M  V30 43 H -4.046827 -2.992815 0.108873 0
M  V30 44 H -2.973529 -2.889536 -1.382081 0
M  V30 45 H -4.271759 -5.277918 0.007176 0
M  V30 46 H -4.037945 -4.980575 -1.732660 0
M  V30 47 H -2.679389 -6.779362 -0.983725 0
M  V30 48 H -1.528311 -5.472377 -1.329727 0
M  V30 49 H -2.383255 -6.759799 1.282688 0
M  V30 50 H -0.802103 -5.971149 0.792438 0
M  V30 51 H -3.332846 -4.609735 1.690403 0
M  V30 52 H -1.667002 -4.448951 2.401193 0
M  V30 END ATOM
M  V30 BEGIN BOND
M  V30 1 2 1 2
M  V30 2 1 2 3
M  V30 3 1 3 4
M  V30 4 1 4 5
M  V30 5 1 5 6
M  V30 6 1 6 7
M  V30 7 2 7 8
M  V30 8 1 7 9
M  V30 9 2 9 10
M  V30 10 1 10 11
M  V30 11 1 11 12
M  V30 12 2 12 13
M  V30 13 1 13 14
M  V30 14 2 14 15
M  V30 15 1 15 16
M  V30 16 1 16 17
M  V30 17 2 16 18
M  V30 18 2 11 19
M  V30 19 1 19 20
M  V30 20 1 2 21
M  V30 21 1 21 22
M  V30 22 1 22 23
M  V30 23 1 23 24
M  V30 24 1 24 25
M  V30 25 1 25 26
M  V30 26 1 26 27
M  V30 27 1 27 28
M  V30 28 1 20 4
M  V30 29 1 28 23
M  V30 30 1 20 9
M  V30 31 1 18 12
M  V30 32 1 3 29
M  V30 33 1 3 30
M  V30 34 1 4 31
M  V30 35 1 5 32
M  V30 36 1 5 33
M  V30 37 1 6 34
M  V30 38 1 10 35
M  V30 39 1 13 36
M  V30 40 1 14 37
M  V30 41 1 19 38
M  V30 42 1 21 39
M  V30 43 1 22 40
M  V30 44 1 22 41
M  V30 45 1 23 42
M  V30 46 1 24 43
M  V30 47 1 24 44
M  V30 48 1 25 45
M  V30 49 1 25 46
M  V30 50 1 26 47
M  V30 51 1 26 48
M  V30 52 1 27 49
M  V30 53 1 27 50
M  V30 54 1 28 51
M  V30 55 1 28 52
M  V30 END BOND
M  V30 END CTAB
M  END
>  <Dataset>  (22) 
ChEMBL_Kinases

>  <Ligand_Instance>  (22) 
nan

>  <PDB_ID>  (22) 
nan

>  <Standardized_SMILES>  (22) 
O=C(CC1CNC(=O)c2cc(-c3ccnc(Cl)n3)cn21)NCC1CCCCC1

>  <Name>  (22) 
nan

>  <Pocket>  (22) 
nan

>  <ATP_Site>  (22) 
nan

>  <Peripheral>  (22) 
nan

>  <Num_H_Atoms_ProtBoundConf>  (22) 
nan

>  <Num_Resolved_Atoms>  (22) 
nan

>  <Num_Not_Resolved_Atoms>  (22) 
nan

$$$$
CHEMBL3675455
     RDKit          3D

  0  0  0  0  0  0  0  0  0  0999 V3000
M  V30 BEGIN CTAB
M  V30 COUNTS 58 61 0 0 0
M  V30 BEGIN ATOM
M  V30 1 C 6.045524 -4.952745 2.256829 0
M  V30 2 C 5.291792 -3.681753 2.098152 0
M  V30 3 C 5.538903 -2.579057 2.902794 0
M  V30 4 C 4.789515 -1.416758 2.694733 0
M  V30 5 C 3.806099 -1.305755 1.721204 0
M  V30 6 C 3.096512 -0.036887 1.607546 0
M  V30 7 O 3.417200 0.866529 2.389577 0
M  V30 8 N 2.079124 0.131264 0.627773 0
M  V30 9 C 1.284767 1.280463 0.366325 0
M  V30 10 C 1.741424 2.197523 -0.540898 0
M  V30 11 C 1.025895 3.333236 -0.843818 0
M  V30 12 C -0.183508 3.569931 -0.227766 0
M  V30 13 C -0.673796 2.666726 0.691698 0
M  V30 14 C -1.934924 2.707474 1.472067 0 CFG=1
M  V30 15 C -2.861031 3.798123 1.003633 0
M  V30 16 N -2.573113 1.398492 1.435894 0
M  V30 17 C -2.943691 0.862566 0.156771 0
M  V30 18 N -2.695677 1.571510 -0.953390 0
M  V30 19 C -3.054130 1.043105 -2.135237 0
M  V30 20 N -3.650097 -0.153860 -2.312209 0
M  V30 21 C -3.919558 -0.906355 -1.205825 0
M  V30 22 C -4.519079 -2.120432 -1.328155 0
M  V30 23 C -4.874607 -2.616081 -2.660827 0
M  V30 24 N -5.501299 -3.873984 -2.852584 0
M  V30 25 O -4.615670 -1.904170 -3.660696 0
M  V30 26 C -4.793448 -2.885084 -0.210442 0
M  V30 27 C -4.439194 -2.378134 1.043299 0
M  V30 28 C -3.833080 -1.140929 1.112041 0
M  V30 29 C -3.551971 -0.364669 0.007330 0
M  V30 30 C 0.062688 1.520148 0.988482 0
M  V30 31 C 3.599218 -2.424697 0.950602 0
M  V30 32 C 4.319421 -3.585584 1.128832 0
M  V30 33 C 3.978397 -4.725795 0.207387 0
M  V30 34 H 6.781687 -5.025965 1.442293 0
M  V30 35 H 6.629504 -4.883580 3.207370 0
M  V30 36 H 5.383487 -5.846270 2.340395 0
M  V30 37 H 6.295985 -2.624042 3.672350 0
M  V30 38 H 5.047059 -0.592014 3.372552 0
M  V30 39 H 1.796751 -0.618303 -0.038036 0
M  V30 40 H 2.679881 2.124865 -1.093332 0
M  V30 41 H 1.294289 4.125480 -1.546778 0
M  V30 42 H -0.822289 4.405147 -0.378381 0
M  V30 43 H -1.646928 2.966649 2.505868 0
M  V30 44 H -2.765222 3.842541 -0.119353 0
M  V30 45 H -3.901565 3.642019 1.277234 0
M  V30 46 H -2.502821 4.780278 1.372644 0
M  V30 47 H -2.717827 0.936543 2.357308 0
M  V30 48 H -2.848704 1.627921 -3.041232 0
M  V30 49 H -4.627221 -4.445222 -3.013288 0
M  V30 50 H -6.496491 -4.228250 -2.854567 0
M  V30 51 H -5.270381 -3.848792 -0.319933 0
M  V30 52 H -4.671760 -3.006506 1.879284 0
M  V30 53 H -3.593654 -0.826326 2.116269 0
M  V30 54 H -0.215356 0.734663 1.693169 0
M  V30 55 H 2.839706 -2.355605 0.190470 0
M  V30 56 H 4.356979 -4.416976 -0.794321 0
M  V30 57 H 2.857485 -4.736020 0.167470 0
M  V30 58 H 4.403406 -5.664452 0.560685 0
M  V30 END ATOM
M  V30 BEGIN BOND
M  V30 1 1 1 2
M  V30 2 2 2 3
M  V30 3 1 3 4
M  V30 4 2 4 5
M  V30 5 1 5 6
M  V30 6 2 6 7
M  V30 7 1 6 8
M  V30 8 1 8 9
M  V30 9 2 9 10
M  V30 10 1 10 11
M  V30 11 2 11 12
M  V30 12 1 12 13
M  V30 13 1 13 14
M  V30 14 1 14 15
M  V30 15 1 14 16
M  V30 16 1 16 17
M  V30 17 2 17 18
M  V30 18 1 18 19
M  V30 19 2 19 20
M  V30 20 1 20 21
M  V30 21 2 21 22
M  V30 22 1 22 23
M  V30 23 1 23 24
M  V30 24 2 23 25
M  V30 25 1 22 26
M  V30 26 2 26 27
M  V30 27 1 27 28
M  V30 28 2 28 29
M  V30 29 2 13 30
M  V30 30 1 5 31
M  V30 31 2 31 32
M  V30 32 1 32 33
M  V30 33 1 32 2
M  V30 34 1 30 9
M  V30 35 1 29 17
M  V30 36 1 29 21
M  V30 37 1 1 34
M  V30 38 1 1 35
M  V30 39 1 1 36
M  V30 40 1 3 37
M  V30 41 1 4 38
M  V30 42 1 8 39
M  V30 43 1 10 40
M  V30 44 1 11 41
M  V30 45 1 12 42
M  V30 46 1 14 43 CFG=1
M  V30 47 1 15 44
M  V30 48 1 15 45
M  V30 49 1 15 46
M  V30 50 1 16 47
M  V30 51 1 19 48
M  V30 52 1 24 49
M  V30 53 1 24 50
M  V30 54 1 26 51
M  V30 55 1 27 52
M  V30 56 1 28 53
M  V30 57 1 30 54
M  V30 58 1 31 55
M  V30 59 1 33 56
M  V30 60 1 33 57
M  V30 61 1 33 58
M  V30 END BOND
M  V30 END CTAB
M  END
>  <Dataset>  (23) 
ChEMBL_Kinases

>  <Ligand_Instance>  (23) 
nan

>  <PDB_ID>  (23) 
nan

>  <Standardized_SMILES>  (23) 
Cc1ccc(C(=O)Nc2cccc([C@@H](C)Nc3ncnc4c(C(N)=O)cccc34)c2)cc1C

>  <Name>  (23) 
nan

>  <Pocket>  (23) 
nan

>  <ATP_Site>  (23) 
nan

>  <Peripheral>  (23) 
nan

>  <Num_H_Atoms_ProtBoundConf>  (23) 
nan

>  <Num_Resolved_Atoms>  (23) 
nan

>  <Num_Not_Resolved_Atoms>  (23) 
nan

$$$$
CHEMBL3297945
     RDKit          3D

  0  0  0  0  0  0  0  0  0  0999 V3000
M  V30 BEGIN CTAB
M  V30 COUNTS 52 55 0 0 0
M  V30 BEGIN ATOM
M  V30 1 C -2.799025 -1.094342 2.564637 0
M  V30 2 O -2.814933 -1.802527 1.363210 0
M  V30 3 C -1.807654 -2.511018 0.785396 0
M  V30 4 C -0.514817 -2.673181 1.309655 0
M  V30 5 C 0.507031 -3.407750 0.705689 0
M  V30 6 N 1.744044 -3.390251 1.450529 0
M  V30 7 C 2.219278 -2.041633 1.268245 0
M  V30 8 N 3.364245 -1.766401 0.611372 0
M  V30 9 C 3.555571 -0.435750 0.592230 0
M  V30 10 C 4.530636 0.407884 0.074556 0
M  V30 11 C 4.378240 1.780732 0.259983 0
M  V30 12 C 3.309030 2.335621 0.930728 0
M  V30 13 C 2.337177 1.497629 1.447640 0
M  V30 14 C 1.126986 1.922173 2.186863 0
M  V30 15 C 1.031055 2.104035 3.550658 0
M  V30 16 F 2.187419 1.873006 4.227905 0
M  V30 17 C -0.154152 2.482389 4.098274 0
M  V30 18 C -1.265750 2.686256 3.289337 0
M  V30 19 C -1.151375 2.501510 1.942301 0
M  V30 20 C 0.029809 2.118575 1.346452 0
M  V30 21 O 0.013153 1.963707 -0.029997 0
M  V30 22 C -1.135801 2.179540 -0.811171 0
M  V30 23 C 2.480363 0.116899 1.267026 0
M  V30 24 O 1.736840 -0.882498 1.636001 0
M  V30 25 C 0.238304 -4.024989 -0.495880 0
M  V30 26 C -1.025888 -3.873691 -1.022479 0
M  V30 27 O -1.320791 -4.480793 -2.221957 0
M  V30 28 C -0.412726 -5.260235 -2.970893 0
M  V30 29 C -2.028758 -3.144515 -0.416926 0
M  V30 30 O -3.279951 -3.026260 -0.992199 0
M  V30 31 C -3.587847 -1.965992 -1.882239 0
M  V30 32 H -3.467730 -0.201115 2.502904 0
M  V30 33 H -3.059923 -1.676705 3.459623 0
M  V30 34 H -1.753475 -0.725143 2.732829 0
M  V30 35 H -0.370071 -2.155017 2.267726 0
M  V30 36 H 2.176288 -4.154574 1.979086 0
M  V30 37 H 5.383870 0.001590 -0.456154 0
M  V30 38 H 5.140008 2.444104 -0.141887 0
M  V30 39 H 3.163736 3.388249 1.088788 0
M  V30 40 H -0.188402 2.613529 5.165613 0
M  V30 41 H -2.166263 2.989208 3.822295 0
M  V30 42 H -2.102737 2.698177 1.433283 0
M  V30 43 H -1.668371 3.103191 -0.522701 0
M  V30 44 H -0.904757 2.254121 -1.884781 0
M  V30 45 H -1.887031 1.355230 -0.682999 0
M  V30 46 H 1.052150 -4.568385 -0.906521 0
M  V30 47 H 0.617983 -4.860637 -2.867700 0
M  V30 48 H -0.734718 -5.183975 -4.040672 0
M  V30 49 H -0.470505 -6.312712 -2.634348 0
M  V30 50 H -2.785283 -1.205357 -1.796385 0
M  V30 51 H -4.586798 -1.522441 -1.673516 0
M  V30 52 H -3.513340 -2.366010 -2.925739 0
M  V30 END ATOM
M  V30 BEGIN BOND
M  V30 1 1 1 2
M  V30 2 1 2 3
M  V30 3 2 3 4
M  V30 4 1 4 5
M  V30 5 1 5 6
M  V30 6 1 6 7
M  V30 7 2 7 8
M  V30 8 1 8 9
M  V30 9 2 9 10
M  V30 10 1 10 11
M  V30 11 2 11 12
M  V30 12 1 12 13
M  V30 13 1 13 14
M  V30 14 2 14 15
M  V30 15 1 15 16
M  V30 16 1 15 17
M  V30 17 2 17 18
M  V30 18 1 18 19
M  V30 19 2 19 20
M  V30 20 1 20 21
M  V30 21 1 21 22
M  V30 22 2 13 23
M  V30 23 1 23 24
M  V30 24 2 5 25
M  V30 25 1 25 26
M  V30 26 1 26 27
M  V30 27 1 27 28
M  V30 28 2 26 29
M  V30 29 1 29 30
M  V30 30 1 30 31
M  V30 31 1 29 3
M  V30 32 1 24 7
M  V30 33 1 23 9
M  V30 34 1 20 14
M  V30 35 1 1 32
M  V30 36 1 1 33
M  V30 37 1 1 34
M  V30 38 1 4 35
M  V30 39 1 6 36
M  V30 40 1 10 37
M  V30 41 1 11 38
M  V30 42 1 12 39
M  V30 43 1 17 40
M  V30 44 1 18 41
M  V30 45 1 19 42
M  V30 46 1 22 43
M  V30 47 1 22 44
M  V30 48 1 22 45
M  V30 49 1 25 46
M  V30 50 1 28 47
M  V30 51 1 28 48
M  V30 52 1 28 49
M  V30 53 1 31 50
M  V30 54 1 31 51
M  V30 55 1 31 52
M  V30 END BOND
M  V30 END CTAB
M  END
>  <Dataset>  (24) 
ChEMBL_Kinases

>  <Ligand_Instance>  (24) 
nan

>  <PDB_ID>  (24) 
nan

>  <Standardized_SMILES>  (24) 
COc1cc(Nc2nc3cccc(-c4c(F)cccc4OC)c3o2)cc(OC)c1OC

>  <Name>  (24) 
nan

>  <Pocket>  (24) 
nan

>  <ATP_Site>  (24) 
nan

>  <Peripheral>  (24) 
nan

>  <Num_H_Atoms_ProtBoundConf>  (24) 
nan

>  <Num_Resolved_Atoms>  (24) 
nan

>  <Num_Not_Resolved_Atoms>  (24) 
nan

$$$$
CHEMBL3675454
     RDKit          3D

  0  0  0  0  0  0  0  0  0  0999 V3000
M  V30 BEGIN CTAB
M  V30 COUNTS 57 60 0 0 0
M  V30 BEGIN ATOM
M  V30 1 C 0.326195 -4.339271 3.178009 0
M  V30 2 N 1.524829 -4.409730 2.392958 0
M  V30 3 C 2.596388 -4.955190 3.192286 0
M  V30 4 C 1.934330 -3.177951 1.823043 0
M  V30 5 C 0.972708 -2.714535 0.703864 0
M  V30 6 N 1.375293 -1.466290 0.140897 0
M  V30 7 C 1.778685 -0.229925 -0.419071 0
M  V30 8 N 2.893317 0.071159 -1.052730 0
M  V30 9 C 3.209809 1.267620 -1.537017 0
M  V30 10 N 2.293214 2.207394 -1.340842 0
M  V30 11 C 1.135618 2.004817 -0.712778 0
M  V30 12 C 0.298399 3.089992 -0.590503 0
M  V30 13 C 0.537254 4.428573 -1.069987 0
M  V30 14 N 1.748384 4.668686 -1.766290 0
M  V30 15 O -0.203099 5.418141 -0.945652 0
M  V30 16 C -0.882135 2.864593 0.057545 0
M  V30 17 C -1.362773 1.707174 0.609217 0
M  V30 18 O -2.389914 1.179941 1.257489 0
M  V30 19 C -3.582486 1.641158 1.681432 0
M  V30 20 C -4.594084 2.023393 0.668611 0
M  V30 21 C -4.451955 3.070625 -0.350901 0
M  V30 22 C -5.376466 3.289509 0.874399 0
M  V30 23 C -0.423215 0.662745 0.426276 0
M  V30 24 C 0.816588 0.752816 -0.212975 0
M  V30 25 C 0.709974 -3.812710 -0.246932 0
M  V30 26 C 1.645389 -4.123203 -1.236498 0
M  V30 27 C 1.457663 -5.128924 -2.149864 0
M  V30 28 C 0.300910 -5.900877 -2.130754 0
M  V30 29 C -0.654223 -5.632911 -1.172498 0
M  V30 30 F -1.787692 -6.355976 -1.117072 0
M  V30 31 C -0.413127 -4.611657 -0.280316 0
M  V30 32 H -0.565635 -3.969878 2.678825 0
M  V30 33 H 0.106348 -5.376081 3.523465 0
M  V30 34 H 0.532861 -3.702795 4.089818 0
M  V30 35 H 2.208176 -5.638014 3.991809 0
M  V30 36 H 3.317713 -5.501931 2.545860 0
M  V30 37 H 3.141698 -4.137000 3.697106 0
M  V30 38 H 1.947942 -2.397877 2.628153 0
M  V30 39 H 2.959822 -3.180056 1.416705 0
M  V30 40 H -0.004746 -2.610101 1.279416 0
M  V30 41 H 2.228087 -2.053222 -0.145710 0
M  V30 42 H 4.171082 1.321062 -2.024234 0
M  V30 43 H 1.453629 4.663735 -2.778081 0
M  V30 44 H 2.396555 4.741786 -0.921557 0
M  V30 45 H -1.566334 3.650839 0.225547 0
M  V30 46 H -3.463373 2.564541 2.372026 0
M  V30 47 H -4.059029 0.911926 2.428740 0
M  V30 48 H -5.284039 1.142241 0.427478 0
M  V30 49 H -5.050203 2.970189 -1.312806 0
M  V30 50 H -3.622131 3.752024 -0.457288 0
M  V30 51 H -4.967137 4.000311 1.619728 0
M  V30 52 H -6.463224 3.337538 0.679512 0
M  V30 53 H -0.543167 -0.372229 0.768167 0
M  V30 54 H 2.571572 -3.613572 -1.364276 0
M  V30 55 H 2.184592 -5.381873 -2.930242 0
M  V30 56 H 0.173263 -6.688134 -2.858434 0
M  V30 57 H -1.176084 -4.436366 0.438016 0
M  V30 END ATOM
M  V30 BEGIN BOND
M  V30 1 1 1 2
M  V30 2 1 2 3
M  V30 3 1 2 4
M  V30 4 1 4 5
M  V30 5 1 5 6
M  V30 6 1 6 7
M  V30 7 2 7 8
M  V30 8 1 8 9
M  V30 9 2 9 10
M  V30 10 1 10 11
M  V30 11 2 11 12
M  V30 12 1 12 13
M  V30 13 1 13 14
M  V30 14 2 13 15
M  V30 15 1 12 16
M  V30 16 2 16 17
M  V30 17 1 17 18
M  V30 18 1 18 19
M  V30 19 1 19 20
M  V30 20 1 20 21
M  V30 21 1 21 22
M  V30 22 1 17 23
M  V30 23 2 23 24
M  V30 24 1 5 25
M  V30 25 2 25 26
M  V30 26 1 26 27
M  V30 27 2 27 28
M  V30 28 1 28 29
M  V30 29 1 29 30
M  V30 30 2 29 31
M  V30 31 1 24 7
M  V30 32 1 31 25
M  V30 33 1 24 11
M  V30 34 1 22 20
M  V30 35 1 1 32
M  V30 36 1 1 33
M  V30 37 1 1 34
M  V30 38 1 3 35
M  V30 39 1 3 36
M  V30 40 1 3 37
M  V30 41 1 4 38
M  V30 42 1 4 39
M  V30 43 1 5 40
M  V30 44 1 6 41
M  V30 45 1 9 42
M  V30 46 1 14 43
M  V30 47 1 14 44
M  V30 48 1 16 45
M  V30 49 1 19 46
M  V30 50 1 19 47
M  V30 51 1 20 48
M  V30 52 1 21 49
M  V30 53 1 21 50
M  V30 54 1 22 51
M  V30 55 1 22 52
M  V30 56 1 23 53
M  V30 57 1 26 54
M  V30 58 1 27 55
M  V30 59 1 28 56
M  V30 60 1 31 57
M  V30 END BOND
M  V30 END CTAB
M  END
>  <Dataset>  (25) 
ChEMBL_Kinases

>  <Ligand_Instance>  (25) 
nan

>  <PDB_ID>  (25) 
nan

>  <Standardized_SMILES>  (25) 
CN(C)CC(Nc1ncnc2c(C(N)=O)cc(OCC3CC3)cc12)c1cccc(F)c1

>  <Name>  (25) 
nan

>  <Pocket>  (25) 
nan

>  <ATP_Site>  (25) 
nan

>  <Peripheral>  (25) 
nan

>  <Num_H_Atoms_ProtBoundConf>  (25) 
nan

>  <Num_Resolved_Atoms>  (25) 
nan

>  <Num_Not_Resolved_Atoms>  (25) 
nan

$$$$
CHEMBL3297948
     RDKit          3D

  0  0  0  0  0  0  0  0  0  0999 V3000
M  V30 BEGIN CTAB
M  V30 COUNTS 48 51 0 0 0
M  V30 BEGIN ATOM
M  V30 1 C -4.867317 -3.131005 1.623367 0
M  V30 2 O -3.865496 -4.068058 1.323219 0
M  V30 3 C -2.540081 -3.719035 1.109850 0
M  V30 4 C -2.119352 -2.399554 1.181542 0
M  V30 5 C -0.784493 -2.150382 0.954871 0
M  V30 6 C 0.173593 -3.094815 0.662654 0
M  V30 7 N 1.543704 -2.799855 0.434546 0
M  V30 8 C 2.173514 -1.525648 0.457825 0
M  V30 9 N 3.494263 -1.301214 0.232417 0
M  V30 10 C 3.670196 0.024505 0.347544 0
M  V30 11 C 4.810893 0.804435 0.218519 0
M  V30 12 C 4.707646 2.170522 0.391113 0
M  V30 13 C 3.483115 2.777026 0.691289 0
M  V30 14 C 2.354678 1.994461 0.817682 0
M  V30 15 C 1.049045 2.583977 1.131297 0
M  V30 16 C 0.796763 2.664893 2.502849 0
M  V30 17 F 1.661496 2.245499 3.454094 0
M  V30 18 C -0.410959 3.206584 2.928508 0
M  V30 19 C -1.373496 3.669464 2.028932 0
M  V30 20 C -1.081675 3.569933 0.679424 0
M  V30 21 C 0.102895 3.039838 0.213205 0
M  V30 22 O 0.461893 2.908965 -1.111255 0
M  V30 23 C -0.327420 3.297406 -2.200758 0
M  V30 24 C 2.487552 0.624507 0.639061 0
M  V30 25 O 1.627001 -0.359354 0.692115 0
M  V30 26 C -0.293953 -4.377924 0.604155 0
M  V30 27 C -1.615381 -4.699740 0.819847 0
M  V30 28 O -2.063729 -5.998257 0.755847 0
M  V30 29 C -1.306948 -7.136912 0.479140 0
M  V30 30 H -4.519444 -2.312683 2.313048 0
M  V30 31 H -5.245057 -2.672821 0.702150 0
M  V30 32 H -5.747753 -3.598048 2.114691 0
M  V30 33 H -2.829137 -1.624688 1.406529 0
M  V30 34 H -0.518387 -1.109309 1.024073 0
M  V30 35 H 2.163726 -3.638044 0.222010 0
M  V30 36 H 5.759909 0.317891 -0.015935 0
M  V30 37 H 5.587101 2.813023 0.296296 0
M  V30 38 H 3.430192 3.852555 0.821775 0
M  V30 39 H -0.635213 3.282137 4.002170 0
M  V30 40 H -2.314425 4.091165 2.374818 0
M  V30 41 H -1.780495 3.908449 -0.071341 0
M  V30 42 H 0.281133 3.621725 -3.078075 0
M  V30 43 H -1.084107 2.530235 -2.472846 0
M  V30 44 H -0.904174 4.195139 -1.897575 0
M  V30 45 H 0.406127 -5.178322 0.378286 0
M  V30 46 H -0.880721 -7.551990 1.433316 0
M  V30 47 H -1.940532 -7.968718 0.056674 0
M  V30 48 H -0.432667 -6.945169 -0.178237 0
M  V30 END ATOM
M  V30 BEGIN BOND
M  V30 1 1 1 2
M  V30 2 1 2 3
M  V30 3 2 3 4
M  V30 4 1 4 5
M  V30 5 2 5 6
M  V30 6 1 6 7
M  V30 7 1 7 8
M  V30 8 2 8 9
M  V30 9 1 9 10
M  V30 10 2 10 11
M  V30 11 1 11 12
M  V30 12 2 12 13
M  V30 13 1 13 14
M  V30 14 1 14 15
M  V30 15 2 15 16
M  V30 16 1 16 17
M  V30 17 1 16 18
M  V30 18 2 18 19
M  V30 19 1 19 20
M  V30 20 2 20 21
M  V30 21 1 21 22
M  V30 22 1 22 23
M  V30 23 2 14 24
M  V30 24 1 24 25
M  V30 25 1 6 26
M  V30 26 2 26 27
M  V30 27 1 27 28
M  V30 28 1 28 29
M  V30 29 1 27 3
M  V30 30 1 25 8
M  V30 31 1 24 10
M  V30 32 1 21 15
M  V30 33 1 1 30
M  V30 34 1 1 31
M  V30 35 1 1 32
M  V30 36 1 4 33
M  V30 37 1 5 34
M  V30 38 1 7 35
M  V30 39 1 11 36
M  V30 40 1 12 37
M  V30 41 1 13 38
M  V30 42 1 18 39
M  V30 43 1 19 40
M  V30 44 1 20 41
M  V30 45 1 23 42
M  V30 46 1 23 43
M  V30 47 1 23 44
M  V30 48 1 26 45
M  V30 49 1 29 46
M  V30 50 1 29 47
M  V30 51 1 29 48
M  V30 END BOND
M  V30 END CTAB
M  END
>  <Dataset>  (26) 
ChEMBL_Kinases

>  <Ligand_Instance>  (26) 
nan

>  <PDB_ID>  (26) 
nan

>  <Standardized_SMILES>  (26) 
COc1ccc(Nc2nc3cccc(-c4c(F)cccc4OC)c3o2)cc1OC

>  <Name>  (26) 
nan

>  <Pocket>  (26) 
nan

>  <ATP_Site>  (26) 
nan

>  <Peripheral>  (26) 
nan

>  <Num_H_Atoms_ProtBoundConf>  (26) 
nan

>  <Num_Resolved_Atoms>  (26) 
nan

>  <Num_Not_Resolved_Atoms>  (26) 
nan

$$$$
CHEMBL4208852
     RDKit          3D

  0  0  0  0  0  0  0  0  0  0999 V3000
M  V30 BEGIN CTAB
M  V30 COUNTS 60 64 0 0 0
M  V30 BEGIN ATOM
M  V30 1 C -0.364149 -4.017238 5.974275 0
M  V30 2 N 0.019285 -4.575221 4.702275 0
M  V30 3 C 0.219599 -3.701852 3.600929 0
M  V30 4 N 0.039189 -2.387976 3.804719 0
M  V30 5 C 0.214507 -1.501625 2.795435 0
M  V30 6 C 0.582561 -1.964850 1.548244 0
M  V30 7 C 0.835898 -1.337425 0.335438 0
M  V30 8 C 0.770465 0.095283 0.051834 0
M  V30 9 C 1.318996 1.038047 0.903214 0
M  V30 10 C 1.272934 2.406086 0.661337 0
M  V30 11 C 0.640078 2.807448 -0.496230 0
M  V30 12 N 0.537107 4.182232 -0.838497 0
M  V30 13 C 1.038121 5.304272 -0.073542 0
M  V30 14 C 0.054505 6.456932 -0.073201 0
M  V30 15 N -1.259674 5.954702 -0.362019 0
M  V30 16 C -1.791583 5.109611 0.659111 0
M  V30 17 C -1.380881 5.343579 -1.650575 0
M  V30 18 C -0.115633 4.622183 -2.056073 0
M  V30 19 N 0.097644 1.913091 -1.342650 0
M  V30 20 C 0.153886 0.583132 -1.087372 0
M  V30 21 N 1.156760 -2.313990 -0.536882 0
M  V30 22 N 1.117772 -3.513135 0.063084 0
M  V30 23 C 1.409778 -4.775027 -0.590469 0
M  V30 24 C 0.123292 -5.325581 -1.164648 0
M  V30 25 C -0.919559 -5.566466 -0.124400 0
M  V30 26 C -1.949199 -6.387974 -0.898535 0
M  V30 27 C -1.145980 -7.135270 -1.951681 0
M  V30 28 C 0.304828 -6.692779 -1.760110 0
M  V30 29 C 0.766100 -3.307940 1.343349 0
M  V30 30 N 0.578046 -4.147187 2.384094 0
M  V30 31 H -0.969050 -4.738840 6.552285 0
M  V30 32 H -0.992802 -3.123056 5.844869 0
M  V30 33 H 0.507088 -3.734024 6.597551 0
M  V30 34 H 0.143319 -5.608525 4.610614 0
M  V30 35 H 0.069477 -0.443114 2.957946 0
M  V30 36 H 1.810653 0.734520 1.801300 0
M  V30 37 H 1.714355 3.093014 1.354646 0
M  V30 38 H 1.969089 5.628988 -0.625620 0
M  V30 39 H 1.388934 5.052586 0.933676 0
M  V30 40 H 0.019220 6.842196 0.970739 0
M  V30 41 H 0.340918 7.276662 -0.753074 0
M  V30 42 H -1.990013 4.103085 0.221606 0
M  V30 43 H -2.718769 5.552567 1.083746 0
M  V30 44 H -1.091522 4.932502 1.500682 0
M  V30 45 H -1.674299 6.069820 -2.446095 0
M  V30 46 H -2.194886 4.587859 -1.587850 0
M  V30 47 H -0.359545 3.700366 -2.659891 0
M  V30 48 H 0.542936 5.213257 -2.713472 0
M  V30 49 H -0.299572 -0.088233 -1.803995 0
M  V30 50 H 2.157427 -4.665696 -1.396527 0
M  V30 51 H 1.781711 -5.534031 0.129111 0
M  V30 52 H -0.285278 -4.663718 -1.943327 0
M  V30 53 H -1.399371 -4.653435 0.246576 0
M  V30 54 H -0.548025 -6.239953 0.678667 0
M  V30 55 H -2.612240 -5.637165 -1.392674 0
M  V30 56 H -2.524648 -7.047567 -0.240583 0
M  V30 57 H -1.291182 -8.206077 -1.785430 0
M  V30 58 H -1.466934 -6.804518 -2.966786 0
M  V30 59 H 0.751992 -7.404123 -1.016171 0
M  V30 60 H 0.852996 -6.705374 -2.708104 0
M  V30 END ATOM
M  V30 BEGIN BOND
M  V30 1 1 1 2
M  V30 2 1 2 3
M  V30 3 2 3 4
M  V30 4 1 4 5
M  V30 5 2 5 6
M  V30 6 1 6 7
M  V30 7 1 7 8
M  V30 8 2 8 9
M  V30 9 1 9 10
M  V30 10 2 10 11
M  V30 11 1 11 12
M  V30 12 1 12 13
M  V30 13 1 13 14
M  V30 14 1 14 15
M  V30 15 1 15 16
M  V30 16 1 15 17
M  V30 17 1 17 18
M  V30 18 1 11 19
M  V30 19 2 19 20
M  V30 20 2 7 21
M  V30 21 1 21 22
M  V30 22 1 22 23
M  V30 23 1 23 24
M  V30 24 1 24 25
M  V30 25 1 25 26
M  V30 26 1 26 27
M  V30 27 1 27 28
M  V30 28 1 22 29
M  V30 29 2 29 30
M  V30 30 1 30 3
M  V30 31 1 29 6
M  V30 32 1 20 8
M  V30 33 1 28 24
M  V30 34 1 18 12
M  V30 35 1 1 31
M  V30 36 1 1 32
M  V30 37 1 1 33
M  V30 38 1 2 34
M  V30 39 1 5 35
M  V30 40 1 9 36
M  V30 41 1 10 37
M  V30 42 1 13 38
M  V30 43 1 13 39
M  V30 44 1 14 40
M  V30 45 1 14 41
M  V30 46 1 16 42
M  V30 47 1 16 43
M  V30 48 1 16 44
M  V30 49 1 17 45
M  V30 50 1 17 46
M  V30 51 1 18 47
M  V30 52 1 18 48
M  V30 53 1 20 49
M  V30 54 1 23 50
M  V30 55 1 23 51
M  V30 56 1 24 52
M  V30 57 1 25 53
M  V30 58 1 25 54
M  V30 59 1 26 55
M  V30 60 1 26 56
M  V30 61 1 27 57
M  V30 62 1 27 58
M  V30 63 1 28 59
M  V30 64 1 28 60
M  V30 END BOND
M  V30 END CTAB
M  END
>  <Dataset>  (27) 
ChEMBL_Kinases

>  <Ligand_Instance>  (27) 
nan

>  <PDB_ID>  (27) 
nan

>  <Standardized_SMILES>  (27) 
CNc1ncc2c(-c3ccc(N4CCN(C)CC4)nc3)nn(CC3CCCC3)c2n1

>  <Name>  (27) 
nan

>  <Pocket>  (27) 
nan

>  <ATP_Site>  (27) 
nan

>  <Peripheral>  (27) 
nan

>  <Num_H_Atoms_ProtBoundConf>  (27) 
nan

>  <Num_Resolved_Atoms>  (27) 
nan

>  <Num_Not_Resolved_Atoms>  (27) 
nan

$$$$
CHEMBL4208772
     RDKit          3D

  0  0  0  0  0  0  0  0  0  0999 V3000
M  V30 BEGIN CTAB
M  V30 COUNTS 51 55 0 0 0
M  V30 BEGIN ATOM
M  V30 1 N 2.604609 -6.730101 2.918154 0
M  V30 2 C 2.966170 -5.723071 2.440930 0
M  V30 3 C 3.399212 -4.477853 1.871621 0
M  V30 4 C 2.820833 -3.992823 0.694251 0
M  V30 5 C 3.281220 -2.783496 0.192677 0
M  V30 6 C 4.282617 -2.068737 0.829073 0
M  V30 7 C 4.655678 -0.803825 0.165050 0
M  V30 8 C 5.941464 -0.327565 -0.077087 0
M  V30 9 N 5.818290 0.872388 -0.710952 0
M  V30 10 C 4.513330 1.155116 -0.869322 0
M  V30 11 C 3.753156 2.168914 -1.409683 0
M  V30 12 C 2.364783 2.123907 -1.395784 0
M  V30 13 C 1.696608 1.056691 -0.837435 0
M  V30 14 C 0.239007 0.966144 -0.798865 0
M  V30 15 C -0.602200 1.929635 -1.313432 0
M  V30 16 C -1.972496 1.789432 -1.247019 0
M  V30 17 C -2.559354 0.685397 -0.666088 0
M  V30 18 C -3.947700 0.371134 -0.508079 0
M  V30 19 O -4.496065 0.187363 -1.629315 0
M  V30 20 N -4.335170 0.349923 0.859355 0
M  V30 21 C -3.535659 0.596984 2.051748 0
M  V30 22 C -3.608889 -0.576433 2.989087 0
M  V30 23 N -4.408800 -1.655714 2.488043 0
M  V30 24 C -5.683236 -1.273485 1.945167 0
M  V30 25 C -5.718011 0.044584 1.254649 0
M  V30 26 C -1.705316 -0.279954 -0.150345 0
M  V30 27 C -0.322780 -0.152044 -0.210243 0
M  V30 28 N 2.479253 0.090942 -0.322333 0
M  V30 29 N 3.798256 0.132026 -0.334690 0
M  V30 30 C 4.862478 -2.535158 1.991517 0
M  V30 31 C 4.397777 -3.738069 2.482011 0
M  V30 32 H 2.045546 -4.601867 0.251073 0
M  V30 33 H 2.782301 -2.480807 -0.718733 0
M  V30 34 H 6.841574 -0.865842 0.213174 0
M  V30 35 H 4.290548 3.003821 -1.845901 0
M  V30 36 H 1.823638 2.946982 -1.833901 0
M  V30 37 H -0.200919 2.798577 -1.771021 0
M  V30 38 H -2.676817 2.511804 -1.633776 0
M  V30 39 H -4.045974 1.454376 2.569141 0
M  V30 40 H -2.520476 0.940801 1.830495 0
M  V30 41 H -2.557268 -0.972345 3.077946 0
M  V30 42 H -3.888526 -0.271110 4.007359 0
M  V30 43 H -4.560250 -2.329396 3.278937 0
M  V30 44 H -5.979906 -2.068769 1.219162 0
M  V30 45 H -6.469392 -1.308805 2.732047 0
M  V30 46 H -6.373525 -0.039287 0.360636 0
M  V30 47 H -6.066681 0.876202 1.912914 0
M  V30 48 H -2.038708 -1.194306 0.331675 0
M  V30 49 H 0.341804 -0.917532 0.198805 0
M  V30 50 H 5.632116 -1.944628 2.444035 0
M  V30 51 H 4.889552 -4.066828 3.407932 0
M  V30 END ATOM
M  V30 BEGIN BOND
M  V30 1 3 1 2
M  V30 2 1 2 3
M  V30 3 2 3 4
M  V30 4 1 4 5
M  V30 5 2 5 6
M  V30 6 1 6 7
M  V30 7 2 7 8
M  V30 8 1 8 9
M  V30 9 2 9 10
M  V30 10 1 10 11
M  V30 11 2 11 12
M  V30 12 1 12 13
M  V30 13 1 13 14
M  V30 14 2 14 15
M  V30 15 1 15 16
M  V30 16 2 16 17
M  V30 17 1 17 18
M  V30 18 2 18 19
M  V30 19 1 18 20
M  V30 20 1 20 21
M  V30 21 1 21 22
M  V30 22 1 22 23
M  V30 23 1 23 24
M  V30 24 1 24 25
M  V30 25 1 17 26
M  V30 26 2 26 27
M  V30 27 2 13 28
M  V30 28 1 28 29
M  V30 29 1 6 30
M  V30 30 2 30 31
M  V30 31 1 31 3
M  V30 32 1 29 7
M  V30 33 1 29 10
M  V30 34 1 27 14
M  V30 35 1 25 20
M  V30 36 1 4 32
M  V30 37 1 5 33
M  V30 38 1 8 34
M  V30 39 1 11 35
M  V30 40 1 12 36
M  V30 41 1 15 37
M  V30 42 1 16 38
M  V30 43 1 21 39
M  V30 44 1 21 40
M  V30 45 1 22 41
M  V30 46 1 22 42
M  V30 47 1 23 43
M  V30 48 1 24 44
M  V30 49 1 24 45
M  V30 50 1 25 46
M  V30 51 1 25 47
M  V30 52 1 26 48
M  V30 53 1 27 49
M  V30 54 1 30 50
M  V30 55 1 31 51
M  V30 END BOND
M  V30 END CTAB
M  END
>  <Dataset>  (28) 
ChEMBL_Kinases

>  <Ligand_Instance>  (28) 
nan

>  <PDB_ID>  (28) 
nan

>  <Standardized_SMILES>  (28) 
N#Cc1ccc(-c2cnc3ccc(-c4ccc(C(=O)N5CCNCC5)cc4)nn23)cc1

>  <Name>  (28) 
nan

>  <Pocket>  (28) 
nan

>  <ATP_Site>  (28) 
nan

>  <Peripheral>  (28) 
nan

>  <Num_H_Atoms_ProtBoundConf>  (28) 
nan

>  <Num_Resolved_Atoms>  (28) 
nan

>  <Num_Not_Resolved_Atoms>  (28) 
nan

$$$$
CHEMBL3297951
     RDKit          3D

  0  0  0  0  0  0  0  0  0  0999 V3000
M  V30 BEGIN CTAB
M  V30 COUNTS 57 61 0 0 0
M  V30 BEGIN ATOM
M  V30 1 C 2.293517 -7.154652 1.642505 0
M  V30 2 O 1.764229 -6.009709 1.053931 0
M  V30 3 C 1.597297 -4.798618 1.680780 0
M  V30 4 C 1.930394 -4.545304 2.992087 0
M  V30 5 C 1.753682 -3.320020 3.599528 0
M  V30 6 C 1.215866 -2.290256 2.859907 0
M  V30 7 N 0.976659 -0.988684 3.416578 0
M  V30 8 C 0.751899 0.094439 2.525502 0
M  V30 9 N 1.860642 0.869294 2.503449 0
M  V30 10 C 1.660625 1.917606 1.650876 0
M  V30 11 C 2.436871 3.010778 1.240791 0
M  V30 12 C 1.912238 3.914629 0.336036 0
M  V30 13 C 0.636378 3.706535 -0.133887 0
M  V30 14 C -0.134903 2.626706 0.269268 0
M  V30 15 C -1.485400 2.376211 -0.221882 0
M  V30 16 C -1.580031 1.610310 -1.372681 0
M  V30 17 F -0.488034 1.126787 -2.006627 0
M  V30 18 C -2.874112 1.369199 -1.834605 0
M  V30 19 C -4.016462 1.845903 -1.212549 0
M  V30 20 C -3.853973 2.610422 -0.058284 0
M  V30 21 C -2.582803 2.878507 0.441875 0
M  V30 22 O -2.387731 3.636020 1.588230 0
M  V30 23 C -3.442074 4.194302 2.342510 0
M  V30 24 C 0.379784 1.723327 1.170045 0
M  V30 25 O -0.114018 0.640135 1.712237 0
M  V30 26 C 0.884359 -2.551123 1.547116 0
M  V30 27 C 1.044293 -3.763030 0.900413 0
M  V30 28 O 0.725275 -4.052086 -0.389231 0
M  V30 29 C 0.164809 -3.190225 -1.311161 0 CFG=1
M  V30 30 C 0.979074 -3.064389 -2.583490 0
M  V30 31 C -0.065827 -2.956363 -3.689997 0
M  V30 32 N -1.335558 -2.749206 -2.972956 0
M  V30 33 C -1.143281 -3.723650 -1.892241 0
M  V30 34 H 2.644223 -6.993005 2.670775 0
M  V30 35 H 1.559330 -7.996989 1.698761 0
M  V30 36 H 3.199732 -7.536125 1.084112 0
M  V30 37 H 2.355758 -5.292982 3.641729 0
M  V30 38 H 2.009273 -3.095209 4.630198 0
M  V30 39 H 0.965826 -0.840613 4.446459 0
M  V30 40 H 3.447675 3.111929 1.657207 0
M  V30 41 H 2.505807 4.766634 0.011501 0
M  V30 42 H 0.166884 4.377319 -0.842826 0
M  V30 43 H -2.909096 0.758901 -2.747383 0
M  V30 44 H -4.979445 1.616391 -1.632221 0
M  V30 45 H -4.736529 2.999656 0.451004 0
M  V30 46 H -3.079035 4.336413 3.390766 0
M  V30 47 H -4.273725 3.455655 2.389526 0
M  V30 48 H -3.769018 5.159211 1.880760 0
M  V30 49 H 0.471185 -1.738077 0.996879 0
M  V30 50 H 0.036702 -2.171760 -0.910846 0
M  V30 51 H 1.573363 -2.129119 -2.588038 0
M  V30 52 H 1.584331 -3.967725 -2.697542 0
M  V30 53 H -0.191990 -3.961698 -4.182002 0
M  V30 54 H 0.135985 -2.169185 -4.414776 0
M  V30 55 H -1.192952 -1.811150 -2.501442 0
M  V30 56 H -1.978561 -3.698166 -1.171065 0
M  V30 57 H -0.947391 -4.687855 -2.364519 0
M  V30 END ATOM
M  V30 BEGIN BOND
M  V30 1 1 1 2
M  V30 2 1 2 3
M  V30 3 2 3 4
M  V30 4 1 4 5
M  V30 5 2 5 6
M  V30 6 1 6 7
M  V30 7 1 7 8
M  V30 8 2 8 9
M  V30 9 1 9 10
M  V30 10 2 10 11
M  V30 11 1 11 12
M  V30 12 2 12 13
M  V30 13 1 13 14
M  V30 14 1 14 15
M  V30 15 2 15 16
M  V30 16 1 16 17
M  V30 17 1 16 18
M  V30 18 2 18 19
M  V30 19 1 19 20
M  V30 20 2 20 21
M  V30 21 1 21 22
M  V30 22 1 22 23
M  V30 23 2 14 24
M  V30 24 1 24 25
M  V30 25 1 6 26
M  V30 26 2 26 27
M  V30 27 1 27 28
M  V30 28 1 28 29
M  V30 29 1 29 30
M  V30 30 1 30 31
M  V30 31 1 31 32
M  V30 32 1 32 33
M  V30 33 1 27 3
M  V30 34 1 33 29
M  V30 35 1 25 8
M  V30 36 1 24 10
M  V30 37 1 21 15
M  V30 38 1 1 34
M  V30 39 1 1 35
M  V30 40 1 1 36
M  V30 41 1 4 37
M  V30 42 1 5 38
M  V30 43 1 7 39
M  V30 44 1 11 40
M  V30 45 1 12 41
M  V30 46 1 13 42
M  V30 47 1 18 43
M  V30 48 1 19 44
M  V30 49 1 20 45
M  V30 50 1 23 46
M  V30 51 1 23 47
M  V30 52 1 23 48
M  V30 53 1 26 49
M  V30 54 1 29 50 CFG=1
M  V30 55 1 30 51
M  V30 56 1 30 52
M  V30 57 1 31 53
M  V30 58 1 31 54
M  V30 59 1 32 55
M  V30 60 1 33 56
M  V30 61 1 33 57
M  V30 END BOND
M  V30 END CTAB
M  END
>  <Dataset>  (29) 
ChEMBL_Kinases

>  <Ligand_Instance>  (29) 
nan

>  <PDB_ID>  (29) 
nan

>  <Standardized_SMILES>  (29) 
COc1ccc(Nc2nc3cccc(-c4c(F)cccc4OC)c3o2)cc1O[C@H]1CCNC1

>  <Name>  (29) 
nan

>  <Pocket>  (29) 
nan

>  <ATP_Site>  (29) 
nan

>  <Peripheral>  (29) 
nan

>  <Num_H_Atoms_ProtBoundConf>  (29) 
nan

>  <Num_Resolved_Atoms>  (29) 
nan

>  <Num_Not_Resolved_Atoms>  (29) 
nan

$$$$
CHEMBL3298039
     RDKit          3D

  0  0  0  0  0  0  0  0  0  0999 V3000
M  V30 BEGIN CTAB
M  V30 COUNTS 52 55 0 0 0
M  V30 BEGIN ATOM
M  V30 1 C 2.138437 1.870352 -2.060830 0
M  V30 2 O 2.337863 1.740747 -0.658975 0
M  V30 3 C 3.405477 1.089333 -0.106439 0
M  V30 4 C 4.448768 0.461199 -0.746327 0
M  V30 5 C 5.473315 -0.165260 -0.046024 0
M  V30 6 C 5.430680 -0.149215 1.346341 0
M  V30 7 C 4.388294 0.478168 2.012069 0
M  V30 8 C 3.372401 1.099656 1.277070 0
M  V30 9 C 2.381517 1.698718 2.175825 0
M  V30 10 C 2.426127 2.972250 2.695874 0
M  V30 11 C 1.434256 3.423408 3.542523 0
M  V30 12 C 0.392406 2.565212 3.857061 0
M  V30 13 C 0.345814 1.293428 3.339037 0
M  V30 14 N -0.571791 0.293264 3.510961 0
M  V30 15 C -0.142533 -0.747771 2.779598 0
M  V30 16 N -0.414923 -2.104460 2.375697 0
M  V30 17 C -1.334668 -2.316482 1.315192 0
M  V30 18 C -2.117857 -1.275524 0.837159 0
M  V30 19 C -3.020855 -1.472250 -0.204128 0
M  V30 20 O -3.821533 -0.477931 -0.715298 0
M  V30 21 C -3.829418 0.839921 -0.257816 0
M  V30 22 C -3.151602 -2.726738 -0.785925 0
M  V30 23 O -4.048676 -2.932638 -1.824216 0
M  V30 24 C -5.383376 -3.332512 -1.568511 0
M  V30 25 C -2.380362 -3.791885 -0.329483 0
M  V30 26 O -2.552230 -4.999625 -0.941371 0
M  V30 27 C -1.906618 -6.204443 -0.672997 0
M  V30 28 C -1.504724 -3.537974 0.703231 0
M  V30 29 O 0.981577 -0.420142 2.181260 0
M  V30 30 C 1.343147 0.816106 2.477254 0
M  V30 31 H 2.980157 2.492604 -2.423712 0
M  V30 32 H 2.240661 0.874672 -2.554299 0
M  V30 33 H 1.157793 2.328183 -2.287365 0
M  V30 34 H 4.351728 0.525602 -1.828266 0
M  V30 35 H 6.251419 -0.633553 -0.637084 0
M  V30 36 H 6.275174 -0.663578 1.767358 0
M  V30 37 H 4.500445 0.401313 3.065838 0
M  V30 38 H 3.280395 3.577064 2.397187 0
M  V30 39 H 1.482585 4.431022 3.944642 0
M  V30 40 H -0.399377 2.855150 4.502371 0
M  V30 41 H 0.046122 -2.940879 2.837112 0
M  V30 42 H -2.033041 -0.277779 1.278280 0
M  V30 43 H -4.714348 1.355802 -0.705171 0
M  V30 44 H -2.909587 1.399635 -0.485565 0
M  V30 45 H -3.996716 0.931376 0.849941 0
M  V30 46 H -5.822167 -2.897574 -0.664707 0
M  V30 47 H -6.038869 -3.099331 -2.432059 0
M  V30 48 H -5.340347 -4.448821 -1.422823 0
M  V30 49 H -2.606583 -7.040427 -0.387806 0
M  V30 50 H -1.394899 -6.596811 -1.589255 0
M  V30 51 H -1.178970 -6.123741 0.162119 0
M  V30 52 H -0.886149 -4.333384 1.089143 0
M  V30 END ATOM
M  V30 BEGIN BOND
M  V30 1 1 1 2
M  V30 2 1 2 3
M  V30 3 2 3 4
M  V30 4 1 4 5
M  V30 5 2 5 6
M  V30 6 1 6 7
M  V30 7 2 7 8
M  V30 8 1 8 9
M  V30 9 2 9 10
M  V30 10 1 10 11
M  V30 11 2 11 12
M  V30 12 1 12 13
M  V30 13 1 13 14
M  V30 14 2 14 15
M  V30 15 1 15 16
M  V30 16 1 16 17
M  V30 17 2 17 18
M  V30 18 1 18 19
M  V30 19 1 19 20
M  V30 20 1 20 21
M  V30 21 2 19 22
M  V30 22 1 22 23
M  V30 23 1 23 24
M  V30 24 1 22 25
M  V30 25 1 25 26
M  V30 26 1 26 27
M  V30 27 2 25 28
M  V30 28 1 15 29
M  V30 29 1 29 30
M  V30 30 1 8 3
M  V30 31 1 30 9
M  V30 32 2 30 13
M  V30 33 1 28 17
M  V30 34 1 1 31
M  V30 35 1 1 32
M  V30 36 1 1 33
M  V30 37 1 4 34
M  V30 38 1 5 35
M  V30 39 1 6 36
M  V30 40 1 7 37
M  V30 41 1 10 38
M  V30 42 1 11 39
M  V30 43 1 12 40
M  V30 44 1 16 41
M  V30 45 1 18 42
M  V30 46 1 21 43
M  V30 47 1 21 44
M  V30 48 1 21 45
M  V30 49 1 24 46
M  V30 50 1 24 47
M  V30 51 1 24 48
M  V30 52 1 27 49
M  V30 53 1 27 50
M  V30 54 1 27 51
M  V30 55 1 28 52
M  V30 END BOND
M  V30 END CTAB
M  END
>  <Dataset>  (30) 
ChEMBL_Kinases

>  <Ligand_Instance>  (30) 
nan

>  <PDB_ID>  (30) 
nan

>  <Standardized_SMILES>  (30) 
COc1ccccc1-c1cccc2nc(Nc3cc(OC)c(OC)c(OC)c3)oc12

>  <Name>  (30) 
nan

>  <Pocket>  (30) 
nan

>  <ATP_Site>  (30) 
nan

>  <Peripheral>  (30) 
nan

>  <Num_H_Atoms_ProtBoundConf>  (30) 
nan

>  <Num_Resolved_Atoms>  (30) 
nan

>  <Num_Not_Resolved_Atoms>  (30) 
nan

$$$$
CHEMBL4208642
     RDKit          3D

  0  0  0  0  0  0  0  0  0  0999 V3000
M  V30 BEGIN CTAB
M  V30 COUNTS 54 59 0 0 0
M  V30 BEGIN ATOM
M  V30 1 F 2.464557 -4.027336 6.630824 0
M  V30 2 C 2.411414 -3.312154 5.459782 0
M  V30 3 C 1.489067 -2.294871 5.431104 0
M  V30 4 C 1.498877 -1.636101 4.200234 0
M  V30 5 C 2.322287 -1.948074 3.132232 0
M  V30 6 N 2.262429 -1.202561 1.922306 0
M  V30 7 C 2.965264 -0.168709 1.491673 0
M  V30 8 N 2.463868 0.117893 0.284519 0
M  V30 9 C 1.422087 -0.803839 0.020845 0
M  V30 10 C 1.122587 -0.301146 -1.175738 0
M  V30 11 N 0.814498 0.215491 -2.406107 0
M  V30 12 C 1.419498 1.551237 -2.386259 0
M  V30 13 C 0.582646 2.330157 -1.394285 0
M  V30 14 N 0.568736 2.590593 -0.083954 0
M  V30 15 C -0.476754 3.345319 0.272012 0
M  V30 16 C -0.851039 3.819932 1.508611 0
M  V30 17 F -0.120530 3.546867 2.631177 0
M  V30 18 C -2.010973 4.601435 1.642160 0
M  V30 19 F -2.366075 5.051756 2.865064 0
M  V30 20 C -2.716367 4.839885 0.458187 0
M  V30 21 C -2.327361 4.357789 -0.764029 0
M  V30 22 C -1.197545 3.601425 -0.874572 0
M  V30 23 N -0.529430 2.974528 -1.858863 0
M  V30 24 N 0.087934 -1.247014 -1.420383 0
M  V30 25 C -0.276291 -2.225440 -0.566204 0
M  V30 26 N -1.285705 -3.250200 -0.803105 0
M  V30 27 C -1.558868 -4.345082 0.101130 0
M  V30 28 C -2.527775 -5.244368 -0.679455 0
M  V30 29 O -3.651189 -4.458523 -0.892038 0
M  V30 30 C -3.450667 -3.468553 -1.820465 0
M  V30 31 C -2.000305 -3.112946 -2.060528 0
M  V30 32 N 0.325594 -2.407320 0.651837 0
M  V30 33 C 1.327806 -1.615791 1.074037 0
M  V30 34 C 3.211269 -3.014228 3.319818 0
M  V30 35 F 4.018502 -3.331291 2.285392 0
M  V30 36 C 3.292190 -3.746057 4.504285 0
M  V30 37 H 0.857042 -2.072082 6.274709 0
M  V30 38 H 0.780869 -0.806334 4.090244 0
M  V30 39 H 3.768090 0.265789 2.096760 0
M  V30 40 H 0.387411 0.114579 -3.304673 0
M  V30 41 H 2.454879 1.506389 -2.014949 0
M  V30 42 H 1.388311 2.028555 -3.366048 0
M  V30 43 H -3.621269 5.457319 0.585303 0
M  V30 44 H -2.914310 4.570422 -1.651104 0
M  V30 45 H -0.891143 3.023784 -2.858988 0
M  V30 46 H -2.129162 -3.928855 0.953723 0
M  V30 47 H -0.664141 -4.900149 0.435072 0
M  V30 48 H -2.754786 -6.099057 -0.054146 0
M  V30 49 H -2.097328 -5.573102 -1.627358 0
M  V30 50 H -3.944878 -2.540472 -1.482261 0
M  V30 51 H -3.936360 -3.818736 -2.779202 0
M  V30 52 H -1.547304 -3.878199 -2.775847 0
M  V30 53 H -1.937717 -2.091642 -2.476549 0
M  V30 54 H 3.968518 -4.564366 4.662767 0
M  V30 END ATOM
M  V30 BEGIN BOND
M  V30 1 1 1 2
M  V30 2 2 2 3
M  V30 3 1 3 4
M  V30 4 2 4 5
M  V30 5 1 5 6
M  V30 6 1 6 7
M  V30 7 2 7 8
M  V30 8 1 8 9
M  V30 9 2 9 10
M  V30 10 1 10 11
M  V30 11 1 11 12
M  V30 12 1 12 13
M  V30 13 2 13 14
M  V30 14 1 14 15
M  V30 15 2 15 16
M  V30 16 1 16 17
M  V30 17 1 16 18
M  V30 18 1 18 19
M  V30 19 2 18 20
M  V30 20 1 20 21
M  V30 21 2 21 22
M  V30 22 1 22 23
M  V30 23 1 10 24
M  V30 24 2 24 25
M  V30 25 1 25 26
M  V30 26 1 26 27
M  V30 27 1 27 28
M  V30 28 1 28 29
M  V30 29 1 29 30
M  V30 30 1 30 31
M  V30 31 1 25 32
M  V30 32 2 32 33
M  V30 33 1 5 34
M  V30 34 1 34 35
M  V30 35 2 34 36
M  V30 36 1 36 2
M  V30 37 1 33 6
M  V30 38 1 33 9
M  V30 39 1 23 13
M  V30 40 1 31 26
M  V30 41 1 22 15
M  V30 42 1 3 37
M  V30 43 1 4 38
M  V30 44 1 7 39
M  V30 45 1 11 40
M  V30 46 1 12 41
M  V30 47 1 12 42
M  V30 48 1 20 43
M  V30 49 1 21 44
M  V30 50 1 23 45
M  V30 51 1 27 46
M  V30 52 1 27 47
M  V30 53 1 28 48
M  V30 54 1 28 49
M  V30 55 1 30 50
M  V30 56 1 30 51
M  V30 57 1 31 52
M  V30 58 1 31 53
M  V30 59 1 36 54
M  V30 END BOND
M  V30 END CTAB
M  END
>  <Dataset>  (31) 
ChEMBL_Kinases

>  <Ligand_Instance>  (31) 
nan

>  <PDB_ID>  (31) 
nan

>  <Standardized_SMILES>  (31) 
Fc1ccc(-n2cnc3c(NCc4nc5c(F)c(F)ccc5[nH]4)nc(N4CCOCC4)nc32)c(F)c1

>  <Name>  (31) 
nan

>  <Pocket>  (31) 
nan

>  <ATP_Site>  (31) 
nan

>  <Peripheral>  (31) 
nan

>  <Num_H_Atoms_ProtBoundConf>  (31) 
nan

>  <Num_Resolved_Atoms>  (31) 
nan

>  <Num_Not_Resolved_Atoms>  (31) 
nan

$$$$
CHEMBL4208890
     RDKit          3D

  0  0  0  0  0  0  0  0  0  0999 V3000
M  V30 BEGIN CTAB
M  V30 COUNTS 56 60 0 0 0
M  V30 BEGIN ATOM
M  V30 1 C 1.545530 -4.866129 -1.500883 0
M  V30 2 C 2.267093 -4.304123 -2.665564 0
M  V30 3 O 1.791152 -4.655509 -3.793771 0
M  V30 4 N 3.393933 -3.445802 -2.588047 0
M  V30 5 C 4.128598 -2.901870 -1.427247 0
M  V30 6 C 4.358156 -1.414187 -1.644536 0
M  V30 7 N 3.480089 -0.921967 -2.696967 0
M  V30 8 C 2.330886 -0.086559 -2.651629 0
M  V30 9 O 1.749368 0.198053 -3.750425 0
M  V30 10 C 1.819469 0.436787 -1.392118 0
M  V30 11 C 2.349044 1.299672 -0.455742 0
M  V30 12 C 1.603656 1.606271 0.660424 0
M  V30 13 C 0.346035 1.110451 0.922637 0
M  V30 14 C -0.315520 1.530542 2.151782 0
M  V30 15 C -1.565644 1.077657 2.510695 0
M  V30 16 N -2.184347 1.460134 3.669360 0
M  V30 17 C -3.388391 1.163978 4.236111 0
M  V30 18 C -4.347108 0.260630 3.597115 0
M  V30 19 C -3.942336 -0.949711 3.117067 0
M  V30 20 C -4.839023 -1.807612 2.497775 0
M  V30 21 C -6.170352 -1.404743 2.375913 0
M  V30 22 O -7.058449 -2.274256 1.752846 0
M  V30 23 C -6.517035 -0.172886 2.880423 0
M  V30 24 C -5.666837 0.713689 3.502321 0
M  V30 25 C -3.424052 1.892574 5.436617 0
M  V30 26 N -2.267729 2.572446 5.529095 0
M  V30 27 C -1.508929 2.313249 4.457044 0
M  V30 28 C -0.240691 2.799004 4.134483 0
M  V30 29 N 0.331636 2.383198 2.964202 0
M  V30 30 C -0.182504 0.248214 -0.013218 0
M  V30 31 C 0.539645 -0.092161 -1.164361 0
M  V30 32 C 3.958737 -1.464334 -3.961241 0
M  V30 33 C 4.001555 -2.962835 -3.822984 0
M  V30 34 H 0.463255 -4.648139 -1.614606 0
M  V30 35 H 1.885127 -4.368737 -0.547048 0
M  V30 36 H 1.747327 -5.946777 -1.342770 0
M  V30 37 H 3.564877 -3.079746 -0.496199 0
M  V30 38 H 5.116049 -3.403090 -1.442913 0
M  V30 39 H 5.387527 -1.163734 -1.907795 0
M  V30 40 H 4.099194 -0.904604 -0.697101 0
M  V30 41 H 3.326247 1.628008 -0.749331 0
M  V30 42 H 2.100265 2.297852 1.349857 0
M  V30 43 H -2.074213 0.406425 1.858005 0
M  V30 44 H -2.936734 -1.338885 3.176928 0
M  V30 45 H -4.528112 -2.766222 2.116459 0
M  V30 46 H -7.858371 -1.898679 1.248029 0
M  V30 47 H -7.578553 0.043241 2.732872 0
M  V30 48 H -6.014934 1.659175 3.873629 0
M  V30 49 H -4.342302 1.747832 5.998498 0
M  V30 50 H 0.281762 3.479889 4.772687 0
M  V30 51 H -1.176371 -0.159399 0.167951 0
M  V30 52 H -0.013872 -0.786588 -1.812923 0
M  V30 53 H 3.268241 -1.125228 -4.763583 0
M  V30 54 H 4.956468 -1.092190 -4.205137 0
M  V30 55 H 3.503868 -3.461460 -4.692604 0
M  V30 56 H 5.071120 -3.266671 -3.767236 0
M  V30 END ATOM
M  V30 BEGIN BOND
M  V30 1 1 1 2
M  V30 2 2 2 3
M  V30 3 1 2 4
M  V30 4 1 4 5
M  V30 5 1 5 6
M  V30 6 1 6 7
M  V30 7 1 7 8
M  V30 8 2 8 9
M  V30 9 1 8 10
M  V30 10 2 10 11
M  V30 11 1 11 12
M  V30 12 2 12 13
M  V30 13 1 13 14
M  V30 14 2 14 15
M  V30 15 1 15 16
M  V30 16 1 16 17
M  V30 17 1 17 18
M  V30 18 2 18 19
M  V30 19 1 19 20
M  V30 20 2 20 21
M  V30 21 1 21 22
M  V30 22 1 21 23
M  V30 23 2 23 24
M  V30 24 2 17 25
M  V30 25 1 25 26
M  V30 26 2 26 27
M  V30 27 1 27 28
M  V30 28 2 28 29
M  V30 29 1 13 30
M  V30 30 2 30 31
M  V30 31 1 7 32
M  V30 32 1 32 33
M  V30 33 1 33 4
M  V30 34 1 31 10
M  V30 35 1 29 14
M  V30 36 1 27 16
M  V30 37 1 24 18
M  V30 38 1 1 34
M  V30 39 1 1 35
M  V30 40 1 1 36
M  V30 41 1 5 37
M  V30 42 1 5 38
M  V30 43 1 6 39
M  V30 44 1 6 40
M  V30 45 1 11 41
M  V30 46 1 12 42
M  V30 47 1 15 43
M  V30 48 1 19 44
M  V30 49 1 20 45
M  V30 50 1 22 46
M  V30 51 1 23 47
M  V30 52 1 24 48
M  V30 53 1 25 49
M  V30 54 1 28 50
M  V30 55 1 30 51
M  V30 56 1 31 52
M  V30 57 1 32 53
M  V30 58 1 32 54
M  V30 59 1 33 55
M  V30 60 1 33 56
M  V30 END BOND
M  V30 END CTAB
M  END
>  <Dataset>  (32) 
ChEMBL_Kinases

>  <Ligand_Instance>  (32) 
nan

>  <PDB_ID>  (32) 
nan

>  <Standardized_SMILES>  (32) 
CC(=O)N1CCN(C(=O)c2ccc(-c3cn4c(-c5ccc(O)cc5)cnc4cn3)cc2)CC1

>  <Name>  (32) 
nan

>  <Pocket>  (32) 
nan

>  <ATP_Site>  (32) 
nan

>  <Peripheral>  (32) 
nan

>  <Num_H_Atoms_ProtBoundConf>  (32) 
nan

>  <Num_Resolved_Atoms>  (32) 
nan

>  <Num_Not_Resolved_Atoms>  (32) 
nan

$$$$
CHEMBL3288854
     RDKit          3D

  0  0  0  0  0  0  0  0  0  0999 V3000
M  V30 BEGIN CTAB
M  V30 COUNTS 59 62 0 0 0
M  V30 BEGIN ATOM
M  V30 1 C -2.435148 0.859558 2.412000 0
M  V30 2 C -0.955090 0.866685 2.350797 0
M  V30 3 N -0.177020 1.917166 2.759894 0
M  V30 4 C 1.091370 1.521272 2.566038 0
M  V30 5 C 2.141704 2.455875 2.948496 0
M  V30 6 C 2.946960 3.011827 2.036268 0
M  V30 7 C 2.985706 2.858461 0.566891 0
M  V30 8 O 2.162085 2.128467 -0.051480 0
M  V30 9 N 4.069157 3.665586 0.130559 0
M  V30 10 C 4.699155 4.305813 1.232099 0
M  V30 11 C 5.789240 5.168391 1.196189 0
M  V30 12 C 6.250627 5.685590 2.394675 0
M  V30 13 C 5.624832 5.338545 3.596667 0
M  V30 14 F 6.060236 5.832922 4.778520 0
M  V30 15 C 4.530727 4.465211 3.570803 0
M  V30 16 C 4.039559 3.927746 2.398940 0
M  V30 17 C 1.148083 0.252397 2.049123 0
M  V30 18 C 2.389830 -0.508957 1.757089 0
M  V30 19 C -0.176616 -0.175141 1.905235 0
M  V30 20 N -0.421713 -1.459876 1.397028 0
M  V30 21 C -1.543757 -2.086241 0.833397 0
M  V30 22 O -2.616475 -1.460921 0.696222 0
M  V30 23 C -1.649683 -3.507208 0.329774 0
M  V30 24 C -3.002584 -3.640887 -0.329762 0
M  V30 25 N -3.256551 -4.921480 -0.833034 0
M  V30 26 C -4.481684 -5.067316 -1.572750 0
M  V30 27 C -4.317021 -5.595185 -2.953961 0
M  V30 28 N -3.013039 -5.314612 -3.445470 0
M  V30 29 C -2.760195 -3.975175 -3.865602 0
M  V30 30 C -1.958943 -5.906877 -2.656945 0
M  V30 31 C -2.232237 -5.806047 -1.177853 0
M  V30 32 H -2.746851 1.704760 3.100785 0
M  V30 33 H -2.833370 -0.037633 2.937164 0
M  V30 34 H -2.949784 1.066883 1.479196 0
M  V30 35 H -0.574126 2.811866 3.134479 0
M  V30 36 H 2.243129 2.679430 3.995472 0
M  V30 37 H 4.232087 3.664342 -0.908227 0
M  V30 38 H 6.266311 5.430464 0.263601 0
M  V30 39 H 7.104004 6.368836 2.428852 0
M  V30 40 H 4.040514 4.191349 4.494809 0
M  V30 41 H 3.208362 0.144000 1.430469 0
M  V30 42 H 2.222369 -1.277897 0.986614 0
M  V30 43 H 2.763562 -1.024628 2.672436 0
M  V30 44 H 0.335928 -2.209901 1.398369 0
M  V30 45 H -1.540933 -4.150412 1.217913 0
M  V30 46 H -0.810667 -3.700258 -0.382091 0
M  V30 47 H -3.772223 -3.381546 0.436482 0
M  V30 48 H -3.101554 -2.915761 -1.188200 0
M  V30 49 H -5.003376 -4.094063 -1.611626 0
M  V30 50 H -5.180840 -5.748004 -1.023383 0
M  V30 51 H -4.494938 -6.687366 -3.044035 0
M  V30 52 H -5.041379 -5.063062 -3.634681 0
M  V30 53 H -2.342907 -3.969520 -4.898959 0
M  V30 54 H -3.618853 -3.297690 -3.765693 0
M  V30 55 H -1.968131 -3.547989 -3.201751 0
M  V30 56 H -1.889283 -6.975798 -2.928771 0
M  V30 57 H -1.004000 -5.427134 -2.948692 0
M  V30 58 H -1.293388 -5.573663 -0.669648 0
M  V30 59 H -2.512312 -6.830129 -0.781184 0
M  V30 END ATOM
M  V30 BEGIN BOND
M  V30 1 1 1 2
M  V30 2 1 2 3
M  V30 3 1 3 4
M  V30 4 1 4 5
M  V30 5 2 5 6
M  V30 6 1 6 7
M  V30 7 2 7 8
M  V30 8 1 7 9
M  V30 9 1 9 10
M  V30 10 2 10 11
M  V30 11 1 11 12
M  V30 12 2 12 13
M  V30 13 1 13 14
M  V30 14 1 13 15
M  V30 15 2 15 16
M  V30 16 2 4 17
M  V30 17 1 17 18
M  V30 18 1 17 19
M  V30 19 1 19 20
M  V30 20 1 20 21
M  V30 21 2 21 22
M  V30 22 1 21 23
M  V30 23 1 23 24
M  V30 24 1 24 25
M  V30 25 1 25 26
M  V30 26 1 26 27
M  V30 27 1 27 28
M  V30 28 1 28 29
M  V30 29 1 28 30
M  V30 30 1 30 31
M  V30 31 2 19 2
M  V30 32 1 31 25
M  V30 33 1 16 6
M  V30 34 1 16 10
M  V30 35 1 1 32
M  V30 36 1 1 33
M  V30 37 1 1 34
M  V30 38 1 3 35
M  V30 39 1 5 36
M  V30 40 1 9 37
M  V30 41 1 11 38
M  V30 42 1 12 39
M  V30 43 1 15 40
M  V30 44 1 18 41
M  V30 45 1 18 42
M  V30 46 1 18 43
M  V30 47 1 20 44
M  V30 48 1 23 45
M  V30 49 1 23 46
M  V30 50 1 24 47
M  V30 51 1 24 48
M  V30 52 1 26 49
M  V30 53 1 26 50
M  V30 54 1 27 51
M  V30 55 1 27 52
M  V30 56 1 29 53
M  V30 57 1 29 54
M  V30 58 1 29 55
M  V30 59 1 30 56
M  V30 60 1 30 57
M  V30 61 1 31 58
M  V30 62 1 31 59
M  V30 END BOND
M  V30 END CTAB
M  END
>  <Dataset>  (33) 
ChEMBL_Kinases

>  <Ligand_Instance>  (33) 
nan

>  <PDB_ID>  (33) 
nan

>  <Standardized_SMILES>  (33) 
Cc1[nH]c(/C=C2\C(=O)Nc3ccc(F)cc32)c(C)c1NC(=O)CCN1CCN(C)CC1

>  <Name>  (33) 
nan

>  <Pocket>  (33) 
nan

>  <ATP_Site>  (33) 
nan

>  <Peripheral>  (33) 
nan

>  <Num_H_Atoms_ProtBoundConf>  (33) 
nan

>  <Num_Resolved_Atoms>  (33) 
nan

>  <Num_Not_Resolved_Atoms>  (33) 
nan

$$$$
CHEMBL3289011
     RDKit          3D

  0  0  0  0  0  0  0  0  0  0999 V3000
M  V30 BEGIN CTAB
M  V30 COUNTS 61 63 0 0 0
M  V30 BEGIN ATOM
M  V30 1 C 1.467233 3.818294 4.577183 0
M  V30 2 C 1.757091 2.694418 3.567511 0
M  V30 3 C 2.923968 3.045036 2.705142 0
M  V30 4 C 3.314496 2.013889 1.691038 0
M  V30 5 C 4.494667 2.501279 0.888223 0
M  V30 6 C 5.710080 2.781506 1.735209 0
M  V30 7 C 6.073707 1.485623 2.423905 0
M  V30 8 C 2.216059 1.608906 0.776626 0
M  V30 9 O 2.226388 1.811337 -0.434081 0
M  V30 10 O 1.211615 0.994276 1.423152 0
M  V30 11 C 0.017374 0.441581 1.033333 0
M  V30 12 C 0.134353 -0.746564 0.159098 0
M  V30 13 C 0.539369 -0.568466 -1.251199 0
M  V30 14 O -0.097383 0.472393 -1.924896 0
M  V30 15 C -1.247765 -1.507921 0.193012 0
M  V30 16 C -0.839903 -2.756755 -0.474185 0
M  V30 17 C -1.548754 -3.560898 -1.213241 0
M  V30 18 C -2.949433 -3.439269 -1.582607 0
M  V30 19 C -3.699953 -2.403974 -2.044587 0
M  V30 20 C -5.036750 -2.480714 -2.312419 0
M  V30 21 C -5.734978 -3.654019 -2.125638 0
M  V30 22 C -5.023035 -4.736864 -1.659150 0
M  V30 23 C -3.676429 -4.624799 -1.398874 0
M  V30 24 C -3.334133 -5.907594 -0.954452 0
M  V30 25 C -4.439891 -6.729400 -0.957563 0
M  V30 26 N -5.462312 -5.978277 -1.396363 0
M  V30 27 C -6.816159 -6.493831 -1.540414 0
M  V30 28 C 0.583566 -2.911401 -0.112842 0
M  V30 29 O 1.337892 -3.864607 -0.500708 0
M  V30 30 O 0.900140 -1.817755 0.717915 0
M  V30 31 H 2.445214 4.215788 4.902977 0
M  V30 32 H 0.886391 3.434547 5.441228 0
M  V30 33 H 0.833845 4.604681 4.079891 0
M  V30 34 H 0.830605 2.643809 2.954067 0
M  V30 35 H 1.938948 1.780484 4.149042 0
M  V30 36 H 3.807039 3.131893 3.407799 0
M  V30 37 H 2.827668 4.060695 2.243238 0
M  V30 38 H 3.666199 1.122235 2.294312 0
M  V30 39 H 4.192164 3.441451 0.367140 0
M  V30 40 H 4.705488 1.745929 0.112531 0
M  V30 41 H 5.530552 3.573842 2.463212 0
M  V30 42 H 6.570781 3.090012 1.081989 0
M  V30 43 H 7.180692 1.299906 2.359081 0
M  V30 44 H 5.602122 0.596800 1.962868 0
M  V30 45 H 5.850489 1.575203 3.513113 0
M  V30 46 H -0.650794 1.217632 0.527222 0
M  V30 47 H -0.572011 0.181842 1.968699 0
M  V30 48 H 0.242890 -1.551128 -1.780407 0
M  V30 49 H 1.634295 -0.572115 -1.365631 0
M  V30 50 H 0.627062 0.900898 -2.476767 0
M  V30 51 H -1.995497 -0.903008 -0.292405 0
M  V30 52 H -1.412627 -1.666840 1.280203 0
M  V30 53 H -1.008890 -4.439495 -1.602653 0
M  V30 54 H -3.151046 -1.492420 -2.203230 0
M  V30 55 H -5.502370 -1.572161 -2.675369 0
M  V30 56 H -6.790030 -3.637644 -2.358734 0
M  V30 57 H -2.358552 -6.233879 -0.648506 0
M  V30 58 H -4.487605 -7.769435 -0.668102 0
M  V30 59 H -7.075352 -7.114595 -0.656910 0
M  V30 60 H -6.864867 -7.153725 -2.415814 0
M  V30 61 H -7.531736 -5.657246 -1.536778 0
M  V30 END ATOM
M  V30 BEGIN BOND
M  V30 1 1 1 2
M  V30 2 1 2 3
M  V30 3 1 3 4
M  V30 4 1 4 5
M  V30 5 1 5 6
M  V30 6 1 6 7
M  V30 7 1 4 8
M  V30 8 2 8 9
M  V30 9 1 8 10
M  V30 10 1 10 11
M  V30 11 1 11 12
M  V30 12 1 12 13
M  V30 13 1 13 14
M  V30 14 1 12 15
M  V30 15 1 15 16
M  V30 16 2 16 17
M  V30 17 1 17 18
M  V30 18 2 18 19
M  V30 19 1 19 20
M  V30 20 2 20 21
M  V30 21 1 21 22
M  V30 22 2 22 23
M  V30 23 1 23 24
M  V30 24 2 24 25
M  V30 25 1 25 26
M  V30 26 1 26 27
M  V30 27 1 16 28
M  V30 28 2 28 29
M  V30 29 1 28 30
M  V30 30 1 30 12
M  V30 31 1 23 18
M  V30 32 1 26 22
M  V30 33 1 1 31
M  V30 34 1 1 32
M  V30 35 1 1 33
M  V30 36 1 2 34
M  V30 37 1 2 35
M  V30 38 1 3 36
M  V30 39 1 3 37
M  V30 40 1 4 38
M  V30 41 1 5 39
M  V30 42 1 5 40
M  V30 43 1 6 41
M  V30 44 1 6 42
M  V30 45 1 7 43
M  V30 46 1 7 44
M  V30 47 1 7 45
M  V30 48 1 11 46
M  V30 49 1 11 47
M  V30 50 1 13 48
M  V30 51 1 13 49
M  V30 52 1 14 50
M  V30 53 1 15 51
M  V30 54 1 15 52
M  V30 55 1 17 53
M  V30 56 1 19 54
M  V30 57 1 20 55
M  V30 58 1 21 56
M  V30 59 1 24 57
M  V30 60 1 25 58
M  V30 61 1 27 59
M  V30 62 1 27 60
M  V30 63 1 27 61
M  V30 END BOND
M  V30 END CTAB
M  END
>  <Dataset>  (34) 
ChEMBL_Kinases

>  <Ligand_Instance>  (34) 
nan

>  <PDB_ID>  (34) 
nan

>  <Standardized_SMILES>  (34) 
CCCC(CCC)C(=O)OCC1(CO)C/C(=C\c2cccc3c2ccn3C)C(=O)O1

>  <Name>  (34) 
nan

>  <Pocket>  (34) 
nan

>  <ATP_Site>  (34) 
nan

>  <Peripheral>  (34) 
nan

>  <Num_H_Atoms_ProtBoundConf>  (34) 
nan

>  <Num_Resolved_Atoms>  (34) 
nan

>  <Num_Not_Resolved_Atoms>  (34) 
nan

$$$$
CHEMBL3289012
     RDKit          3D

  0  0  0  0  0  0  0  0  0  0999 V3000
M  V30 BEGIN CTAB
M  V30 COUNTS 61 63 0 0 0
M  V30 BEGIN ATOM
M  V30 1 C 0.957237 3.173117 3.348948 0
M  V30 2 C 2.279674 3.831848 3.509789 0
M  V30 3 C 3.462919 3.109812 2.958379 0
M  V30 4 C 3.430616 2.836365 1.490379 0
M  V30 5 C 4.725798 2.117752 1.069289 0
M  V30 6 C 4.918986 0.808870 1.784086 0
M  V30 7 C 6.203434 0.138613 1.327896 0
M  V30 8 C 2.313722 1.997425 1.028959 0
M  V30 9 O 1.402361 2.423453 0.272060 0
M  V30 10 O 1.813120 0.716372 1.132426 0
M  V30 11 C 0.596720 0.485021 0.410521 0
M  V30 12 C 0.267513 -0.969658 0.683441 0
M  V30 13 C 1.239050 -1.867019 -0.005927 0
M  V30 14 O 2.554557 -1.732080 0.414196 0
M  V30 15 C -1.105502 -1.297690 0.098943 0
M  V30 16 C -1.786665 -1.938501 1.217706 0
M  V30 17 C -2.780678 -2.779776 1.192770 0
M  V30 18 C -3.466643 -3.299027 0.031209 0
M  V30 19 C -4.868598 -3.264784 0.106078 0
M  V30 20 C -5.684354 -3.748860 -0.921596 0
M  V30 21 C -5.141280 -4.287659 -2.067901 0
M  V30 22 C -3.763196 -4.331223 -2.162068 0
M  V30 23 C -3.394602 -4.898892 -3.370175 0
M  V30 24 C -4.585426 -5.195605 -3.999225 0
M  V30 25 N -5.626130 -4.822113 -3.203166 0
M  V30 26 C -7.047790 -4.946336 -3.462136 0
M  V30 27 C -2.991183 -3.846824 -1.131972 0
M  V30 28 C -1.129253 -1.444173 2.417518 0
M  V30 29 O -1.631882 -1.328833 3.585553 0
M  V30 30 O 0.170368 -1.111586 2.063907 0
M  V30 31 H 1.027694 2.090081 3.345169 0
M  V30 32 H 0.357275 3.608440 2.497624 0
M  V30 33 H 0.311675 3.424406 4.246094 0
M  V30 34 H 2.477335 3.929127 4.618370 0
M  V30 35 H 2.260715 4.914163 3.177614 0
M  V30 36 H 4.345224 3.745882 3.154615 0
M  V30 37 H 3.621329 2.196892 3.576851 0
M  V30 38 H 3.448490 3.802261 0.964637 0
M  V30 39 H 5.613976 2.753716 1.218442 0
M  V30 40 H 4.681169 1.892209 -0.020657 0
M  V30 41 H 4.106158 0.098950 1.667880 0
M  V30 42 H 5.077948 1.009027 2.874403 0
M  V30 43 H 6.022107 -0.887103 0.970793 0
M  V30 44 H 6.673841 0.703043 0.483643 0
M  V30 45 H 6.956200 0.052972 2.136214 0
M  V30 46 H 0.724015 0.637226 -0.687008 0
M  V30 47 H -0.236075 1.095705 0.762636 0
M  V30 48 H 1.256145 -1.628805 -1.111898 0
M  V30 49 H 0.919954 -2.930023 0.024992 0
M  V30 50 H 3.073243 -1.157904 -0.188788 0
M  V30 51 H -1.027861 -1.848448 -0.835112 0
M  V30 52 H -1.580101 -0.286350 -0.112122 0
M  V30 53 H -3.172771 -3.167214 2.149421 0
M  V30 54 H -5.366277 -2.859644 0.969161 0
M  V30 55 H -6.745036 -3.695083 -0.803293 0
M  V30 56 H -2.378414 -5.072876 -3.740766 0
M  V30 57 H -4.690031 -5.649103 -4.964126 0
M  V30 58 H -7.448559 -5.707332 -2.746975 0
M  V30 59 H -7.162339 -5.353795 -4.484747 0
M  V30 60 H -7.581294 -3.987027 -3.297803 0
M  V30 61 H -1.926443 -3.912022 -1.229723 0
M  V30 END ATOM
M  V30 BEGIN BOND
M  V30 1 1 1 2
M  V30 2 1 2 3
M  V30 3 1 3 4
M  V30 4 1 4 5
M  V30 5 1 5 6
M  V30 6 1 6 7
M  V30 7 1 4 8
M  V30 8 2 8 9
M  V30 9 1 8 10
M  V30 10 1 10 11
M  V30 11 1 11 12
M  V30 12 1 12 13
M  V30 13 1 13 14
M  V30 14 1 12 15
M  V30 15 1 15 16
M  V30 16 2 16 17
M  V30 17 1 17 18
M  V30 18 2 18 19
M  V30 19 1 19 20
M  V30 20 2 20 21
M  V30 21 1 21 22
M  V30 22 1 22 23
M  V30 23 2 23 24
M  V30 24 1 24 25
M  V30 25 1 25 26
M  V30 26 2 22 27
M  V30 27 1 16 28
M  V30 28 2 28 29
M  V30 29 1 28 30
M  V30 30 1 30 12
M  V30 31 1 27 18
M  V30 32 1 25 21
M  V30 33 1 1 31
M  V30 34 1 1 32
M  V30 35 1 1 33
M  V30 36 1 2 34
M  V30 37 1 2 35
M  V30 38 1 3 36
M  V30 39 1 3 37
M  V30 40 1 4 38
M  V30 41 1 5 39
M  V30 42 1 5 40
M  V30 43 1 6 41
M  V30 44 1 6 42
M  V30 45 1 7 43
M  V30 46 1 7 44
M  V30 47 1 7 45
M  V30 48 1 11 46
M  V30 49 1 11 47
M  V30 50 1 13 48
M  V30 51 1 13 49
M  V30 52 1 14 50
M  V30 53 1 15 51
M  V30 54 1 15 52
M  V30 55 1 17 53
M  V30 56 1 19 54
M  V30 57 1 20 55
M  V30 58 1 23 56
M  V30 59 1 24 57
M  V30 60 1 26 58
M  V30 61 1 26 59
M  V30 62 1 26 60
M  V30 63 1 27 61
M  V30 END BOND
M  V30 END CTAB
M  END
>  <Dataset>  (35) 
ChEMBL_Kinases

>  <Ligand_Instance>  (35) 
nan

>  <PDB_ID>  (35) 
nan

>  <Standardized_SMILES>  (35) 
CCCC(CCC)C(=O)OCC1(CO)C/C(=C\c2ccc3c(ccn3C)c2)C(=O)O1

>  <Name>  (35) 
nan

>  <Pocket>  (35) 
nan

>  <ATP_Site>  (35) 
nan

>  <Peripheral>  (35) 
nan

>  <Num_H_Atoms_ProtBoundConf>  (35) 
nan

>  <Num_Resolved_Atoms>  (35) 
nan

>  <Num_Not_Resolved_Atoms>  (35) 
nan

$$$$
CHEMBL3675468
     RDKit          3D

  0  0  0  0  0  0  0  0  0  0999 V3000
M  V30 BEGIN CTAB
M  V30 COUNTS 50 52 0 0 0
M  V30 BEGIN ATOM
M  V30 1 C 2.272107 -4.699142 2.280550 0
M  V30 2 O 2.801213 -4.989749 1.003287 0
M  V30 3 C 2.690050 -4.073399 -0.032424 0
M  V30 4 C 3.246272 -4.462547 -1.241073 0
M  V30 5 C 3.174286 -3.601159 -2.317918 0
M  V30 6 C 2.538314 -2.390754 -2.100481 0
M  V30 7 C 1.969943 -1.979363 -0.886847 0
M  V30 8 C 1.318590 -0.623647 -0.849177 0
M  V30 9 C 2.232024 0.399539 -0.248659 0
M  V30 10 N 2.642946 0.157302 1.095885 0
M  V30 11 C 1.583962 0.294999 2.073857 0
M  V30 12 C 3.687783 1.108313 1.433214 0
M  V30 13 N 0.054774 -0.784634 -0.162785 0
M  V30 14 C -0.850908 0.326592 -0.066832 0
M  V30 15 N -0.558079 1.517965 -0.607683 0
M  V30 16 C -1.349666 2.597535 -0.565413 0
M  V30 17 N -2.544470 2.564638 0.047361 0
M  V30 18 C -2.907045 1.399813 0.614433 0
M  V30 19 C -4.126169 1.320101 1.253256 0
M  V30 20 C -4.956285 2.518047 1.277505 0
M  V30 21 N -6.242399 2.599060 1.877998 0
M  V30 22 O -4.581783 3.596541 0.753400 0
M  V30 23 C -4.551936 0.152959 1.851400 0
M  V30 24 C -3.703948 -0.952065 1.788963 0
M  V30 25 C -2.487961 -0.864752 1.149443 0
M  V30 26 C -2.078671 0.299807 0.560531 0
M  V30 27 C 2.071019 -2.871418 0.142460 0
M  V30 28 H 2.973588 -3.997594 2.781644 0
M  V30 29 H 2.249256 -5.627577 2.911487 0
M  V30 30 H 1.286453 -4.196666 2.257336 0
M  V30 31 H 3.753381 -5.404963 -1.451262 0
M  V30 32 H 3.582084 -3.830450 -3.287599 0
M  V30 33 H 2.488307 -1.718956 -2.959887 0
M  V30 34 H 1.126011 -0.306848 -1.896896 0
M  V30 35 H 1.760358 1.396676 -0.358153 0
M  V30 36 H 3.137305 0.449268 -0.904112 0
M  V30 37 H 0.908502 -0.581271 2.116899 0
M  V30 38 H 1.031351 1.254941 1.899427 0
M  V30 39 H 2.023754 0.429339 3.106936 0
M  V30 40 H 3.317360 1.901670 2.128371 0
M  V30 41 H 4.501654 0.568641 1.997106 0
M  V30 42 H 4.153186 1.551326 0.523818 0
M  V30 43 H -0.175173 -1.701461 0.248580 0
M  V30 44 H -1.034714 3.526175 -1.031889 0
M  V30 45 H -6.676934 3.152234 2.664802 0
M  V30 46 H -6.957139 1.961938 1.452944 0
M  V30 47 H -5.535054 0.157124 2.345793 0
M  V30 48 H -4.100120 -1.833498 2.277634 0
M  V30 49 H -1.903295 -1.767912 1.153213 0
M  V30 50 H 1.647440 -2.584156 1.068824 0
M  V30 END ATOM
M  V30 BEGIN BOND
M  V30 1 1 1 2
M  V30 2 1 2 3
M  V30 3 2 3 4
M  V30 4 1 4 5
M  V30 5 2 5 6
M  V30 6 1 6 7
M  V30 7 1 7 8
M  V30 8 1 8 9
M  V30 9 1 9 10
M  V30 10 1 10 11
M  V30 11 1 10 12
M  V30 12 1 8 13
M  V30 13 1 13 14
M  V30 14 2 14 15
M  V30 15 1 15 16
M  V30 16 2 16 17
M  V30 17 1 17 18
M  V30 18 2 18 19
M  V30 19 1 19 20
M  V30 20 1 20 21
M  V30 21 2 20 22
M  V30 22 1 19 23
M  V30 23 2 23 24
M  V30 24 1 24 25
M  V30 25 2 25 26
M  V30 26 2 7 27
M  V30 27 1 27 3
M  V30 28 1 26 14
M  V30 29 1 26 18
M  V30 30 1 1 28
M  V30 31 1 1 29
M  V30 32 1 1 30
M  V30 33 1 4 31
M  V30 34 1 5 32
M  V30 35 1 6 33
M  V30 36 1 8 34
M  V30 37 1 9 35
M  V30 38 1 9 36
M  V30 39 1 11 37
M  V30 40 1 11 38
M  V30 41 1 11 39
M  V30 42 1 12 40
M  V30 43 1 12 41
M  V30 44 1 12 42
M  V30 45 1 13 43
M  V30 46 1 16 44
M  V30 47 1 21 45
M  V30 48 1 21 46
M  V30 49 1 23 47
M  V30 50 1 24 48
M  V30 51 1 25 49
M  V30 52 1 27 50
M  V30 END BOND
M  V30 END CTAB
M  END
>  <Dataset>  (36) 
ChEMBL_Kinases

>  <Ligand_Instance>  (36) 
nan

>  <PDB_ID>  (36) 
nan

>  <Standardized_SMILES>  (36) 
COc1cccc(C(CN(C)C)Nc2ncnc3c(C(N)=O)cccc23)c1

>  <Name>  (36) 
nan

>  <Pocket>  (36) 
nan

>  <ATP_Site>  (36) 
nan

>  <Peripheral>  (36) 
nan

>  <Num_H_Atoms_ProtBoundConf>  (36) 
nan

>  <Num_Resolved_Atoms>  (36) 
nan

>  <Num_Not_Resolved_Atoms>  (36) 
nan

$$$$
CHEMBL3289013
     RDKit          3D

  0  0  0  0  0  0  0  0  0  0999 V3000
M  V30 BEGIN CTAB
M  V30 COUNTS 61 63 0 0 0
M  V30 BEGIN ATOM
M  V30 1 C 1.057001 -0.247647 4.577947 0
M  V30 2 C 1.419276 -1.189784 3.460791 0
M  V30 3 C 1.052212 -0.673271 2.091148 0
M  V30 4 C 1.746002 0.633805 1.776749 0
M  V30 5 C 3.222933 0.580369 1.782418 0
M  V30 6 C 3.912113 -0.337172 0.859033 0
M  V30 7 C 3.705822 -0.142041 -0.601043 0
M  V30 8 C 1.110604 1.379727 0.673241 0
M  V30 9 O 0.728314 2.584891 0.866296 0
M  V30 10 O 0.869999 0.909193 -0.594830 0
M  V30 11 C 0.269599 1.607891 -1.614590 0
M  V30 12 C -1.159794 2.006039 -1.472588 0
M  V30 13 C -1.630771 2.693252 -2.770055 0
M  V30 14 O -1.027311 3.923387 -2.928238 0
M  V30 15 C -1.986663 0.721853 -1.388026 0
M  V30 16 C -2.366940 0.716928 0.039750 0
M  V30 17 C -2.589228 -0.398249 0.709989 0
M  V30 18 C -2.493091 -1.740222 0.143361 0
M  V30 19 C -2.949103 -2.119387 -1.088623 0
M  V30 20 C -2.847902 -3.372915 -1.636489 0
M  V30 21 C -2.225865 -4.363339 -0.880594 0
M  V30 22 C -1.993709 -5.699129 -1.197524 0
M  V30 23 C -1.341373 -6.177258 -0.065030 0
M  V30 24 N -1.213768 -5.183247 0.829536 0
M  V30 25 C -0.565214 -5.392257 2.113046 0
M  V30 26 C -1.744504 -4.033753 0.377804 0
M  V30 27 C -1.872551 -2.756599 0.881158 0
M  V30 28 C -2.416751 2.120403 0.422781 0
M  V30 29 O -3.213661 2.519399 1.344261 0
M  V30 30 O -1.486247 2.806258 -0.382101 0
M  V30 31 H 0.369812 0.558984 4.296988 0
M  V30 32 H 0.629033 -0.770502 5.464069 0
M  V30 33 H 1.984458 0.250827 4.984935 0
M  V30 34 H 0.837177 -2.127791 3.608210 0
M  V30 35 H 2.483913 -1.455773 3.549456 0
M  V30 36 H -0.045786 -0.582975 2.039495 0
M  V30 37 H 1.378281 -1.433107 1.355687 0
M  V30 38 H 1.491731 1.267475 2.709568 0
M  V30 39 H 3.525136 0.277150 2.828335 0
M  V30 40 H 3.600496 1.626868 1.702261 0
M  V30 41 H 3.742404 -1.390251 1.170534 0
M  V30 42 H 5.021432 -0.192522 1.036845 0
M  V30 43 H 4.609550 -0.491825 -1.197494 0
M  V30 44 H 3.565810 0.892412 -0.913403 0
M  V30 45 H 2.914711 -0.852082 -0.920787 0
M  V30 46 H 0.422333 0.980189 -2.552061 0
M  V30 47 H 0.824222 2.555170 -1.888299 0
M  V30 48 H -2.726435 2.780916 -2.717793 0
M  V30 49 H -1.412434 1.965120 -3.558832 0
M  V30 50 H -0.380785 3.822103 -3.696013 0
M  V30 51 H -2.936873 0.904467 -1.953461 0
M  V30 52 H -1.408442 -0.133319 -1.729301 0
M  V30 53 H -2.862160 -0.245895 1.764710 0
M  V30 54 H -3.434134 -1.400900 -1.697822 0
M  V30 55 H -3.233646 -3.597327 -2.621573 0
M  V30 56 H -2.289795 -6.161452 -2.132328 0
M  V30 57 H -1.022713 -7.213074 -0.006788 0
M  V30 58 H -0.369923 -4.382549 2.568749 0
M  V30 59 H 0.404355 -5.941441 1.953231 0
M  V30 60 H -1.205900 -5.993137 2.775282 0
M  V30 61 H -1.473073 -2.553498 1.883454 0
M  V30 END ATOM
M  V30 BEGIN BOND
M  V30 1 1 1 2
M  V30 2 1 2 3
M  V30 3 1 3 4
M  V30 4 1 4 5
M  V30 5 1 5 6
M  V30 6 1 6 7
M  V30 7 1 4 8
M  V30 8 2 8 9
M  V30 9 1 8 10
M  V30 10 1 10 11
M  V30 11 1 11 12
M  V30 12 1 12 13
M  V30 13 1 13 14
M  V30 14 1 12 15
M  V30 15 1 15 16
M  V30 16 2 16 17
M  V30 17 1 17 18
M  V30 18 2 18 19
M  V30 19 1 19 20
M  V30 20 2 20 21
M  V30 21 1 21 22
M  V30 22 2 22 23
M  V30 23 1 23 24
M  V30 24 1 24 25
M  V30 25 1 24 26
M  V30 26 2 26 27
M  V30 27 1 16 28
M  V30 28 2 28 29
M  V30 29 1 28 30
M  V30 30 1 30 12
M  V30 31 1 27 18
M  V30 32 1 26 21
M  V30 33 1 1 31
M  V30 34 1 1 32
M  V30 35 1 1 33
M  V30 36 1 2 34
M  V30 37 1 2 35
M  V30 38 1 3 36
M  V30 39 1 3 37
M  V30 40 1 4 38
M  V30 41 1 5 39
M  V30 42 1 5 40
M  V30 43 1 6 41
M  V30 44 1 6 42
M  V30 45 1 7 43
M  V30 46 1 7 44
M  V30 47 1 7 45
M  V30 48 1 11 46
M  V30 49 1 11 47
M  V30 50 1 13 48
M  V30 51 1 13 49
M  V30 52 1 14 50
M  V30 53 1 15 51
M  V30 54 1 15 52
M  V30 55 1 17 53
M  V30 56 1 19 54
M  V30 57 1 20 55
M  V30 58 1 22 56
M  V30 59 1 23 57
M  V30 60 1 25 58
M  V30 61 1 25 59
M  V30 62 1 25 60
M  V30 63 1 27 61
M  V30 END BOND
M  V30 END CTAB
M  END
>  <Dataset>  (37) 
ChEMBL_Kinases

>  <Ligand_Instance>  (37) 
nan

>  <PDB_ID>  (37) 
nan

>  <Standardized_SMILES>  (37) 
CCCC(CCC)C(=O)OCC1(CO)C/C(=C\c2ccc3ccn(C)c3c2)C(=O)O1

>  <Name>  (37) 
nan

>  <Pocket>  (37) 
nan

>  <ATP_Site>  (37) 
nan

>  <Peripheral>  (37) 
nan

>  <Num_H_Atoms_ProtBoundConf>  (37) 
nan

>  <Num_Resolved_Atoms>  (37) 
nan

>  <Num_Not_Resolved_Atoms>  (37) 
nan

$$$$
CHEMBL3289014
     RDKit          3D

  0  0  0  0  0  0  0  0  0  0999 V3000
M  V30 BEGIN CTAB
M  V30 COUNTS 61 63 0 0 0
M  V30 BEGIN ATOM
M  V30 1 C 0.850067 3.796297 4.446531 0
M  V30 2 C 1.279868 2.381292 4.510767 0
M  V30 3 C 2.664957 2.088309 4.033724 0
M  V30 4 C 2.890793 2.463501 2.590014 0
M  V30 5 C 4.243736 2.190811 2.085072 0
M  V30 6 C 4.787831 0.827842 2.096939 0
M  V30 7 C 4.010922 -0.178100 1.284936 0
M  V30 8 C 1.788545 2.079466 1.688640 0
M  V30 9 O 1.099617 2.812487 0.932481 0
M  V30 10 O 1.146272 0.905340 1.354715 0
M  V30 11 C 0.087299 0.926286 0.415244 0
M  V30 12 C -0.374720 -0.505375 0.299649 0
M  V30 13 C 0.694527 -1.422289 -0.200645 0
M  V30 14 O 1.050715 -1.048854 -1.487166 0
M  V30 15 C -1.588678 -0.654999 -0.563821 0
M  V30 16 C -2.291522 -1.775542 0.114130 0
M  V30 17 C -3.025872 -2.789541 -0.254706 0
M  V30 18 C -3.272032 -2.937781 -1.683720 0
M  V30 19 C -3.572929 -1.864634 -2.509640 0
M  V30 20 C -3.802085 -2.009905 -3.877415 0
M  V30 21 C -3.729473 -3.263828 -4.441712 0
M  V30 22 C -3.429459 -4.356058 -3.635996 0
M  V30 23 C -3.308493 -5.677448 -4.005743 0
M  V30 24 C -3.000299 -6.332882 -2.833595 0
M  V30 25 N -2.939714 -5.442170 -1.807613 0
M  V30 26 C -2.631913 -5.810623 -0.443108 0
M  V30 27 C -3.201024 -4.206221 -2.269603 0
M  V30 28 C -1.987263 -1.541894 1.539810 0
M  V30 29 O -2.636512 -1.865689 2.590662 0
M  V30 30 O -0.783451 -0.854100 1.634024 0
M  V30 31 H 0.454406 4.012491 3.429151 0
M  V30 32 H -0.066496 3.885115 5.100685 0
M  V30 33 H 1.546382 4.526422 4.849589 0
M  V30 34 H 0.540555 1.799671 3.889902 0
M  V30 35 H 1.115645 1.997309 5.537479 0
M  V30 36 H 3.367029 2.702950 4.632569 0
M  V30 37 H 2.839554 0.996657 4.099897 0
M  V30 38 H 2.826035 3.615105 2.622510 0
M  V30 39 H 5.024778 2.863378 2.559537 0
M  V30 40 H 4.277570 2.540839 1.006380 0
M  V30 41 H 4.920333 0.367457 3.094620 0
M  V30 42 H 5.828375 0.798102 1.656699 0
M  V30 43 H 4.702810 -1.021564 0.966644 0
M  V30 44 H 3.605375 0.289280 0.376609 0
M  V30 45 H 3.279004 -0.670236 1.941389 0
M  V30 46 H 0.343341 1.416282 -0.519913 0
M  V30 47 H -0.794119 1.491743 0.838430 0
M  V30 48 H 0.327857 -2.483929 -0.292200 0
M  V30 49 H 1.565541 -1.490826 0.480902 0
M  V30 50 H 0.599620 -0.202208 -1.704293 0
M  V30 51 H -1.314208 -0.886233 -1.614787 0
M  V30 52 H -2.221895 0.241609 -0.448574 0
M  V30 53 H -3.451971 -3.498230 0.439547 0
M  V30 54 H -3.642896 -0.864427 -2.102057 0
M  V30 55 H -4.036983 -1.169509 -4.518589 0
M  V30 56 H -3.904182 -3.416706 -5.514965 0
M  V30 57 H -3.413933 -6.168818 -4.964692 0
M  V30 58 H -2.833223 -7.400126 -2.753643 0
M  V30 59 H -3.519543 -5.871015 0.216311 0
M  V30 60 H -2.186550 -6.840152 -0.410506 0
M  V30 61 H -1.825733 -5.154744 -0.062055 0
M  V30 END ATOM
M  V30 BEGIN BOND
M  V30 1 1 1 2
M  V30 2 1 2 3
M  V30 3 1 3 4
M  V30 4 1 4 5
M  V30 5 1 5 6
M  V30 6 1 6 7
M  V30 7 1 4 8
M  V30 8 2 8 9
M  V30 9 1 8 10
M  V30 10 1 10 11
M  V30 11 1 11 12
M  V30 12 1 12 13
M  V30 13 1 13 14
M  V30 14 1 12 15
M  V30 15 1 15 16
M  V30 16 2 16 17
M  V30 17 1 17 18
M  V30 18 2 18 19
M  V30 19 1 19 20
M  V30 20 2 20 21
M  V30 21 1 21 22
M  V30 22 1 22 23
M  V30 23 2 23 24
M  V30 24 1 24 25
M  V30 25 1 25 26
M  V30 26 1 25 27
M  V30 27 1 16 28
M  V30 28 2 28 29
M  V30 29 1 28 30
M  V30 30 1 30 12
M  V30 31 1 27 18
M  V30 32 2 27 22
M  V30 33 1 1 31
M  V30 34 1 1 32
M  V30 35 1 1 33
M  V30 36 1 2 34
M  V30 37 1 2 35
M  V30 38 1 3 36
M  V30 39 1 3 37
M  V30 40 1 4 38
M  V30 41 1 5 39
M  V30 42 1 5 40
M  V30 43 1 6 41
M  V30 44 1 6 42
M  V30 45 1 7 43
M  V30 46 1 7 44
M  V30 47 1 7 45
M  V30 48 1 11 46
M  V30 49 1 11 47
M  V30 50 1 13 48
M  V30 51 1 13 49
M  V30 52 1 14 50
M  V30 53 1 15 51
M  V30 54 1 15 52
M  V30 55 1 17 53
M  V30 56 1 19 54
M  V30 57 1 20 55
M  V30 58 1 21 56
M  V30 59 1 23 57
M  V30 60 1 24 58
M  V30 61 1 26 59
M  V30 62 1 26 60
M  V30 63 1 26 61
M  V30 END BOND
M  V30 END CTAB
M  END
>  <Dataset>  (38) 
ChEMBL_Kinases

>  <Ligand_Instance>  (38) 
nan

>  <PDB_ID>  (38) 
nan

>  <Standardized_SMILES>  (38) 
CCCC(CCC)C(=O)OCC1(CO)C/C(=C\c2cccc3ccn(C)c23)C(=O)O1

>  <Name>  (38) 
nan

>  <Pocket>  (38) 
nan

>  <ATP_Site>  (38) 
nan

>  <Peripheral>  (38) 
nan

>  <Num_H_Atoms_ProtBoundConf>  (38) 
nan

>  <Num_Resolved_Atoms>  (38) 
nan

>  <Num_Not_Resolved_Atoms>  (38) 
nan

$$$$
CHEMBL4209570
     RDKit          3D

  0  0  0  0  0  0  0  0  0  0999 V3000
M  V30 BEGIN CTAB
M  V30 COUNTS 85 91 0 0 0
M  V30 BEGIN ATOM
M  V30 1 C -8.449027 -2.724774 -2.026717 0
M  V30 2 O -7.228076 -3.103146 -2.647949 0
M  V30 3 C -6.336138 -2.066215 -2.986963 0
M  V30 4 C -5.160056 -2.426745 -3.582475 0
M  V30 5 C -4.246878 -1.457459 -3.938149 0
M  V30 6 C -2.943674 -1.601797 -4.573107 0
M  V30 7 N -2.456140 -0.866826 -5.613863 0
M  V30 8 N -1.236153 -1.295508 -5.904595 0
M  V30 9 C -0.866195 -2.314821 -5.085595 0
M  V30 10 C 0.311140 -3.031202 -5.051169 0
M  V30 11 C 0.349170 -4.008936 -4.069121 0
M  V30 12 C -0.725095 -4.213243 -3.218520 0
M  V30 13 N -0.458501 -5.256080 -2.284413 0
M  V30 14 C 0.109936 -4.514918 -1.220445 0
M  V30 15 O 0.127475 -3.271754 -1.554480 0
M  V30 16 C 0.662647 -4.877045 0.137947 0 CFG=2
M  V30 17 S 2.179925 -5.852940 0.005190 0
M  V30 18 C 3.541443 -4.889598 -0.711532 0
M  V30 19 C -0.314027 -5.585943 1.004308 0
M  V30 20 C -0.812110 -4.529592 1.967763 0
M  V30 21 N -0.363465 -3.266692 1.406896 0
M  V30 22 C -0.475555 -2.134050 2.225481 0
M  V30 23 C 0.397853 -2.019637 3.389899 0
M  V30 24 O 1.304332 -2.774932 3.861972 0
M  V30 25 N 0.107202 -0.777127 4.075280 0
M  V30 26 C -0.882833 0.236524 3.776259 0
M  V30 27 C -0.121359 1.371021 3.197723 0
M  V30 28 C 0.972963 1.685015 3.870417 0
M  V30 29 C 1.726772 2.798901 3.308524 0
M  V30 30 C 1.383105 3.484443 2.173473 0
M  V30 31 C 2.095351 4.537193 1.646246 0
M  V30 32 C 3.258142 4.957625 2.297321 0
M  V30 33 C 3.996749 6.086147 1.704142 0
M  V30 34 N 4.399894 7.282353 2.133634 0
M  V30 35 C 5.051984 7.899723 1.113684 0
M  V30 36 N 5.016645 7.024148 0.072850 0
M  V30 37 C 5.607584 7.293014 -1.232321 0
M  V30 38 N 4.378403 5.933466 0.438377 0
M  V30 39 C 3.654515 4.303089 3.448059 0
M  V30 40 C 2.878409 3.247346 3.915629 0
M  V30 41 C 1.445570 1.009555 5.085642 0
M  V30 42 C 0.905708 -0.397370 5.252094 0
M  V30 43 C 0.960673 -3.562335 0.889198 0
M  V30 44 C -1.874077 -3.474816 -3.293053 0
M  V30 45 C -1.946012 -2.497109 -4.254920 0
M  V30 46 C -4.564102 -0.124686 -3.672585 0
M  V30 47 C -5.770219 0.206500 -3.065294 0
M  V30 48 N -6.639769 -0.762304 -2.729994 0
M  V30 49 H -8.361389 -1.731916 -1.521672 0
M  V30 50 H -9.290090 -2.731541 -2.740456 0
M  V30 51 H -8.731673 -3.446322 -1.207661 0
M  V30 52 H -4.826882 -3.418850 -3.826444 0
M  V30 53 H -0.698399 -0.835616 -6.694510 0
M  V30 54 H 1.093263 -2.794693 -5.759618 0
M  V30 55 H 1.295052 -4.577822 -4.047172 0
M  V30 56 H -0.490683 -6.286816 -2.034343 0
M  V30 57 H 3.348092 -3.807782 -0.648410 0
M  V30 58 H 3.661573 -5.149536 -1.784189 0
M  V30 59 H 4.459542 -5.159317 -0.114841 0
M  V30 60 H -1.209559 -5.967402 0.449429 0
M  V30 61 H 0.086689 -6.473511 1.536690 0
M  V30 62 H -0.474351 -4.682116 3.003063 0
M  V30 63 H -1.919358 -4.480401 1.981464 0
M  V30 64 H -1.535376 -2.096122 2.621624 0
M  V30 65 H -0.430237 -1.232355 1.557123 0
M  V30 66 H -1.696810 -0.142734 3.131712 0
M  V30 67 H -1.331168 0.583560 4.727281 0
M  V30 68 H -0.567378 1.765568 2.325804 0
M  V30 69 H 0.520241 3.239243 1.611731 0
M  V30 70 H 1.800342 5.064477 0.743275 0
M  V30 71 H 5.507438 8.875142 1.109974 0
M  V30 72 H 4.913921 8.007732 -1.734075 0
M  V30 73 H 6.605275 7.770282 -1.122658 0
M  V30 74 H 5.694174 6.353410 -1.815694 0
M  V30 75 H 4.552411 4.649338 3.925566 0
M  V30 76 H 3.285366 2.817642 4.815869 0
M  V30 77 H 2.548776 0.971935 5.170078 0
M  V30 78 H 1.106971 1.655039 5.946356 0
M  V30 79 H 1.738694 -1.115157 5.403059 0
M  V30 80 H 0.209075 -0.401966 6.112728 0
M  V30 81 H 1.711086 -3.799728 1.635804 0
M  V30 82 H 1.248926 -2.835058 0.130719 0
M  V30 83 H -2.667878 -3.695017 -2.593831 0
M  V30 84 H -3.967564 0.763248 -3.883582 0
M  V30 85 H -6.085840 1.215346 -2.828198 0
M  V30 END ATOM
M  V30 BEGIN BOND
M  V30 1 1 1 2
M  V30 2 1 2 3
M  V30 3 2 3 4
M  V30 4 1 4 5
M  V30 5 1 5 6
M  V30 6 2 6 7
M  V30 7 1 7 8
M  V30 8 1 8 9
M  V30 9 2 9 10
M  V30 10 1 10 11
M  V30 11 2 11 12
M  V30 12 1 12 13
M  V30 13 1 13 14
M  V30 14 2 14 15
M  V30 15 1 14 16
M  V30 16 1 16 17 CFG=3
M  V30 17 1 17 18
M  V30 18 1 16 19
M  V30 19 1 19 20
M  V30 20 1 20 21
M  V30 21 1 21 22
M  V30 22 1 22 23
M  V30 23 2 23 24
M  V30 24 1 23 25
M  V30 25 1 25 26
M  V30 26 1 26 27
M  V30 27 2 27 28
M  V30 28 1 28 29
M  V30 29 2 29 30
M  V30 30 1 30 31
M  V30 31 2 31 32
M  V30 32 1 32 33
M  V30 33 1 33 34
M  V30 34 2 34 35
M  V30 35 1 35 36
M  V30 36 1 36 37
M  V30 37 1 36 38
M  V30 38 1 32 39
M  V30 39 2 39 40
M  V30 40 1 28 41
M  V30 41 1 41 42
M  V30 42 1 21 43
M  V30 43 1 12 44
M  V30 44 2 44 45
M  V30 45 2 5 46
M  V30 46 1 46 47
M  V30 47 2 47 48
M  V30 48 1 48 3
M  V30 49 1 45 6
M  V30 50 1 45 9
M  V30 51 1 43 16
M  V30 52 1 42 25
M  V30 53 1 40 29
M  V30 54 2 38 33
M  V30 55 1 1 49
M  V30 56 1 1 50
M  V30 57 1 1 51
M  V30 58 1 4 52
M  V30 59 1 8 53
M  V30 60 1 10 54
M  V30 61 1 11 55
M  V30 62 1 13 56
M  V30 63 1 18 57
M  V30 64 1 18 58
M  V30 65 1 18 59
M  V30 66 1 19 60
M  V30 67 1 19 61
M  V30 68 1 20 62
M  V30 69 1 20 63
M  V30 70 1 22 64
M  V30 71 1 22 65
M  V30 72 1 26 66
M  V30 73 1 26 67
M  V30 74 1 27 68
M  V30 75 1 30 69
M  V30 76 1 31 70
M  V30 77 1 35 71
M  V30 78 1 37 72
M  V30 79 1 37 73
M  V30 80 1 37 74
M  V30 81 1 39 75
M  V30 82 1 40 76
M  V30 83 1 41 77
M  V30 84 1 41 78
M  V30 85 1 42 79
M  V30 86 1 42 80
M  V30 87 1 43 81
M  V30 88 1 43 82
M  V30 89 1 44 83
M  V30 90 1 46 84
M  V30 91 1 47 85
M  V30 END BOND
M  V30 END CTAB
M  END
>  <Dataset>  (39) 
ChEMBL_Kinases

>  <Ligand_Instance>  (39) 
nan

>  <PDB_ID>  (39) 
nan

>  <Standardized_SMILES>  (39) 
COc1cc(-c2n[nH]c3ccc(NC(=O)[C@]4(SC)CCN(CC(=O)N5CC=C(c6ccc(-c7ncn(C)n7)cc6)CC5)C4)cc23)ccn1

>  <Name>  (39) 
nan

>  <Pocket>  (39) 
nan

>  <ATP_Site>  (39) 
nan

>  <Peripheral>  (39) 
nan

>  <Num_H_Atoms_ProtBoundConf>  (39) 
nan

>  <Num_Resolved_Atoms>  (39) 
nan

>  <Num_Not_Resolved_Atoms>  (39) 
nan

$$$$
CHEMBL3297758
     RDKit          3D

  0  0  0  0  0  0  0  0  0  0999 V3000
M  V30 BEGIN CTAB
M  V30 COUNTS 55 58 0 0 0
M  V30 BEGIN ATOM
M  V30 1 O -1.447255 -0.686190 2.091614 0
M  V30 2 C -1.060768 -1.871644 1.933343 0
M  V30 3 C 0.132789 -2.693553 2.093650 0
M  V30 4 C 1.353884 -1.991628 2.610975 0 CFG=1
M  V30 5 C 2.430242 -3.044531 2.685497 0
M  V30 6 N 2.905430 -3.461901 1.388357 0
M  V30 7 C 3.336137 -2.344793 0.580535 0
M  V30 8 O 4.204505 -2.412104 -0.340066 0
M  V30 9 C 2.704278 -1.036817 0.866211 0
M  V30 10 C 2.948561 0.189755 0.234880 0
M  V30 11 C 2.142752 1.143930 0.821660 0
M  V30 12 C 2.073389 2.559218 0.473383 0
M  V30 13 C 0.963651 3.372450 0.569068 0
M  V30 14 C 1.025836 4.700873 0.206903 0
M  V30 15 C 2.198893 5.269606 -0.265200 0
M  V30 16 C 3.336676 4.466204 -0.371221 0
M  V30 17 F 4.480407 5.015979 -0.830287 0
M  V30 18 C 3.263035 3.122643 -0.001915 0
M  V30 19 C 1.438174 0.460102 1.788848 0
M  V30 20 N 1.757853 -0.846367 1.833325 0
M  V30 21 N -2.180478 -2.629020 1.433528 0
M  V30 22 C -3.474618 -2.037850 1.190978 0 CFG=2
M  V30 23 C -4.559926 -2.691811 2.020340 0
M  V30 24 O -4.720942 -4.034469 1.788347 0
M  V30 25 C -3.808437 -2.288184 -0.280858 0
M  V30 26 C -2.799897 -1.674558 -1.169575 0
M  V30 27 C -1.685169 -2.409239 -1.553508 0
M  V30 28 C -0.732938 -1.848979 -2.384581 0
M  V30 29 C -0.848554 -0.552395 -2.861767 0
M  V30 30 C -1.950746 0.195972 -2.491461 0
M  V30 31 C -2.893187 -0.369848 -1.664048 0
M  V30 32 H 0.451281 -3.209230 1.158230 0
M  V30 33 H -0.107144 -3.501497 2.814992 0
M  V30 34 H 1.140715 -1.663874 3.649039 0
M  V30 35 H 3.298943 -2.702194 3.284410 0
M  V30 36 H 2.033153 -3.949183 3.190018 0
M  V30 37 H 3.003341 -4.402924 0.910673 0
M  V30 38 H 3.635365 0.403158 -0.572429 0
M  V30 39 H 0.068803 2.910873 0.936392 0
M  V30 40 H 0.177198 5.335626 0.276727 0
M  V30 41 H 2.253081 6.318310 -0.552600 0
M  V30 42 H 4.204556 2.583952 -0.122264 0
M  V30 43 H 0.718007 0.959651 2.421302 0
M  V30 44 H -2.163910 -3.666985 1.200753 0
M  V30 45 H -3.530173 -0.955796 1.422936 0
M  V30 46 H -5.506898 -2.129890 1.970393 0
M  V30 47 H -4.227805 -2.579584 3.094780 0
M  V30 48 H -4.044858 -4.442284 1.193064 0
M  V30 49 H -4.795594 -1.851903 -0.462388 0
M  V30 50 H -3.853564 -3.348774 -0.514947 0
M  V30 51 H -1.540533 -3.440451 -1.206934 0
M  V30 52 H 0.143281 -2.446195 -2.678012 0
M  V30 53 H -0.099112 -0.121682 -3.511595 0
M  V30 54 H -2.063208 1.213026 -2.852062 0
M  V30 55 H -3.783422 0.176061 -1.340188 0
M  V30 END ATOM
M  V30 BEGIN BOND
M  V30 1 2 1 2
M  V30 2 1 2 3
M  V30 3 1 3 4
M  V30 4 1 4 5
M  V30 5 1 5 6
M  V30 6 1 6 7
M  V30 7 2 7 8
M  V30 8 1 7 9
M  V30 9 2 9 10
M  V30 10 1 10 11
M  V30 11 1 11 12
M  V30 12 2 12 13
M  V30 13 1 13 14
M  V30 14 2 14 15
M  V30 15 1 15 16
M  V30 16 1 16 17
M  V30 17 2 16 18
M  V30 18 2 11 19
M  V30 19 1 19 20
M  V30 20 1 2 21
M  V30 21 1 21 22
M  V30 22 1 22 23
M  V30 23 1 23 24
M  V30 24 1 22 25
M  V30 25 1 25 26
M  V30 26 2 26 27
M  V30 27 1 27 28
M  V30 28 2 28 29
M  V30 29 1 29 30
M  V30 30 2 30 31
M  V30 31 1 20 4
M  V30 32 1 31 26
M  V30 33 1 20 9
M  V30 34 1 18 12
M  V30 35 1 3 32
M  V30 36 1 3 33
M  V30 37 1 4 34 CFG=1
M  V30 38 1 5 35
M  V30 39 1 5 36
M  V30 40 1 6 37
M  V30 41 1 10 38
M  V30 42 1 13 39
M  V30 43 1 14 40
M  V30 44 1 15 41
M  V30 45 1 18 42
M  V30 46 1 19 43
M  V30 47 1 21 44
M  V30 48 1 22 45 CFG=3
M  V30 49 1 23 46
M  V30 50 1 23 47
M  V30 51 1 24 48
M  V30 52 1 25 49
M  V30 53 1 25 50
M  V30 54 1 27 51
M  V30 55 1 28 52
M  V30 56 1 29 53
M  V30 57 1 30 54
M  V30 58 1 31 55
M  V30 END BOND
M  V30 END CTAB
M  END
>  <Dataset>  (40) 
ChEMBL_Kinases

>  <Ligand_Instance>  (40) 
nan

>  <PDB_ID>  (40) 
nan

>  <Standardized_SMILES>  (40) 
O=C(C[C@H]1CNC(=O)c2cc(-c3cccc(F)c3)cn21)N[C@H](CO)Cc1ccccc1

>  <Name>  (40) 
nan

>  <Pocket>  (40) 
nan

>  <ATP_Site>  (40) 
nan

>  <Peripheral>  (40) 
nan

>  <Num_H_Atoms_ProtBoundConf>  (40) 
nan

>  <Num_Resolved_Atoms>  (40) 
nan

>  <Num_Not_Resolved_Atoms>  (40) 
nan

$$$$
CHEMBL3675467
     RDKit          3D

  0  0  0  0  0  0  0  0  0  0999 V3000
M  V30 BEGIN CTAB
M  V30 COUNTS 72 75 0 0 0
M  V30 BEGIN ATOM
M  V30 1 C 0.924869 -2.621704 1.422774 0
M  V30 2 N 0.455335 -1.356289 1.952307 0
M  V30 3 C -0.708643 -0.629423 2.325197 0
M  V30 4 C -1.392799 0.213911 1.318715 0
M  V30 5 N -0.569538 1.254451 0.733566 0
M  V30 6 C 0.405071 1.038542 -0.271753 0
M  V30 7 N 0.652646 -0.152902 -0.840631 0
M  V30 8 C 1.548987 -0.376177 -1.810791 0
M  V30 9 N 2.312302 0.603169 -2.324793 0
M  V30 10 C 2.118953 1.831125 -1.801387 0
M  V30 11 C 2.874088 2.877064 -2.290558 0
M  V30 12 C 3.858027 2.646533 -3.352400 0
M  V30 13 N 4.039691 1.346754 -3.874181 0
M  V30 14 O 4.560270 3.574066 -3.827292 0
M  V30 15 C 2.744711 4.169639 -1.815219 0
M  V30 16 C 1.818365 4.387692 -0.816348 0
M  V30 17 C 1.074147 3.328241 -0.342068 0
M  V30 18 C 1.192061 2.035083 -0.805608 0
M  V30 19 C -2.109698 -0.559484 0.247868 0
M  V30 20 C -2.521571 0.349125 -0.740295 0
M  V30 21 C -3.225887 -0.095571 -1.863929 0
M  V30 22 C -3.513767 -1.436256 -1.994953 0
M  V30 23 C -3.100589 -2.312997 -1.013266 0
M  V30 24 N -3.339836 -3.735151 -1.035557 0
M  V30 25 C -4.599329 -3.960499 -0.379137 0
M  V30 26 O -5.096920 -2.852779 0.007325 0
M  V30 27 C -5.212574 -5.279665 -0.188308 0
M  V30 28 C -4.625874 -6.443437 -0.620921 0
M  V30 29 C -5.310633 -7.615343 -0.377550 0
M  V30 30 C -6.547904 -7.677291 0.274676 0
M  V30 31 C -7.082973 -6.453757 0.686161 0
M  V30 32 C -6.425482 -5.240860 0.461591 0
M  V30 33 C -2.407048 -1.881215 0.095239 0
M  V30 34 C 1.699363 -0.638677 2.154977 0
M  V30 35 O 2.663280 -1.371997 1.800604 0
M  V30 36 O 1.892404 0.643205 2.650554 0
M  V30 37 C 3.161971 1.232087 2.800531 0
M  V30 38 C 4.059690 0.470406 3.725187 0
M  V30 39 C 2.923912 2.606809 3.406769 0
M  V30 40 C 3.862330 1.463556 1.498028 0
M  V30 41 H 1.451329 -2.483727 0.455803 0
M  V30 42 H 0.117914 -3.354788 1.223327 0
M  V30 43 H 1.647267 -3.121355 2.124969 0
M  V30 44 H -1.503618 -1.298910 2.770701 0
M  V30 45 H -0.436017 0.021376 3.211441 0
M  V30 46 H -2.263435 0.686071 1.879169 0
M  V30 47 H -0.752542 2.203079 1.119868 0
M  V30 48 H 1.673690 -1.369938 -2.202913 0
M  V30 49 H 4.970593 1.084288 -4.274212 0
M  V30 50 H 3.960859 0.374174 -4.193860 0
M  V30 51 H 3.370389 4.909390 -2.254544 0
M  V30 52 H 1.725458 5.406402 -0.451353 0
M  V30 53 H 0.389735 3.619428 0.430626 0
M  V30 54 H -2.374092 1.433504 -0.784400 0
M  V30 55 H -3.571600 0.543492 -2.660513 0
M  V30 56 H -4.040794 -1.922478 -2.791668 0
M  V30 57 H -2.829828 -4.588739 -1.402554 0
M  V30 58 H -3.679263 -6.418574 -1.123624 0
M  V30 59 H -4.913444 -8.579382 -0.688694 0
M  V30 60 H -7.061980 -8.612173 0.451540 0
M  V30 61 H -8.056639 -6.548282 1.194583 0
M  V30 62 H -6.916947 -4.335567 0.816767 0
M  V30 63 H -2.031129 -2.442154 0.935137 0
M  V30 64 H 4.878779 1.187441 4.012477 0
M  V30 65 H 4.596846 -0.366312 3.193923 0
M  V30 66 H 3.585539 0.168178 4.658827 0
M  V30 67 H 2.009930 2.587934 4.034935 0
M  V30 68 H 2.767611 3.343648 2.567244 0
M  V30 69 H 3.821420 2.963863 3.951094 0
M  V30 70 H 3.763393 2.526807 1.129235 0
M  V30 71 H 3.579504 0.743045 0.700357 0
M  V30 72 H 4.951936 1.342144 1.661820 0
M  V30 END ATOM
M  V30 BEGIN BOND
M  V30 1 1 1 2
M  V30 2 1 2 3
M  V30 3 1 3 4
M  V30 4 1 4 5
M  V30 5 1 5 6
M  V30 6 2 6 7
M  V30 7 1 7 8
M  V30 8 2 8 9
M  V30 9 1 9 10
M  V30 10 2 10 11
M  V30 11 1 11 12
M  V30 12 1 12 13
M  V30 13 2 12 14
M  V30 14 1 11 15
M  V30 15 2 15 16
M  V30 16 1 16 17
M  V30 17 2 17 18
M  V30 18 1 4 19
M  V30 19 2 19 20
M  V30 20 1 20 21
M  V30 21 2 21 22
M  V30 22 1 22 23
M  V30 23 1 23 24
M  V30 24 1 24 25
M  V30 25 2 25 26
M  V30 26 1 25 27
M  V30 27 2 27 28
M  V30 28 1 28 29
M  V30 29 2 29 30
M  V30 30 1 30 31
M  V30 31 2 31 32
M  V30 32 2 23 33
M  V30 33 1 2 34
M  V30 34 2 34 35
M  V30 35 1 34 36
M  V30 36 1 36 37
M  V30 37 1 37 38
M  V30 38 1 37 39
M  V30 39 1 37 40
M  V30 40 1 18 6
M  V30 41 1 33 19
M  V30 42 1 18 10
M  V30 43 1 32 27
M  V30 44 1 1 41
M  V30 45 1 1 42
M  V30 46 1 1 43
M  V30 47 1 3 44
M  V30 48 1 3 45
M  V30 49 1 4 46
M  V30 50 1 5 47
M  V30 51 1 8 48
M  V30 52 1 13 49
M  V30 53 1 13 50
M  V30 54 1 15 51
M  V30 55 1 16 52
M  V30 56 1 17 53
M  V30 57 1 20 54
M  V30 58 1 21 55
M  V30 59 1 22 56
M  V30 60 1 24 57
M  V30 61 1 28 58
M  V30 62 1 29 59
M  V30 63 1 30 60
M  V30 64 1 31 61
M  V30 65 1 32 62
M  V30 66 1 33 63
M  V30 67 1 38 64
M  V30 68 1 38 65
M  V30 69 1 38 66
M  V30 70 1 39 67
M  V30 71 1 39 68
M  V30 72 1 39 69
M  V30 73 1 40 70
M  V30 74 1 40 71
M  V30 75 1 40 72
M  V30 END BOND
M  V30 END CTAB
M  END
>  <Dataset>  (41) 
ChEMBL_Kinases

>  <Ligand_Instance>  (41) 
nan

>  <PDB_ID>  (41) 
nan

>  <Standardized_SMILES>  (41) 
CN(CC(Nc1ncnc2c(C(N)=O)cccc12)c1cccc(NC(=O)c2ccccc2)c1)C(=O)OC(C)(C)C

>  <Name>  (41) 
nan

>  <Pocket>  (41) 
nan

>  <ATP_Site>  (41) 
nan

>  <Peripheral>  (41) 
nan

>  <Num_H_Atoms_ProtBoundConf>  (41) 
nan

>  <Num_Resolved_Atoms>  (41) 
nan

>  <Num_Not_Resolved_Atoms>  (41) 
nan

$$$$
CHEMBL3297831
     RDKit          3D

  0  0  0  0  0  0  0  0  0  0999 V3000
M  V30 BEGIN CTAB
M  V30 COUNTS 43 47 0 0 0
M  V30 BEGIN ATOM
M  V30 1 C 0.034643 -2.539126 -0.740881 0
M  V30 2 N 0.934015 -1.478540 -0.491271 0
M  V30 3 C 1.946521 -1.362801 -1.364030 0
M  V30 4 C 2.278428 -2.361966 -2.255023 0
M  V30 5 O 1.590129 -3.540864 -2.348896 0
M  V30 6 C 3.316585 -2.308252 -3.129172 0
M  V30 7 C 4.110584 -1.178967 -3.138877 0
M  V30 8 C 3.808937 -0.164461 -2.257668 0
M  V30 9 C 2.753653 -0.233519 -1.376321 0
M  V30 10 C 2.588403 0.829124 -0.515646 0
M  V30 11 O 3.327266 1.822425 -0.563842 0
M  V30 12 C 1.555071 0.694054 0.381356 0
M  V30 13 C 1.399715 1.736120 1.267860 0
M  V30 14 O 2.028190 2.886054 1.429326 0
M  V30 15 C 1.498483 3.546239 2.428494 0
M  V30 16 C 0.463407 2.813894 2.972133 0
M  V30 17 C 0.408028 1.656842 2.222820 0
M  V30 18 C -0.380691 0.517878 2.246756 0
M  V30 19 C -0.149658 -0.461061 1.322467 0
M  V30 20 C 0.794011 -0.450417 0.344053 0
M  V30 21 C -1.001516 -1.599413 1.482760 0
M  V30 22 C -1.933102 -1.719017 2.410389 0
M  V30 23 C -2.165843 -0.634594 3.387144 0
M  V30 24 C -2.094809 -1.204572 4.792771 0
M  V30 25 C -3.630677 -0.188162 3.225693 0
M  V30 26 O -1.328579 0.483642 3.240127 0
M  V30 27 H 0.209558 -3.541489 -0.490200 0
M  V30 28 H -0.026304 -2.590597 -1.926710 0
M  V30 29 H -1.082547 -2.222610 -0.768490 0
M  V30 30 H 2.012983 -4.417848 -2.060036 0
M  V30 31 H 3.613096 -3.060913 -3.843837 0
M  V30 32 H 4.956186 -1.042443 -3.796982 0
M  V30 33 H 4.430340 0.718913 -2.263444 0
M  V30 34 H 1.836730 4.520948 2.763113 0
M  V30 35 H -0.185760 3.037244 3.788430 0
M  V30 36 H -1.036184 -2.539179 1.036623 0
M  V30 37 H -2.650408 -2.495918 2.663864 0
M  V30 38 H -2.509004 -2.232971 4.730300 0
M  V30 39 H -2.746516 -0.616391 5.443570 0
M  V30 40 H -1.052150 -1.226926 5.172065 0
M  V30 41 H -3.750156 0.898640 3.411952 0
M  V30 42 H -4.292911 -0.772034 3.877778 0
M  V30 43 H -3.903179 -0.356347 2.178272 0
M  V30 END ATOM
M  V30 BEGIN BOND
M  V30 1 1 1 2
M  V30 2 1 2 3
M  V30 3 2 3 4
M  V30 4 1 4 5
M  V30 5 1 4 6
M  V30 6 2 6 7
M  V30 7 1 7 8
M  V30 8 2 8 9
M  V30 9 1 9 10
M  V30 10 2 10 11
M  V30 11 1 10 12
M  V30 12 2 12 13
M  V30 13 1 13 14
M  V30 14 1 14 15
M  V30 15 2 15 16
M  V30 16 1 16 17
M  V30 17 2 17 18
M  V30 18 1 18 19
M  V30 19 2 19 20
M  V30 20 1 19 21
M  V30 21 2 21 22
M  V30 22 1 22 23
M  V30 23 1 23 24
M  V30 24 1 23 25
M  V30 25 1 23 26
M  V30 26 1 20 2
M  V30 27 1 9 3
M  V30 28 1 20 12
M  V30 29 1 17 13
M  V30 30 1 26 18
M  V30 31 1 1 27
M  V30 32 1 1 28
M  V30 33 1 1 29
M  V30 34 1 5 30
M  V30 35 1 6 31
M  V30 36 1 7 32
M  V30 37 1 8 33
M  V30 38 1 15 34
M  V30 39 1 16 35
M  V30 40 1 21 36
M  V30 41 1 22 37
M  V30 42 1 24 38
M  V30 43 1 24 39
M  V30 44 1 24 40
M  V30 45 1 25 41
M  V30 46 1 25 42
M  V30 47 1 25 43
M  V30 END BOND
M  V30 END CTAB
M  END
>  <Dataset>  (42) 
ChEMBL_Kinases

>  <Ligand_Instance>  (42) 
nan

>  <PDB_ID>  (42) 
nan

>  <Standardized_SMILES>  (42) 
Cn1c2c(O)cccc2c(=O)c2c3occc3c3c(c21)C=CC(C)(C)O3

>  <Name>  (42) 
nan

>  <Pocket>  (42) 
nan

>  <ATP_Site>  (42) 
nan

>  <Peripheral>  (42) 
nan

>  <Num_H_Atoms_ProtBoundConf>  (42) 
nan

>  <Num_Resolved_Atoms>  (42) 
nan

>  <Num_Not_Resolved_Atoms>  (42) 
nan

$$$$
CHEMBL3297760
     RDKit          3D

  0  0  0  0  0  0  0  0  0  0999 V3000
M  V30 BEGIN CTAB
M  V30 COUNTS 60 64 0 0 0
M  V30 BEGIN ATOM
M  V30 1 C 0.998812 -4.675090 2.394155 0
M  V30 2 N 2.321569 -4.397439 1.921502 0
M  V30 3 C 2.972004 -3.283414 2.533376 0
M  V30 4 C 2.445104 -1.955922 2.128265 0
M  V30 5 N 1.711614 -1.938962 0.878922 0
M  V30 6 C 1.217761 -0.694405 0.391582 0
M  V30 7 O 0.566242 -0.644001 -0.707897 0
M  V30 8 C 1.455797 0.542862 1.153521 0
M  V30 9 C 0.920382 1.788759 0.569180 0 CFG=1
M  V30 10 C 1.419396 2.183079 -0.773663 0
M  V30 11 N 0.888984 3.528836 -1.047430 0
M  V30 12 C -0.551104 3.624890 -1.079123 0
M  V30 13 O -1.150801 4.449671 -1.816573 0
M  V30 14 C -1.265723 2.687430 -0.185524 0
M  V30 15 C -2.604711 2.489364 0.044482 0
M  V30 16 C -2.702517 1.465946 0.990117 0
M  V30 17 C -3.934289 0.913734 1.542288 0
M  V30 18 C -3.931983 -0.422073 1.909471 0
M  V30 19 C -5.058811 -1.035597 2.444471 0
M  V30 20 C -6.186544 -0.259026 2.596888 0
M  V30 21 C -6.194842 1.070802 2.233310 0
M  V30 22 F -7.292395 1.836157 2.379155 0
M  V30 23 C -5.074021 1.674864 1.702847 0
M  V30 24 C -1.400639 1.098788 1.281828 0
M  V30 25 N -0.536030 1.843981 0.565164 0
M  V30 26 C 1.450658 -3.138426 0.090144 0 CFG=1
M  V30 27 C 1.601481 -2.797709 -1.366545 0
M  V30 28 C 0.641623 -3.254439 -2.251151 0
M  V30 29 C 0.690703 -2.996270 -3.604366 0
M  V30 30 C 1.764652 -2.243792 -4.052888 0
M  V30 31 C 2.721326 -1.789545 -3.165376 0
M  V30 32 C 2.669667 -2.049004 -1.813937 0
M  V30 33 C 2.363035 -4.245306 0.493760 0
M  V30 34 H 0.491387 -5.340752 1.661819 0
M  V30 35 H 1.031008 -5.274313 3.342343 0
M  V30 36 H 0.391494 -3.761129 2.520077 0
M  V30 37 H 4.067749 -3.403080 2.399688 0
M  V30 38 H 2.828857 -3.384191 3.648764 0
M  V30 39 H 3.282623 -1.231326 2.058868 0
M  V30 40 H 1.777289 -1.523322 2.929785 0
M  V30 41 H 0.958129 0.409643 2.158669 0
M  V30 42 H 2.526786 0.636401 1.389374 0
M  V30 43 H 1.219058 2.624631 1.271888 0
M  V30 44 H 2.523137 2.254188 -0.841062 0
M  V30 45 H 1.029696 1.474171 -1.529290 0
M  V30 46 H 1.425813 4.430410 -1.223611 0
M  V30 47 H -3.442283 3.027675 -0.421070 0
M  V30 48 H -3.077251 -1.073497 1.811158 0
M  V30 49 H -5.067599 -2.080002 2.734974 0
M  V30 50 H -7.081456 -0.715658 3.013316 0
M  V30 51 H -5.062730 2.719739 1.411271 0
M  V30 52 H -1.155216 0.309004 2.000168 0
M  V30 53 H 0.404280 -3.447288 0.290714 0
M  V30 54 H -0.181291 -3.840954 -1.848105 0
M  V30 55 H -0.102464 -3.392838 -4.221827 0
M  V30 56 H 1.804468 -2.039066 -5.123171 0
M  V30 57 H 3.528212 -1.205403 -3.613538 0
M  V30 58 H 3.423559 -1.685902 -1.144815 0
M  V30 59 H 3.421028 -4.026248 0.210944 0
M  V30 60 H 2.055994 -5.184601 -0.002419 0
M  V30 END ATOM
M  V30 BEGIN BOND
M  V30 1 1 1 2
M  V30 2 1 2 3
M  V30 3 1 3 4
M  V30 4 1 4 5
M  V30 5 1 5 6
M  V30 6 2 6 7
M  V30 7 1 6 8
M  V30 8 1 8 9
M  V30 9 1 9 10
M  V30 10 1 10 11
M  V30 11 1 11 12
M  V30 12 2 12 13
M  V30 13 1 12 14
M  V30 14 2 14 15
M  V30 15 1 15 16
M  V30 16 1 16 17
M  V30 17 2 17 18
M  V30 18 1 18 19
M  V30 19 2 19 20
M  V30 20 1 20 21
M  V30 21 1 21 22
M  V30 22 2 21 23
M  V30 23 2 16 24
M  V30 24 1 24 25
M  V30 25 1 5 26
M  V30 26 1 26 27
M  V30 27 2 27 28
M  V30 28 1 28 29
M  V30 29 2 29 30
M  V30 30 1 30 31
M  V30 31 2 31 32
M  V30 32 1 26 33
M  V30 33 1 33 2
M  V30 34 1 25 9
M  V30 35 1 32 27
M  V30 36 1 25 14
M  V30 37 1 23 17
M  V30 38 1 1 34
M  V30 39 1 1 35
M  V30 40 1 1 36
M  V30 41 1 3 37
M  V30 42 1 3 38
M  V30 43 1 4 39
M  V30 44 1 4 40
M  V30 45 1 8 41
M  V30 46 1 8 42
M  V30 47 1 9 43 CFG=1
M  V30 48 1 10 44
M  V30 49 1 10 45
M  V30 50 1 11 46
M  V30 51 1 15 47
M  V30 52 1 18 48
M  V30 53 1 19 49
M  V30 54 1 20 50
M  V30 55 1 23 51
M  V30 56 1 24 52
M  V30 57 1 26 53 CFG=3
M  V30 58 1 28 54
M  V30 59 1 29 55
M  V30 60 1 30 56
M  V30 61 1 31 57
M  V30 62 1 32 58
M  V30 63 1 33 59
M  V30 64 1 33 60
M  V30 END BOND
M  V30 END CTAB
M  END
>  <Dataset>  (43) 
ChEMBL_Kinases

>  <Ligand_Instance>  (43) 
nan

>  <PDB_ID>  (43) 
nan

>  <Standardized_SMILES>  (43) 
CN1CCN(C(=O)C[C@H]2CNC(=O)c3cc(-c4cccc(F)c4)cn32)[C@@H](c2ccccc2)C1

>  <Name>  (43) 
nan

>  <Pocket>  (43) 
nan

>  <ATP_Site>  (43) 
nan

>  <Peripheral>  (43) 
nan

>  <Num_H_Atoms_ProtBoundConf>  (43) 
nan

>  <Num_Resolved_Atoms>  (43) 
nan

>  <Num_Not_Resolved_Atoms>  (43) 
nan

$$$$
CHEMBL3297761
     RDKit          3D

  0  0  0  0  0  0  0  0  0  0999 V3000
M  V30 BEGIN CTAB
M  V30 COUNTS 74 78 0 0 0
M  V30 BEGIN ATOM
M  V30 1 C -2.681933 -3.255573 5.711740 0
M  V30 2 N -2.327089 -2.196167 4.767016 0
M  V30 3 C -3.311194 -2.147325 3.714141 0
M  V30 4 C -2.887992 -0.974056 2.792086 0
M  V30 5 N -1.603496 -1.202324 2.244832 0
M  V30 6 C -0.738525 -0.110927 2.018480 0
M  V30 7 C -1.091807 0.852573 0.918980 0 CFG=1
M  V30 8 N -1.188974 0.225261 -0.365863 0
M  V30 9 C -0.329062 0.271476 -1.485709 0
M  V30 10 O 0.736944 0.950445 -1.457989 0
M  V30 11 C -0.730362 -0.500152 -2.670880 0
M  V30 12 C 0.285582 -0.414890 -3.788597 0 CFG=1
M  V30 13 C 0.524315 0.979425 -4.268147 0
M  V30 14 N 1.872706 1.436100 -4.141342 0
M  V30 15 C 3.038007 0.692033 -3.777732 0
M  V30 16 O 4.180845 1.173941 -3.782347 0
M  V30 17 C 2.808893 -0.686594 -3.394836 0
M  V30 18 C 3.591313 -1.733028 -2.985016 0
M  V30 19 C 2.738797 -2.809399 -2.766546 0
M  V30 20 C 3.330321 -4.062261 -2.319685 0
M  V30 21 C 4.454007 -4.097864 -1.524077 0
M  V30 22 C 5.008563 -5.280567 -1.106603 0
M  V30 23 C 4.405619 -6.467890 -1.507963 0
M  V30 24 C 3.270682 -6.472675 -2.310766 0
M  V30 25 F 2.619525 -7.560840 -2.748791 0
M  V30 26 C 2.730901 -5.249742 -2.718347 0
M  V30 27 C 1.465999 -2.384525 -3.049703 0
M  V30 28 N 1.521158 -1.073780 -3.436706 0
M  V30 29 C -2.144499 1.794877 1.317808 0
M  V30 30 C -1.633626 2.562281 2.522982 0
M  V30 31 C -2.166520 3.969609 2.611714 0
M  V30 32 C -1.753360 4.809739 1.420613 0
M  V30 33 C -1.479169 3.934476 0.208918 0
M  V30 34 C -2.493034 2.828539 0.271213 0
M  V30 35 C -0.998637 -2.383856 2.777777 0
M  V30 36 C -1.026541 -2.510847 4.265725 0
M  V30 37 H -3.620580 -2.960105 6.193165 0
M  V30 38 H -1.822522 -3.281877 6.438801 0
M  V30 39 H -2.754667 -4.187267 5.115568 0
M  V30 40 H -3.410571 -3.069150 3.126710 0
M  V30 41 H -4.284457 -1.905807 4.146159 0
M  V30 42 H -3.701374 -0.925755 2.018394 0
M  V30 43 H -2.970629 -0.095802 3.464582 0
M  V30 44 H -0.732634 0.484717 2.993241 0
M  V30 45 H 0.333362 -0.436034 1.940740 0
M  V30 46 H -0.134483 1.489070 0.827068 0
M  V30 47 H -2.089319 -0.295716 -0.264919 0
M  V30 48 H -1.699756 -0.157228 -3.096744 0
M  V30 49 H -0.882737 -1.560524 -2.407135 0
M  V30 50 H -0.197629 -0.983479 -4.640713 0
M  V30 51 H -0.112038 1.702396 -3.684389 0
M  V30 52 H 0.133793 1.076283 -5.314154 0
M  V30 53 H 2.026954 2.456724 -4.342883 0
M  V30 54 H 4.659066 -1.612755 -2.890120 0
M  V30 55 H 4.939648 -3.178399 -1.199436 0
M  V30 56 H 5.886810 -5.379614 -0.481882 0
M  V30 57 H 4.717066 -7.474808 -1.267154 0
M  V30 58 H 1.838726 -5.210031 -3.349066 0
M  V30 59 H 0.718502 -3.166604 -2.906498 0
M  V30 60 H -3.079723 1.276337 1.568117 0
M  V30 61 H -0.520311 2.623525 2.555436 0
M  V30 62 H -1.942818 2.059484 3.463527 0
M  V30 63 H -3.247453 3.984813 2.760001 0
M  V30 64 H -1.690410 4.428528 3.501840 0
M  V30 65 H -0.906600 5.490833 1.632451 0
M  V30 66 H -2.622999 5.446542 1.162447 0
M  V30 67 H -0.433427 3.593105 0.140220 0
M  V30 68 H -1.681466 4.490435 -0.753023 0
M  V30 69 H -3.456005 3.287073 0.590174 0
M  V30 70 H -2.684838 2.402660 -0.727634 0
M  V30 71 H -1.489251 -3.256348 2.271842 0
M  V30 72 H 0.085520 -2.457396 2.476946 0
M  V30 73 H -0.703930 -3.565694 4.503346 0
M  V30 74 H -0.228963 -1.852831 4.670061 0
M  V30 END ATOM
M  V30 BEGIN BOND
M  V30 1 1 1 2
M  V30 2 1 2 3
M  V30 3 1 3 4
M  V30 4 1 4 5
M  V30 5 1 5 6
M  V30 6 1 6 7
M  V30 7 1 7 8
M  V30 8 1 8 9
M  V30 9 2 9 10
M  V30 10 1 9 11
M  V30 11 1 11 12
M  V30 12 1 12 13
M  V30 13 1 13 14
M  V30 14 1 14 15
M  V30 15 2 15 16
M  V30 16 1 15 17
M  V30 17 2 17 18
M  V30 18 1 18 19
M  V30 19 1 19 20
M  V30 20 2 20 21
M  V30 21 1 21 22
M  V30 22 2 22 23
M  V30 23 1 23 24
M  V30 24 1 24 25
M  V30 25 2 24 26
M  V30 26 2 19 27
M  V30 27 1 27 28
M  V30 28 1 7 29
M  V30 29 1 29 30
M  V30 30 1 30 31
M  V30 31 1 31 32
M  V30 32 1 32 33
M  V30 33 1 33 34
M  V30 34 1 5 35
M  V30 35 1 35 36
M  V30 36 1 36 2
M  V30 37 1 28 12
M  V30 38 1 34 29
M  V30 39 1 28 17
M  V30 40 1 26 20
M  V30 41 1 1 37
M  V30 42 1 1 38
M  V30 43 1 1 39
M  V30 44 1 3 40
M  V30 45 1 3 41
M  V30 46 1 4 42
M  V30 47 1 4 43
M  V30 48 1 6 44
M  V30 49 1 6 45
M  V30 50 1 7 46 CFG=3
M  V30 51 1 8 47
M  V30 52 1 11 48
M  V30 53 1 11 49
M  V30 54 1 12 50 CFG=3
M  V30 55 1 13 51
M  V30 56 1 13 52
M  V30 57 1 14 53
M  V30 58 1 18 54
M  V30 59 1 21 55
M  V30 60 1 22 56
M  V30 61 1 23 57
M  V30 62 1 26 58
M  V30 63 1 27 59
M  V30 64 1 29 60
M  V30 65 1 30 61
M  V30 66 1 30 62
M  V30 67 1 31 63
M  V30 68 1 31 64
M  V30 69 1 32 65
M  V30 70 1 32 66
M  V30 71 1 33 67
M  V30 72 1 33 68
M  V30 73 1 34 69
M  V30 74 1 34 70
M  V30 75 1 35 71
M  V30 76 1 35 72
M  V30 77 1 36 73
M  V30 78 1 36 74
M  V30 END BOND
M  V30 END CTAB
M  END
>  <Dataset>  (44) 
ChEMBL_Kinases

>  <Ligand_Instance>  (44) 
nan

>  <PDB_ID>  (44) 
nan

>  <Standardized_SMILES>  (44) 
CN1CCN(C[C@@H](NC(=O)C[C@H]2CNC(=O)c3cc(-c4cccc(F)c4)cn32)C2CCCCC2)CC1

>  <Name>  (44) 
nan

>  <Pocket>  (44) 
nan

>  <ATP_Site>  (44) 
nan

>  <Peripheral>  (44) 
nan

>  <Num_H_Atoms_ProtBoundConf>  (44) 
nan

>  <Num_Resolved_Atoms>  (44) 
nan

>  <Num_Not_Resolved_Atoms>  (44) 
nan

$$$$
CHEMBL3297763
     RDKit          3D

  0  0  0  0  0  0  0  0  0  0999 V3000
M  V30 BEGIN CTAB
M  V30 COUNTS 74 78 0 0 0
M  V30 BEGIN ATOM
M  V30 1 C 4.306780 -1.308833 2.487692 0
M  V30 2 N 4.981750 -2.080301 1.494436 0
M  V30 3 C 4.265049 -3.243680 1.031831 0
M  V30 4 C 3.064323 -2.875858 0.183014 0
M  V30 5 N 3.388057 -1.679111 -0.545943 0
M  V30 6 C 2.628699 -1.535603 -1.770231 0
M  V30 7 C 1.189460 -1.288919 -1.563761 0 CFG=1
M  V30 8 N 0.866211 -0.094051 -0.836001 0
M  V30 9 C 0.191211 -0.077984 0.416210 0
M  V30 10 O -0.114428 -1.241527 0.852985 0
M  V30 11 C -0.005386 1.295728 0.933224 0
M  V30 12 C -0.721219 1.376358 2.245760 0 CFG=1
M  V30 13 C -0.801316 2.877413 2.569692 0
M  V30 14 N -1.623930 3.479428 1.524857 0
M  V30 15 C -2.983891 2.995996 1.465674 0
M  V30 16 O -3.928419 3.747603 1.103657 0
M  V30 17 C -3.148152 1.578662 1.858692 0
M  V30 18 C -4.309946 0.851875 1.920901 0
M  V30 19 C -3.983909 -0.413524 2.354920 0
M  V30 20 C -4.720965 -1.624472 2.626125 0
M  V30 21 C -5.857934 -1.944310 1.910428 0
M  V30 22 C -6.615211 -3.098326 2.122865 0
M  V30 23 C -6.121726 -3.912124 3.131060 0
M  V30 24 F -6.816474 -5.063985 3.394371 0
M  V30 25 C -5.002480 -3.662343 3.883809 0
M  V30 26 F -4.608659 -4.529708 4.847667 0
M  V30 27 C -4.327875 -2.508231 3.602239 0
M  V30 28 C -2.595786 -0.366191 2.532204 0
M  V30 29 N -2.067329 0.856636 2.229077 0
M  V30 30 C 0.425560 -1.411170 -2.850350 0
M  V30 31 C -1.050515 -1.161518 -2.674067 0
M  V30 32 C -1.467177 0.256818 -2.882655 0
M  V30 33 C -0.768745 1.015725 -3.942279 0
M  V30 34 C 0.667820 0.718890 -4.164014 0
M  V30 35 C 1.025323 -0.728555 -4.014083 0
M  V30 36 C 4.794571 -1.595668 -0.877485 0
M  V30 37 C 5.538996 -1.303668 0.409022 0
M  V30 38 H 3.215239 -1.495763 2.516856 0
M  V30 39 H 4.769926 -1.586828 3.477176 0
M  V30 40 H 4.550949 -0.228573 2.326195 0
M  V30 41 H 3.974649 -3.818422 1.920149 0
M  V30 42 H 4.972500 -3.857845 0.458853 0
M  V30 43 H 2.806968 -3.733670 -0.466856 0
M  V30 44 H 2.263194 -2.615289 0.911164 0
M  V30 45 H 3.160425 -0.722937 -2.330726 0
M  V30 46 H 2.769452 -2.461464 -2.354402 0
M  V30 47 H 0.811808 -2.170296 -0.934602 0
M  V30 48 H 1.193647 0.735140 -1.349844 0
M  V30 49 H 0.957705 1.819839 1.041407 0
M  V30 50 H -0.594981 1.870980 0.174840 0
M  V30 51 H -0.097468 0.917790 3.040908 0
M  V30 52 H -1.264906 3.025391 3.557542 0
M  V30 53 H 0.230482 3.283298 2.524933 0
M  V30 54 H -1.327436 4.209919 0.834961 0
M  V30 55 H -5.321611 1.113333 1.700175 0
M  V30 56 H -6.184296 -1.254184 1.131128 0
M  V30 57 H -7.499992 -3.327267 1.553035 0
M  V30 58 H -3.425071 -2.240940 4.160733 0
M  V30 59 H -1.952355 -1.176547 2.872238 0
M  V30 60 H 0.474172 -2.515413 -3.111934 0
M  V30 61 H -1.290797 -1.430092 -1.623797 0
M  V30 62 H -1.655332 -1.836610 -3.312178 0
M  V30 63 H -2.562427 0.234412 -3.165693 0
M  V30 64 H -1.486734 0.854872 -1.938902 0
M  V30 65 H -1.338943 0.956113 -4.912436 0
M  V30 66 H -0.834651 2.114915 -3.686716 0
M  V30 67 H 1.367964 1.407244 -3.625597 0
M  V30 68 H 0.879726 0.965683 -5.250314 0
M  V30 69 H 2.121651 -0.818613 -3.989634 0
M  V30 70 H 0.742177 -1.258614 -4.982110 0
M  V30 71 H 5.149391 -2.582504 -1.262202 0
M  V30 72 H 4.920197 -0.798711 -1.632659 0
M  V30 73 H 6.631919 -1.479899 0.295795 0
M  V30 74 H 5.416736 -0.215122 0.612437 0
M  V30 END ATOM
M  V30 BEGIN BOND
M  V30 1 1 1 2
M  V30 2 1 2 3
M  V30 3 1 3 4
M  V30 4 1 4 5
M  V30 5 1 5 6
M  V30 6 1 6 7
M  V30 7 1 7 8
M  V30 8 1 8 9
M  V30 9 2 9 10
M  V30 10 1 9 11
M  V30 11 1 11 12
M  V30 12 1 12 13
M  V30 13 1 13 14
M  V30 14 1 14 15
M  V30 15 2 15 16
M  V30 16 1 15 17
M  V30 17 2 17 18
M  V30 18 1 18 19
M  V30 19 1 19 20
M  V30 20 2 20 21
M  V30 21 1 21 22
M  V30 22 2 22 23
M  V30 23 1 23 24
M  V30 24 1 23 25
M  V30 25 1 25 26
M  V30 26 2 25 27
M  V30 27 2 19 28
M  V30 28 1 28 29
M  V30 29 1 7 30
M  V30 30 1 30 31
M  V30 31 1 31 32
M  V30 32 1 32 33
M  V30 33 1 33 34
M  V30 34 1 34 35
M  V30 35 1 5 36
M  V30 36 1 36 37
M  V30 37 1 37 2
M  V30 38 1 29 12
M  V30 39 1 35 30
M  V30 40 1 29 17
M  V30 41 1 27 20
M  V30 42 1 1 38
M  V30 43 1 1 39
M  V30 44 1 1 40
M  V30 45 1 3 41
M  V30 46 1 3 42
M  V30 47 1 4 43
M  V30 48 1 4 44
M  V30 49 1 6 45
M  V30 50 1 6 46
M  V30 51 1 7 47 CFG=1
M  V30 52 1 8 48
M  V30 53 1 11 49
M  V30 54 1 11 50
M  V30 55 1 12 51 CFG=1
M  V30 56 1 13 52
M  V30 57 1 13 53
M  V30 58 1 14 54
M  V30 59 1 18 55
M  V30 60 1 21 56
M  V30 61 1 22 57
M  V30 62 1 27 58
M  V30 63 1 28 59
M  V30 64 1 30 60
M  V30 65 1 31 61
M  V30 66 1 31 62
M  V30 67 1 32 63
M  V30 68 1 32 64
M  V30 69 1 33 65
M  V30 70 1 33 66
M  V30 71 1 34 67
M  V30 72 1 34 68
M  V30 73 1 35 69
M  V30 74 1 35 70
M  V30 75 1 36 71
M  V30 76 1 36 72
M  V30 77 1 37 73
M  V30 78 1 37 74
M  V30 END BOND
M  V30 END CTAB
M  END
>  <Dataset>  (45) 
ChEMBL_Kinases

>  <Ligand_Instance>  (45) 
nan

>  <PDB_ID>  (45) 
nan

>  <Standardized_SMILES>  (45) 
CN1CCN(C[C@@H](NC(=O)C[C@H]2CNC(=O)c3cc(-c4ccc(F)c(F)c4)cn32)C2CCCCC2)CC1

>  <Name>  (45) 
nan

>  <Pocket>  (45) 
nan

>  <ATP_Site>  (45) 
nan

>  <Peripheral>  (45) 
nan

>  <Num_H_Atoms_ProtBoundConf>  (45) 
nan

>  <Num_Resolved_Atoms>  (45) 
nan

>  <Num_Not_Resolved_Atoms>  (45) 
nan

$$$$
CHEMBL3297764
     RDKit          3D

  0  0  0  0  0  0  0  0  0  0999 V3000
M  V30 BEGIN CTAB
M  V30 COUNTS 74 78 0 0 0
M  V30 BEGIN ATOM
M  V30 1 C 4.331992 -1.757198 1.585053 0
M  V30 2 N 4.920859 -2.373230 0.413699 0
M  V30 3 C 4.139103 -3.487799 -0.068860 0
M  V30 4 C 2.855803 -3.072016 -0.746787 0
M  V30 5 N 3.072494 -1.827394 -1.422717 0
M  V30 6 C 2.114990 -1.517975 -2.436230 0
M  V30 7 C 0.745632 -1.226592 -1.905006 0 CFG=1
M  V30 8 N 0.670000 -0.125441 -1.011822 0
M  V30 9 C 0.255327 -0.170698 0.351563 0
M  V30 10 O -0.044371 -1.352105 0.666857 0
M  V30 11 C 0.288685 1.138461 1.006737 0
M  V30 12 C -0.091409 1.156302 2.445888 0 CFG=1
M  V30 13 C 0.020464 2.614574 2.900549 0
M  V30 14 N -1.045064 3.336070 2.226081 0
M  V30 15 C -2.391856 2.897787 2.508146 0
M  V30 16 O -3.343834 3.719746 2.512755 0
M  V30 17 C -2.534208 1.450159 2.778688 0
M  V30 18 C -3.659978 0.718102 3.083762 0
M  V30 19 C -3.197025 -0.584887 3.240022 0
M  V30 20 C -4.065142 -1.722951 3.576384 0
M  V30 21 C -5.282836 -2.000618 3.012704 0
M  V30 22 C -6.013208 -3.109823 3.414350 0
M  V30 23 Cl -7.559950 -3.446661 2.686383 0
M  V30 24 C -5.461439 -3.919486 4.403814 0
M  V30 25 C -4.251413 -3.649895 4.968992 0
M  V30 26 C -3.532363 -2.550900 4.568255 0
M  V30 27 F -2.335616 -2.332356 5.165561 0
M  V30 28 C -1.828552 -0.569171 3.022775 0
M  V30 29 N -1.422759 0.694066 2.737245 0
M  V30 30 C -0.196382 -0.964603 -3.059727 0
M  V30 31 C -1.592951 -0.662138 -2.652250 0
M  V30 32 C -2.038002 0.745274 -2.794093 0
M  V30 33 C -1.475242 1.522062 -3.927728 0
M  V30 34 C -0.643646 0.696237 -4.893927 0
M  V30 35 C 0.414589 0.016656 -4.031424 0
M  V30 36 C 4.431604 -1.733411 -1.869326 0
M  V30 37 C 5.258632 -1.431662 -0.616606 0
M  V30 38 H 3.255484 -2.009100 1.620901 0
M  V30 39 H 4.807273 -2.217607 2.474339 0
M  V30 40 H 4.502101 -0.670870 1.631176 0
M  V30 41 H 3.932828 -4.125536 0.824914 0
M  V30 42 H 4.758261 -4.079611 -0.758982 0
M  V30 43 H 2.109385 -2.930943 0.036826 0
M  V30 44 H 2.520092 -3.883493 -1.418689 0
M  V30 45 H 2.021807 -2.436892 -3.063158 0
M  V30 46 H 2.531972 -0.736960 -3.086665 0
M  V30 47 H 0.396580 -2.125835 -1.368287 0
M  V30 48 H 0.972380 0.751919 -1.515768 0
M  V30 49 H 1.295746 1.627133 0.937379 0
M  V30 50 H -0.386308 1.825201 0.436580 0
M  V30 51 H 0.665977 0.579879 3.035054 0
M  V30 52 H 1.020050 3.001809 2.615809 0
M  V30 53 H -0.124956 2.615289 3.990039 0
M  V30 54 H -0.911946 4.137388 1.561729 0
M  V30 55 H -4.671381 1.087815 3.177762 0
M  V30 56 H -5.634070 -1.329823 2.261676 0
M  V30 57 H -6.040534 -4.777014 4.704495 0
M  V30 58 H -3.908120 -4.339802 5.730965 0
M  V30 59 H -1.289772 -1.519898 3.106077 0
M  V30 60 H -0.219328 -1.939152 -3.633191 0
M  V30 61 H -1.678645 -0.947942 -1.575404 0
M  V30 62 H -2.335885 -1.343982 -3.162975 0
M  V30 63 H -3.157239 0.740160 -2.941365 0
M  V30 64 H -1.908623 1.353065 -1.855126 0
M  V30 65 H -2.237403 2.053932 -4.539212 0
M  V30 66 H -0.772576 2.336542 -3.584793 0
M  V30 67 H -0.108497 1.411096 -5.550077 0
M  V30 68 H -1.296632 -0.004474 -5.421202 0
M  V30 69 H 1.132140 -0.478075 -4.732289 0
M  V30 70 H 0.974218 0.841156 -3.544539 0
M  V30 71 H 4.797009 -2.702611 -2.312213 0
M  V30 72 H 4.526896 -0.927200 -2.618723 0
M  V30 73 H 6.315073 -1.330090 -0.850657 0
M  V30 74 H 4.869929 -0.437168 -0.260698 0
M  V30 END ATOM
M  V30 BEGIN BOND
M  V30 1 1 1 2
M  V30 2 1 2 3
M  V30 3 1 3 4
M  V30 4 1 4 5
M  V30 5 1 5 6
M  V30 6 1 6 7
M  V30 7 1 7 8
M  V30 8 1 8 9
M  V30 9 2 9 10
M  V30 10 1 9 11
M  V30 11 1 11 12
M  V30 12 1 12 13
M  V30 13 1 13 14
M  V30 14 1 14 15
M  V30 15 2 15 16
M  V30 16 1 15 17
M  V30 17 2 17 18
M  V30 18 1 18 19
M  V30 19 1 19 20
M  V30 20 2 20 21
M  V30 21 1 21 22
M  V30 22 1 22 23
M  V30 23 2 22 24
M  V30 24 1 24 25
M  V30 25 2 25 26
M  V30 26 1 26 27
M  V30 27 2 19 28
M  V30 28 1 28 29
M  V30 29 1 7 30
M  V30 30 1 30 31
M  V30 31 1 31 32
M  V30 32 1 32 33
M  V30 33 1 33 34
M  V30 34 1 34 35
M  V30 35 1 5 36
M  V30 36 1 36 37
M  V30 37 1 37 2
M  V30 38 1 29 12
M  V30 39 1 35 30
M  V30 40 1 29 17
M  V30 41 1 26 20
M  V30 42 1 1 38
M  V30 43 1 1 39
M  V30 44 1 1 40
M  V30 45 1 3 41
M  V30 46 1 3 42
M  V30 47 1 4 43
M  V30 48 1 4 44
M  V30 49 1 6 45
M  V30 50 1 6 46
M  V30 51 1 7 47 CFG=1
M  V30 52 1 8 48
M  V30 53 1 11 49
M  V30 54 1 11 50
M  V30 55 1 12 51 CFG=1
M  V30 56 1 13 52
M  V30 57 1 13 53
M  V30 58 1 14 54
M  V30 59 1 18 55
M  V30 60 1 21 56
M  V30 61 1 24 57
M  V30 62 1 25 58
M  V30 63 1 28 59
M  V30 64 1 30 60
M  V30 65 1 31 61
M  V30 66 1 31 62
M  V30 67 1 32 63
M  V30 68 1 32 64
M  V30 69 1 33 65
M  V30 70 1 33 66
M  V30 71 1 34 67
M  V30 72 1 34 68
M  V30 73 1 35 69
M  V30 74 1 35 70
M  V30 75 1 36 71
M  V30 76 1 36 72
M  V30 77 1 37 73
M  V30 78 1 37 74
M  V30 END BOND
M  V30 END CTAB
M  END
>  <Dataset>  (46) 
ChEMBL_Kinases

>  <Ligand_Instance>  (46) 
nan

>  <PDB_ID>  (46) 
nan

>  <Standardized_SMILES>  (46) 
CN1CCN(C[C@@H](NC(=O)C[C@H]2CNC(=O)c3cc(-c4cc(Cl)ccc4F)cn32)C2CCCCC2)CC1

>  <Name>  (46) 
nan

>  <Pocket>  (46) 
nan

>  <ATP_Site>  (46) 
nan

>  <Peripheral>  (46) 
nan

>  <Num_H_Atoms_ProtBoundConf>  (46) 
nan

>  <Num_Resolved_Atoms>  (46) 
nan

>  <Num_Not_Resolved_Atoms>  (46) 
nan

$$$$
CHEMBL3297765
     RDKit          3D

  0  0  0  0  0  0  0  0  0  0999 V3000
M  V30 BEGIN CTAB
M  V30 COUNTS 73 77 0 0 0
M  V30 BEGIN ATOM
M  V30 1 C 2.473678 -2.697654 6.150644 0
M  V30 2 N 3.278187 -1.931959 5.256260 0
M  V30 3 C 2.889535 -0.586466 5.030307 0
M  V30 4 C 2.181703 -0.319389 3.732399 0
M  V30 5 N 2.604388 -1.121590 2.650933 0
M  V30 6 C 1.613177 -1.973143 2.040359 0
M  V30 7 C 0.548513 -1.294436 1.269954 0 CFG=1
M  V30 8 N 1.048653 -0.487392 0.162894 0
M  V30 9 C 0.858995 0.849661 -0.342297 0
M  V30 10 O 0.080741 1.608799 0.256562 0
M  V30 11 C 1.692483 1.074431 -1.582149 0
M  V30 12 C 1.087667 2.318624 -2.259074 0 CFG=1
M  V30 13 C 1.863489 2.637808 -3.492788 0
M  V30 14 N 2.160652 1.347956 -4.137088 0
M  V30 15 C 0.964948 0.727318 -4.597945 0
M  V30 16 O 0.881168 -0.045064 -5.621842 0
M  V30 17 C -0.257456 1.014981 -3.811344 0
M  V30 18 C -1.573714 0.587043 -4.056445 0
M  V30 19 C -2.335316 1.171124 -3.058620 0
M  V30 20 C -3.799028 0.989993 -2.889872 0
M  V30 21 C -4.651615 1.967845 -2.364690 0
M  V30 22 C -6.016345 1.666008 -2.240776 0
M  V30 23 N -6.479184 0.463326 -2.621863 0
M  V30 24 C -5.648742 -0.445326 -3.115932 0
M  V30 25 F -6.088046 -1.679690 -3.511917 0
M  V30 26 C -4.277389 -0.266250 -3.288424 0
M  V30 27 C -1.515120 1.919994 -2.242645 0
M  V30 28 N -0.240612 1.822105 -2.703417 0
M  V30 29 C -0.411727 -2.349072 0.707783 0
M  V30 30 C -1.078637 -3.163027 1.774825 0
M  V30 31 C -2.087359 -4.098409 1.116737 0
M  V30 32 C -3.206312 -3.292898 0.555328 0
M  V30 33 C -2.822159 -1.849011 0.324884 0
M  V30 34 C -1.420540 -1.719807 -0.231392 0
M  V30 35 C 3.809356 -1.838014 2.858836 0
M  V30 36 C 3.812666 -2.637466 4.142526 0
M  V30 37 H 1.763535 -3.339126 5.601536 0
M  V30 38 H 1.850100 -1.997241 6.744680 0
M  V30 39 H 3.045689 -3.271582 6.919971 0
M  V30 40 H 3.812114 0.051771 5.127361 0
M  V30 41 H 2.223194 -0.264697 5.852600 0
M  V30 42 H 2.325690 0.739337 3.455761 0
M  V30 43 H 1.060586 -0.425539 3.846733 0
M  V30 44 H 1.095799 -2.588985 2.833262 0
M  V30 45 H 2.147902 -2.709467 1.406082 0
M  V30 46 H -0.084961 -0.638336 1.899736 0
M  V30 47 H 1.705106 -1.190528 -0.304749 0
M  V30 48 H 1.588751 0.203285 -2.242821 0
M  V30 49 H 2.730991 1.241926 -1.259268 0
M  V30 50 H 0.944774 3.111515 -1.543247 0
M  V30 51 H 1.260152 3.279630 -4.160720 0
M  V30 52 H 2.825150 3.160129 -3.214002 0
M  V30 53 H 3.043088 0.815469 -4.318142 0
M  V30 54 H -1.892130 -0.067756 -4.872427 0
M  V30 55 H -4.209416 2.910683 -2.079099 0
M  V30 56 H -6.669605 2.431926 -1.831906 0
M  V30 57 H -3.615032 -1.023244 -3.696488 0
M  V30 58 H -1.840331 2.491455 -1.395139 0
M  V30 59 H 0.180010 -3.088841 0.087561 0
M  V30 60 H -0.319544 -3.768011 2.305276 0
M  V30 61 H -1.678070 -2.512049 2.443723 0
M  V30 62 H -2.417892 -4.820775 1.908081 0
M  V30 63 H -1.545615 -4.720909 0.371503 0
M  V30 64 H -3.621139 -3.784588 -0.346565 0
M  V30 65 H -4.028383 -3.298033 1.328903 0
M  V30 66 H -3.489886 -1.439495 -0.471786 0
M  V30 67 H -2.927190 -1.213940 1.217351 0
M  V30 68 H -1.257849 -0.656549 -0.414935 0
M  V30 69 H -1.422826 -2.232978 -1.242355 0
M  V30 70 H 4.691427 -1.170242 2.756726 0
M  V30 71 H 3.882475 -2.591913 2.021235 0
M  V30 72 H 3.271217 -3.597584 4.017061 0
M  V30 73 H 4.872153 -2.901295 4.350925 0
M  V30 END ATOM
M  V30 BEGIN BOND
M  V30 1 1 1 2
M  V30 2 1 2 3
M  V30 3 1 3 4
M  V30 4 1 4 5
M  V30 5 1 5 6
M  V30 6 1 6 7
M  V30 7 1 7 8
M  V30 8 1 8 9
M  V30 9 2 9 10
M  V30 10 1 9 11
M  V30 11 1 11 12
M  V30 12 1 12 13
M  V30 13 1 13 14
M  V30 14 1 14 15
M  V30 15 2 15 16
M  V30 16 1 15 17
M  V30 17 2 17 18
M  V30 18 1 18 19
M  V30 19 1 19 20
M  V30 20 2 20 21
M  V30 21 1 21 22
M  V30 22 2 22 23
M  V30 23 1 23 24
M  V30 24 1 24 25
M  V30 25 2 24 26
M  V30 26 2 19 27
M  V30 27 1 27 28
M  V30 28 1 7 29
M  V30 29 1 29 30
M  V30 30 1 30 31
M  V30 31 1 31 32
M  V30 32 1 32 33
M  V30 33 1 33 34
M  V30 34 1 5 35
M  V30 35 1 35 36
M  V30 36 1 36 2
M  V30 37 1 28 12
M  V30 38 1 34 29
M  V30 39 1 28 17
M  V30 40 1 26 20
M  V30 41 1 1 37
M  V30 42 1 1 38
M  V30 43 1 1 39
M  V30 44 1 3 40
M  V30 45 1 3 41
M  V30 46 1 4 42
M  V30 47 1 4 43
M  V30 48 1 6 44
M  V30 49 1 6 45
M  V30 50 1 7 46 CFG=1
M  V30 51 1 8 47
M  V30 52 1 11 48
M  V30 53 1 11 49
M  V30 54 1 12 50 CFG=1
M  V30 55 1 13 51
M  V30 56 1 13 52
M  V30 57 1 14 53
M  V30 58 1 18 54
M  V30 59 1 21 55
M  V30 60 1 22 56
M  V30 61 1 26 57
M  V30 62 1 27 58
M  V30 63 1 29 59
M  V30 64 1 30 60
M  V30 65 1 30 61
M  V30 66 1 31 62
M  V30 67 1 31 63
M  V30 68 1 32 64
M  V30 69 1 32 65
M  V30 70 1 33 66
M  V30 71 1 33 67
M  V30 72 1 34 68
M  V30 73 1 34 69
M  V30 74 1 35 70
M  V30 75 1 35 71
M  V30 76 1 36 72
M  V30 77 1 36 73
M  V30 END BOND
M  V30 END CTAB
M  END
>  <Dataset>  (47) 
ChEMBL_Kinases

>  <Ligand_Instance>  (47) 
nan

>  <PDB_ID>  (47) 
nan

>  <Standardized_SMILES>  (47) 
CN1CCN(C[C@@H](NC(=O)C[C@H]2CNC(=O)c3cc(-c4ccnc(F)c4)cn32)C2CCCCC2)CC1

>  <Name>  (47) 
nan

>  <Pocket>  (47) 
nan

>  <ATP_Site>  (47) 
nan

>  <Peripheral>  (47) 
nan

>  <Num_H_Atoms_ProtBoundConf>  (47) 
nan

>  <Num_Resolved_Atoms>  (47) 
nan

>  <Num_Not_Resolved_Atoms>  (47) 
nan

$$$$
CHEMBL3297766
     RDKit          3D

  0  0  0  0  0  0  0  0  0  0999 V3000
M  V30 BEGIN CTAB
M  V30 COUNTS 80 84 0 0 0
M  V30 BEGIN ATOM
M  V30 1 C 5.695264 -1.204814 4.681429 0
M  V30 2 N 4.580966 -2.027584 4.252939 0
M  V30 3 C 3.863450 -2.433791 5.460750 0
M  V30 4 C 3.710042 -1.221144 3.444808 0
M  V30 5 C 2.497123 -1.950211 2.963953 0
M  V30 6 C 2.598222 -2.502926 1.563285 0
M  V30 7 N 3.085961 -1.435988 0.727639 0
M  V30 8 C 2.842306 -1.611653 -0.683657 0
M  V30 9 C 1.411191 -1.509201 -1.058634 0 CFG=1
M  V30 10 N 0.802284 -0.236505 -0.742747 0
M  V30 11 C -0.243486 0.154470 0.145974 0
M  V30 12 O -0.575748 -0.941526 0.665479 0
M  V30 13 C -0.387177 1.627438 -0.007170 0
M  V30 14 C -1.511025 2.097205 0.849809 0 CFG=1
M  V30 15 C -1.677151 3.618621 0.777542 0
M  V30 16 N -2.547254 3.949181 1.895161 0
M  V30 17 C -3.882357 3.427541 1.700053 0
M  V30 18 O -4.931636 4.018262 2.139439 0
M  V30 19 C -3.912201 2.150715 0.948951 0
M  V30 20 C -5.059860 1.495741 0.573340 0
M  V30 21 C -4.663171 0.400319 -0.159662 0
M  V30 22 C -5.543655 -0.590247 -0.765171 0
M  V30 23 C -6.808691 -0.261661 -1.235166 0
M  V30 24 C -7.645637 -1.222020 -1.813524 0
M  V30 25 C -7.159408 -2.508876 -1.896439 0
M  V30 26 C -5.913803 -2.872611 -1.442675 0
M  V30 27 Cl -5.241133 -4.485282 -1.518049 0
M  V30 28 C -5.099084 -1.911482 -0.873718 0
M  V30 29 C -3.288636 0.471669 -0.174357 0
M  V30 30 N -2.808494 1.529081 0.496409 0
M  V30 31 C 1.096913 -1.971248 -2.458718 0
M  V30 32 C -0.365999 -1.837440 -2.749329 0
M  V30 33 C -0.763477 -1.735396 -4.177733 0
M  V30 34 C 0.145488 -0.924303 -5.045387 0
M  V30 35 C 1.322936 -0.348604 -4.289602 0
M  V30 36 C 1.960861 -1.458684 -3.537421 0
M  V30 37 C 4.495138 -1.303498 1.045302 0
M  V30 38 C 4.479553 -0.531657 2.374322 0
M  V30 39 H 5.428590 -0.107367 4.714440 0
M  V30 40 H 6.585864 -1.317582 4.049220 0
M  V30 41 H 5.969315 -1.424131 5.750370 0
M  V30 42 H 3.312624 -3.372383 5.318040 0
M  V30 43 H 4.638841 -2.645440 6.247056 0
M  V30 44 H 3.251785 -1.569013 5.778330 0
M  V30 45 H 3.325860 -0.410504 4.131848 0
M  V30 46 H 1.598442 -1.300549 2.980352 0
M  V30 47 H 2.256519 -2.829260 3.613750 0
M  V30 48 H 3.404231 -3.295725 1.523602 0
M  V30 49 H 1.626413 -2.912631 1.306970 0
M  V30 50 H 3.138482 -2.686204 -0.874532 0
M  V30 51 H 3.540005 -1.024067 -1.307978 0
M  V30 52 H 0.848419 -2.240677 -0.399851 0
M  V30 53 H 1.418000 0.322580 -1.413283 0
M  V30 54 H 0.556080 2.105786 0.277474 0
M  V30 55 H -0.572685 1.902386 -1.069461 0
M  V30 56 H -1.361257 1.867949 1.923077 0
M  V30 57 H -2.154179 3.840423 -0.185959 0
M  V30 58 H -0.693845 4.118060 0.896914 0
M  V30 59 H -2.368384 4.484642 2.778239 0
M  V30 60 H -6.101300 1.744842 0.783544 0
M  V30 61 H -7.177421 0.761200 -1.162302 0
M  V30 62 H -8.632408 -0.995856 -2.186510 0
M  V30 63 H -7.753912 -3.314194 -2.335225 0
M  V30 64 H -4.109634 -2.128464 -0.497284 0
M  V30 65 H -2.736806 -0.282999 -0.706668 0
M  V30 66 H 1.327990 -3.088369 -2.399708 0
M  V30 67 H -0.714352 -0.952035 -2.173554 0
M  V30 68 H -0.888670 -2.701021 -2.284873 0
M  V30 69 H -1.778273 -1.292459 -4.229957 0
M  V30 70 H -0.859825 -2.739585 -4.638186 0
M  V30 71 H 0.564446 -1.516864 -5.883323 0
M  V30 72 H -0.373177 -0.060972 -5.507413 0
M  V30 73 H 2.082956 -0.036762 -5.070116 0
M  V30 74 H 1.111113 0.571991 -3.747811 0
M  V30 75 H 3.006601 -1.246809 -3.233811 0
M  V30 76 H 2.087363 -2.295389 -4.296011 0
M  V30 77 H 4.953394 -2.290883 1.281898 0
M  V30 78 H 5.062792 -0.701288 0.334553 0
M  V30 79 H 5.490841 -0.275442 2.689615 0
M  V30 80 H 3.901962 0.404623 2.110910 0
M  V30 END ATOM
M  V30 BEGIN BOND
M  V30 1 1 1 2
M  V30 2 1 2 3
M  V30 3 1 2 4
M  V30 4 1 4 5
M  V30 5 1 5 6
M  V30 6 1 6 7
M  V30 7 1 7 8
M  V30 8 1 8 9
M  V30 9 1 9 10
M  V30 10 1 10 11
M  V30 11 2 11 12
M  V30 12 1 11 13
M  V30 13 1 13 14
M  V30 14 1 14 15
M  V30 15 1 15 16
M  V30 16 1 16 17
M  V30 17 2 17 18
M  V30 18 1 17 19
M  V30 19 2 19 20
M  V30 20 1 20 21
M  V30 21 1 21 22
M  V30 22 2 22 23
M  V30 23 1 23 24
M  V30 24 2 24 25
M  V30 25 1 25 26
M  V30 26 1 26 27
M  V30 27 2 26 28
M  V30 28 2 21 29
M  V30 29 1 29 30
M  V30 30 1 9 31
M  V30 31 1 31 32
M  V30 32 1 32 33
M  V30 33 1 33 34
M  V30 34 1 34 35
M  V30 35 1 35 36
M  V30 36 1 7 37
M  V30 37 1 37 38
M  V30 38 1 38 4
M  V30 39 1 30 14
M  V30 40 1 36 31
M  V30 41 1 30 19
M  V30 42 1 28 22
M  V30 43 1 1 39
M  V30 44 1 1 40
M  V30 45 1 1 41
M  V30 46 1 3 42
M  V30 47 1 3 43
M  V30 48 1 3 44
M  V30 49 1 4 45
M  V30 50 1 5 46
M  V30 51 1 5 47
M  V30 52 1 6 48
M  V30 53 1 6 49
M  V30 54 1 8 50
M  V30 55 1 8 51
M  V30 56 1 9 52 CFG=1
M  V30 57 1 10 53
M  V30 58 1 13 54
M  V30 59 1 13 55
M  V30 60 1 14 56 CFG=1
M  V30 61 1 15 57
M  V30 62 1 15 58
M  V30 63 1 16 59
M  V30 64 1 20 60
M  V30 65 1 23 61
M  V30 66 1 24 62
M  V30 67 1 25 63
M  V30 68 1 28 64
M  V30 69 1 29 65
M  V30 70 1 31 66
M  V30 71 1 32 67
M  V30 72 1 32 68
M  V30 73 1 33 69
M  V30 74 1 33 70
M  V30 75 1 34 71
M  V30 76 1 34 72
M  V30 77 1 35 73
M  V30 78 1 35 74
M  V30 79 1 36 75
M  V30 80 1 36 76
M  V30 81 1 37 77
M  V30 82 1 37 78
M  V30 83 1 38 79
M  V30 84 1 38 80
M  V30 END BOND
M  V30 END CTAB
M  END
>  <Dataset>  (48) 
ChEMBL_Kinases

>  <Ligand_Instance>  (48) 
nan

>  <PDB_ID>  (48) 
nan

>  <Standardized_SMILES>  (48) 
CN(C)C1CCN(C[C@@H](NC(=O)C[C@H]2CNC(=O)c3cc(-c4cccc(Cl)c4)cn32)C2CCCCC2)CC1

>  <Name>  (48) 
nan

>  <Pocket>  (48) 
nan

>  <ATP_Site>  (48) 
nan

>  <Peripheral>  (48) 
nan

>  <Num_H_Atoms_ProtBoundConf>  (48) 
nan

>  <Num_Resolved_Atoms>  (48) 
nan

>  <Num_Not_Resolved_Atoms>  (48) 
nan

$$$$
CHEMBL3675463
     RDKit          3D

  0  0  0  0  0  0  0  0  0  0999 V3000
M  V30 BEGIN CTAB
M  V30 COUNTS 55 58 0 0 0
M  V30 BEGIN ATOM
M  V30 1 C 5.206787 -5.908358 0.356350 0
M  V30 2 O 4.479826 -4.697867 0.443487 0
M  V30 3 C 4.557371 -3.783008 -0.605888 0
M  V30 4 C 3.853147 -2.599643 -0.532315 0
M  V30 5 C 3.871257 -1.639197 -1.521337 0
M  V30 6 C 3.144155 -0.377165 -1.485928 0
M  V30 7 O 3.268348 0.389310 -2.468568 0
M  V30 8 N 2.313820 0.028857 -0.416119 0
M  V30 9 C 1.564904 1.223096 -0.274465 0
M  V30 10 C 1.476416 2.259906 -1.146901 0
M  V30 11 C 0.728400 3.389964 -0.943027 0
M  V30 12 C 0.000561 3.528898 0.208980 0
M  V30 13 C 0.057078 2.505449 1.124662 0
M  V30 14 C -0.695276 2.566633 2.391379 0 CFG=1
M  V30 15 C -1.754004 3.639983 2.303086 0
M  V30 16 N -1.361831 1.326480 2.737963 0
M  V30 17 C -2.289418 0.802254 1.829922 0
M  V30 18 N -2.580003 1.392626 0.658085 0
M  V30 19 C -3.452440 0.934286 -0.244277 0
M  V30 20 N -4.135625 -0.207483 -0.032760 0
M  V30 21 C -3.923873 -0.887464 1.114075 0
M  V30 22 C -4.599750 -2.063300 1.377710 0
M  V30 23 C -5.550651 -2.545754 0.375481 0
M  V30 24 N -6.279797 -3.740917 0.570210 0
M  V30 25 O -5.732010 -1.885650 -0.693564 0
M  V30 26 C -4.401036 -2.766292 2.530115 0
M  V30 27 C -3.486886 -2.267468 3.453747 0
M  V30 28 C -2.832146 -1.092237 3.155853 0
M  V30 29 C -3.010836 -0.360166 2.002462 0
M  V30 30 C 0.823659 1.387656 0.875881 0
M  V30 31 C 4.662314 -1.965780 -2.602858 0
M  V30 32 C 5.369477 -3.147294 -2.683550 0
M  V30 33 N 5.321103 -4.055284 -1.692925 0
M  V30 34 H 4.597628 -6.726006 -0.072286 0
M  V30 35 H 5.604685 -6.257542 1.328205 0
M  V30 36 H 6.083794 -5.739912 -0.318737 0
M  V30 37 H 3.271209 -2.439045 0.342477 0
M  V30 38 H 2.288595 -0.682441 0.336103 0
M  V30 39 H 2.011612 2.226773 -2.062583 0
M  V30 40 H 0.687801 4.191036 -1.666609 0
M  V30 41 H -0.581773 4.423268 0.357786 0
M  V30 42 H -0.048873 2.849859 3.251999 0
M  V30 43 H -1.337289 4.650815 2.474411 0
M  V30 44 H -2.191309 3.627084 1.287331 0
M  V30 45 H -2.585266 3.407438 3.007560 0
M  V30 46 H -1.125967 0.874441 3.645395 0
M  V30 47 H -3.621176 1.491654 -1.176373 0
M  V30 48 H -6.481548 -4.458963 -0.173852 0
M  V30 49 H -6.404306 -4.367985 -0.268042 0
M  V30 50 H -4.947801 -3.684301 2.704148 0
M  V30 51 H -3.330381 -2.825588 4.366482 0
M  V30 52 H -2.148170 -0.784912 3.924564 0
M  V30 53 H 0.837433 0.593455 1.639706 0
M  V30 54 H 4.769186 -1.304418 -3.451521 0
M  V30 55 H 5.983956 -3.390715 -3.533883 0
M  V30 END ATOM
M  V30 BEGIN BOND
M  V30 1 1 1 2
M  V30 2 1 2 3
M  V30 3 2 3 4
M  V30 4 1 4 5
M  V30 5 1 5 6
M  V30 6 2 6 7
M  V30 7 1 6 8
M  V30 8 1 8 9
M  V30 9 2 9 10
M  V30 10 1 10 11
M  V30 11 2 11 12
M  V30 12 1 12 13
M  V30 13 1 13 14
M  V30 14 1 14 15
M  V30 15 1 14 16
M  V30 16 1 16 17
M  V30 17 2 17 18
M  V30 18 1 18 19
M  V30 19 2 19 20
M  V30 20 1 20 21
M  V30 21 2 21 22
M  V30 22 1 22 23
M  V30 23 1 23 24
M  V30 24 2 23 25
M  V30 25 1 22 26
M  V30 26 2 26 27
M  V30 27 1 27 28
M  V30 28 2 28 29
M  V30 29 2 13 30
M  V30 30 2 5 31
M  V30 31 1 31 32
M  V30 32 2 32 33
M  V30 33 1 33 3
M  V30 34 1 30 9
M  V30 35 1 29 17
M  V30 36 1 29 21
M  V30 37 1 1 34
M  V30 38 1 1 35
M  V30 39 1 1 36
M  V30 40 1 4 37
M  V30 41 1 8 38
M  V30 42 1 10 39
M  V30 43 1 11 40
M  V30 44 1 12 41
M  V30 45 1 14 42 CFG=1
M  V30 46 1 15 43
M  V30 47 1 15 44
M  V30 48 1 15 45
M  V30 49 1 16 46
M  V30 50 1 19 47
M  V30 51 1 24 48
M  V30 52 1 24 49
M  V30 53 1 26 50
M  V30 54 1 27 51
M  V30 55 1 28 52
M  V30 56 1 30 53
M  V30 57 1 31 54
M  V30 58 1 32 55
M  V30 END BOND
M  V30 END CTAB
M  END
>  <Dataset>  (49) 
ChEMBL_Kinases

>  <Ligand_Instance>  (49) 
nan

>  <PDB_ID>  (49) 
nan

>  <Standardized_SMILES>  (49) 
COc1cc(C(=O)Nc2cccc([C@@H](C)Nc3ncnc4c(C(N)=O)cccc34)c2)ccn1

>  <Name>  (49) 
nan

>  <Pocket>  (49) 
nan

>  <ATP_Site>  (49) 
nan

>  <Peripheral>  (49) 
nan

>  <Num_H_Atoms_ProtBoundConf>  (49) 
nan

>  <Num_Resolved_Atoms>  (49) 
nan

>  <Num_Not_Resolved_Atoms>  (49) 
nan

$$$$
CHEMBL3675462
     RDKit          3D

  0  0  0  0  0  0  0  0  0  0999 V3000
M  V30 BEGIN CTAB
M  V30 COUNTS 61 64 0 0 0
M  V30 BEGIN ATOM
M  V30 1 C 0.666152 -2.251447 4.718698 0
M  V30 2 C 0.032232 -1.020405 4.142858 0 CFG=1
M  V30 3 N 0.999148 -0.408428 3.232588 0
M  V30 4 C 2.236432 0.002899 3.744208 0
M  V30 5 N 2.539548 -0.157955 5.044358 0
M  V30 6 C 3.706386 0.213734 5.598422 0
M  V30 7 N 4.685550 0.793910 4.857963 0
M  V30 8 C 4.453362 0.986536 3.549772 0
M  V30 9 C 5.394896 1.565155 2.745366 0
M  V30 10 C 6.670281 1.983509 3.296584 0
M  V30 11 N 7.114976 1.876097 4.629689 0
M  V30 12 O 7.596708 2.522686 2.637241 0
M  V30 13 C 5.209239 1.787016 1.395260 0
M  V30 14 C 3.999697 1.393637 0.857773 0
M  V30 15 C 3.051598 0.809844 1.672956 0
M  V30 16 C 3.239174 0.592621 3.005502 0
M  V30 17 C -1.260087 -1.314072 3.469873 0
M  V30 18 C -2.442853 -0.975956 4.136099 0
M  V30 19 C -3.675329 -1.221918 3.568228 0
M  V30 20 C -3.751779 -1.813486 2.317236 0
M  V30 21 C -2.573001 -2.132753 1.690552 0
M  V30 22 N -2.705332 -2.746542 0.391434 0
M  V30 23 C -2.730526 -1.761913 -0.629491 0
M  V30 24 O -2.646573 -0.525957 -0.397122 0
M  V30 25 C -2.859737 -2.171294 -2.036529 0
M  V30 26 C -2.897355 -1.333879 -3.123544 0
M  V30 27 C -3.025612 -2.083057 -4.278161 0
M  V30 28 C -3.104971 -1.554540 -5.684982 0
M  V30 29 C -4.557525 -1.305963 -6.034128 0
M  V30 30 C -2.553657 -2.563224 -6.637113 0
M  V30 31 C -2.370044 -0.248317 -5.765533 0
M  V30 32 N -3.062844 -3.362231 -3.862429 0
M  V30 33 N -2.964673 -3.415891 -2.535440 0
M  V30 34 C -1.322875 -1.895442 2.240896 0
M  V30 35 H 1.148341 -1.977861 5.678520 0
M  V30 36 H 1.378534 -2.650279 3.981602 0
M  V30 37 H -0.102002 -3.019992 5.013964 0
M  V30 38 H -0.109135 -0.276333 4.960309 0
M  V30 39 H 0.673748 -0.328776 2.248696 0
M  V30 40 H 3.786709 0.010437 6.663515 0
M  V30 41 H 7.465528 1.044060 5.169478 0
M  V30 42 H 7.155402 2.671154 5.302333 0
M  V30 43 H 5.950312 2.245005 0.750593 0
M  V30 44 H 3.818605 1.552891 -0.200306 0
M  V30 45 H 2.133152 0.530271 1.179731 0
M  V30 46 H -2.367148 -0.511551 5.118124 0
M  V30 47 H -4.542112 -0.918713 4.173014 0
M  V30 48 H -4.733769 -1.991282 1.902537 0
M  V30 49 H -2.777279 -3.761453 0.158246 0
M  V30 50 H -2.837556 -0.258820 -3.096960 0
M  V30 51 H -4.894565 -0.282649 -5.811313 0
M  V30 52 H -5.211104 -1.964947 -5.391625 0
M  V30 53 H -4.787148 -1.556222 -7.081176 0
M  V30 54 H -2.014784 -2.011152 -7.452158 0
M  V30 55 H -3.392658 -3.113302 -7.106570 0
M  V30 56 H -1.860262 -3.286767 -6.132603 0
M  V30 57 H -1.826860 -0.124920 -6.736024 0
M  V30 58 H -3.097605 0.586321 -5.712132 0
M  V30 59 H -1.701725 -0.096858 -4.884217 0
M  V30 60 H -2.963688 -4.264961 -1.923664 0
M  V30 61 H -0.409353 -2.166896 1.704436 0
M  V30 END ATOM
M  V30 BEGIN BOND
M  V30 1 1 1 2
M  V30 2 1 2 3
M  V30 3 1 3 4
M  V30 4 2 4 5
M  V30 5 1 5 6
M  V30 6 2 6 7
M  V30 7 1 7 8
M  V30 8 2 8 9
M  V30 9 1 9 10
M  V30 10 1 10 11
M  V30 11 2 10 12
M  V30 12 1 9 13
M  V30 13 2 13 14
M  V30 14 1 14 15
M  V30 15 2 15 16
M  V30 16 1 2 17
M  V30 17 2 17 18
M  V30 18 1 18 19
M  V30 19 2 19 20
M  V30 20 1 20 21
M  V30 21 1 21 22
M  V30 22 1 22 23
M  V30 23 2 23 24
M  V30 24 1 23 25
M  V30 25 2 25 26
M  V30 26 1 26 27
M  V30 27 1 27 28
M  V30 28 1 28 29
M  V30 29 1 28 30
M  V30 30 1 28 31
M  V30 31 2 27 32
M  V30 32 1 32 33
M  V30 33 2 21 34
M  V30 34 1 16 4
M  V30 35 1 34 17
M  V30 36 1 16 8
M  V30 37 1 33 25
M  V30 38 1 1 35
M  V30 39 1 1 36
M  V30 40 1 1 37
M  V30 41 1 2 38 CFG=1
M  V30 42 1 3 39
M  V30 43 1 6 40
M  V30 44 1 11 41
M  V30 45 1 11 42
M  V30 46 1 13 43
M  V30 47 1 14 44
M  V30 48 1 15 45
M  V30 49 1 18 46
M  V30 50 1 19 47
M  V30 51 1 20 48
M  V30 52 1 22 49
M  V30 53 1 26 50
M  V30 54 1 29 51
M  V30 55 1 29 52
M  V30 56 1 29 53
M  V30 57 1 30 54
M  V30 58 1 30 55
M  V30 59 1 30 56
M  V30 60 1 31 57
M  V30 61 1 31 58
M  V30 62 1 31 59
M  V30 63 1 33 60
M  V30 64 1 34 61
M  V30 END BOND
M  V30 END CTAB
M  END
>  <Dataset>  (50) 
ChEMBL_Kinases

>  <Ligand_Instance>  (50) 
nan

>  <PDB_ID>  (50) 
nan

>  <Standardized_SMILES>  (50) 
C[C@@H](Nc1ncnc2c(C(N)=O)cccc12)c1cccc(NC(=O)c2cc(C(C)(C)C)n[nH]2)c1

>  <Name>  (50) 
nan

>  <Pocket>  (50) 
nan

>  <ATP_Site>  (50) 
nan

>  <Peripheral>  (50) 
nan

>  <Num_H_Atoms_ProtBoundConf>  (50) 
nan

>  <Num_Resolved_Atoms>  (50) 
nan

>  <Num_Not_Resolved_Atoms>  (50) 
nan

$$$$
CHEMBL3297767
     RDKit          3D

  0  0  0  0  0  0  0  0  0  0999 V3000
M  V30 BEGIN CTAB
M  V30 COUNTS 70 73 0 0 0
M  V30 BEGIN ATOM
M  V30 1 C 5.515311 -0.636185 4.901593 0
M  V30 2 N 4.082828 -0.834266 4.899404 0
M  V30 3 C 3.676952 -2.193266 4.650893 0
M  V30 4 C 3.526136 -2.511902 3.190755 0
M  V30 5 N 2.819099 -1.499996 2.429329 0
M  V30 6 C 1.434350 -1.650418 2.595504 0
M  V30 7 C 0.519071 -0.700219 1.870575 0 CFG=1
M  V30 8 N 0.691807 -0.771309 0.444268 0
M  V30 9 C 0.587926 -0.025243 -0.737604 0
M  V30 10 O 0.167084 1.142594 -0.455326 0
M  V30 11 C 0.943191 -0.602752 -2.047695 0
M  V30 12 C 0.550256 0.258248 -3.182919 0 CFG=1
M  V30 13 C 1.006291 -0.279562 -4.545833 0
M  V30 14 N 0.724690 0.856098 -5.455400 0
M  V30 15 C -0.689576 1.063307 -5.676848 0
M  V30 16 O -1.164269 1.478353 -6.780226 0
M  V30 17 C -1.512131 0.742213 -4.484094 0
M  V30 18 C -2.893544 0.736792 -4.375833 0
M  V30 19 C -3.175505 0.278875 -3.112206 0
M  V30 20 C -4.446251 0.080928 -2.472353 0
M  V30 21 C -5.578072 0.830880 -2.704035 0
M  V30 22 C -6.764897 0.572685 -2.020223 0
M  V30 23 C -6.809449 -0.450860 -1.094987 0
M  V30 24 C -5.682551 -1.215144 -0.849387 0
M  V30 25 Cl -5.911289 -2.464194 0.351563 0
M  V30 26 C -4.490187 -0.957481 -1.534829 0
M  V30 27 C -1.940139 0.043683 -2.553539 0
M  V30 28 N -0.914543 0.314471 -3.350530 0
M  V30 29 C -0.944984 -1.076500 2.161878 0
M  V30 30 C -1.199264 -1.067162 3.659720 0
M  V30 31 C -1.406184 -2.349584 1.582757 0
M  V30 32 C -1.854112 0.059422 1.644451 0
M  V30 33 C 3.418193 -0.228660 2.687264 0
M  V30 34 C 3.354280 0.147353 4.129516 0
M  V30 35 H 5.842437 -0.759747 5.962211 0
M  V30 36 H 5.688450 0.445154 4.643310 0
M  V30 37 H 6.077226 -1.273717 4.217364 0
M  V30 38 H 2.778126 -2.397502 5.262619 0
M  V30 39 H 4.474255 -2.858932 5.057709 0
M  V30 40 H 2.932603 -3.468690 3.120728 0
M  V30 41 H 4.507012 -2.687770 2.739621 0
M  V30 42 H 1.227917 -1.659493 3.682154 0
M  V30 43 H 1.166386 -2.681911 2.235556 0
M  V30 44 H 0.581381 0.330748 2.265142 0
M  V30 45 H 1.009024 -1.778048 0.230666 0
M  V30 46 H 0.456901 -1.615230 -2.189715 0
M  V30 47 H 2.040586 -0.763802 -2.093019 0
M  V30 48 H 0.970952 1.267918 -3.082934 0
M  V30 49 H 2.104269 -0.464284 -4.503668 0
M  V30 50 H 0.458572 -1.154842 -4.869805 0
M  V30 51 H 1.372819 1.532281 -5.966528 0
M  V30 52 H -3.588891 1.037737 -5.164935 0
M  V30 53 H -5.417724 1.604204 -3.451226 0
M  V30 54 H -7.619877 1.221711 -2.276917 0
M  V30 55 H -7.772749 -0.606624 -0.587036 0
M  V30 56 H -3.720487 -1.638115 -1.225394 0
M  V30 57 H -1.782714 -0.343889 -1.576019 0
M  V30 58 H -2.299362 -0.974442 3.776160 0
M  V30 59 H -0.745871 -0.236254 4.194122 0
M  V30 60 H -0.972201 -2.083544 4.099699 0
M  V30 61 H -0.669472 -2.843399 0.904325 0
M  V30 62 H -1.602021 -3.109834 2.397385 0
M  V30 63 H -2.417391 -2.292404 1.071029 0
M  V30 64 H -2.154621 -0.070942 0.614547 0
M  V30 65 H -2.802803 0.057866 2.250440 0
M  V30 66 H -1.338185 1.011287 1.871548 0
M  V30 67 H 3.091306 0.574973 1.982752 0
M  V30 68 H 4.515813 -0.360762 2.461069 0
M  V30 69 H 2.343141 0.196581 4.544476 0
M  V30 70 H 3.906444 1.118201 4.255468 0
M  V30 END ATOM
M  V30 BEGIN BOND
M  V30 1 1 1 2
M  V30 2 1 2 3
M  V30 3 1 3 4
M  V30 4 1 4 5
M  V30 5 1 5 6
M  V30 6 1 6 7
M  V30 7 1 7 8
M  V30 8 1 8 9
M  V30 9 2 9 10
M  V30 10 1 9 11
M  V30 11 1 11 12
M  V30 12 1 12 13
M  V30 13 1 13 14
M  V30 14 1 14 15
M  V30 15 2 15 16
M  V30 16 1 15 17
M  V30 17 2 17 18
M  V30 18 1 18 19
M  V30 19 1 19 20
M  V30 20 2 20 21
M  V30 21 1 21 22
M  V30 22 2 22 23
M  V30 23 1 23 24
M  V30 24 1 24 25
M  V30 25 2 24 26
M  V30 26 2 19 27
M  V30 27 1 27 28
M  V30 28 1 7 29
M  V30 29 1 29 30
M  V30 30 1 29 31
M  V30 31 1 29 32
M  V30 32 1 5 33
M  V30 33 1 33 34
M  V30 34 1 34 2
M  V30 35 1 28 12
M  V30 36 1 28 17
M  V30 37 1 26 20
M  V30 38 1 1 35
M  V30 39 1 1 36
M  V30 40 1 1 37
M  V30 41 1 3 38
M  V30 42 1 3 39
M  V30 43 1 4 40
M  V30 44 1 4 41
M  V30 45 1 6 42
M  V30 46 1 6 43
M  V30 47 1 7 44 CFG=1
M  V30 48 1 8 45
M  V30 49 1 11 46
M  V30 50 1 11 47
M  V30 51 1 12 48 CFG=1
M  V30 52 1 13 49
M  V30 53 1 13 50
M  V30 54 1 14 51
M  V30 55 1 18 52
M  V30 56 1 21 53
M  V30 57 1 22 54
M  V30 58 1 23 55
M  V30 59 1 26 56
M  V30 60 1 27 57
M  V30 61 1 30 58
M  V30 62 1 30 59
M  V30 63 1 30 60
M  V30 64 1 31 61
M  V30 65 1 31 62
M  V30 66 1 31 63
M  V30 67 1 32 64
M  V30 68 1 32 65
M  V30 69 1 32 66
M  V30 70 1 33 67
M  V30 71 1 33 68
M  V30 72 1 34 69
M  V30 73 1 34 70
M  V30 END BOND
M  V30 END CTAB
M  END
>  <Dataset>  (51) 
ChEMBL_Kinases

>  <Ligand_Instance>  (51) 
nan

>  <PDB_ID>  (51) 
nan

>  <Standardized_SMILES>  (51) 
CN1CCN(C[C@@H](NC(=O)C[C@H]2CNC(=O)c3cc(-c4cccc(Cl)c4)cn32)C(C)(C)C)CC1

>  <Name>  (51) 
nan

>  <Pocket>  (51) 
nan

>  <ATP_Site>  (51) 
nan

>  <Peripheral>  (51) 
nan

>  <Num_H_Atoms_ProtBoundConf>  (51) 
nan

>  <Num_Resolved_Atoms>  (51) 
nan

>  <Num_Not_Resolved_Atoms>  (51) 
nan

$$$$
CHEMBL3297759
     RDKit          3D

  0  0  0  0  0  0  0  0  0  0999 V3000
M  V30 BEGIN CTAB
M  V30 COUNTS 59 62 0 0 0
M  V30 BEGIN ATOM
M  V30 1 N -2.786549 -3.721083 -0.881150 0
M  V30 2 C -1.990928 -3.063720 0.126561 0
M  V30 3 C -0.522919 -3.188022 -0.087901 0 CFG=1
M  V30 4 N 0.150137 -2.473562 0.994522 0
M  V30 5 C 0.896468 -1.271971 0.849947 0
M  V30 6 O 1.054841 -0.689533 -0.249773 0
M  V30 7 C 1.451423 -0.809372 2.148250 0
M  V30 8 C 2.243152 0.483496 1.953531 0 CFG=1
M  V30 9 C 3.373208 0.332209 1.024711 0
M  V30 10 N 3.426889 1.190872 -0.109176 0
M  V30 11 C 2.473846 2.225026 -0.412448 0
M  V30 12 O 2.550246 2.981015 -1.414431 0
M  V30 13 C 1.371213 2.346264 0.552112 0
M  V30 14 C 0.284748 3.206407 0.596831 0
M  V30 15 C -0.420464 2.864241 1.727241 0
M  V30 16 C -1.650487 3.531780 2.153226 0
M  V30 17 C -2.575038 4.079789 1.272517 0
M  V30 18 C -3.722402 4.701723 1.707054 0
M  V30 19 C -3.999901 4.804333 3.067495 0
M  V30 20 C -3.076323 4.258038 3.917566 0
M  V30 21 F -3.266843 4.312932 5.264049 0
M  V30 22 C -1.917289 3.629124 3.495562 0
M  V30 23 C 0.206674 1.829877 2.359270 0
M  V30 24 N 1.296680 1.521594 1.636008 0
M  V30 25 C 0.006583 -4.570640 -0.225268 0
M  V30 26 C -0.516766 -5.390995 -1.338692 0
M  V30 27 C -0.179672 -4.877182 -2.708740 0
M  V30 28 C 1.189766 -4.325011 -2.848407 0
M  V30 29 C 1.968983 -4.040155 -1.631805 0
M  V30 30 C 1.511058 -4.605232 -0.344951 0
M  V30 31 H -3.721188 -4.020737 -0.542363 0
M  V30 32 H -2.818556 -3.152300 -1.759260 0
M  V30 33 H -2.316642 -3.309744 1.156740 0
M  V30 34 H -2.243087 -1.967186 0.023218 0
M  V30 35 H -0.300005 -2.636624 -1.037665 0
M  V30 36 H -0.016290 -3.000852 1.879881 0
M  V30 37 H 0.673331 -0.664059 2.925399 0
M  V30 38 H 2.125437 -1.603874 2.585972 0
M  V30 39 H 2.664311 0.722970 2.975777 0
M  V30 40 H 3.416255 -0.721669 0.619206 0
M  V30 41 H 4.372901 0.433714 1.541307 0
M  V30 42 H 4.213509 1.050055 -0.754025 0
M  V30 43 H 0.048587 3.992987 -0.126681 0
M  V30 44 H -2.374461 4.008360 0.216356 0
M  V30 45 H -4.427878 5.121894 0.977625 0
M  V30 46 H -4.886743 5.283659 3.439647 0
M  V30 47 H -1.221042 3.214611 4.209823 0
M  V30 48 H -0.168606 1.382794 3.285409 0
M  V30 49 H -0.225890 -5.125503 0.722468 0
M  V30 50 H -1.572995 -5.682013 -1.230189 0
M  V30 51 H 0.030710 -6.383470 -1.251584 0
M  V30 52 H -0.388702 -5.662752 -3.465406 0
M  V30 53 H -0.904464 -4.055879 -2.935577 0
M  V30 54 H 1.788965 -5.083352 -3.437342 0
M  V30 55 H 1.200569 -3.438792 -3.544248 0
M  V30 56 H 3.059597 -4.330361 -1.733641 0
M  V30 57 H 2.037857 -2.919050 -1.504926 0
M  V30 58 H 1.794887 -5.685117 -0.303079 0
M  V30 59 H 1.998170 -4.054887 0.482996 0
M  V30 END ATOM
M  V30 BEGIN BOND
M  V30 1 1 1 2
M  V30 2 1 2 3
M  V30 3 1 3 4
M  V30 4 1 4 5
M  V30 5 2 5 6
M  V30 6 1 5 7
M  V30 7 1 7 8
M  V30 8 1 8 9
M  V30 9 1 9 10
M  V30 10 1 10 11
M  V30 11 2 11 12
M  V30 12 1 11 13
M  V30 13 2 13 14
M  V30 14 1 14 15
M  V30 15 1 15 16
M  V30 16 2 16 17
M  V30 17 1 17 18
M  V30 18 2 18 19
M  V30 19 1 19 20
M  V30 20 1 20 21
M  V30 21 2 20 22
M  V30 22 2 15 23
M  V30 23 1 23 24
M  V30 24 1 3 25
M  V30 25 1 25 26
M  V30 26 1 26 27
M  V30 27 1 27 28
M  V30 28 1 28 29
M  V30 29 1 29 30
M  V30 30 1 24 8
M  V30 31 1 30 25
M  V30 32 1 24 13
M  V30 33 1 22 16
M  V30 34 1 1 31
M  V30 35 1 1 32
M  V30 36 1 2 33
M  V30 37 1 2 34
M  V30 38 1 3 35 CFG=3
M  V30 39 1 4 36
M  V30 40 1 7 37
M  V30 41 1 7 38
M  V30 42 1 8 39 CFG=1
M  V30 43 1 9 40
M  V30 44 1 9 41
M  V30 45 1 10 42
M  V30 46 1 14 43
M  V30 47 1 17 44
M  V30 48 1 18 45
M  V30 49 1 19 46
M  V30 50 1 22 47
M  V30 51 1 23 48
M  V30 52 1 25 49
M  V30 53 1 26 50
M  V30 54 1 26 51
M  V30 55 1 27 52
M  V30 56 1 27 53
M  V30 57 1 28 54
M  V30 58 1 28 55
M  V30 59 1 29 56
M  V30 60 1 29 57
M  V30 61 1 30 58
M  V30 62 1 30 59
M  V30 END BOND
M  V30 END CTAB
M  END
>  <Dataset>  (52) 
ChEMBL_Kinases

>  <Ligand_Instance>  (52) 
nan

>  <PDB_ID>  (52) 
nan

>  <Standardized_SMILES>  (52) 
NC[C@@H](NC(=O)C[C@H]1CNC(=O)c2cc(-c3cccc(F)c3)cn21)C1CCCCC1

>  <Name>  (52) 
nan

>  <Pocket>  (52) 
nan

>  <ATP_Site>  (52) 
nan

>  <Peripheral>  (52) 
nan

>  <Num_H_Atoms_ProtBoundConf>  (52) 
nan

>  <Num_Resolved_Atoms>  (52) 
nan

>  <Num_Not_Resolved_Atoms>  (52) 
nan

$$$$
CHEMBL4207804
     RDKit          3D

  0  0  0  0  0  0  0  0  0  0999 V3000
M  V30 BEGIN CTAB
M  V30 COUNTS 70 75 0 0 0
M  V30 BEGIN ATOM
M  V30 1 C 5.921971 -3.284675 5.991173 0
M  V30 2 C 4.400632 -3.302801 5.885314 0
M  V30 3 N 4.036450 -3.176778 4.510799 0
M  V30 4 C 4.399667 -4.344275 3.734075 0
M  V30 5 C 4.262802 -4.059114 2.255010 0
M  V30 6 N 3.623546 -2.760428 2.122245 0
M  V30 7 C 3.590238 -2.289947 0.782096 0
M  V30 8 C 2.943292 -0.959703 0.728015 0
M  V30 9 C 1.606121 -0.671864 0.496883 0
M  V30 10 C 1.210378 0.640184 0.492698 0
M  V30 11 C 2.022789 1.729598 0.699366 0
M  V30 12 N 1.594054 3.080442 0.691754 0
M  V30 13 C 0.295289 3.612237 0.475625 0
M  V30 14 N 0.114840 4.923247 0.534760 0
M  V30 15 C -1.088558 5.476925 0.337069 0
M  V30 16 C -2.210505 4.726889 0.061140 0
M  V30 17 F -3.427730 5.260285 -0.140402 0
M  V30 18 C -2.011281 3.365407 0.001896 0
M  V30 19 C -3.185354 2.549846 -0.293152 0
M  V30 20 C -4.429311 2.691965 0.287490 0
M  V30 21 C -5.484314 1.868642 -0.064520 0
M  V30 22 F -6.704869 2.035668 0.529528 0
M  V30 23 C -5.333081 0.866267 -1.016307 0
M  V30 24 N -6.149072 -0.059669 -1.548869 0
M  V30 25 C -5.464033 -0.797413 -2.459612 0
M  V30 26 N -4.189918 -0.307750 -2.484887 0
M  V30 27 C -4.088432 0.712060 -1.607852 0
M  V30 28 C -3.022426 1.546312 -1.250166 0
M  V30 29 C -3.390217 -1.067325 -3.457136 0
M  V30 30 C -4.493171 -1.419475 -4.447677 0
M  V30 31 C -5.008655 -0.146007 -5.026253 0
M  V30 32 C -4.092839 -2.436081 -5.459157 0
M  V30 33 C -5.538370 -1.931777 -3.449896 0
M  V30 34 N -0.777072 2.888928 0.211358 0
M  V30 35 N 3.297417 1.417676 0.917848 0
M  V30 36 C 3.759202 0.158996 0.936859 0
M  V30 37 C 2.371480 -2.818201 2.808661 0
M  V30 38 C 2.637555 -2.862226 4.309119 0
M  V30 39 H 6.268960 -2.834604 6.925085 0
M  V30 40 H 6.310358 -2.744124 5.111349 0
M  V30 41 H 6.288366 -4.343829 5.879667 0
M  V30 42 H 3.973564 -4.229889 6.315707 0
M  V30 43 H 4.057113 -2.420923 6.460464 0
M  V30 44 H 5.422261 -4.661226 4.033049 0
M  V30 45 H 3.654585 -5.131784 4.022853 0
M  V30 46 H 3.671389 -4.868585 1.763012 0
M  V30 47 H 5.279067 -4.014073 1.813628 0
M  V30 48 H 3.050332 -2.964987 0.081828 0
M  V30 49 H 4.642000 -2.162020 0.449239 0
M  V30 50 H 0.982854 -1.516516 0.337749 0
M  V30 51 H 0.158155 0.770440 0.305787 0
M  V30 52 H 2.370102 3.787996 0.876034 0
M  V30 53 H -1.209847 6.565280 0.391593 0
M  V30 54 H -4.535410 3.482093 1.032817 0
M  V30 55 H -2.070728 1.402547 -1.725306 0
M  V30 56 H -3.044805 -1.988528 -2.943222 0
M  V30 57 H -2.600182 -0.466708 -3.908110 0
M  V30 58 H -5.602372 -0.278139 -5.948787 0
M  V30 59 H -4.192319 0.613232 -5.181610 0
M  V30 60 H -5.684064 0.333186 -4.288330 0
M  V30 61 H -4.787474 -2.361773 -6.311395 0
M  V30 62 H -4.036274 -3.420638 -5.000771 0
M  V30 63 H -3.096495 -2.146392 -5.844050 0
M  V30 64 H -5.170440 -2.814310 -2.910366 0
M  V30 65 H -6.534056 -2.017037 -3.894421 0
M  V30 66 H 4.819506 0.023064 1.124946 0
M  V30 67 H 1.735370 -3.670986 2.491105 0
M  V30 68 H 1.787171 -1.913044 2.561945 0
M  V30 69 H 1.986439 -3.643299 4.788270 0
M  V30 70 H 2.390131 -1.854813 4.713851 0
M  V30 END ATOM
M  V30 BEGIN BOND
M  V30 1 1 1 2
M  V30 2 1 2 3
M  V30 3 1 3 4
M  V30 4 1 4 5
M  V30 5 1 5 6
M  V30 6 1 6 7
M  V30 7 1 7 8
M  V30 8 2 8 9
M  V30 9 1 9 10
M  V30 10 2 10 11
M  V30 11 1 11 12
M  V30 12 1 12 13
M  V30 13 2 13 14
M  V30 14 1 14 15
M  V30 15 2 15 16
M  V30 16 1 16 17
M  V30 17 1 16 18
M  V30 18 1 18 19
M  V30 19 2 19 20
M  V30 20 1 20 21
M  V30 21 1 21 22
M  V30 22 2 21 23
M  V30 23 1 23 24
M  V30 24 2 24 25
M  V30 25 1 25 26
M  V30 26 1 26 27
M  V30 27 2 27 28
M  V30 28 1 26 29
M  V30 29 1 29 30
M  V30 30 1 30 31
M  V30 31 1 30 32
M  V30 32 1 30 33
M  V30 33 2 18 34
M  V30 34 1 11 35
M  V30 35 2 35 36
M  V30 36 1 6 37
M  V30 37 1 37 38
M  V30 38 1 38 3
M  V30 39 1 36 8
M  V30 40 1 34 13
M  V30 41 1 28 19
M  V30 42 1 27 23
M  V30 43 1 33 25
M  V30 44 1 1 39
M  V30 45 1 1 40
M  V30 46 1 1 41
M  V30 47 1 2 42
M  V30 48 1 2 43
M  V30 49 1 4 44
M  V30 50 1 4 45
M  V30 51 1 5 46
M  V30 52 1 5 47
M  V30 53 1 7 48
M  V30 54 1 7 49
M  V30 55 1 9 50
M  V30 56 1 10 51
M  V30 57 1 12 52
M  V30 58 1 15 53
M  V30 59 1 20 54
M  V30 60 1 28 55
M  V30 61 1 29 56
M  V30 62 1 29 57
M  V30 63 1 31 58
M  V30 64 1 31 59
M  V30 65 1 31 60
M  V30 66 1 32 61
M  V30 67 1 32 62
M  V30 68 1 32 63
M  V30 69 1 33 64
M  V30 70 1 33 65
M  V30 71 1 36 66
M  V30 72 1 37 67
M  V30 73 1 37 68
M  V30 74 1 38 69
M  V30 75 1 38 70
M  V30 END BOND
M  V30 END CTAB
M  END
>  <Dataset>  (53) 
ChEMBL_Kinases

>  <Ligand_Instance>  (53) 
nan

>  <PDB_ID>  (53) 
nan

>  <Standardized_SMILES>  (53) 
CCN1CCN(Cc2ccc(Nc3ncc(F)c(-c4cc(F)c5nc6n(c5c4)CC(C)(C)C6)n3)nc2)CC1

>  <Name>  (53) 
nan

>  <Pocket>  (53) 
nan

>  <ATP_Site>  (53) 
nan

>  <Peripheral>  (53) 
nan

>  <Num_H_Atoms_ProtBoundConf>  (53) 
nan

>  <Num_Resolved_Atoms>  (53) 
nan

>  <Num_Not_Resolved_Atoms>  (53) 
nan

$$$$
CHEMBL4207474
     RDKit          3D

  0  0  0  0  0  0  0  0  0  0999 V3000
M  V30 BEGIN CTAB
M  V30 COUNTS 67 72 0 0 0
M  V30 BEGIN ATOM
M  V30 1 C 2.609973 -1.942530 5.136719 0
M  V30 2 C 2.209609 -1.627059 3.740322 0
M  V30 3 N 3.103461 -1.872098 2.771073 0
M  V30 4 C 2.850111 -1.626552 1.473212 0
M  V30 5 N 3.814170 -1.894306 0.468636 0
M  V30 6 C 3.732514 -1.704057 -0.936277 0
M  V30 7 N 4.757273 -2.017440 -1.711765 0
M  V30 8 C 4.757679 -1.867111 -3.042828 0
M  V30 9 C 3.648119 -1.362234 -3.666985 0
M  V30 10 F 3.627850 -1.202812 -5.007636 0
M  V30 11 C 2.558629 -1.022710 -2.898585 0
M  V30 12 C 1.365576 -0.484280 -3.541010 0
M  V30 13 C 1.308492 0.488505 -4.517403 0
M  V30 14 C 0.090185 0.886644 -5.023644 0
M  V30 15 F 0.131706 1.834900 -5.967079 0
M  V30 16 C -1.054274 0.294822 -4.534861 0
M  V30 17 N -2.343467 0.503626 -4.858648 0
M  V30 18 C -3.109942 -0.326723 -4.098156 0
M  V30 19 N -2.307290 -1.070521 -3.283740 0
M  V30 20 C -1.032812 -0.679733 -3.559897 0
M  V30 21 C 0.203468 -1.085501 -3.044445 0
M  V30 22 C -3.081048 -1.956777 -2.468917 0
M  V30 23 C -3.333398 -3.283684 -3.147453 0
M  V30 24 C -2.531635 -2.178213 -1.096947 0
M  V30 25 C -4.422078 -1.230245 -2.385624 0
M  V30 26 C -4.530444 -0.727433 -3.825089 0
M  V30 27 N 2.669286 -1.214723 -1.583382 0
M  V30 28 C 1.597290 -1.105014 1.239952 0
M  V30 29 C 0.642784 -0.834551 2.196894 0
M  V30 30 C 0.952681 -1.104660 3.515136 0
M  V30 31 C 0.046008 -0.874475 4.662406 0
M  V30 32 N 0.384994 0.295379 5.449417 0
M  V30 33 C -0.542653 0.406145 6.512577 0
M  V30 34 C -1.410977 1.602776 6.559892 0
M  V30 35 N -1.534916 2.235217 5.236228 0
M  V30 36 C -0.189418 2.645631 4.919758 0
M  V30 37 C 0.650735 1.441501 4.661271 0
M  V30 38 H 2.005677 -1.392111 5.883133 0
M  V30 39 H 3.684224 -1.759628 5.232223 0
M  V30 40 H 2.447012 -3.031707 5.366463 0
M  V30 41 H 4.725655 -2.294846 0.832450 0
M  V30 42 H 5.666599 -2.161617 -3.584573 0
M  V30 43 H 2.299657 0.836523 -4.776235 0
M  V30 44 H 0.161647 -1.849367 -2.285392 0
M  V30 45 H -2.544456 -4.013621 -2.854900 0
M  V30 46 H -4.317364 -3.729493 -2.902492 0
M  V30 47 H -3.274196 -3.194200 -4.257463 0
M  V30 48 H -2.339137 -1.259058 -0.546844 0
M  V30 49 H -3.326583 -2.750347 -0.536597 0
M  V30 50 H -1.682576 -2.891138 -1.156172 0
M  V30 51 H -5.241733 -1.915130 -2.120850 0
M  V30 52 H -4.324023 -0.348596 -1.724463 0
M  V30 53 H -4.752189 -1.568586 -4.515418 0
M  V30 54 H -5.236253 0.105711 -3.875903 0
M  V30 55 H 1.280499 -0.868477 0.245905 0
M  V30 56 H -0.324541 -0.427481 1.977222 0
M  V30 57 H -0.086576 -1.773487 5.272821 0
M  V30 58 H -0.965589 -0.670581 4.201623 0
M  V30 59 H -1.173067 -0.524611 6.605264 0
M  V30 60 H 0.049811 0.397178 7.474885 0
M  V30 61 H -2.431762 1.306947 6.873757 0
M  V30 62 H -0.982815 2.385427 7.231653 0
M  V30 63 H -2.101184 3.096972 5.404110 0
M  V30 64 H -0.130951 3.306618 4.035782 0
M  V30 65 H 0.212412 3.178649 5.801164 0
M  V30 66 H 0.714359 1.214767 3.556041 0
M  V30 67 H 1.709966 1.755371 4.904457 0
M  V30 END ATOM
M  V30 BEGIN BOND
M  V30 1 1 1 2
M  V30 2 2 2 3
M  V30 3 1 3 4
M  V30 4 1 4 5
M  V30 5 1 5 6
M  V30 6 2 6 7
M  V30 7 1 7 8
M  V30 8 2 8 9
M  V30 9 1 9 10
M  V30 10 1 9 11
M  V30 11 1 11 12
M  V30 12 2 12 13
M  V30 13 1 13 14
M  V30 14 1 14 15
M  V30 15 2 14 16
M  V30 16 1 16 17
M  V30 17 2 17 18
M  V30 18 1 18 19
M  V30 19 1 19 20
M  V30 20 2 20 21
M  V30 21 1 19 22
M  V30 22 1 22 23
M  V30 23 1 22 24
M  V30 24 1 22 25
M  V30 25 1 25 26
M  V30 26 2 11 27
M  V30 27 2 4 28
M  V30 28 1 28 29
M  V30 29 2 29 30
M  V30 30 1 30 31
M  V30 31 1 31 32
M  V30 32 1 32 33
M  V30 33 1 33 34
M  V30 34 1 34 35
M  V30 35 1 35 36
M  V30 36 1 36 37
M  V30 37 1 30 2
M  V30 38 1 37 32
M  V30 39 1 27 6
M  V30 40 1 21 12
M  V30 41 1 20 16
M  V30 42 1 26 18
M  V30 43 1 1 38
M  V30 44 1 1 39
M  V30 45 1 1 40
M  V30 46 1 5 41
M  V30 47 1 8 42
M  V30 48 1 13 43
M  V30 49 1 21 44
M  V30 50 1 23 45
M  V30 51 1 23 46
M  V30 52 1 23 47
M  V30 53 1 24 48
M  V30 54 1 24 49
M  V30 55 1 24 50
M  V30 56 1 25 51
M  V30 57 1 25 52
M  V30 58 1 26 53
M  V30 59 1 26 54
M  V30 60 1 28 55
M  V30 61 1 29 56
M  V30 62 1 31 57
M  V30 63 1 31 58
M  V30 64 1 33 59
M  V30 65 1 33 60
M  V30 66 1 34 61
M  V30 67 1 34 62
M  V30 68 1 35 63
M  V30 69 1 36 64
M  V30 70 1 36 65
M  V30 71 1 37 66
M  V30 72 1 37 67
M  V30 END BOND
M  V30 END CTAB
M  END
>  <Dataset>  (54) 
ChEMBL_Kinases

>  <Ligand_Instance>  (54) 
nan

>  <PDB_ID>  (54) 
nan

>  <Standardized_SMILES>  (54) 
Cc1nc(Nc2ncc(F)c(-c3cc(F)c4nc5n(c4c3)C(C)(C)CC5)n2)ccc1CN1CCNCC1

>  <Name>  (54) 
nan

>  <Pocket>  (54) 
nan

>  <ATP_Site>  (54) 
nan

>  <Peripheral>  (54) 
nan

>  <Num_H_Atoms_ProtBoundConf>  (54) 
nan

>  <Num_Resolved_Atoms>  (54) 
nan

>  <Num_Not_Resolved_Atoms>  (54) 
nan

$$$$
CHEMBL4207451
     RDKit          3D

  0  0  0  0  0  0  0  0  0  0999 V3000
M  V30 BEGIN CTAB
M  V30 COUNTS 71 77 0 0 0
M  V30 BEGIN ATOM
M  V30 1 C 2.326747 -1.368872 3.649626 0
M  V30 2 C 2.461502 -1.472103 2.160639 0
M  V30 3 C 1.089413 -1.497420 1.549110 0
M  V30 4 C 3.295507 -2.690411 1.826385 0
M  V30 5 C 4.693414 -2.185074 2.170411 0
M  V30 6 C 4.615145 -0.803144 1.601872 0
M  V30 7 N 5.341247 0.204648 1.085855 0
M  V30 8 C 4.539252 1.233700 0.758607 0
M  V30 9 C 4.780193 2.473158 0.208834 0
M  V30 10 F 6.018523 2.889234 -0.125764 0
M  V30 11 C 3.764729 3.369927 -0.034845 0
M  V30 12 C 2.463846 2.993410 0.291124 0
M  V30 13 C 1.254047 3.768444 0.124888 0
M  V30 14 N 0.107868 3.236855 -0.397413 0
M  V30 15 C -1.002986 3.989761 -0.536939 0
M  V30 16 N -2.198237 3.435415 -1.083173 0
M  V30 17 C -2.215157 2.072560 -1.491313 0
M  V30 18 C -3.406388 1.561201 -2.022870 0
M  V30 19 C -3.305205 0.231921 -2.385621 0
M  V30 20 C -2.183733 -0.562287 -2.264289 0
M  V30 21 C -2.199729 -1.985187 -2.693317 0
M  V30 22 N -2.591862 -2.896195 -1.635607 0
M  V30 23 C -2.599350 -4.272796 -2.086579 0
M  V30 24 C -3.447667 -5.050900 -1.105508 0
M  V30 25 N -3.287832 -4.617044 0.243088 0
M  V30 26 C -4.444694 -4.069027 0.839254 0
M  V30 27 C -4.361260 -3.592770 2.283800 0
M  V30 28 C -4.697681 -2.657692 1.138090 0
M  V30 29 C -2.048411 -3.961555 0.443646 0
M  V30 30 C -1.757742 -2.808085 -0.480965 0
M  V30 31 C -1.050880 0.018944 -1.730516 0
M  V30 32 N -1.111599 1.313617 -1.365159 0
M  V30 33 N -0.956361 5.278841 -0.149033 0
M  V30 34 C 0.131441 5.874897 0.373174 0
M  V30 35 C 1.260336 5.093713 0.510189 0
M  V30 36 F 2.354547 5.730495 1.046194 0
M  V30 37 C 2.225256 1.746598 0.843654 0
M  V30 38 C 3.254135 0.836308 1.091321 0
M  V30 39 N 3.311595 -0.416258 1.608463 0
M  V30 40 H 3.269660 -1.046305 4.142616 0
M  V30 41 H 2.087259 -2.400835 4.029921 0
M  V30 42 H 1.510149 -0.689100 3.958661 0
M  V30 43 H 1.060701 -1.199931 0.492431 0
M  V30 44 H 0.439893 -0.886183 2.213829 0
M  V30 45 H 0.711789 -2.529032 1.598503 0
M  V30 46 H 3.018376 -3.589169 2.403821 0
M  V30 47 H 3.273522 -2.856357 0.723011 0
M  V30 48 H 5.459437 -2.810479 1.664898 0
M  V30 49 H 4.855986 -2.082924 3.244550 0
M  V30 50 H 3.839320 4.362452 -0.459637 0
M  V30 51 H -3.034445 4.038907 -1.172772 0
M  V30 52 H -4.319163 2.126112 -2.145595 0
M  V30 53 H -4.184719 -0.260156 -2.812022 0
M  V30 54 H -1.244600 -2.294238 -3.136641 0
M  V30 55 H -2.958569 -2.072557 -3.508086 0
M  V30 56 H -3.013424 -4.279862 -3.110379 0
M  V30 57 H -1.549506 -4.628166 -2.086984 0
M  V30 58 H -4.521094 -4.877169 -1.385014 0
M  V30 59 H -3.269999 -6.132495 -1.245030 0
M  V30 60 H -5.368121 -4.696424 0.662198 0
M  V30 61 H -5.189541 -3.835891 2.984495 0
M  V30 62 H -3.396119 -3.484825 2.784837 0
M  V30 63 H -5.762526 -2.297978 1.120850 0
M  V30 64 H -3.995068 -1.837175 1.023315 0
M  V30 65 H -1.248694 -4.730616 0.218737 0
M  V30 66 H -1.846037 -3.668356 1.485600 0
M  V30 67 H -0.692787 -2.836823 -0.859526 0
M  V30 68 H -1.819859 -1.808913 0.024289 0
M  V30 69 H -0.136935 -0.535218 -1.604118 0
M  V30 70 H -0.001240 6.901888 0.627451 0
M  V30 71 H 1.241663 1.361557 1.132076 0
M  V30 END ATOM
M  V30 BEGIN BOND
M  V30 1 1 1 2
M  V30 2 1 2 3
M  V30 3 1 2 4
M  V30 4 1 4 5
M  V30 5 1 5 6
M  V30 6 2 6 7
M  V30 7 1 7 8
M  V30 8 2 8 9
M  V30 9 1 9 10
M  V30 10 1 9 11
M  V30 11 2 11 12
M  V30 12 1 12 13
M  V30 13 2 13 14
M  V30 14 1 14 15
M  V30 15 1 15 16
M  V30 16 1 16 17
M  V30 17 2 17 18
M  V30 18 1 18 19
M  V30 19 2 19 20
M  V30 20 1 20 21
M  V30 21 1 21 22
M  V30 22 1 22 23
M  V30 23 1 23 24
M  V30 24 1 24 25
M  V30 25 1 25 26
M  V30 26 1 26 27
M  V30 27 1 27 28
M  V30 28 1 25 29
M  V30 29 1 29 30
M  V30 30 1 20 31
M  V30 31 2 31 32
M  V30 32 2 15 33
M  V30 33 1 33 34
M  V30 34 2 34 35
M  V30 35 1 35 36
M  V30 36 1 12 37
M  V30 37 2 37 38
M  V30 38 1 38 39
M  V30 39 1 39 2
M  V30 40 1 39 6
M  V30 41 1 38 8
M  V30 42 1 35 13
M  V30 43 1 32 17
M  V30 44 1 30 22
M  V30 45 1 28 26
M  V30 46 1 1 40
M  V30 47 1 1 41
M  V30 48 1 1 42
M  V30 49 1 3 43
M  V30 50 1 3 44
M  V30 51 1 3 45
M  V30 52 1 4 46
M  V30 53 1 4 47
M  V30 54 1 5 48
M  V30 55 1 5 49
M  V30 56 1 11 50
M  V30 57 1 16 51
M  V30 58 1 18 52
M  V30 59 1 19 53
M  V30 60 1 21 54
M  V30 61 1 21 55
M  V30 62 1 23 56
M  V30 63 1 23 57
M  V30 64 1 24 58
M  V30 65 1 24 59
M  V30 66 1 26 60
M  V30 67 1 27 61
M  V30 68 1 27 62
M  V30 69 1 28 63
M  V30 70 1 28 64
M  V30 71 1 29 65
M  V30 72 1 29 66
M  V30 73 1 30 67
M  V30 74 1 30 68
M  V30 75 1 31 69
M  V30 76 1 34 70
M  V30 77 1 37 71
M  V30 END BOND
M  V30 END CTAB
M  END
>  <Dataset>  (55) 
ChEMBL_Kinases

>  <Ligand_Instance>  (55) 
nan

>  <PDB_ID>  (55) 
nan

>  <Standardized_SMILES>  (55) 
CC1(C)CCc2nc3c(F)cc(-c4nc(Nc5ccc(CN6CCN(C7CC7)CC6)cn5)ncc4F)cc3n21

>  <Name>  (55) 
nan

>  <Pocket>  (55) 
nan

>  <ATP_Site>  (55) 
nan

>  <Peripheral>  (55) 
nan

>  <Num_H_Atoms_ProtBoundConf>  (55) 
nan

>  <Num_Resolved_Atoms>  (55) 
nan

>  <Num_Not_Resolved_Atoms>  (55) 
nan

$$$$
CHEMBL3298402
     RDKit          3D

  0  0  0  0  0  0  0  0  0  0999 V3000
M  V30 BEGIN CTAB
M  V30 COUNTS 49 51 0 0 0
M  V30 BEGIN ATOM
M  V30 1 C 2.693251 -4.970621 2.423120 0
M  V30 2 C 2.791312 -4.954602 0.911519 0
M  V30 3 C 1.590484 -5.656285 0.306382 0
M  V30 4 C 4.016842 -5.735887 0.489539 0
M  V30 5 C 2.858056 -3.530220 0.380730 0
M  V30 6 N 1.707600 -2.763380 0.733722 0
M  V30 7 C 1.677345 -1.400642 0.277311 0
M  V30 8 O 2.767210 -1.227416 -0.369496 0
M  V30 9 C 0.478417 -0.598710 0.644632 0
M  V30 10 C 0.631218 0.799553 0.086285 0
M  V30 11 C 1.850030 1.459161 0.644634 0
M  V30 12 N 1.924744 2.867667 0.423722 0
M  V30 13 C 0.738166 3.636800 0.614478 0
M  V30 14 O 0.786361 4.870043 0.843391 0
M  V30 15 C -0.531924 2.920661 0.530528 0
M  V30 16 C -1.802798 3.388126 0.668986 0
M  V30 17 C -2.668822 2.318630 0.503470 0
M  V30 18 C -4.120357 2.446342 0.585964 0
M  V30 19 C -5.011903 1.651308 -0.138164 0
M  V30 20 C -6.357323 1.905031 0.058431 0
M  V30 21 N -6.837307 2.850963 0.887405 0
M  V30 22 C -6.023565 3.638911 1.603602 0
M  V30 23 C -4.664748 3.382157 1.404586 0
M  V30 24 C -1.865478 1.209542 0.263602 0
M  V30 25 N -0.564139 1.588624 0.282384 0
M  V30 26 H 3.249291 -4.064869 2.780780 0
M  V30 27 H 3.179511 -5.895799 2.780944 0
M  V30 28 H 1.615952 -4.953364 2.684883 0
M  V30 29 H 1.486851 -5.238634 -0.722220 0
M  V30 30 H 0.667095 -5.538268 0.900441 0
M  V30 31 H 1.769300 -6.728679 0.181909 0
M  V30 32 H 3.733997 -6.789181 0.350475 0
M  V30 33 H 4.802313 -5.714849 1.272294 0
M  V30 34 H 4.421959 -5.372919 -0.486680 0
M  V30 35 H 3.014170 -3.615445 -0.714298 0
M  V30 36 H 3.769330 -3.036616 0.774447 0
M  V30 37 H 0.960291 -3.251513 1.305188 0
M  V30 38 H -0.436993 -1.093433 0.281920 0
M  V30 39 H 0.412769 -0.589837 1.746538 0
M  V30 40 H 0.783323 0.730109 -1.011096 0
M  V30 41 H 2.783207 1.025948 0.228941 0
M  V30 42 H 1.894221 1.291701 1.748173 0
M  V30 43 H 2.793628 3.367923 0.131825 0
M  V30 44 H -2.097619 4.412735 0.872607 0
M  V30 45 H -4.612112 0.906459 -0.790402 0
M  V30 46 H -7.074217 1.299780 -0.493811 0
M  V30 47 H -6.344282 4.414267 2.284640 0
M  V30 48 H -3.979671 4.019713 1.984668 0
M  V30 49 H -2.262086 0.211563 0.092668 0
M  V30 END ATOM
M  V30 BEGIN BOND
M  V30 1 1 1 2
M  V30 2 1 2 3
M  V30 3 1 2 4
M  V30 4 1 2 5
M  V30 5 1 5 6
M  V30 6 1 6 7
M  V30 7 2 7 8
M  V30 8 1 7 9
M  V30 9 1 9 10
M  V30 10 1 10 11
M  V30 11 1 11 12
M  V30 12 1 12 13
M  V30 13 2 13 14
M  V30 14 1 13 15
M  V30 15 2 15 16
M  V30 16 1 16 17
M  V30 17 1 17 18
M  V30 18 2 18 19
M  V30 19 1 19 20
M  V30 20 2 20 21
M  V30 21 1 21 22
M  V30 22 2 22 23
M  V30 23 2 17 24
M  V30 24 1 24 25
M  V30 25 1 25 10
M  V30 26 1 25 15
M  V30 27 1 23 18
M  V30 28 1 1 26
M  V30 29 1 1 27
M  V30 30 1 1 28
M  V30 31 1 3 29
M  V30 32 1 3 30
M  V30 33 1 3 31
M  V30 34 1 4 32
M  V30 35 1 4 33
M  V30 36 1 4 34
M  V30 37 1 5 35
M  V30 38 1 5 36
M  V30 39 1 6 37
M  V30 40 1 9 38
M  V30 41 1 9 39
M  V30 42 1 10 40
M  V30 43 1 11 41
M  V30 44 1 11 42
M  V30 45 1 12 43
M  V30 46 1 16 44
M  V30 47 1 19 45
M  V30 48 1 20 46
M  V30 49 1 22 47
M  V30 50 1 23 48
M  V30 51 1 24 49
M  V30 END BOND
M  V30 END CTAB
M  END
>  <Dataset>  (56) 
ChEMBL_Kinases

>  <Ligand_Instance>  (56) 
nan

>  <PDB_ID>  (56) 
nan

>  <Standardized_SMILES>  (56) 
CC(C)(C)CNC(=O)CC1CNC(=O)c2cc(-c3ccncc3)cn21

>  <Name>  (56) 
nan

>  <Pocket>  (56) 
nan

>  <ATP_Site>  (56) 
nan

>  <Peripheral>  (56) 
nan

>  <Num_H_Atoms_ProtBoundConf>  (56) 
nan

>  <Num_Resolved_Atoms>  (56) 
nan

>  <Num_Not_Resolved_Atoms>  (56) 
nan

$$$$
CHEMBL4207383
     RDKit          3D

  0  0  0  0  0  0  0  0  0  0999 V3000
M  V30 BEGIN CTAB
M  V30 COUNTS 77 83 0 0 0
M  V30 BEGIN ATOM
M  V30 1 C -6.803659 -2.226952 3.528780 0
M  V30 2 S -5.871245 -1.901793 2.034650 0
M  V30 3 C -4.144886 -2.347317 2.156554 0 CFG=1
M  V30 4 C -3.483691 -1.444692 3.168487 0
M  V30 5 O -2.796666 -1.974126 4.100796 0
M  V30 6 N -3.681255 -0.056489 2.997524 0
M  V30 7 C -3.180309 1.019856 3.780141 0
M  V30 8 C -3.734897 1.605393 4.898815 0
M  V30 9 C -3.042991 2.650367 5.476269 0
M  V30 10 C -1.842039 3.099234 4.961846 0
M  V30 11 N -0.997893 4.075734 5.340174 0
M  V30 12 N 0.059581 4.134229 4.514243 0
M  V30 13 C -0.074975 3.183576 3.567027 0
M  V30 14 C 0.837179 2.887259 2.467907 0
M  V30 15 C 0.224286 2.743613 1.216291 0
M  V30 16 C 1.068777 2.455183 0.141403 0
M  V30 17 C 2.461106 2.300197 0.217116 0
M  V30 18 F 3.173189 2.020438 -0.881818 0
M  V30 19 C 2.972932 2.460572 1.492851 0
M  V30 20 C 2.196329 2.745224 2.592682 0
M  V30 21 C -1.260139 2.537029 3.845561 0
M  V30 22 C -1.962396 1.476234 3.260325 0
M  V30 23 C -3.863848 -3.766794 2.473986 0
M  V30 24 C -2.780037 -4.219691 1.561624 0
M  V30 25 N -2.309158 -3.054540 0.897438 0
M  V30 26 C -1.773333 -3.243893 -0.421625 0
M  V30 27 C -0.489400 -4.003479 -0.394811 0
M  V30 28 O -0.124572 -4.341299 0.759300 0
M  V30 29 N 0.190306 -4.275308 -1.599426 0
M  V30 30 C -0.013245 -3.999695 -3.010646 0
M  V30 31 C 0.888041 -2.882752 -3.454329 0
M  V30 32 C 2.080140 -3.204049 -3.058760 0
M  V30 33 C 3.225498 -2.263869 -3.362736 0
M  V30 34 N 4.326354 -2.148472 -3.237020 0
M  V30 35 C 5.198047 -1.229072 -3.567829 0
M  V30 36 C 4.613581 -0.178442 -4.212253 0
M  V30 37 C 5.210565 1.097087 -4.772717 0
M  V30 38 N 6.304205 1.528778 -4.125218 0
M  V30 39 C 6.961841 2.655803 -4.497931 0
M  V30 40 C 6.413400 3.313698 -5.590033 0
M  V30 41 C 5.293388 2.878421 -6.259309 0
M  V30 42 N 4.694406 1.733176 -5.816199 0
M  V30 43 S 2.888374 -0.629435 -4.269570 0
M  V30 44 C 2.554770 -4.373023 -2.323874 0
M  V30 45 C 1.452085 -5.027070 -1.526941 0
M  V30 46 C -3.463311 -2.165427 0.805592 0
M  V30 47 H -7.884749 -2.285997 3.246610 0
M  V30 48 H -6.609874 -1.436797 4.270450 0
M  V30 49 H -6.526832 -3.236304 3.906130 0
M  V30 50 H -4.274021 0.302759 2.193989 0
M  V30 51 H -4.675793 1.160974 5.195506 0
M  V30 52 H -3.505406 3.083724 6.347772 0
M  V30 53 H -1.223894 4.669806 6.189835 0
M  V30 54 H -0.823403 2.829117 0.952708 0
M  V30 55 H 0.652417 2.327335 -0.865520 0
M  V30 56 H 4.065333 2.337760 1.549583 0
M  V30 57 H 2.643791 2.862878 3.566109 0
M  V30 58 H -1.459620 1.053320 2.379632 0
M  V30 59 H -4.765681 -4.419916 2.446627 0
M  V30 60 H -3.464769 -3.830244 3.530459 0
M  V30 61 H -1.949967 -4.739453 2.134876 0
M  V30 62 H -3.236517 -4.973451 0.870444 0
M  V30 63 H -1.652549 -2.297612 -0.976689 0
M  V30 64 H -2.558123 -3.814228 -0.996270 0
M  V30 65 H 0.059436 -4.889374 -3.639973 0
M  V30 66 H -1.047496 -3.612515 -3.120458 0
M  V30 67 H 0.641437 -1.974797 -3.997269 0
M  V30 68 H 6.265240 -1.251728 -3.375285 0
M  V30 69 H 7.843269 3.006456 -3.979535 0
M  V30 70 H 6.874220 4.223497 -5.954509 0
M  V30 71 H 4.841918 3.366977 -7.107717 0
M  V30 72 H 3.000768 -5.067599 -3.067145 0
M  V30 73 H 3.377721 -4.147379 -1.606957 0
M  V30 74 H 1.734491 -5.183358 -0.484971 0
M  V30 75 H 1.247546 -6.017064 -2.021686 0
M  V30 76 H -4.147548 -2.477637 -0.004671 0
M  V30 77 H -3.174042 -1.125562 0.649262 0
M  V30 END ATOM
M  V30 BEGIN BOND
M  V30 1 1 1 2
M  V30 2 1 3 2 CFG=3
M  V30 3 1 3 4
M  V30 4 2 4 5
M  V30 5 1 4 6
M  V30 6 1 6 7
M  V30 7 2 7 8
M  V30 8 1 8 9
M  V30 9 2 9 10
M  V30 10 1 10 11
M  V30 11 1 11 12
M  V30 12 2 12 13
M  V30 13 1 13 14
M  V30 14 2 14 15
M  V30 15 1 15 16
M  V30 16 2 16 17
M  V30 17 1 17 18
M  V30 18 1 17 19
M  V30 19 2 19 20
M  V30 20 1 13 21
M  V30 21 2 21 22
M  V30 22 1 3 23
M  V30 23 1 23 24
M  V30 24 1 24 25
M  V30 25 1 25 26
M  V30 26 1 26 27
M  V30 27 2 27 28
M  V30 28 1 27 29
M  V30 29 1 29 30
M  V30 30 1 30 31
M  V30 31 2 31 32
M  V30 32 1 32 33
M  V30 33 2 33 34
M  V30 34 1 34 35
M  V30 35 2 35 36
M  V30 36 1 36 37
M  V30 37 2 37 38
M  V30 38 1 38 39
M  V30 39 2 39 40
M  V30 40 1 40 41
M  V30 41 2 41 42
M  V30 42 1 36 43
M  V30 43 1 32 44
M  V30 44 1 44 45
M  V30 45 1 25 46
M  V30 46 1 46 3
M  V30 47 1 22 7
M  V30 48 1 45 29
M  V30 49 1 21 10
M  V30 50 1 43 33
M  V30 51 1 20 14
M  V30 52 1 42 37
M  V30 53 1 1 47
M  V30 54 1 1 48
M  V30 55 1 1 49
M  V30 56 1 6 50
M  V30 57 1 8 51
M  V30 58 1 9 52
M  V30 59 1 11 53
M  V30 60 1 15 54
M  V30 61 1 16 55
M  V30 62 1 19 56
M  V30 63 1 20 57
M  V30 64 1 22 58
M  V30 65 1 23 59
M  V30 66 1 23 60
M  V30 67 1 24 61
M  V30 68 1 24 62
M  V30 69 1 26 63
M  V30 70 1 26 64
M  V30 71 1 30 65
M  V30 72 1 30 66
M  V30 73 1 31 67
M  V30 74 1 35 68
M  V30 75 1 39 69
M  V30 76 1 40 70
M  V30 77 1 41 71
M  V30 78 1 44 72
M  V30 79 1 44 73
M  V30 80 1 45 74
M  V30 81 1 45 75
M  V30 82 1 46 76
M  V30 83 1 46 77
M  V30 END BOND
M  V30 END CTAB
M  END
>  <Dataset>  (57) 
ChEMBL_Kinases

>  <Ligand_Instance>  (57) 
nan

>  <PDB_ID>  (57) 
nan

>  <Standardized_SMILES>  (57) 
CS[C@@]1(C(=O)Nc2ccc3[nH]nc(-c4ccc(F)cc4)c3c2)CCN(CC(=O)N2CC=C(c3ncc(-c4ncccn4)s3)CC2)C1

>  <Name>  (57) 
nan

>  <Pocket>  (57) 
nan

>  <ATP_Site>  (57) 
nan

>  <Peripheral>  (57) 
nan

>  <Num_H_Atoms_ProtBoundConf>  (57) 
nan

>  <Num_Resolved_Atoms>  (57) 
nan

>  <Num_Not_Resolved_Atoms>  (57) 
nan

$$$$
CHEMBL3298414
     RDKit          3D

  0  0  0  0  0  0  0  0  0  0999 V3000
M  V30 BEGIN CTAB
M  V30 COUNTS 56 59 0 0 0
M  V30 BEGIN ATOM
M  V30 1 O 1.347804 -0.925519 0.624472 0
M  V30 2 C 0.805968 0.201785 0.880308 0
M  V30 3 N 1.106328 0.809088 2.129115 0
M  V30 4 C 1.966854 0.312660 3.184209 0 CFG=2
M  V30 5 C 1.219550 0.065673 4.453901 0
M  V30 6 O 0.234450 -0.882830 4.182192 0
M  V30 7 C 3.114415 1.228870 3.319564 0
M  V30 8 C 3.642925 1.716767 4.480213 0
M  V30 9 C 4.721192 2.572325 4.521294 0
M  V30 10 C 5.261112 2.926280 3.302020 0
M  V30 11 F 6.334260 3.780070 3.378051 0
M  V30 12 C 4.779753 2.472074 2.081341 0
M  V30 13 Cl 5.557862 2.999033 0.597737 0
M  V30 14 C 3.696222 1.617245 2.122424 0
M  V30 15 N -0.070563 0.845017 -0.037739 0
M  V30 16 C -0.726392 2.126684 0.178106 0
M  V30 17 C -2.060643 2.112554 -0.489649 0
M  V30 18 C -2.594009 0.749172 -0.733365 0
M  V30 19 C -3.936235 0.396873 -0.566058 0
M  V30 20 N -4.388052 -0.849259 -0.796415 0
M  V30 21 C -3.545232 -1.821679 -1.204965 0
M  V30 22 N -3.915740 -3.165208 -1.474225 0
M  V30 23 C -3.025323 -4.208285 -1.910800 0
M  V30 24 C -2.360837 -3.887417 -3.244335 0
M  V30 25 C -1.242586 -4.833377 -3.526655 0
M  V30 26 O -1.383768 -5.960263 -2.721328 0
M  V30 27 C -1.101030 -5.631984 -1.399133 0
M  V30 28 C -1.900692 -4.445896 -0.923375 0
M  V30 29 N -2.271494 -1.497333 -1.366297 0
M  V30 30 C -1.769401 -0.268450 -1.149931 0
M  V30 31 C -0.338849 0.156570 -1.313841 0
M  V30 32 H 0.714132 1.726627 2.427761 0
M  V30 33 H 2.372030 -0.663414 2.841870 0
M  V30 34 H 0.725308 0.943816 4.878065 0
M  V30 35 H 1.865187 -0.367329 5.243793 0
M  V30 36 H 0.567923 -1.678484 3.740448 0
M  V30 37 H 3.151012 1.381960 5.381167 0
M  V30 38 H 5.100407 2.928435 5.457888 0
M  V30 39 H 3.361035 1.292260 1.133032 0
M  V30 40 H -0.074825 2.907477 -0.309883 0
M  V30 41 H -0.817327 2.369229 1.244547 0
M  V30 42 H -2.773794 2.662617 0.182589 0
M  V30 43 H -2.070799 2.723858 -1.430986 0
M  V30 44 H -4.627327 1.162427 -0.239176 0
M  V30 45 H -4.941218 -3.355983 -1.324511 0
M  V30 46 H -3.594498 -5.154355 -1.966347 0
M  V30 47 H -2.109073 -2.819422 -3.333206 0
M  V30 48 H -3.152683 -4.057874 -4.031283 0
M  V30 49 H -0.236914 -4.426873 -3.306421 0
M  V30 50 H -1.242986 -5.119513 -4.577243 0
M  V30 51 H -1.287435 -6.522253 -0.769357 0
M  V30 52 H -0.020246 -5.392741 -1.323990 0
M  V30 53 H -2.335115 -4.696576 0.053541 0
M  V30 54 H -1.236373 -3.566096 -0.812590 0
M  V30 55 H -0.223306 0.882050 -2.161062 0
M  V30 56 H 0.352539 -0.676946 -1.452635 0
M  V30 END ATOM
M  V30 BEGIN BOND
M  V30 1 2 1 2
M  V30 2 1 2 3
M  V30 3 1 3 4
M  V30 4 1 4 5
M  V30 5 1 5 6
M  V30 6 1 4 7
M  V30 7 2 7 8
M  V30 8 1 8 9
M  V30 9 2 9 10
M  V30 10 1 10 11
M  V30 11 1 10 12
M  V30 12 1 12 13
M  V30 13 2 12 14
M  V30 14 1 2 15
M  V30 15 1 15 16
M  V30 16 1 16 17
M  V30 17 1 17 18
M  V30 18 2 18 19
M  V30 19 1 19 20
M  V30 20 2 20 21
M  V30 21 1 21 22
M  V30 22 1 22 23
M  V30 23 1 23 24
M  V30 24 1 24 25
M  V30 25 1 25 26
M  V30 26 1 26 27
M  V30 27 1 27 28
M  V30 28 1 21 29
M  V30 29 2 29 30
M  V30 30 1 30 31
M  V30 31 1 14 7
M  V30 32 1 31 15
M  V30 33 1 30 18
M  V30 34 1 28 23
M  V30 35 1 3 32
M  V30 36 1 4 33 CFG=3
M  V30 37 1 5 34
M  V30 38 1 5 35
M  V30 39 1 6 36
M  V30 40 1 8 37
M  V30 41 1 9 38
M  V30 42 1 14 39
M  V30 43 1 16 40
M  V30 44 1 16 41
M  V30 45 1 17 42
M  V30 46 1 17 43
M  V30 47 1 19 44
M  V30 48 1 22 45
M  V30 49 1 23 46
M  V30 50 1 24 47
M  V30 51 1 24 48
M  V30 52 1 25 49
M  V30 53 1 25 50
M  V30 54 1 27 51
M  V30 55 1 27 52
M  V30 56 1 28 53
M  V30 57 1 28 54
M  V30 58 1 31 55
M  V30 59 1 31 56
M  V30 END BOND
M  V30 END CTAB
M  END
>  <Dataset>  (58) 
ChEMBL_Kinases

>  <Ligand_Instance>  (58) 
nan

>  <PDB_ID>  (58) 
nan

>  <Standardized_SMILES>  (58) 
O=C(N[C@H](CO)c1ccc(F)c(Cl)c1)N1CCc2cnc(NC3CCOCC3)nc2C1

>  <Name>  (58) 
nan

>  <Pocket>  (58) 
nan

>  <ATP_Site>  (58) 
nan

>  <Peripheral>  (58) 
nan

>  <Num_H_Atoms_ProtBoundConf>  (58) 
nan

>  <Num_Resolved_Atoms>  (58) 
nan

>  <Num_Not_Resolved_Atoms>  (58) 
nan

$$$$
CHEMBL3298418
     RDKit          3D

  0  0  0  0  0  0  0  0  0  0999 V3000
M  V30 BEGIN CTAB
M  V30 COUNTS 53 56 0 0 0
M  V30 BEGIN ATOM
M  V30 1 C 1.620041 -6.204546 1.451248 0
M  V30 2 C 2.562041 -5.884331 0.347797 0
M  V30 3 C 2.874275 -4.589809 0.004127 0
M  V30 4 C 3.731816 -4.205056 -0.998460 0
M  V30 5 N 4.059770 -2.876758 -1.360329 0
M  V30 6 C 3.597660 -1.660519 -0.798243 0
M  V30 7 N 4.036656 -0.490594 -1.291761 0
M  V30 8 C 3.654200 0.703211 -0.823853 0
M  V30 9 C 2.771530 0.784136 0.210156 0
M  V30 10 C 2.329925 -0.421585 0.706135 0
M  V30 11 N 2.729938 -1.587033 0.218196 0
M  V30 12 C 1.353179 -0.351155 1.848593 0
M  V30 13 N 0.353226 0.641915 1.426929 0
M  V30 14 C -0.974491 0.192482 1.219620 0
M  V30 15 O -1.119225 -1.040669 1.433648 0
M  V30 16 N -1.992771 1.095855 0.811151 0
M  V30 17 C -3.353511 0.675974 0.590356 0 CFG=2
M  V30 18 C -3.580002 0.830777 -0.918216 0
M  V30 19 C -4.364332 1.493696 1.289049 0
M  V30 20 C -5.506331 1.907723 0.619032 0
M  V30 21 C -6.509604 2.672076 1.177158 0
M  V30 22 C -6.381821 3.060214 2.495759 0
M  V30 23 Cl -7.627505 4.032591 3.255406 0
M  V30 24 C -5.254587 2.658307 3.176492 0
M  V30 25 Cl -5.035268 3.119582 4.853047 0
M  V30 26 C -4.245743 1.888776 2.612629 0
M  V30 27 C 0.859208 1.992144 1.270231 0
M  V30 28 C 2.280836 2.047142 0.806120 0
M  V30 29 C 4.286529 -5.267861 -1.671231 0
M  V30 30 C 4.013782 -6.573704 -1.374223 0
M  V30 31 N 3.167999 -6.865223 -0.383770 0
M  V30 32 H 0.977526 -5.283164 1.559898 0
M  V30 33 H 2.149897 -6.458859 2.388792 0
M  V30 34 H 0.914642 -7.017078 1.162091 0
M  V30 35 H 2.386606 -3.848388 0.591990 0
M  V30 36 H 4.747155 -2.785621 -2.164340 0
M  V30 37 H 4.039865 1.617196 -1.259332 0
M  V30 38 H 1.951414 0.023033 2.710614 0
M  V30 39 H 0.885380 -1.320188 2.067755 0
M  V30 40 H -1.796245 2.108456 0.652840 0
M  V30 41 H -3.500091 -0.415369 0.777169 0
M  V30 42 H -4.379649 0.177594 -1.272101 0
M  V30 43 H -2.657650 0.541423 -1.478116 0
M  V30 44 H -3.784821 1.888026 -1.194449 0
M  V30 45 H -5.659919 1.627479 -0.432841 0
M  V30 46 H -7.382641 2.964742 0.596412 0
M  V30 47 H -3.370081 1.587892 3.174033 0
M  V30 48 H 0.721196 2.588369 2.212816 0
M  V30 49 H 0.210642 2.464040 0.479193 0
M  V30 50 H 2.954333 2.351886 1.644626 0
M  V30 51 H 2.386017 2.885941 0.064598 0
M  V30 52 H 4.986556 -5.107532 -2.492322 0
M  V30 53 H 4.468510 -7.381617 -1.924518 0
M  V30 END ATOM
M  V30 BEGIN BOND
M  V30 1 1 1 2
M  V30 2 2 2 3
M  V30 3 1 3 4
M  V30 4 1 4 5
M  V30 5 1 5 6
M  V30 6 2 6 7
M  V30 7 1 7 8
M  V30 8 2 8 9
M  V30 9 1 9 10
M  V30 10 2 10 11
M  V30 11 1 10 12
M  V30 12 1 12 13
M  V30 13 1 13 14
M  V30 14 2 14 15
M  V30 15 1 14 16
M  V30 16 1 16 17
M  V30 17 1 17 18
M  V30 18 1 17 19
M  V30 19 2 19 20
M  V30 20 1 20 21
M  V30 21 2 21 22
M  V30 22 1 22 23
M  V30 23 1 22 24
M  V30 24 1 24 25
M  V30 25 2 24 26
M  V30 26 1 13 27
M  V30 27 1 27 28
M  V30 28 2 4 29
M  V30 29 1 29 30
M  V30 30 2 30 31
M  V30 31 1 31 2
M  V30 32 1 11 6
M  V30 33 1 26 19
M  V30 34 1 28 9
M  V30 35 1 1 32
M  V30 36 1 1 33
M  V30 37 1 1 34
M  V30 38 1 3 35
M  V30 39 1 5 36
M  V30 40 1 8 37
M  V30 41 1 12 38
M  V30 42 1 12 39
M  V30 43 1 16 40
M  V30 44 1 17 41 CFG=1
M  V30 45 1 18 42
M  V30 46 1 18 43
M  V30 47 1 18 44
M  V30 48 1 20 45
M  V30 49 1 21 46
M  V30 50 1 26 47
M  V30 51 1 27 48
M  V30 52 1 27 49
M  V30 53 1 28 50
M  V30 54 1 28 51
M  V30 55 1 29 52
M  V30 56 1 30 53
M  V30 END BOND
M  V30 END CTAB
M  END
>  <Dataset>  (59) 
ChEMBL_Kinases

>  <Ligand_Instance>  (59) 
nan

>  <PDB_ID>  (59) 
nan

>  <Standardized_SMILES>  (59) 
Cc1cc(Nc2ncc3c(n2)CN(C(=O)N[C@H](C)c2ccc(Cl)c(Cl)c2)CC3)ccn1

>  <Name>  (59) 
nan

>  <Pocket>  (59) 
nan

>  <ATP_Site>  (59) 
nan

>  <Peripheral>  (59) 
nan

>  <Num_H_Atoms_ProtBoundConf>  (59) 
nan

>  <Num_Resolved_Atoms>  (59) 
nan

>  <Num_Not_Resolved_Atoms>  (59) 
nan

$$$$
CHEMBL4207220
     RDKit          3D

  0  0  0  0  0  0  0  0  0  0999 V3000
M  V30 BEGIN CTAB
M  V30 COUNTS 64 69 0 0 0
M  V30 BEGIN ATOM
M  V30 1 C 1.445239 -0.242348 5.814401 0
M  V30 2 N 0.811368 -1.246208 5.052175 0
M  V30 3 C 1.536762 -2.425986 4.765903 0
M  V30 4 C -0.217269 -0.847213 4.175661 0
M  V30 5 C -0.854700 -1.951891 3.389132 0
M  V30 6 C -0.144131 -2.330006 2.145067 0
M  V30 7 N 0.432984 -1.270509 1.382766 0
M  V30 8 C 0.397851 -1.263697 -0.045024 0
M  V30 9 N 0.929262 -0.261112 -0.801589 0
M  V30 10 C 0.885787 -0.280121 -2.135070 0
M  V30 11 N 1.436280 0.752530 -2.941631 0
M  V30 12 C 2.083640 1.911926 -2.412183 0
M  V30 13 C 1.210474 2.761030 -1.556269 0
M  V30 14 N 0.890558 2.847475 -0.256042 0
M  V30 15 C 0.023242 3.835493 -0.041095 0
M  V30 16 C -0.580888 4.295157 1.112410 0
M  V30 17 F -0.314626 3.706044 2.302744 0
M  V30 18 C -1.465813 5.363311 1.067852 0
M  V30 19 F -2.091303 5.858503 2.178572 0
M  V30 20 C -1.731834 5.961489 -0.162820 0
M  V30 21 C -1.121500 5.492258 -1.306935 0
M  V30 22 C -0.244703 4.430151 -1.246067 0
M  V30 23 N 0.491082 3.755569 -2.146726 0
M  V30 24 C 0.261130 -1.392187 -2.713117 0
M  V30 25 N 0.079580 -1.664745 -4.010387 0
M  V30 26 C -0.572853 -2.848949 -4.113501 0
M  V30 27 N -0.799352 -3.318231 -2.854706 0
M  V30 28 C -1.450898 -4.522544 -2.463802 0
M  V30 29 C -2.820832 -4.602517 -2.324483 0
M  V30 30 C -3.409864 -5.785924 -1.944969 0
M  V30 31 C -2.689788 -6.929344 -1.688424 0
M  V30 32 C -1.320828 -6.839688 -1.830357 0
M  V30 33 F -0.572667 -7.958132 -1.583077 0
M  V30 34 C -0.713432 -5.653923 -2.212096 0
M  V30 35 C -0.288258 -2.425906 -1.987828 0
M  V30 36 N -0.187826 -2.302547 -0.669343 0
M  V30 37 C 1.059873 -0.199393 2.128955 0
M  V30 38 C 0.122958 0.249646 3.199448 0
M  V30 39 H 0.648342 0.304775 6.398267 0
M  V30 40 H 2.111939 0.450388 5.266862 0
M  V30 41 H 2.079499 -0.708586 6.596480 0
M  V30 42 H 2.194543 -2.618891 5.663364 0
M  V30 43 H 0.852020 -3.316190 4.766429 0
M  V30 44 H 2.215849 -2.412018 3.913498 0
M  V30 45 H -1.032295 -0.419959 4.834935 0
M  V30 46 H -1.002704 -2.868268 4.002385 0
M  V30 47 H -1.884163 -1.621460 3.130404 0
M  V30 48 H 0.602002 -3.162739 2.299339 0
M  V30 49 H -0.912000 -2.823610 1.476892 0
M  V30 50 H 1.356198 0.645738 -3.987272 0
M  V30 51 H 2.956089 1.547122 -1.793634 0
M  V30 52 H 2.557769 2.501669 -3.219353 0
M  V30 53 H -2.403566 6.795511 -0.299012 0
M  V30 54 H -1.317061 5.946163 -2.274090 0
M  V30 55 H 0.442547 4.044933 -3.163414 0
M  V30 56 H -0.873497 -3.355424 -5.030392 0
M  V30 57 H -3.392239 -3.704491 -2.525402 0
M  V30 58 H -4.504809 -5.833030 -1.838266 0
M  V30 59 H -3.218555 -7.832899 -1.391767 0
M  V30 60 H 0.364264 -5.662759 -2.301862 0
M  V30 61 H 2.064547 -0.478566 2.502210 0
M  V30 62 H 1.229593 0.669817 1.460891 0
M  V30 63 H -0.847841 0.479425 2.677628 0
M  V30 64 H 0.419288 1.190505 3.701050 0
M  V30 END ATOM
M  V30 BEGIN BOND
M  V30 1 1 1 2
M  V30 2 1 2 3
M  V30 3 1 2 4
M  V30 4 1 4 5
M  V30 5 1 5 6
M  V30 6 1 6 7
M  V30 7 1 7 8
M  V30 8 2 8 9
M  V30 9 1 9 10
M  V30 10 1 10 11
M  V30 11 1 11 12
M  V30 12 1 12 13
M  V30 13 2 13 14
M  V30 14 1 14 15
M  V30 15 2 15 16
M  V30 16 1 16 17
M  V30 17 1 16 18
M  V30 18 1 18 19
M  V30 19 2 18 20
M  V30 20 1 20 21
M  V30 21 2 21 22
M  V30 22 1 22 23
M  V30 23 2 10 24
M  V30 24 1 24 25
M  V30 25 2 25 26
M  V30 26 1 26 27
M  V30 27 1 27 28
M  V30 28 2 28 29
M  V30 29 1 29 30
M  V30 30 2 30 31
M  V30 31 1 31 32
M  V30 32 1 32 33
M  V30 33 2 32 34
M  V30 34 1 27 35
M  V30 35 2 35 36
M  V30 36 1 7 37
M  V30 37 1 37 38
M  V30 38 1 38 4
M  V30 39 1 36 8
M  V30 40 1 23 13
M  V30 41 1 35 24
M  V30 42 1 22 15
M  V30 43 1 34 28
M  V30 44 1 1 39
M  V30 45 1 1 40
M  V30 46 1 1 41
M  V30 47 1 3 42
M  V30 48 1 3 43
M  V30 49 1 3 44
M  V30 50 1 4 45
M  V30 51 1 5 46
M  V30 52 1 5 47
M  V30 53 1 6 48
M  V30 54 1 6 49
M  V30 55 1 11 50
M  V30 56 1 12 51
M  V30 57 1 12 52
M  V30 58 1 20 53
M  V30 59 1 21 54
M  V30 60 1 23 55
M  V30 61 1 26 56
M  V30 62 1 29 57
M  V30 63 1 30 58
M  V30 64 1 31 59
M  V30 65 1 34 60
M  V30 66 1 37 61
M  V30 67 1 37 62
M  V30 68 1 38 63
M  V30 69 1 38 64
M  V30 END BOND
M  V30 END CTAB
M  END
>  <Dataset>  (60) 
ChEMBL_Kinases

>  <Ligand_Instance>  (60) 
nan

>  <PDB_ID>  (60) 
nan

>  <Standardized_SMILES>  (60) 
CN(C)C1CCN(c2nc(NCc3nc4c(F)c(F)ccc4[nH]3)c3ncn(-c4cccc(F)c4)c3n2)CC1

>  <Name>  (60) 
nan

>  <Pocket>  (60) 
nan

>  <ATP_Site>  (60) 
nan

>  <Peripheral>  (60) 
nan

>  <Num_H_Atoms_ProtBoundConf>  (60) 
nan

>  <Num_Resolved_Atoms>  (60) 
nan

>  <Num_Not_Resolved_Atoms>  (60) 
nan

$$$$
CHEMBL3675440
     RDKit          3D

  0  0  0  0  0  0  0  0  0  0999 V3000
M  V30 BEGIN CTAB
M  V30 COUNTS 60 62 0 0 0
M  V30 BEGIN ATOM
M  V30 1 C 0.206366 -3.833182 -1.076343 0
M  V30 2 N 0.769470 -2.561392 -0.616698 0
M  V30 3 C 1.543429 -2.578831 0.601013 0
M  V30 4 C 0.730080 -2.351819 1.847525 0
M  V30 5 N 0.041236 -1.089228 1.883475 0
M  V30 6 C 0.796319 0.110257 1.870080 0
M  V30 7 N 2.121496 0.077276 1.826889 0
M  V30 8 C 2.801271 1.236400 1.816709 0
M  V30 9 N 2.242982 2.480883 1.847437 0
M  V30 10 C 0.911011 2.557731 1.891294 0
M  V30 11 C 0.269522 3.763473 1.924320 0
M  V30 12 C 1.056717 4.991314 1.911370 0
M  V30 13 N 0.449478 6.277882 1.944120 0
M  V30 14 O 2.325061 4.922479 1.869639 0
M  V30 15 C -1.103798 3.863243 1.969750 0
M  V30 16 C -1.854396 2.692417 1.982100 0
M  V30 17 C -1.177007 1.492628 1.947974 0
M  V30 18 C 0.190081 1.365325 1.902464 0
M  V30 19 C -0.156835 -3.503752 2.149442 0
M  V30 20 C -1.420141 -3.658141 1.614957 0
M  V30 21 C -2.254302 -4.722722 1.886513 0
M  V30 22 C -1.826192 -5.710811 2.742561 0
M  V30 23 C -0.573796 -5.620903 3.313398 0
M  V30 24 N -0.123895 -6.631565 4.195045 0 CHG=1 VAL=4
M  V30 25 O -0.846561 -7.602580 4.461874 0
M  V30 26 O 1.114094 -6.558277 4.769468 0 CHG=-1 VAL=1
M  V30 27 C 0.223826 -4.537313 3.011157 0
M  V30 28 C 0.504088 -1.419904 -1.411033 0
M  V30 29 O 0.805607 -0.210392 -1.344959 0
M  V30 30 O -0.252306 -1.481355 -2.568819 0
M  V30 31 C -0.542241 -0.392416 -3.383885 0
M  V30 32 C -1.396276 -0.927330 -4.535755 0
M  V30 33 C 0.745118 0.114543 -3.997405 0
M  V30 34 C -1.233516 0.741919 -2.671144 0
M  V30 35 H 0.424421 -4.645730 -0.387917 0
M  V30 36 H -0.889102 -3.784414 -1.230464 0
M  V30 37 H 0.659125 -3.993525 -2.085470 0
M  V30 38 H 2.060748 -3.573569 0.738544 0
M  V30 39 H 2.358286 -1.859601 0.476795 0
M  V30 40 H 1.435089 -2.313179 2.734210 0
M  V30 41 H -0.987826 -1.180768 1.916500 0
M  V30 42 H 3.901725 1.242028 1.781174 0
M  V30 43 H 0.051398 6.383822 0.980118 0
M  V30 44 H 0.342771 7.029268 2.651829 0
M  V30 45 H -1.623486 4.817767 1.996272 0
M  V30 46 H -2.931550 2.767874 2.017707 0
M  V30 47 H -1.816873 0.631894 1.959902 0
M  V30 48 H -1.791441 -2.902282 0.938100 0
M  V30 49 H -3.241858 -4.760035 1.414587 0
M  V30 50 H -2.510958 -6.526867 2.927934 0
M  V30 51 H 1.223437 -4.435257 3.447125 0
M  V30 52 H -0.754191 -1.663647 -5.073470 0
M  V30 53 H -2.316115 -1.411135 -4.158314 0
M  V30 54 H -1.584207 -0.110517 -5.268904 0
M  V30 55 H 1.405778 -0.776469 -4.117742 0
M  V30 56 H 1.255163 0.878919 -3.369680 0
M  V30 57 H 0.514103 0.483719 -5.003627 0
M  V30 58 H -0.589084 1.629083 -2.634527 0
M  V30 59 H -2.122636 1.021512 -3.274054 0
M  V30 60 H -1.602034 0.410295 -1.686290 0
M  V30 END ATOM
M  V30 BEGIN BOND
M  V30 1 1 1 2
M  V30 2 1 2 3
M  V30 3 1 3 4
M  V30 4 1 4 5
M  V30 5 1 5 6
M  V30 6 2 6 7
M  V30 7 1 7 8
M  V30 8 2 8 9
M  V30 9 1 9 10
M  V30 10 2 10 11
M  V30 11 1 11 12
M  V30 12 1 12 13
M  V30 13 2 12 14
M  V30 14 1 11 15
M  V30 15 2 15 16
M  V30 16 1 16 17
M  V30 17 2 17 18
M  V30 18 1 4 19
M  V30 19 2 19 20
M  V30 20 1 20 21
M  V30 21 2 21 22
M  V30 22 1 22 23
M  V30 23 1 23 24
M  V30 24 2 24 25
M  V30 25 1 24 26
M  V30 26 2 23 27
M  V30 27 1 2 28
M  V30 28 2 28 29
M  V30 29 1 28 30
M  V30 30 1 30 31
M  V30 31 1 31 32
M  V30 32 1 31 33
M  V30 33 1 31 34
M  V30 34 1 18 6
M  V30 35 1 27 19
M  V30 36 1 18 10
M  V30 37 1 1 35
M  V30 38 1 1 36
M  V30 39 1 1 37
M  V30 40 1 3 38
M  V30 41 1 3 39
M  V30 42 1 4 40
M  V30 43 1 5 41
M  V30 44 1 8 42
M  V30 45 1 13 43
M  V30 46 1 13 44
M  V30 47 1 15 45
M  V30 48 1 16 46
M  V30 49 1 17 47
M  V30 50 1 20 48
M  V30 51 1 21 49
M  V30 52 1 22 50
M  V30 53 1 27 51
M  V30 54 1 32 52
M  V30 55 1 32 53
M  V30 56 1 32 54
M  V30 57 1 33 55
M  V30 58 1 33 56
M  V30 59 1 33 57
M  V30 60 1 34 58
M  V30 61 1 34 59
M  V30 62 1 34 60
M  V30 END BOND
M  V30 END CTAB
M  END
>  <Dataset>  (61) 
ChEMBL_Kinases

>  <Ligand_Instance>  (61) 
nan

>  <PDB_ID>  (61) 
nan

>  <Standardized_SMILES>  (61) 
CN(CC(Nc1ncnc2c(C(N)=O)cccc12)c1cccc([N+](=O)[O-])c1)C(=O)OC(C)(C)C

>  <Name>  (61) 
nan

>  <Pocket>  (61) 
nan

>  <ATP_Site>  (61) 
nan

>  <Peripheral>  (61) 
nan

>  <Num_H_Atoms_ProtBoundConf>  (61) 
nan

>  <Num_Resolved_Atoms>  (61) 
nan

>  <Num_Not_Resolved_Atoms>  (61) 
nan

$$$$
CHEMBL3298045
     RDKit          3D

  0  0  0  0  0  0  0  0  0  0999 V3000
M  V30 BEGIN CTAB
M  V30 COUNTS 52 55 0 0 0
M  V30 BEGIN ATOM
M  V30 1 C 2.444977 0.221231 2.246545 0
M  V30 2 O 2.723777 0.217938 0.876605 0
M  V30 3 C 3.424642 -0.489282 0.048518 0
M  V30 4 C 4.215954 -1.580452 0.137555 0
M  V30 5 C 4.888164 -2.215279 -0.801630 0
M  V30 6 C 4.751208 -1.651606 -2.096412 0
M  V30 7 F 5.303736 -2.007447 -3.325819 0
M  V30 8 C 3.959189 -0.507173 -2.388710 0
M  V30 9 C 3.308436 0.036714 -1.261083 0
M  V30 10 C 2.445719 1.252601 -1.417423 0
M  V30 11 C 3.035893 2.510992 -1.554143 0
M  V30 12 C 2.091247 3.509990 -1.706444 0
M  V30 13 C 0.746734 3.367380 -1.735449 0
M  V30 14 C 0.191105 2.095976 -1.598883 0
M  V30 15 N -1.048150 1.546157 -1.571148 0
M  V30 16 C -0.923550 0.220598 -1.402013 0
M  V30 17 N -1.879280 -0.831920 -1.297736 0
M  V30 18 C -2.336626 -1.216110 -0.006486 0
M  V30 19 C -1.932243 -0.414772 1.063268 0
M  V30 20 C -2.336897 -0.740086 2.330756 0
M  V30 21 O -2.143312 -0.204176 3.569340 0
M  V30 22 C -1.417208 0.912537 3.911792 0
M  V30 23 C -3.139453 -1.857801 2.570569 0
M  V30 24 O -3.625767 -2.321641 3.785636 0
M  V30 25 C -2.851445 -3.190505 4.581535 0
M  V30 26 C -3.570084 -2.701928 1.494197 0
M  V30 27 O -4.356827 -3.791420 1.763675 0
M  V30 28 C -4.794000 -4.618507 0.731441 0
M  V30 29 C -3.125538 -2.314324 0.225198 0
M  V30 30 O 0.382234 -0.058509 -1.329477 0
M  V30 31 C 1.047141 1.067879 -1.444018 0
M  V30 32 H 2.260359 -0.803841 2.591904 0
M  V30 33 H 1.521623 0.805069 2.497934 0
M  V30 34 H 3.316900 0.615200 2.848958 0
M  V30 35 H 4.372897 -2.081741 1.077963 0
M  V30 36 H 5.489149 -3.074557 -1.152687 0
M  V30 37 H 3.799758 -0.017430 -3.344852 0
M  V30 38 H 4.090965 2.658765 -1.535859 0
M  V30 39 H 2.429643 4.535607 -1.817469 0
M  V30 40 H 0.061650 4.181913 -1.863420 0
M  V30 41 H -2.304564 -1.381869 -2.074515 0
M  V30 42 H -1.333388 0.464373 1.034417 0
M  V30 43 H -0.308752 0.696760 3.903557 0
M  V30 44 H -1.579178 1.150771 5.023685 0
M  V30 45 H -1.682320 1.788857 3.307879 0
M  V30 46 H -1.883445 -3.358247 4.068006 0
M  V30 47 H -2.711336 -2.713712 5.581393 0
M  V30 48 H -3.363402 -4.145401 4.767512 0
M  V30 49 H -5.669125 -5.212546 1.078707 0
M  V30 50 H -5.147340 -3.990066 -0.115994 0
M  V30 51 H -4.034096 -5.332104 0.332640 0
M  V30 52 H -3.441433 -2.929400 -0.625824 0
M  V30 END ATOM
M  V30 BEGIN BOND
M  V30 1 1 1 2
M  V30 2 1 2 3
M  V30 3 2 3 4
M  V30 4 1 4 5
M  V30 5 2 5 6
M  V30 6 1 6 7
M  V30 7 1 6 8
M  V30 8 2 8 9
M  V30 9 1 9 10
M  V30 10 2 10 11
M  V30 11 1 11 12
M  V30 12 2 12 13
M  V30 13 1 13 14
M  V30 14 1 14 15
M  V30 15 2 15 16
M  V30 16 1 16 17
M  V30 17 1 17 18
M  V30 18 2 18 19
M  V30 19 1 19 20
M  V30 20 1 20 21
M  V30 21 1 21 22
M  V30 22 2 20 23
M  V30 23 1 23 24
M  V30 24 1 24 25
M  V30 25 1 23 26
M  V30 26 1 26 27
M  V30 27 1 27 28
M  V30 28 2 26 29
M  V30 29 1 16 30
M  V30 30 1 30 31
M  V30 31 1 9 3
M  V30 32 1 31 10
M  V30 33 2 31 14
M  V30 34 1 29 18
M  V30 35 1 1 32
M  V30 36 1 1 33
M  V30 37 1 1 34
M  V30 38 1 4 35
M  V30 39 1 5 36
M  V30 40 1 8 37
M  V30 41 1 11 38
M  V30 42 1 12 39
M  V30 43 1 13 40
M  V30 44 1 17 41
M  V30 45 1 19 42
M  V30 46 1 22 43
M  V30 47 1 22 44
M  V30 48 1 22 45
M  V30 49 1 25 46
M  V30 50 1 25 47
M  V30 51 1 25 48
M  V30 52 1 28 49
M  V30 53 1 28 50
M  V30 54 1 28 51
M  V30 55 1 29 52
M  V30 END BOND
M  V30 END CTAB
M  END
>  <Dataset>  (62) 
ChEMBL_Kinases

>  <Ligand_Instance>  (62) 
nan

>  <PDB_ID>  (62) 
nan

>  <Standardized_SMILES>  (62) 
COc1ccc(F)cc1-c1cccc2nc(Nc3cc(OC)c(OC)c(OC)c3)oc12

>  <Name>  (62) 
nan

>  <Pocket>  (62) 
nan

>  <ATP_Site>  (62) 
nan

>  <Peripheral>  (62) 
nan

>  <Num_H_Atoms_ProtBoundConf>  (62) 
nan

>  <Num_Resolved_Atoms>  (62) 
nan

>  <Num_Not_Resolved_Atoms>  (62) 
nan

$$$$
CHEMBL4207173
     RDKit          3D

  0  0  0  0  0  0  0  0  0  0999 V3000
M  V30 BEGIN CTAB
M  V30 COUNTS 50 54 0 0 0
M  V30 BEGIN ATOM
M  V30 1 C -0.835633 -1.164452 5.911191 0
M  V30 2 C 0.100557 -2.244215 5.377537 0
M  V30 3 N 1.038193 -1.690525 4.421822 0
M  V30 4 C 2.253339 -1.174834 4.678117 0
M  V30 5 N 2.762257 -0.785250 3.500386 0
M  V30 6 C 1.889692 -1.049930 2.534517 0
M  V30 7 C 1.970996 -0.826590 1.154564 0
M  V30 8 N 3.110592 -0.237132 0.559636 0
M  V30 9 C 3.332675 0.056375 -0.837572 0
M  V30 10 C 2.340159 1.050962 -1.373495 0
M  V30 11 N 2.570890 2.395549 -1.296643 0
M  V30 12 C 1.531964 3.039568 -1.851430 0
M  V30 13 C 1.188940 4.362197 -2.069137 0
M  V30 14 F 2.060392 5.327846 -1.650618 0
M  V30 15 C -0.010729 4.711272 -2.697469 0
M  V30 16 F -0.315831 6.030523 -2.895569 0
M  V30 17 C -0.869830 3.708543 -3.108442 0
M  V30 18 C -0.588818 2.361863 -2.921907 0
M  V30 19 C 0.623889 2.101430 -2.289638 0
M  V30 20 N 1.152487 0.906087 -1.980430 0
M  V30 21 N 0.901863 -1.213848 0.437105 0
M  V30 22 C -0.180842 -1.774768 0.958142 0
M  V30 23 N -1.346316 -2.216264 0.275611 0
M  V30 24 C -2.509687 -2.783611 0.960049 0
M  V30 25 C -2.853761 -4.090790 0.283120 0
M  V30 26 O -1.870353 -4.534516 -0.578608 0
M  V30 27 C -1.635310 -3.642886 -1.622751 0
M  V30 28 C -1.618838 -2.206395 -1.137154 0
M  V30 29 N -0.200518 -1.961736 2.276395 0
M  V30 30 C 0.783743 -1.628449 3.109227 0
M  V30 31 H -1.515339 -0.926511 5.066698 0
M  V30 32 H -1.351922 -1.577547 6.793005 0
M  V30 33 H -0.254193 -0.249093 6.097294 0
M  V30 34 H -0.472408 -3.093356 4.971899 0
M  V30 35 H 0.675799 -2.586379 6.275886 0
M  V30 36 H 2.666685 -1.124064 5.687971 0
M  V30 37 H 3.883908 0.010115 1.252846 0
M  V30 38 H 4.346382 0.489277 -0.936521 0
M  V30 39 H 3.315404 -0.871261 -1.458308 0
M  V30 40 H -1.816955 3.952409 -3.603483 0
M  V30 41 H -1.235739 1.556168 -3.229781 0
M  V30 42 H 0.847889 -0.072756 -2.109539 0
M  V30 43 H -3.369878 -2.098509 0.841695 0
M  V30 44 H -2.269582 -2.961053 2.042081 0
M  V30 45 H -2.950346 -4.871692 1.065338 0
M  V30 46 H -3.853192 -4.039380 -0.196200 0
M  V30 47 H -2.398909 -3.733284 -2.422406 0
M  V30 48 H -0.625649 -3.881115 -2.004543 0
M  V30 49 H -2.616777 -1.722926 -1.343529 0
M  V30 50 H -0.879818 -1.666505 -1.747693 0
M  V30 END ATOM
M  V30 BEGIN BOND
M  V30 1 1 1 2
M  V30 2 1 2 3
M  V30 3 1 3 4
M  V30 4 2 4 5
M  V30 5 1 5 6
M  V30 6 2 6 7
M  V30 7 1 7 8
M  V30 8 1 8 9
M  V30 9 1 9 10
M  V30 10 2 10 11
M  V30 11 1 11 12
M  V30 12 2 12 13
M  V30 13 1 13 14
M  V30 14 1 13 15
M  V30 15 1 15 16
M  V30 16 2 15 17
M  V30 17 1 17 18
M  V30 18 2 18 19
M  V30 19 1 19 20
M  V30 20 1 7 21
M  V30 21 2 21 22
M  V30 22 1 22 23
M  V30 23 1 23 24
M  V30 24 1 24 25
M  V30 25 1 25 26
M  V30 26 1 26 27
M  V30 27 1 27 28
M  V30 28 1 22 29
M  V30 29 2 29 30
M  V30 30 1 30 3
M  V30 31 1 30 6
M  V30 32 1 20 10
M  V30 33 1 28 23
M  V30 34 1 19 12
M  V30 35 1 1 31
M  V30 36 1 1 32
M  V30 37 1 1 33
M  V30 38 1 2 34
M  V30 39 1 2 35
M  V30 40 1 4 36
M  V30 41 1 8 37
M  V30 42 1 9 38
M  V30 43 1 9 39
M  V30 44 1 17 40
M  V30 45 1 18 41
M  V30 46 1 20 42
M  V30 47 1 24 43
M  V30 48 1 24 44
M  V30 49 1 25 45
M  V30 50 1 25 46
M  V30 51 1 27 47
M  V30 52 1 27 48
M  V30 53 1 28 49
M  V30 54 1 28 50
M  V30 END BOND
M  V30 END CTAB
M  END
>  <Dataset>  (63) 
ChEMBL_Kinases

>  <Ligand_Instance>  (63) 
nan

>  <PDB_ID>  (63) 
nan

>  <Standardized_SMILES>  (63) 
CCn1cnc2c(NCc3nc4c(F)c(F)ccc4[nH]3)nc(N3CCOCC3)nc21

>  <Name>  (63) 
nan

>  <Pocket>  (63) 
nan

>  <ATP_Site>  (63) 
nan

>  <Peripheral>  (63) 
nan

>  <Num_H_Atoms_ProtBoundConf>  (63) 
nan

>  <Num_Resolved_Atoms>  (63) 
nan

>  <Num_Not_Resolved_Atoms>  (63) 
nan

$$$$
CHEMBL4207079
     RDKit          3D

  0  0  0  0  0  0  0  0  0  0999 V3000
M  V30 BEGIN CTAB
M  V30 COUNTS 54 59 0 0 0
M  V30 BEGIN ATOM
M  V30 1 F 5.320527 -6.164563 0.752920 0
M  V30 2 C 4.435422 -5.399224 1.470087 0
M  V30 3 C 3.698968 -5.921123 2.514542 0
M  V30 4 C 2.815267 -5.127984 3.219484 0
M  V30 5 F 2.069173 -5.611576 4.260113 0
M  V30 6 C 2.697950 -3.793551 2.838201 0
M  V30 7 C 3.442764 -3.257781 1.778806 0
M  V30 8 N 3.199964 -1.873923 1.522152 0
M  V30 9 C 3.978820 -0.839228 1.893887 0
M  V30 10 N 3.394070 0.294447 1.457350 0
M  V30 11 C 2.247544 -0.057048 0.813561 0
M  V30 12 C 1.305364 0.771750 0.192516 0
M  V30 13 N 1.446951 2.185871 0.156095 0
M  V30 14 C 0.487937 3.069711 -0.477442 0
M  V30 15 C -0.864821 2.989647 0.123409 0
M  V30 16 N -1.936274 2.226637 -0.142898 0
M  V30 17 C -2.964371 2.500531 0.669442 0
M  V30 18 C -4.249413 2.021645 0.813096 0
M  V30 19 F -4.693400 1.039854 -0.003669 0
M  V30 20 C -5.115158 2.509708 1.770354 0
M  V30 21 F -6.377699 2.052311 1.925377 0
M  V30 22 C -4.638724 3.513046 2.593633 0
M  V30 23 C -3.350878 4.046876 2.506893 0
M  V30 24 C -2.559115 3.501585 1.526393 0
M  V30 25 N -1.291819 3.764441 1.162453 0
M  V30 26 N 0.254157 0.152348 -0.373119 0
M  V30 27 C 0.098688 -1.180082 -0.354610 0
M  V30 28 N -0.995750 -1.885224 -0.940656 0
M  V30 29 C -1.120537 -3.327664 -0.869292 0
M  V30 30 C -1.688121 -3.803874 -2.186206 0
M  V30 31 O -1.293161 -2.941663 -3.197544 0
M  V30 32 C -1.974937 -1.727935 -3.114183 0
M  V30 33 C -2.084859 -1.253757 -1.659893 0
M  V30 34 N 1.035602 -1.926191 0.256524 0
M  V30 35 C 2.113704 -1.427486 0.847953 0
M  V30 36 C 4.321803 -4.076249 1.089020 0
M  V30 37 H 3.807571 -6.955278 2.789689 0
M  V30 38 H 1.982558 -3.204128 3.429339 0
M  V30 39 H 4.912662 -0.891776 2.446165 0
M  V30 40 H 2.316216 2.573367 0.630279 0
M  V30 41 H 0.851517 4.108380 -0.343118 0
M  V30 42 H 0.432353 2.818910 -1.556304 0
M  V30 43 H -5.294159 3.932580 3.371530 0
M  V30 44 H -3.003181 4.827759 3.159538 0
M  V30 45 H -0.700479 4.485789 1.628091 0
M  V30 46 H -1.742212 -3.638767 -0.011922 0
M  V30 47 H -0.128649 -3.830833 -0.734631 0
M  V30 48 H -1.302702 -4.817093 -2.388697 0
M  V30 49 H -2.808585 -3.858435 -2.131890 0
M  V30 50 H -2.987845 -1.807394 -3.550744 0
M  V30 51 H -1.451226 -0.920223 -3.662350 0
M  V30 52 H -3.022601 -1.631448 -1.184189 0
M  V30 53 H -2.003236 -0.156027 -1.598710 0
M  V30 54 H 4.867318 -3.603119 0.281874 0
M  V30 END ATOM
M  V30 BEGIN BOND
M  V30 1 1 1 2
M  V30 2 2 2 3
M  V30 3 1 3 4
M  V30 4 1 4 5
M  V30 5 2 4 6
M  V30 6 1 6 7
M  V30 7 1 7 8
M  V30 8 1 8 9
M  V30 9 2 9 10
M  V30 10 1 10 11
M  V30 11 2 11 12
M  V30 12 1 12 13
M  V30 13 1 13 14
M  V30 14 1 14 15
M  V30 15 2 15 16
M  V30 16 1 16 17
M  V30 17 2 17 18
M  V30 18 1 18 19
M  V30 19 1 18 20
M  V30 20 1 20 21
M  V30 21 2 20 22
M  V30 22 1 22 23
M  V30 23 2 23 24
M  V30 24 1 24 25
M  V30 25 1 12 26
M  V30 26 2 26 27
M  V30 27 1 27 28
M  V30 28 1 28 29
M  V30 29 1 29 30
M  V30 30 1 30 31
M  V30 31 1 31 32
M  V30 32 1 32 33
M  V30 33 1 27 34
M  V30 34 2 34 35
M  V30 35 2 7 36
M  V30 36 1 36 2
M  V30 37 1 35 8
M  V30 38 1 35 11
M  V30 39 1 25 15
M  V30 40 1 33 28
M  V30 41 1 24 17
M  V30 42 1 3 37
M  V30 43 1 6 38
M  V30 44 1 9 39
M  V30 45 1 13 40
M  V30 46 1 14 41
M  V30 47 1 14 42
M  V30 48 1 22 43
M  V30 49 1 23 44
M  V30 50 1 25 45
M  V30 51 1 29 46
M  V30 52 1 29 47
M  V30 53 1 30 48
M  V30 54 1 30 49
M  V30 55 1 32 50
M  V30 56 1 32 51
M  V30 57 1 33 52
M  V30 58 1 33 53
M  V30 59 1 36 54
M  V30 END BOND
M  V30 END CTAB
M  END
>  <Dataset>  (64) 
ChEMBL_Kinases

>  <Ligand_Instance>  (64) 
nan

>  <PDB_ID>  (64) 
nan

>  <Standardized_SMILES>  (64) 
Fc1cc(F)cc(-n2cnc3c(NCc4nc5c(F)c(F)ccc5[nH]4)nc(N4CCOCC4)nc32)c1

>  <Name>  (64) 
nan

>  <Pocket>  (64) 
nan

>  <ATP_Site>  (64) 
nan

>  <Peripheral>  (64) 
nan

>  <Num_H_Atoms_ProtBoundConf>  (64) 
nan

>  <Num_Resolved_Atoms>  (64) 
nan

>  <Num_Not_Resolved_Atoms>  (64) 
nan

$$$$
CHEMBL3298678
     RDKit          3D

  0  0  0  0  0  0  0  0  0  0999 V3000
M  V30 BEGIN CTAB
M  V30 COUNTS 56 59 0 0 0
M  V30 BEGIN ATOM
M  V30 1 O 2.279674 1.867691 -0.324726 0
M  V30 2 C 2.412651 0.685621 0.081739 0
M  V30 3 N 3.260511 0.409672 1.202846 0
M  V30 4 C 3.959331 1.484994 1.863652 0 CFG=2
M  V30 5 C 5.450252 1.393466 1.710600 0
M  V30 6 O 5.732049 1.442646 0.346256 0
M  V30 7 C 3.492392 1.626519 3.239882 0
M  V30 8 C 3.326906 0.515073 4.030568 0
M  V30 9 C 2.883677 0.618587 5.346036 0
M  V30 10 C 2.613162 1.862825 5.841177 0
M  V30 11 Cl 2.041917 2.212128 7.480062 0
M  V30 12 C 2.762651 3.000486 5.092055 0
M  V30 13 F 2.533047 4.286725 5.452229 0
M  V30 14 C 3.207719 2.889456 3.772950 0
M  V30 15 N 1.728602 -0.382695 -0.561238 0
M  V30 16 C 1.899299 -1.748923 -0.068067 0
M  V30 17 C 1.133749 -2.732984 -0.920023 0
M  V30 18 C -0.259651 -2.286924 -1.163793 0
M  V30 19 C -1.398172 -3.055736 -1.037668 0
M  V30 20 N -2.587065 -2.473990 -1.301945 0
M  V30 21 C -2.668365 -1.184708 -1.677312 0
M  V30 22 N -3.936837 -0.624656 -1.942341 0
M  V30 23 C -5.102358 -1.501742 -1.789077 0
M  V30 24 C -5.061136 -2.687177 -2.684626 0
M  V30 25 C -5.413812 -4.003907 -2.082979 0
M  V30 26 O -5.226698 -4.092912 -0.719471 0
M  V30 27 C -6.033431 -3.130757 -0.113876 0
M  V30 28 C -5.343552 -1.804938 -0.348200 0
M  V30 29 N -1.545724 -0.415594 -1.804785 0
M  V30 30 C -0.322250 -0.966320 -1.546588 0
M  V30 31 C 0.872810 -0.096274 -1.698455 0
M  V30 32 H 3.393296 -0.559148 1.565544 0
M  V30 33 H 3.667393 2.422466 1.309623 0
M  V30 34 H 5.902798 2.267886 2.203385 0
M  V30 35 H 5.879495 0.471696 2.132251 0
M  V30 36 H 5.831176 0.513156 0.035997 0
M  V30 37 H 3.522618 -0.509638 3.704060 0
M  V30 38 H 2.721034 -0.182601 6.048125 0
M  V30 39 H 3.357206 3.728538 3.101765 0
M  V30 40 H 2.966635 -2.051067 -0.089328 0
M  V30 41 H 1.550146 -1.772583 0.984097 0
M  V30 42 H 1.176017 -3.714620 -0.404964 0
M  V30 43 H 1.617199 -2.863816 -1.909179 0
M  V30 44 H -1.243700 -4.089612 -0.729103 0
M  V30 45 H -4.013761 0.392098 -2.238834 0
M  V30 46 H -5.986309 -0.873678 -2.104104 0
M  V30 47 H -4.051014 -2.725948 -3.156952 0
M  V30 48 H -5.747864 -2.569947 -3.575747 0
M  V30 49 H -6.501590 -4.251046 -2.249500 0
M  V30 50 H -4.851500 -4.824523 -2.580026 0
M  V30 51 H -7.050732 -3.132930 -0.537099 0
M  V30 52 H -6.030900 -3.335236 0.972848 0
M  V30 53 H -4.353948 -1.864034 0.174085 0
M  V30 54 H -5.875568 -0.975450 0.186571 0
M  V30 55 H 0.618312 0.963788 -1.761526 0
M  V30 56 H 1.435720 -0.375263 -2.634026 0
M  V30 END ATOM
M  V30 BEGIN BOND
M  V30 1 2 1 2
M  V30 2 1 2 3
M  V30 3 1 3 4
M  V30 4 1 4 5
M  V30 5 1 5 6
M  V30 6 1 4 7
M  V30 7 2 7 8
M  V30 8 1 8 9
M  V30 9 2 9 10
M  V30 10 1 10 11
M  V30 11 1 10 12
M  V30 12 1 12 13
M  V30 13 2 12 14
M  V30 14 1 2 15
M  V30 15 1 15 16
M  V30 16 1 16 17
M  V30 17 1 17 18
M  V30 18 2 18 19
M  V30 19 1 19 20
M  V30 20 2 20 21
M  V30 21 1 21 22
M  V30 22 1 22 23
M  V30 23 1 23 24
M  V30 24 1 24 25
M  V30 25 1 25 26
M  V30 26 1 26 27
M  V30 27 1 27 28
M  V30 28 1 21 29
M  V30 29 2 29 30
M  V30 30 1 30 31
M  V30 31 1 14 7
M  V30 32 1 31 15
M  V30 33 1 30 18
M  V30 34 1 28 23
M  V30 35 1 3 32
M  V30 36 1 4 33 CFG=3
M  V30 37 1 5 34
M  V30 38 1 5 35
M  V30 39 1 6 36
M  V30 40 1 8 37
M  V30 41 1 9 38
M  V30 42 1 14 39
M  V30 43 1 16 40
M  V30 44 1 16 41
M  V30 45 1 17 42
M  V30 46 1 17 43
M  V30 47 1 19 44
M  V30 48 1 22 45
M  V30 49 1 23 46
M  V30 50 1 24 47
M  V30 51 1 24 48
M  V30 52 1 25 49
M  V30 53 1 25 50
M  V30 54 1 27 51
M  V30 55 1 27 52
M  V30 56 1 28 53
M  V30 57 1 28 54
M  V30 58 1 31 55
M  V30 59 1 31 56
M  V30 END BOND
M  V30 END CTAB
M  END
>  <Dataset>  (65) 
ChEMBL_Kinases

>  <Ligand_Instance>  (65) 
nan

>  <PDB_ID>  (65) 
nan

>  <Standardized_SMILES>  (65) 
O=C(N[C@H](CO)c1ccc(Cl)c(F)c1)N1CCc2cnc(NC3CCOCC3)nc2C1

>  <Name>  (65) 
nan

>  <Pocket>  (65) 
nan

>  <ATP_Site>  (65) 
nan

>  <Peripheral>  (65) 
nan

>  <Num_H_Atoms_ProtBoundConf>  (65) 
nan

>  <Num_Resolved_Atoms>  (65) 
nan

>  <Num_Not_Resolved_Atoms>  (65) 
nan

$$$$
CHEMBL4206998
     RDKit          3D

  0  0  0  0  0  0  0  0  0  0999 V3000
M  V30 BEGIN CTAB
M  V30 COUNTS 57 62 0 0 0
M  V30 BEGIN ATOM
M  V30 1 F 1.009544 -1.712014 7.139369 0
M  V30 2 C 1.832734 -1.535135 6.057969 0
M  V30 3 C 2.994439 -2.263974 5.879031 0
M  V30 4 C 3.780569 -2.042012 4.773469 0
M  V30 5 C 3.409886 -1.094137 3.845789 0
M  V30 6 N 3.963189 -0.670247 2.699779 0
M  V30 7 C 3.212015 0.309474 2.115404 0
M  V30 8 C 3.645672 0.929693 0.825011 0
M  V30 9 N 3.105958 0.185442 -0.299497 0
M  V30 10 C 1.721333 0.021568 -0.563142 0
M  V30 11 N 0.781796 0.565994 0.227791 0
M  V30 12 C -0.537205 0.425016 -0.010021 0
M  V30 13 N -1.561028 0.989031 0.804055 0
M  V30 14 C -2.974312 0.828023 0.514918 0
M  V30 15 C -3.722466 1.108482 1.801321 0
M  V30 16 O -3.138565 0.515523 2.897228 0
M  V30 17 C -1.853597 0.920967 3.145912 0
M  V30 18 C -1.318120 1.778506 1.998821 0
M  V30 19 N -0.947549 -0.285435 -1.076382 0
M  V30 20 C -0.080114 -0.866081 -1.922521 0
M  V30 21 C 1.264668 -0.709807 -1.661701 0
M  V30 22 N 1.955201 -1.347260 -2.595575 0
M  V30 23 C 1.075773 -1.919096 -3.464712 0
M  V30 24 N -0.165414 -1.608323 -3.028455 0
M  V30 25 C -1.427082 -1.983202 -3.611691 0
M  V30 26 C -1.960975 -1.096435 -4.531739 0
M  V30 27 C -3.177961 -1.340505 -5.169969 0
M  V30 28 C -3.863498 -2.508624 -4.865736 0
M  V30 29 C -3.321093 -3.391325 -3.942806 0
M  V30 30 C -2.119119 -3.141980 -3.317763 0
M  V30 31 C -1.515190 -4.066976 -2.326723 0
M  V30 32 F -1.389827 -3.354379 -1.131669 0
M  V30 33 F -2.402682 -5.111635 -2.044705 0
M  V30 34 F -0.316141 -4.537328 -2.777210 0
M  V30 35 N 2.158390 0.500207 2.924602 0
M  V30 36 C 2.254251 -0.333654 3.974836 0
M  V30 37 C 1.505426 -0.602709 5.107386 0
M  V30 38 F 0.376769 0.104707 5.283590 0
M  V30 39 H 3.238574 -2.995683 6.638087 0
M  V30 40 H 4.683811 -2.622624 4.653526 0
M  V30 41 H 4.864046 -1.074869 2.340151 0
M  V30 42 H 4.744964 0.925852 0.758560 0
M  V30 43 H 3.285069 1.986553 0.817424 0
M  V30 44 H 3.773345 -0.277200 -0.985510 0
M  V30 45 H -3.221460 -0.161823 0.079297 0
M  V30 46 H -3.217332 1.654302 -0.203955 0
M  V30 47 H -3.973696 2.178858 1.928783 0
M  V30 48 H -4.717019 0.587516 1.677279 0
M  V30 49 H -1.693388 1.385700 4.117215 0
M  V30 50 H -1.218873 -0.003462 3.108376 0
M  V30 51 H -0.258592 2.011640 2.131350 0
M  V30 52 H -1.966190 2.686779 1.991492 0
M  V30 53 H 1.201409 -2.519704 -4.355711 0
M  V30 54 H -1.467257 -0.160680 -4.811489 0
M  V30 55 H -3.607792 -0.671996 -5.881431 0
M  V30 56 H -4.823439 -2.771046 -5.323926 0
M  V30 57 H -3.819844 -4.332225 -3.662694 0
M  V30 END ATOM
M  V30 BEGIN BOND
M  V30 1 1 1 2
M  V30 2 2 2 3
M  V30 3 1 3 4
M  V30 4 2 4 5
M  V30 5 1 5 6
M  V30 6 1 6 7
M  V30 7 1 7 8
M  V30 8 1 8 9
M  V30 9 1 9 10
M  V30 10 2 10 11
M  V30 11 1 11 12
M  V30 12 1 12 13
M  V30 13 1 13 14
M  V30 14 1 14 15
M  V30 15 1 15 16
M  V30 16 1 16 17
M  V30 17 1 17 18
M  V30 18 2 12 19
M  V30 19 1 19 20
M  V30 20 2 20 21
M  V30 21 1 21 22
M  V30 22 2 22 23
M  V30 23 1 23 24
M  V30 24 1 24 25
M  V30 25 2 25 26
M  V30 26 1 26 27
M  V30 27 2 27 28
M  V30 28 1 28 29
M  V30 29 2 29 30
M  V30 30 1 30 31
M  V30 31 1 31 32
M  V30 32 1 31 33
M  V30 33 1 31 34
M  V30 34 2 7 35
M  V30 35 1 35 36
M  V30 36 2 36 37
M  V30 37 1 37 38
M  V30 38 1 37 2
M  V30 39 1 36 5
M  V30 40 1 21 10
M  V30 41 1 30 25
M  V30 42 1 18 13
M  V30 43 1 24 20
M  V30 44 1 3 39
M  V30 45 1 4 40
M  V30 46 1 6 41
M  V30 47 1 8 42
M  V30 48 1 8 43
M  V30 49 1 9 44
M  V30 50 1 14 45
M  V30 51 1 14 46
M  V30 52 1 15 47
M  V30 53 1 15 48
M  V30 54 1 17 49
M  V30 55 1 17 50
M  V30 56 1 18 51
M  V30 57 1 18 52
M  V30 58 1 23 53
M  V30 59 1 26 54
M  V30 60 1 27 55
M  V30 61 1 28 56
M  V30 62 1 29 57
M  V30 END BOND
M  V30 END CTAB
M  END
>  <Dataset>  (66) 
ChEMBL_Kinases

>  <Ligand_Instance>  (66) 
nan

>  <PDB_ID>  (66) 
nan

>  <Standardized_SMILES>  (66) 
Fc1ccc2[nH]c(CNc3nc(N4CCOCC4)nc4c3ncn4-c3ccccc3C(F)(F)F)nc2c1F

>  <Name>  (66) 
nan

>  <Pocket>  (66) 
nan

>  <ATP_Site>  (66) 
nan

>  <Peripheral>  (66) 
nan

>  <Num_H_Atoms_ProtBoundConf>  (66) 
nan

>  <Num_Resolved_Atoms>  (66) 
nan

>  <Num_Not_Resolved_Atoms>  (66) 
nan

$$$$
CHEMBL3298817
     RDKit          3D

  0  0  0  0  0  0  0  0  0  0999 V3000
M  V30 BEGIN CTAB
M  V30 COUNTS 55 58 0 0 0
M  V30 BEGIN ATOM
M  V30 1 O 1.366532 -0.239308 -1.276683 0
M  V30 2 C 1.725753 -1.411000 -0.996265 0
M  V30 3 C 2.524677 -2.001008 0.053582 0
M  V30 4 C 3.043819 -1.207302 1.150716 0
M  V30 5 C 3.867351 -2.171041 2.032489 0
M  V30 6 N 4.601398 -1.424996 3.024502 0
M  V30 7 C 3.745551 -0.727929 3.957444 0
M  V30 8 O 4.060133 -0.490955 5.162599 0
M  V30 9 C 2.455881 -0.315663 3.353952 0
M  V30 10 C 1.431591 0.321487 4.016482 0
M  V30 11 C 0.412079 0.477738 3.103821 0
M  V30 12 C -0.847792 1.120715 3.453674 0
M  V30 13 C -1.347169 1.012481 4.736236 0
M  V30 14 C -2.544588 1.648603 4.991908 0
M  V30 15 C -3.227252 2.366288 4.020008 0
M  V30 16 C -2.682567 2.444585 2.746250 0
M  V30 17 C -3.400711 3.214433 1.677205 0
M  V30 18 F -2.532651 4.180211 1.209712 0
M  V30 19 F -3.659277 2.339753 0.626572 0
M  V30 20 F -4.560044 3.748023 2.199096 0
M  V30 21 C -1.488224 1.823007 2.450559 0
M  V30 22 C 0.893899 -0.080671 1.939441 0
M  V30 23 N 2.139208 -0.571633 2.062809 0
M  V30 24 N 1.208905 -2.330089 -1.950382 0
M  V30 25 C 0.381963 -1.982632 -3.083606 0
M  V30 26 C -0.900720 -1.353384 -2.645250 0
M  V30 27 C -1.666601 -2.321043 -1.762148 0
M  V30 28 C -2.441458 -3.341859 -2.530821 0
M  V30 29 O -2.032812 -3.495900 -3.835892 0
M  V30 30 C -2.131320 -2.328842 -4.584460 0
M  V30 31 C -1.803397 -1.081743 -3.835536 0
M  V30 32 H 3.399181 -2.495993 -0.464458 0
M  V30 33 H 1.951497 -2.903951 0.430328 0
M  V30 34 H 3.776582 -0.448531 0.806117 0
M  V30 35 H 3.151539 -2.837352 2.539024 0
M  V30 36 H 4.561959 -2.755350 1.388582 0
M  V30 37 H 5.642050 -1.316737 3.170154 0
M  V30 38 H 1.418599 0.646266 5.068035 0
M  V30 39 H -0.788445 0.443998 5.471803 0
M  V30 40 H -2.957669 1.578897 5.990702 0
M  V30 41 H -4.158443 2.838636 4.289423 0
M  V30 42 H -1.099784 1.912094 1.437062 0
M  V30 43 H 0.200105 -0.043059 1.111626 0
M  V30 44 H 1.416340 -3.373131 -1.872158 0
M  V30 45 H 0.232719 -2.837318 -3.773396 0
M  V30 46 H 0.966445 -1.240432 -3.710025 0
M  V30 47 H -0.733921 -0.381982 -2.153943 0
M  V30 48 H -0.975256 -2.759737 -0.994809 0
M  V30 49 H -2.378269 -1.699001 -1.166563 0
M  V30 50 H -2.263844 -4.320747 -2.029268 0
M  V30 51 H -3.555418 -3.191431 -2.436318 0
M  V30 52 H -1.402468 -2.441763 -5.414193 0
M  V30 53 H -3.132909 -2.221899 -5.067948 0
M  V30 54 H -2.681995 -0.516665 -3.488222 0
M  V30 55 H -1.235669 -0.396075 -4.492321 0
M  V30 END ATOM
M  V30 BEGIN BOND
M  V30 1 2 1 2
M  V30 2 1 2 3
M  V30 3 1 3 4
M  V30 4 1 4 5
M  V30 5 1 5 6
M  V30 6 1 6 7
M  V30 7 2 7 8
M  V30 8 1 7 9
M  V30 9 2 9 10
M  V30 10 1 10 11
M  V30 11 1 11 12
M  V30 12 2 12 13
M  V30 13 1 13 14
M  V30 14 2 14 15
M  V30 15 1 15 16
M  V30 16 1 16 17
M  V30 17 1 17 18
M  V30 18 1 17 19
M  V30 19 1 17 20
M  V30 20 2 16 21
M  V30 21 2 11 22
M  V30 22 1 22 23
M  V30 23 1 2 24
M  V30 24 1 24 25
M  V30 25 1 25 26
M  V30 26 1 26 27
M  V30 27 1 27 28
M  V30 28 1 28 29
M  V30 29 1 29 30
M  V30 30 1 30 31
M  V30 31 1 23 4
M  V30 32 1 31 26
M  V30 33 1 23 9
M  V30 34 1 21 12
M  V30 35 1 3 32
M  V30 36 1 3 33
M  V30 37 1 4 34
M  V30 38 1 5 35
M  V30 39 1 5 36
M  V30 40 1 6 37
M  V30 41 1 10 38
M  V30 42 1 13 39
M  V30 43 1 14 40
M  V30 44 1 15 41
M  V30 45 1 21 42
M  V30 46 1 22 43
M  V30 47 1 24 44
M  V30 48 1 25 45
M  V30 49 1 25 46
M  V30 50 1 26 47
M  V30 51 1 27 48
M  V30 52 1 27 49
M  V30 53 1 28 50
M  V30 54 1 28 51
M  V30 55 1 30 52
M  V30 56 1 30 53
M  V30 57 1 31 54
M  V30 58 1 31 55
M  V30 END BOND
M  V30 END CTAB
M  END
>  <Dataset>  (67) 
ChEMBL_Kinases

>  <Ligand_Instance>  (67) 
nan

>  <PDB_ID>  (67) 
nan

>  <Standardized_SMILES>  (67) 
O=C(CC1CNC(=O)c2cc(-c3cccc(C(F)(F)F)c3)cn21)NCC1CCOCC1

>  <Name>  (67) 
nan

>  <Pocket>  (67) 
nan

>  <ATP_Site>  (67) 
nan

>  <Peripheral>  (67) 
nan

>  <Num_H_Atoms_ProtBoundConf>  (67) 
nan

>  <Num_Resolved_Atoms>  (67) 
nan

>  <Num_Not_Resolved_Atoms>  (67) 
nan

$$$$
CHEMBL4206960
     RDKit          3D

  0  0  0  0  0  0  0  0  0  0999 V3000
M  V30 BEGIN CTAB
M  V30 COUNTS 84 90 0 0 0
M  V30 BEGIN ATOM
M  V30 1 C -2.342201 -4.370304 -2.880444 0
M  V30 2 O -2.850034 -3.046860 -2.791471 0
M  V30 3 C -4.183735 -2.834690 -2.399459 0
M  V30 4 C -4.629840 -1.533126 -2.324971 0
M  V30 5 C -5.936003 -1.344105 -1.938937 0
M  V30 6 C -6.641729 -0.071987 -1.770154 0
M  V30 7 N -7.875298 0.279032 -2.203238 0
M  V30 8 N -8.139424 1.521835 -1.832270 0
M  V30 9 C -7.093219 2.025430 -1.146355 0
M  V30 10 C -6.902035 3.273242 -0.556816 0
M  V30 11 C -5.718912 3.528876 0.099078 0
M  V30 12 C -4.737797 2.565987 0.172224 0
M  V30 13 N -3.458196 2.599247 0.788112 0
M  V30 14 C -3.094314 2.234030 2.089709 0
M  V30 15 O -3.928027 1.793784 2.944502 0
M  V30 16 C -1.633997 2.402870 2.399354 0 CFG=2
M  V30 17 S -1.095307 4.096694 2.441147 0
M  V30 18 C 0.667825 4.184068 2.811748 0
M  V30 19 C -0.898129 1.545346 1.359329 0
M  V30 20 C -1.455908 0.212740 1.811948 0
M  V30 21 N -1.088867 0.221094 3.207648 0
M  V30 22 C 0.285566 -0.209986 3.395523 0
M  V30 23 C 0.459403 -1.642625 3.061280 0
M  V30 24 O -0.214204 -2.634069 2.657982 0
M  V30 25 N 1.828452 -2.036384 3.253026 0
M  V30 26 C 2.222387 -3.425734 2.959932 0
M  V30 27 C 2.972189 -3.279141 1.657353 0
M  V30 28 C 3.942600 -2.383123 1.721538 0
M  V30 29 C 4.698710 -2.197334 0.497772 0
M  V30 30 C 4.463510 -2.876670 -0.669168 0
M  V30 31 C 5.169587 -2.713927 -1.847163 0
M  V30 32 C 6.211088 -1.789284 -1.878402 0
M  V30 33 C 6.963672 -1.602563 -3.107196 0
M  V30 34 N 6.712814 -2.286446 -4.229994 0
M  V30 35 C 7.472779 -2.036998 -5.330941 0
M  V30 36 C 8.503310 -1.105265 -5.358374 0
M  V30 37 C 8.716840 -0.424204 -4.159132 0
M  V30 38 N 7.946236 -0.697675 -3.092762 0
M  V30 39 C 6.485272 -1.079258 -0.720837 0
M  V30 40 C 5.734329 -1.302434 0.407971 0
M  V30 41 C 4.223660 -1.641248 2.970689 0
M  V30 42 C 2.969162 -1.281277 3.705354 0
M  V30 43 C -1.270185 1.599878 3.643178 0
M  V30 44 C -4.944808 1.317667 -0.424845 0
M  V30 45 C -6.130238 1.030105 -1.094672 0
M  V30 46 C -6.740229 -2.426534 -1.646251 0
M  V30 47 C -6.234825 -3.712477 -1.739187 0
M  V30 48 N -4.960950 -3.888187 -2.115937 0
M  V30 49 H -2.760463 -4.929363 -3.733342 0
M  V30 50 H -1.243930 -4.334862 -2.979977 0
M  V30 51 H -2.542824 -4.906124 -1.929173 0
M  V30 52 H -4.072218 -0.655743 -2.535143 0
M  V30 53 H -9.018218 2.087460 -2.012438 0
M  V30 54 H -7.633836 4.070504 -0.580920 0
M  V30 55 H -5.435954 4.448047 0.600191 0
M  V30 56 H -2.880697 2.963180 0.022249 0
M  V30 57 H 1.119691 3.236359 2.409315 0
M  V30 58 H 1.171676 4.984700 2.202506 0
M  V30 59 H 0.876894 4.243348 3.883091 0
M  V30 60 H 0.170626 1.663370 1.520957 0
M  V30 61 H -1.232052 1.814983 0.337736 0
M  V30 62 H -2.568629 0.288069 1.795884 0
M  V30 63 H -1.071761 -0.645475 1.259267 0
M  V30 64 H 1.016036 0.369275 2.830842 0
M  V30 65 H 0.515909 -0.013674 4.481953 0
M  V30 66 H 2.838964 -3.799203 3.772241 0
M  V30 67 H 1.311560 -4.025341 2.851486 0
M  V30 68 H 2.625471 -3.911728 0.859796 0
M  V30 69 H 3.694456 -3.603114 -0.755585 0
M  V30 70 H 4.968343 -3.261208 -2.754489 0
M  V30 71 H 7.191847 -2.639989 -6.186271 0
M  V30 72 H 9.061041 -0.962342 -6.270705 0
M  V30 73 H 9.514437 0.308142 -4.157316 0
M  V30 74 H 7.302858 -0.377448 -0.812955 0
M  V30 75 H 6.072788 -0.679262 1.215103 0
M  V30 76 H 4.854869 -0.749431 2.767803 0
M  V30 77 H 4.790550 -2.380327 3.614201 0
M  V30 78 H 3.105342 -1.577691 4.787947 0
M  V30 79 H 2.799599 -0.180375 3.649418 0
M  V30 80 H -0.373314 2.037054 4.099923 0
M  V30 81 H -2.153551 1.618118 4.307227 0
M  V30 82 H -4.252784 0.470016 -0.437849 0
M  V30 83 H -7.777469 -2.404487 -1.335102 0
M  V30 84 H -6.769969 -4.636608 -1.534956 0
M  V30 END ATOM
M  V30 BEGIN BOND
M  V30 1 1 1 2
M  V30 2 1 2 3
M  V30 3 2 3 4
M  V30 4 1 4 5
M  V30 5 1 5 6
M  V30 6 2 6 7
M  V30 7 1 7 8
M  V30 8 1 8 9
M  V30 9 2 9 10
M  V30 10 1 10 11
M  V30 11 2 11 12
M  V30 12 1 12 13
M  V30 13 1 13 14
M  V30 14 2 14 15
M  V30 15 1 14 16
M  V30 16 1 16 17 CFG=1
M  V30 17 1 17 18
M  V30 18 1 16 19
M  V30 19 1 19 20
M  V30 20 1 20 21
M  V30 21 1 21 22
M  V30 22 1 22 23
M  V30 23 2 23 24
M  V30 24 1 23 25
M  V30 25 1 25 26
M  V30 26 1 26 27
M  V30 27 2 27 28
M  V30 28 1 28 29
M  V30 29 2 29 30
M  V30 30 1 30 31
M  V30 31 2 31 32
M  V30 32 1 32 33
M  V30 33 2 33 34
M  V30 34 1 34 35
M  V30 35 2 35 36
M  V30 36 1 36 37
M  V30 37 2 37 38
M  V30 38 1 32 39
M  V30 39 2 39 40
M  V30 40 1 28 41
M  V30 41 1 41 42
M  V30 42 1 21 43
M  V30 43 1 12 44
M  V30 44 2 44 45
M  V30 45 2 5 46
M  V30 46 1 46 47
M  V30 47 2 47 48
M  V30 48 1 48 3
M  V30 49 1 45 6
M  V30 50 1 45 9
M  V30 51 1 43 16
M  V30 52 1 42 25
M  V30 53 1 40 29
M  V30 54 1 38 33
M  V30 55 1 1 49
M  V30 56 1 1 50
M  V30 57 1 1 51
M  V30 58 1 4 52
M  V30 59 1 8 53
M  V30 60 1 10 54
M  V30 61 1 11 55
M  V30 62 1 13 56
M  V30 63 1 18 57
M  V30 64 1 18 58
M  V30 65 1 18 59
M  V30 66 1 19 60
M  V30 67 1 19 61
M  V30 68 1 20 62
M  V30 69 1 20 63
M  V30 70 1 22 64
M  V30 71 1 22 65
M  V30 72 1 26 66
M  V30 73 1 26 67
M  V30 74 1 27 68
M  V30 75 1 30 69
M  V30 76 1 31 70
M  V30 77 1 35 71
M  V30 78 1 36 72
M  V30 79 1 37 73
M  V30 80 1 39 74
M  V30 81 1 40 75
M  V30 82 1 41 76
M  V30 83 1 41 77
M  V30 84 1 42 78
M  V30 85 1 42 79
M  V30 86 1 43 80
M  V30 87 1 43 81
M  V30 88 1 44 82
M  V30 89 1 46 83
M  V30 90 1 47 84
M  V30 END BOND
M  V30 END CTAB
M  END
>  <Dataset>  (68) 
ChEMBL_Kinases

>  <Ligand_Instance>  (68) 
nan

>  <PDB_ID>  (68) 
nan

>  <Standardized_SMILES>  (68) 
COc1cc(-c2n[nH]c3ccc(NC(=O)[C@]4(SC)CCN(CC(=O)N5CC=C(c6ccc(-c7ncccn7)cc6)CC5)C4)cc23)ccn1

>  <Name>  (68) 
nan

>  <Pocket>  (68) 
nan

>  <ATP_Site>  (68) 
nan

>  <Peripheral>  (68) 
nan

>  <Num_H_Atoms_ProtBoundConf>  (68) 
nan

>  <Num_Resolved_Atoms>  (68) 
nan

>  <Num_Not_Resolved_Atoms>  (68) 
nan

$$$$
CHEMBL3298819
     RDKit          3D

  0  0  0  0  0  0  0  0  0  0999 V3000
M  V30 BEGIN CTAB
M  V30 COUNTS 54 57 0 0 0
M  V30 BEGIN ATOM
M  V30 1 O -1.915588 -1.980765 1.616888 0
M  V30 2 C -0.744125 -1.951132 1.185786 0
M  V30 3 C 0.146312 -0.776528 1.197774 0
M  V30 4 C -0.410174 0.417856 1.891013 0
M  V30 5 C -0.675399 0.084949 3.336662 0
M  V30 6 N 0.598020 -0.412686 3.885022 0
M  V30 7 C 1.633177 0.593747 3.923103 0
M  V30 8 O 2.525823 0.643271 4.820526 0
M  V30 9 C 1.601707 1.592894 2.832655 0
M  V30 10 C 2.379440 2.684728 2.525504 0
M  V30 11 C 1.882066 3.274691 1.381599 0
M  V30 12 C 2.372416 4.454419 0.676984 0
M  V30 13 C 3.738691 4.480671 0.511096 0
M  V30 14 C 4.342239 5.538452 -0.138846 0
M  V30 15 C 3.554229 6.571973 -0.621194 0
M  V30 16 C 2.166178 6.547963 -0.454128 0
M  V30 17 C 1.580512 5.485279 0.196534 0
M  V30 18 F 0.247134 5.357622 0.414669 0
M  V30 19 C 0.797734 2.493051 1.038940 0
M  V30 20 N 0.623954 1.468519 1.919241 0
M  V30 21 N -0.334046 -3.190178 0.667186 0
M  V30 22 C -0.606016 -4.545259 0.360623 0
M  V30 23 C -1.644958 -4.871619 -0.634459 0
M  V30 24 C -3.056419 -4.469900 -0.395961 0
M  V30 25 C -3.659548 -4.232328 -1.800643 0
M  V30 26 C -3.102815 -5.281637 -2.704146 0
M  V30 27 C -2.773321 -6.566465 -1.975876 0
M  V30 28 C -1.681269 -6.370303 -0.947718 0
M  V30 29 H 1.103636 -1.137426 1.675666 0
M  V30 30 H 0.392814 -0.514978 0.130251 0
M  V30 31 H -1.317601 0.820353 1.384474 0
M  V30 32 H -1.456211 -0.689929 3.399476 0
M  V30 33 H -1.012012 0.999728 3.879263 0
M  V30 34 H 0.876616 -1.355960 4.247720 0
M  V30 35 H 3.233599 3.016417 3.090695 0
M  V30 36 H 4.430896 3.719150 0.854136 0
M  V30 37 H 5.419004 5.603884 -0.294245 0
M  V30 38 H 4.019056 7.416396 -1.138151 0
M  V30 39 H 1.530077 7.325502 -0.812215 0
M  V30 40 H 0.174461 2.689014 0.170937 0
M  V30 41 H 0.684430 -3.036596 0.335562 0
M  V30 42 H -0.945645 -5.087901 1.329873 0
M  V30 43 H 0.317053 -5.098233 0.075935 0
M  V30 44 H -1.277780 -4.429206 -1.628194 0
M  V30 45 H -3.651208 -5.368730 -0.019955 0
M  V30 46 H -3.265247 -3.643520 0.259174 0
M  V30 47 H -3.245186 -3.237307 -2.119119 0
M  V30 48 H -4.745915 -4.175040 -1.750432 0
M  V30 49 H -2.259118 -4.945834 -3.339342 0
M  V30 50 H -3.902802 -5.572578 -3.444636 0
M  V30 51 H -3.697884 -6.984525 -1.542761 0
M  V30 52 H -2.370300 -7.253935 -2.775828 0
M  V30 53 H -2.026356 -6.871763 -0.015823 0
M  V30 54 H -0.703373 -6.751718 -1.252592 0
M  V30 END ATOM
M  V30 BEGIN BOND
M  V30 1 2 1 2
M  V30 2 1 2 3
M  V30 3 1 3 4
M  V30 4 1 4 5
M  V30 5 1 5 6
M  V30 6 1 6 7
M  V30 7 2 7 8
M  V30 8 1 7 9
M  V30 9 2 9 10
M  V30 10 1 10 11
M  V30 11 1 11 12
M  V30 12 2 12 13
M  V30 13 1 13 14
M  V30 14 2 14 15
M  V30 15 1 15 16
M  V30 16 2 16 17
M  V30 17 1 17 18
M  V30 18 2 11 19
M  V30 19 1 19 20
M  V30 20 1 2 21
M  V30 21 1 21 22
M  V30 22 1 22 23
M  V30 23 1 23 24
M  V30 24 1 24 25
M  V30 25 1 25 26
M  V30 26 1 26 27
M  V30 27 1 27 28
M  V30 28 1 20 4
M  V30 29 1 28 23
M  V30 30 1 20 9
M  V30 31 1 17 12
M  V30 32 1 3 29
M  V30 33 1 3 30
M  V30 34 1 4 31
M  V30 35 1 5 32
M  V30 36 1 5 33
M  V30 37 1 6 34
M  V30 38 1 10 35
M  V30 39 1 13 36
M  V30 40 1 14 37
M  V30 41 1 15 38
M  V30 42 1 16 39
M  V30 43 1 19 40
M  V30 44 1 21 41
M  V30 45 1 22 42
M  V30 46 1 22 43
M  V30 47 1 23 44
M  V30 48 1 24 45
M  V30 49 1 24 46
M  V30 50 1 25 47
M  V30 51 1 25 48
M  V30 52 1 26 49
M  V30 53 1 26 50
M  V30 54 1 27 51
M  V30 55 1 27 52
M  V30 56 1 28 53
M  V30 57 1 28 54
M  V30 END BOND
M  V30 END CTAB
M  END
>  <Dataset>  (69) 
ChEMBL_Kinases

>  <Ligand_Instance>  (69) 
nan

>  <PDB_ID>  (69) 
nan

>  <Standardized_SMILES>  (69) 
O=C(CC1CNC(=O)c2cc(-c3ccccc3F)cn21)NCC1CCCCC1

>  <Name>  (69) 
nan

>  <Pocket>  (69) 
nan

>  <ATP_Site>  (69) 
nan

>  <Peripheral>  (69) 
nan

>  <Num_H_Atoms_ProtBoundConf>  (69) 
nan

>  <Num_Resolved_Atoms>  (69) 
nan

>  <Num_Not_Resolved_Atoms>  (69) 
nan

$$$$
CHEMBL3298820
     RDKit          3D

  0  0  0  0  0  0  0  0  0  0999 V3000
M  V30 BEGIN CTAB
M  V30 COUNTS 54 57 0 0 0
M  V30 BEGIN ATOM
M  V30 1 O -2.235530 -0.997406 -0.640078 0
M  V30 2 C -1.848092 -0.992857 0.540581 0
M  V30 3 C -0.840834 -0.030891 0.996370 0
M  V30 4 C -0.380330 0.897140 -0.112253 0
M  V30 5 C -1.515048 1.664242 -0.638656 0
M  V30 6 N -1.239140 2.997186 -1.114751 0
M  V30 7 C -0.105082 3.689121 -0.666657 0
M  V30 8 O 0.045073 4.920109 -0.895826 0
M  V30 9 C 0.918756 2.977507 0.076219 0
M  V30 10 C 2.105464 3.416947 0.618062 0
M  V30 11 C 2.654210 2.293117 1.204412 0
M  V30 12 C 3.952793 2.383554 1.896162 0
M  V30 13 C 4.897457 3.281689 1.445439 0
M  V30 14 C 6.128203 3.364781 2.105966 0
M  V30 15 C 6.365145 2.538665 3.199634 0
M  V30 16 C 5.400920 1.631577 3.648534 0
M  V30 17 F 5.663754 0.840881 4.717717 0
M  V30 18 C 4.188757 1.563132 2.982658 0
M  V30 19 C 1.803030 1.224875 1.006487 0
M  V30 20 N 0.750426 1.688964 0.309738 0
M  V30 21 N -2.392768 -1.934067 1.453311 0
M  V30 22 C -3.385342 -2.906329 1.072847 0
M  V30 23 C -2.903741 -3.844087 -0.021729 0
M  V30 24 C -3.997614 -4.848477 -0.379614 0
M  V30 25 C -3.701484 -5.316048 -1.794340 0
M  V30 26 C -2.203136 -5.448508 -1.898585 0
M  V30 27 C -1.555061 -5.787962 -0.563946 0
M  V30 28 C -1.718690 -4.656713 0.438550 0
M  V30 29 H -1.122090 0.511071 1.911166 0
M  V30 30 H 0.067673 -0.631086 1.296280 0
M  V30 31 H 0.036162 0.236051 -0.925756 0
M  V30 32 H -2.351536 1.765484 0.111210 0
M  V30 33 H -2.009439 1.150920 -1.516831 0
M  V30 34 H -1.855885 3.473260 -1.786445 0
M  V30 35 H 2.499811 4.431239 0.578278 0
M  V30 36 H 4.737612 3.937876 0.594258 0
M  V30 37 H 6.895339 4.046279 1.795266 0
M  V30 38 H 7.295312 2.545441 3.762604 0
M  V30 39 H 3.460939 0.846152 3.358815 0
M  V30 40 H 2.125086 0.281931 1.422500 0
M  V30 41 H -2.033400 -1.894050 2.449807 0
M  V30 42 H -4.328205 -2.406520 0.794826 0
M  V30 43 H -3.595409 -3.560521 1.946175 0
M  V30 44 H -2.665132 -3.269962 -0.938181 0
M  V30 45 H -3.984664 -5.732799 0.267511 0
M  V30 46 H -5.008060 -4.389182 -0.335748 0
M  V30 47 H -4.007321 -4.494947 -2.483200 0
M  V30 48 H -4.245841 -6.264271 -1.982328 0
M  V30 49 H -1.734822 -4.537353 -2.294494 0
M  V30 50 H -1.912849 -6.283681 -2.577120 0
M  V30 51 H -1.946003 -6.758309 -0.188672 0
M  V30 52 H -0.469284 -5.959278 -0.806425 0
M  V30 53 H -2.018027 -5.110895 1.423772 0
M  V30 54 H -0.791105 -4.066446 0.545181 0
M  V30 END ATOM
M  V30 BEGIN BOND
M  V30 1 2 1 2
M  V30 2 1 2 3
M  V30 3 1 3 4
M  V30 4 1 4 5
M  V30 5 1 5 6
M  V30 6 1 6 7
M  V30 7 2 7 8
M  V30 8 1 7 9
M  V30 9 2 9 10
M  V30 10 1 10 11
M  V30 11 1 11 12
M  V30 12 2 12 13
M  V30 13 1 13 14
M  V30 14 2 14 15
M  V30 15 1 15 16
M  V30 16 1 16 17
M  V30 17 2 16 18
M  V30 18 2 11 19
M  V30 19 1 19 20
M  V30 20 1 2 21
M  V30 21 1 21 22
M  V30 22 1 22 23
M  V30 23 1 23 24
M  V30 24 1 24 25
M  V30 25 1 25 26
M  V30 26 1 26 27
M  V30 27 1 27 28
M  V30 28 1 20 4
M  V30 29 1 28 23
M  V30 30 1 20 9
M  V30 31 1 18 12
M  V30 32 1 3 29
M  V30 33 1 3 30
M  V30 34 1 4 31
M  V30 35 1 5 32
M  V30 36 1 5 33
M  V30 37 1 6 34
M  V30 38 1 10 35
M  V30 39 1 13 36
M  V30 40 1 14 37
M  V30 41 1 15 38
M  V30 42 1 18 39
M  V30 43 1 19 40
M  V30 44 1 21 41
M  V30 45 1 22 42
M  V30 46 1 22 43
M  V30 47 1 23 44
M  V30 48 1 24 45
M  V30 49 1 24 46
M  V30 50 1 25 47
M  V30 51 1 25 48
M  V30 52 1 26 49
M  V30 53 1 26 50
M  V30 54 1 27 51
M  V30 55 1 27 52
M  V30 56 1 28 53
M  V30 57 1 28 54
M  V30 END BOND
M  V30 END CTAB
M  END
>  <Dataset>  (70) 
ChEMBL_Kinases

>  <Ligand_Instance>  (70) 
nan

>  <PDB_ID>  (70) 
nan

>  <Standardized_SMILES>  (70) 
O=C(CC1CNC(=O)c2cc(-c3cccc(F)c3)cn21)NCC1CCCCC1

>  <Name>  (70) 
nan

>  <Pocket>  (70) 
nan

>  <ATP_Site>  (70) 
nan

>  <Peripheral>  (70) 
nan

>  <Num_H_Atoms_ProtBoundConf>  (70) 
nan

>  <Num_Resolved_Atoms>  (70) 
nan

>  <Num_Not_Resolved_Atoms>  (70) 
nan

$$$$
CHEMBL3298821
     RDKit          3D

  0  0  0  0  0  0  0  0  0  0999 V3000
M  V30 BEGIN CTAB
M  V30 COUNTS 54 57 0 0 0
M  V30 BEGIN ATOM
M  V30 1 O 0.217519 -1.286904 -0.325404 0
M  V30 2 C 0.870024 -1.685045 0.665406 0
M  V30 3 C 2.213701 -1.113275 0.898771 0
M  V30 4 C 2.422571 0.057076 -0.024796 0
M  V30 5 C 3.854543 0.541918 0.241863 0
M  V30 6 N 4.087994 1.575366 -0.771589 0
M  V30 7 C 3.270149 2.739817 -0.517210 0
M  V30 8 O 3.652752 3.929895 -0.796638 0
M  V30 9 C 1.952567 2.439683 0.091739 0
M  V30 10 C 1.049654 3.410323 0.483804 0
M  V30 11 C 0.020824 2.692050 1.053209 0
M  V30 12 C -1.174804 3.314382 1.616586 0
M  V30 13 C -1.065580 4.574230 2.199674 0
M  V30 14 C -2.105987 5.291151 2.773113 0
M  V30 15 C -3.337287 4.658858 2.738329 0
M  V30 16 F -4.398363 5.330086 3.293909 0
M  V30 17 C -3.518283 3.415984 2.179157 0
M  V30 18 F -4.754019 2.836492 2.170694 0
M  V30 19 C -2.435651 2.749571 1.620796 0
M  V30 20 C 0.358551 1.359900 0.970898 0
M  V30 21 N 1.544073 1.172624 0.380580 0
M  V30 22 N 0.248226 -2.651133 1.469143 0
M  V30 23 C -0.952599 -3.396957 1.557617 0
M  V30 24 C -1.268972 -4.336399 0.428328 0
M  V30 25 C -1.439302 -3.699173 -0.916580 0
M  V30 26 C -2.284566 -4.677736 -1.743808 0
M  V30 27 C -1.808254 -6.100612 -1.478227 0
M  V30 28 C -0.354077 -6.083170 -1.035244 0
M  V30 29 C -0.249811 -5.438498 0.315772 0
M  V30 30 H 2.187842 -0.670420 1.938920 0
M  V30 31 H 3.026055 -1.847282 0.857296 0
M  V30 32 H 2.330326 -0.159610 -1.086020 0
M  V30 33 H 4.522028 -0.319733 0.096951 0
M  V30 34 H 3.918671 0.945885 1.260679 0
M  V30 35 H 4.719638 1.610584 -1.605804 0
M  V30 36 H 1.092386 4.477148 0.390480 0
M  V30 37 H -0.075810 5.050326 2.212285 0
M  V30 38 H -1.913369 6.264852 3.200098 0
M  V30 39 H -2.536738 1.759250 1.165798 0
M  V30 40 H -0.313295 0.644300 1.372220 0
M  V30 41 H 0.914433 -2.894108 2.274588 0
M  V30 42 H -1.066628 -3.951123 2.507441 0
M  V30 43 H -1.786282 -2.614983 1.620359 0
M  V30 44 H -2.257379 -4.842218 0.653582 0
M  V30 45 H -1.949989 -2.715669 -0.870111 0
M  V30 46 H -0.476559 -3.650733 -1.443269 0
M  V30 47 H -2.213792 -4.483032 -2.818349 0
M  V30 48 H -3.328706 -4.617632 -1.399025 0
M  V30 49 H -1.845131 -6.640864 -2.441142 0
M  V30 50 H -2.446027 -6.648044 -0.768972 0
M  V30 51 H 0.277349 -5.583880 -1.798117 0
M  V30 52 H 0.018983 -7.123544 -0.950126 0
M  V30 53 H 0.776231 -4.969236 0.348128 0
M  V30 54 H -0.298874 -6.164191 1.150921 0
M  V30 END ATOM
M  V30 BEGIN BOND
M  V30 1 2 1 2
M  V30 2 1 2 3
M  V30 3 1 3 4
M  V30 4 1 4 5
M  V30 5 1 5 6
M  V30 6 1 6 7
M  V30 7 2 7 8
M  V30 8 1 7 9
M  V30 9 2 9 10
M  V30 10 1 10 11
M  V30 11 1 11 12
M  V30 12 2 12 13
M  V30 13 1 13 14
M  V30 14 2 14 15
M  V30 15 1 15 16
M  V30 16 1 15 17
M  V30 17 1 17 18
M  V30 18 2 17 19
M  V30 19 2 11 20
M  V30 20 1 20 21
M  V30 21 1 2 22
M  V30 22 1 22 23
M  V30 23 1 23 24
M  V30 24 1 24 25
M  V30 25 1 25 26
M  V30 26 1 26 27
M  V30 27 1 27 28
M  V30 28 1 28 29
M  V30 29 1 21 4
M  V30 30 1 29 24
M  V30 31 1 21 9
M  V30 32 1 19 12
M  V30 33 1 3 30
M  V30 34 1 3 31
M  V30 35 1 4 32
M  V30 36 1 5 33
M  V30 37 1 5 34
M  V30 38 1 6 35
M  V30 39 1 10 36
M  V30 40 1 13 37
M  V30 41 1 14 38
M  V30 42 1 19 39
M  V30 43 1 20 40
M  V30 44 1 22 41
M  V30 45 1 23 42
M  V30 46 1 23 43
M  V30 47 1 24 44
M  V30 48 1 25 45
M  V30 49 1 25 46
M  V30 50 1 26 47
M  V30 51 1 26 48
M  V30 52 1 27 49
M  V30 53 1 27 50
M  V30 54 1 28 51
M  V30 55 1 28 52
M  V30 56 1 29 53
M  V30 57 1 29 54
M  V30 END BOND
M  V30 END CTAB
M  END
>  <Dataset>  (71) 
ChEMBL_Kinases

>  <Ligand_Instance>  (71) 
nan

>  <PDB_ID>  (71) 
nan

>  <Standardized_SMILES>  (71) 
O=C(CC1CNC(=O)c2cc(-c3ccc(F)c(F)c3)cn21)NCC1CCCCC1

>  <Name>  (71) 
nan

>  <Pocket>  (71) 
nan

>  <ATP_Site>  (71) 
nan

>  <Peripheral>  (71) 
nan

>  <Num_H_Atoms_ProtBoundConf>  (71) 
nan

>  <Num_Resolved_Atoms>  (71) 
nan

>  <Num_Not_Resolved_Atoms>  (71) 
nan

$$$$
CHEMBL3298564
     RDKit          3D

  0  0  0  0  0  0  0  0  0  0999 V3000
M  V30 BEGIN CTAB
M  V30 COUNTS 51 54 0 0 0
M  V30 BEGIN ATOM
M  V30 1 O 1.062362 -3.897035 -0.119597 0
M  V30 2 C 0.294664 -3.274032 0.645989 0
M  V30 3 C 0.635095 -1.937218 1.136770 0
M  V30 4 C 1.988362 -1.433850 0.664216 0
M  V30 5 C 3.060287 -2.347462 1.132773 0
M  V30 6 N 4.339391 -1.720326 1.385146 0
M  V30 7 C 4.481825 -0.342339 1.782603 0
M  V30 8 O 5.535762 0.109308 2.258010 0
M  V30 9 C 3.303299 0.507148 1.593039 0
M  V30 10 C 3.058402 1.841991 1.839296 0
M  V30 11 C 1.753810 2.063855 1.444816 0
M  V30 12 C 1.018466 3.340728 1.507354 0
M  V30 13 C 1.574302 4.596315 1.366000 0
M  V30 14 C 0.740408 5.695257 1.444238 0
M  V30 15 C -0.621452 5.616234 1.656003 0
M  V30 16 C -1.185314 4.356561 1.799014 0
M  V30 17 C -2.653603 4.206893 2.023911 0
M  V30 18 F -3.245329 3.480774 1.006380 0
M  V30 19 F -2.802909 3.472354 3.185292 0
M  V30 20 F -3.243045 5.442477 2.167011 0
M  V30 21 C -0.363094 3.278007 1.721803 0
M  V30 22 C 1.217145 0.881715 0.966905 0
M  V30 23 N 2.201808 -0.058596 1.073117 0
M  V30 24 N -0.951600 -3.777834 1.108655 0
M  V30 25 C -1.488219 -5.061160 0.754963 0
M  V30 26 C -2.052436 -4.964341 -0.631129 0
M  V30 27 C -1.456248 -5.205264 -1.830683 0
M  V30 28 C -2.193765 -5.038125 -2.980913 0
M  V30 29 C -3.513184 -4.636286 -2.989114 0
M  V30 30 C -4.129432 -4.387232 -1.756641 0
M  V30 31 F -5.425466 -3.994191 -1.782405 0
M  V30 32 C -3.379657 -4.559327 -0.624113 0
M  V30 33 H 0.475850 -1.814977 2.217270 0
M  V30 34 H -0.114184 -1.235672 0.664005 0
M  V30 35 H 1.969955 -1.462376 -0.442798 0
M  V30 36 H 3.232139 -3.219979 0.442702 0
M  V30 37 H 2.705574 -2.826429 2.073306 0
M  V30 38 H 5.232582 -2.252292 1.287129 0
M  V30 39 H 3.754102 2.561476 2.256556 0
M  V30 40 H 2.640050 4.642923 1.197415 0
M  V30 41 H 1.211278 6.675223 1.327283 0
M  V30 42 H -1.264362 6.480502 1.717608 0
M  V30 43 H -0.825147 2.296259 1.838111 0
M  V30 44 H 0.184554 0.811009 0.592331 0
M  V30 45 H -1.571589 -3.223365 1.755023 0
M  V30 46 H -2.224578 -5.427136 1.466603 0
M  V30 47 H -0.611778 -5.772423 0.713059 0
M  V30 48 H -0.424909 -5.515697 -1.752235 0
M  V30 49 H -1.680121 -5.242703 -3.920177 0
M  V30 50 H -4.036992 -4.521637 -3.932972 0
M  V30 51 H -3.965357 -4.334409 0.275730 0
M  V30 END ATOM
M  V30 BEGIN BOND
M  V30 1 2 1 2
M  V30 2 1 2 3
M  V30 3 1 3 4
M  V30 4 1 4 5
M  V30 5 1 5 6
M  V30 6 1 6 7
M  V30 7 2 7 8
M  V30 8 1 7 9
M  V30 9 2 9 10
M  V30 10 1 10 11
M  V30 11 1 11 12
M  V30 12 2 12 13
M  V30 13 1 13 14
M  V30 14 2 14 15
M  V30 15 1 15 16
M  V30 16 1 16 17
M  V30 17 1 17 18
M  V30 18 1 17 19
M  V30 19 1 17 20
M  V30 20 2 16 21
M  V30 21 2 11 22
M  V30 22 1 22 23
M  V30 23 1 2 24
M  V30 24 1 24 25
M  V30 25 1 25 26
M  V30 26 2 26 27
M  V30 27 1 27 28
M  V30 28 2 28 29
M  V30 29 1 29 30
M  V30 30 1 30 31
M  V30 31 2 30 32
M  V30 32 1 23 4
M  V30 33 1 32 26
M  V30 34 1 23 9
M  V30 35 1 21 12
M  V30 36 1 3 33
M  V30 37 1 3 34
M  V30 38 1 4 35
M  V30 39 1 5 36
M  V30 40 1 5 37
M  V30 41 1 6 38
M  V30 42 1 10 39
M  V30 43 1 13 40
M  V30 44 1 14 41
M  V30 45 1 15 42
M  V30 46 1 21 43
M  V30 47 1 22 44
M  V30 48 1 24 45
M  V30 49 1 25 46
M  V30 50 1 25 47
M  V30 51 1 27 48
M  V30 52 1 28 49
M  V30 53 1 29 50
M  V30 54 1 32 51
M  V30 END BOND
M  V30 END CTAB
M  END
>  <Dataset>  (72) 
ChEMBL_Kinases

>  <Ligand_Instance>  (72) 
nan

>  <PDB_ID>  (72) 
nan

>  <Standardized_SMILES>  (72) 
O=C(CC1CNC(=O)c2cc(-c3cccc(C(F)(F)F)c3)cn21)NCc1cccc(F)c1

>  <Name>  (72) 
nan

>  <Pocket>  (72) 
nan

>  <ATP_Site>  (72) 
nan

>  <Peripheral>  (72) 
nan

>  <Num_H_Atoms_ProtBoundConf>  (72) 
nan

>  <Num_Resolved_Atoms>  (72) 
nan

>  <Num_Not_Resolved_Atoms>  (72) 
nan

$$$$
CHEMBL375230
     RDKit          3D

  0  0  0  0  0  0  0  0  0  0999 V3000
M  V30 BEGIN CTAB
M  V30 COUNTS 26 27 0 0 0
M  V30 BEGIN ATOM
M  V30 1 C -2.080291 -2.462707 2.023706 0
M  V30 2 N -0.687064 -2.068270 1.991749 0
M  V30 3 C 0.177681 -2.857083 2.884759 0
M  V30 4 C -0.034536 -1.055355 1.237134 0
M  V30 5 N 1.271404 -0.729284 1.375456 0
M  V30 6 C 1.573002 0.261200 0.531955 0
M  V30 7 C 2.817895 0.838495 0.415555 0
M  V30 8 Br 4.345855 0.351770 1.408414 0
M  V30 9 C 2.951816 1.866927 -0.514083 0
M  V30 10 Br 4.633031 2.731425 -0.751042 0
M  V30 11 C 1.851985 2.246492 -1.255171 0
M  V30 12 Br 2.006137 3.660239 -2.540236 0
M  V30 13 C 0.661466 1.613212 -1.067016 0
M  V30 14 Br -0.840190 2.180690 -2.088277 0
M  V30 15 C 0.442020 0.590636 -0.173482 0
M  V30 16 N -0.524542 -0.226466 0.272917 0
M  V30 17 C -1.863846 -0.200671 -0.246951 0
M  V30 18 H -2.401497 -3.100066 1.203454 0
M  V30 19 H -2.308476 -2.931144 3.029309 0
M  V30 20 H -2.698096 -1.533183 2.026340 0
M  V30 21 H 0.246305 -2.333162 3.860476 0
M  V30 22 H -0.259398 -3.860392 3.030200 0
M  V30 23 H 1.185210 -2.995734 2.427218 0
M  V30 24 H -2.261589 -1.265261 -0.241526 0
M  V30 25 H -2.537285 0.507661 0.232981 0
M  V30 26 H -1.891039 0.033102 -1.355695 0
M  V30 END ATOM
M  V30 BEGIN BOND
M  V30 1 1 1 2
M  V30 2 1 2 3
M  V30 3 1 2 4
M  V30 4 2 4 5
M  V30 5 1 5 6
M  V30 6 2 6 7
M  V30 7 1 7 8
M  V30 8 1 7 9
M  V30 9 1 9 10
M  V30 10 2 9 11
M  V30 11 1 11 12
M  V30 12 1 11 13
M  V30 13 1 13 14
M  V30 14 2 13 15
M  V30 15 1 15 16
M  V30 16 1 16 17
M  V30 17 1 16 4
M  V30 18 1 15 6
M  V30 19 1 1 18
M  V30 20 1 1 19
M  V30 21 1 1 20
M  V30 22 1 3 21
M  V30 23 1 3 22
M  V30 24 1 3 23
M  V30 25 1 17 24
M  V30 26 1 17 25
M  V30 27 1 17 26
M  V30 END BOND
M  V30 END CTAB
M  END
>  <Dataset>  (73) 
ChEMBL_Kinases

>  <Ligand_Instance>  (73) 
nan

>  <PDB_ID>  (73) 
nan

>  <Standardized_SMILES>  (73) 
CN(C)c1nc2c(Br)c(Br)c(Br)c(Br)c2n1C

>  <Name>  (73) 
nan

>  <Pocket>  (73) 
nan

>  <ATP_Site>  (73) 
nan

>  <Peripheral>  (73) 
nan

>  <Num_H_Atoms_ProtBoundConf>  (73) 
nan

>  <Num_Resolved_Atoms>  (73) 
nan

>  <Num_Not_Resolved_Atoms>  (73) 
nan

$$$$
CHEMBL3298046
     RDKit          3D

  0  0  0  0  0  0  0  0  0  0999 V3000
M  V30 BEGIN CTAB
M  V30 COUNTS 55 58 0 0 0
M  V30 BEGIN ATOM
M  V30 1 C -1.543531 2.053258 4.163993 0
M  V30 2 O -0.772516 2.286395 2.998221 0
M  V30 3 C 0.498716 1.728279 2.965860 0
M  V30 4 C 1.086259 0.969106 3.956381 0
M  V30 5 C 2.360558 0.457074 3.829484 0
M  V30 6 C 2.916798 -0.353608 4.952063 0
M  V30 7 C 3.107540 0.689496 2.687276 0
M  V30 8 C 2.516954 1.449644 1.697558 0
M  V30 9 C 1.234053 1.968806 1.817699 0
M  V30 10 C 0.811615 2.739600 0.653555 0
M  V30 11 C 1.074546 4.103393 0.626786 0
M  V30 12 C 0.684581 4.840267 -0.459942 0
M  V30 13 C 0.039641 4.202800 -1.499773 0
M  V30 14 C -0.219119 2.855946 -1.471545 0
M  V30 15 N -0.818066 2.027111 -2.341055 0
M  V30 16 C -0.807295 0.769545 -1.805535 0
M  V30 17 N -1.344617 -0.369605 -2.424713 0
M  V30 18 C -1.356264 -1.688611 -1.901300 0
M  V30 19 C -0.872325 -2.041501 -0.660726 0
M  V30 20 C -0.879544 -3.322579 -0.151283 0
M  V30 21 O -0.375613 -3.624238 1.114098 0
M  V30 22 C 0.175447 -2.610170 1.950698 0
M  V30 23 C -1.401270 -4.345535 -0.912706 0
M  V30 24 O -1.399942 -5.627467 -0.384375 0
M  V30 25 C -0.353429 -6.558758 -0.538547 0
M  V30 26 C -1.897083 -4.039563 -2.161080 0
M  V30 27 O -2.417259 -5.076809 -2.913760 0
M  V30 28 C -2.958278 -4.907386 -4.210155 0
M  V30 29 C -1.866119 -2.743120 -2.622947 0
M  V30 30 O -0.209118 0.904805 -0.654903 0
M  V30 31 C 0.166157 2.108445 -0.389748 0
M  V30 32 H -2.362224 2.794386 4.227104 0
M  V30 33 H -1.846182 1.006400 4.258956 0
M  V30 34 H -0.886401 2.289687 5.045878 0
M  V30 35 H 0.488202 0.796926 4.843517 0
M  V30 36 H 2.480063 -0.062269 5.928008 0
M  V30 37 H 2.723431 -1.435267 4.799533 0
M  V30 38 H 4.023567 -0.206758 5.044539 0
M  V30 39 H 4.101839 0.283396 2.601522 0
M  V30 40 H 3.160222 1.597286 0.818976 0
M  V30 41 H 1.576424 4.629685 1.423571 0
M  V30 42 H 0.869732 5.902988 -0.521296 0
M  V30 43 H -0.260598 4.801343 -2.349919 0
M  V30 44 H -1.793291 -0.255934 -3.382141 0
M  V30 45 H -0.451858 -1.294738 -0.014229 0
M  V30 46 H 0.456030 -3.060967 2.906319 0
M  V30 47 H -0.665847 -1.876124 2.118920 0
M  V30 48 H 0.982988 -2.053197 1.462794 0
M  V30 49 H -0.800445 -7.503933 -0.943960 0
M  V30 50 H 0.053782 -6.771138 0.459901 0
M  V30 51 H 0.401221 -6.222268 -1.273959 0
M  V30 52 H -2.947297 -5.886461 -4.762707 0
M  V30 53 H -3.971098 -4.502855 -4.102817 0
M  V30 54 H -2.300801 -4.213895 -4.776055 0
M  V30 55 H -2.267853 -2.542250 -3.614788 0
M  V30 END ATOM
M  V30 BEGIN BOND
M  V30 1 1 1 2
M  V30 2 1 2 3
M  V30 3 2 3 4
M  V30 4 1 4 5
M  V30 5 1 5 6
M  V30 6 2 5 7
M  V30 7 1 7 8
M  V30 8 2 8 9
M  V30 9 1 9 10
M  V30 10 2 10 11
M  V30 11 1 11 12
M  V30 12 2 12 13
M  V30 13 1 13 14
M  V30 14 1 14 15
M  V30 15 2 15 16
M  V30 16 1 16 17
M  V30 17 1 17 18
M  V30 18 2 18 19
M  V30 19 1 19 20
M  V30 20 1 20 21
M  V30 21 1 21 22
M  V30 22 2 20 23
M  V30 23 1 23 24
M  V30 24 1 24 25
M  V30 25 1 23 26
M  V30 26 1 26 27
M  V30 27 1 27 28
M  V30 28 2 26 29
M  V30 29 1 16 30
M  V30 30 1 30 31
M  V30 31 1 9 3
M  V30 32 1 31 10
M  V30 33 2 31 14
M  V30 34 1 29 18
M  V30 35 1 1 32
M  V30 36 1 1 33
M  V30 37 1 1 34
M  V30 38 1 4 35
M  V30 39 1 6 36
M  V30 40 1 6 37
M  V30 41 1 6 38
M  V30 42 1 7 39
M  V30 43 1 8 40
M  V30 44 1 11 41
M  V30 45 1 12 42
M  V30 46 1 13 43
M  V30 47 1 17 44
M  V30 48 1 19 45
M  V30 49 1 22 46
M  V30 50 1 22 47
M  V30 51 1 22 48
M  V30 52 1 25 49
M  V30 53 1 25 50
M  V30 54 1 25 51
M  V30 55 1 28 52
M  V30 56 1 28 53
M  V30 57 1 28 54
M  V30 58 1 29 55
M  V30 END BOND
M  V30 END CTAB
M  END
>  <Dataset>  (74) 
ChEMBL_Kinases

>  <Ligand_Instance>  (74) 
nan

>  <PDB_ID>  (74) 
nan

>  <Standardized_SMILES>  (74) 
COc1cc(C)ccc1-c1cccc2nc(Nc3cc(OC)c(OC)c(OC)c3)oc12

>  <Name>  (74) 
nan

>  <Pocket>  (74) 
nan

>  <ATP_Site>  (74) 
nan

>  <Peripheral>  (74) 
nan

>  <Num_H_Atoms_ProtBoundConf>  (74) 
nan

>  <Num_Resolved_Atoms>  (74) 
nan

>  <Num_Not_Resolved_Atoms>  (74) 
nan

$$$$
CHEMBL4208627
     RDKit          3D

  0  0  0  0  0  0  0  0  0  0999 V3000
M  V30 BEGIN CTAB
M  V30 COUNTS 32 34 0 0 0
M  V30 BEGIN ATOM
M  V30 1 C 0.574942 -3.098509 5.208909 0
M  V30 2 C 0.260389 -2.594731 3.848303 0
M  V30 3 O 0.764461 -1.490328 3.570569 0
M  V30 4 N -0.539802 -3.263626 2.894978 0
M  V30 5 C -0.891740 -2.876555 1.599726 0
M  V30 6 C -0.526407 -1.722965 0.944354 0
M  V30 7 N -0.886115 -1.389330 -0.299771 0
M  V30 8 C -0.629649 -0.326846 -1.085317 0
M  V30 9 C 0.178035 0.850077 -0.769633 0
M  V30 10 C 1.057315 1.220985 -1.794940 0
M  V30 11 C 1.896319 2.296643 -1.689643 0
M  V30 12 C 1.901174 3.062173 -0.548978 0
M  V30 13 O 2.730013 4.161225 -0.390227 0
M  V30 14 C 1.034809 2.692654 0.455141 0
M  V30 15 C 0.180422 1.617517 0.378265 0
M  V30 16 C -1.266207 -0.502698 -2.302418 0
M  V30 17 N -1.907763 -1.703486 -2.211949 0
M  V30 18 C -1.662425 -2.216629 -0.995385 0
M  V30 19 C -2.056986 -3.387928 -0.383487 0
M  V30 20 N -1.663675 -3.669670 0.870135 0
M  V30 21 H 0.403533 -4.194740 5.278724 0
M  V30 22 H 1.632828 -2.885554 5.438704 0
M  V30 23 H -0.047555 -2.549624 5.971554 0
M  V30 24 H -0.883739 -4.169160 3.279865 0
M  V30 25 H 0.102320 -1.008659 1.449422 0
M  V30 26 H 1.147510 0.692540 -2.750679 0
M  V30 27 H 2.584945 2.599241 -2.474459 0
M  V30 28 H 3.721833 3.973819 -0.562036 0
M  V30 29 H 0.966237 3.235625 1.393746 0
M  V30 30 H -0.508662 1.284755 1.117253 0
M  V30 31 H -1.280730 0.144744 -3.168469 0
M  V30 32 H -2.687744 -4.125261 -0.864882 0
M  V30 END ATOM
M  V30 BEGIN BOND
M  V30 1 1 1 2
M  V30 2 2 2 3
M  V30 3 1 2 4
M  V30 4 1 4 5
M  V30 5 2 5 6
M  V30 6 1 6 7
M  V30 7 1 7 8
M  V30 8 1 8 9
M  V30 9 2 9 10
M  V30 10 1 10 11
M  V30 11 2 11 12
M  V30 12 1 12 13
M  V30 13 1 12 14
M  V30 14 2 14 15
M  V30 15 2 8 16
M  V30 16 1 16 17
M  V30 17 2 17 18
M  V30 18 1 18 19
M  V30 19 2 19 20
M  V30 20 1 20 5
M  V30 21 1 18 7
M  V30 22 1 15 9
M  V30 23 1 1 21
M  V30 24 1 1 22
M  V30 25 1 1 23
M  V30 26 1 4 24
M  V30 27 1 6 25
M  V30 28 1 10 26
M  V30 29 1 11 27
M  V30 30 1 13 28
M  V30 31 1 14 29
M  V30 32 1 15 30
M  V30 33 1 16 31
M  V30 34 1 19 32
M  V30 END BOND
M  V30 END CTAB
M  END
>  <Dataset>  (75) 
ChEMBL_Kinases

>  <Ligand_Instance>  (75) 
nan

>  <PDB_ID>  (75) 
nan

>  <Standardized_SMILES>  (75) 
CC(=O)Nc1cn2c(-c3ccc(O)cc3)cnc2cn1

>  <Name>  (75) 
nan

>  <Pocket>  (75) 
nan

>  <ATP_Site>  (75) 
nan

>  <Peripheral>  (75) 
nan

>  <Num_H_Atoms_ProtBoundConf>  (75) 
nan

>  <Num_Resolved_Atoms>  (75) 
nan

>  <Num_Not_Resolved_Atoms>  (75) 
nan

$$$$
CHEMBL3675451
     RDKit          3D

  0  0  0  0  0  0  0  0  0  0999 V3000
M  V30 BEGIN CTAB
M  V30 COUNTS 48 50 0 0 0
M  V30 BEGIN ATOM
M  V30 1 C 1.060590 -2.991513 -2.122797 0
M  V30 2 N 0.285070 -2.335207 -1.130874 0
M  V30 3 C -1.079276 -2.328617 -1.407877 0
M  V30 4 C 0.800896 -2.424454 0.159399 0
M  V30 5 C 0.017353 -1.807053 1.281664 0
M  V30 6 N -0.211355 -0.388404 1.102088 0
M  V30 7 C 0.857662 0.541887 1.032269 0
M  V30 8 N 2.116618 0.090456 1.142250 0
M  V30 9 C 3.205243 0.874188 1.095727 0
M  V30 10 N 3.059776 2.210791 0.927987 0
M  V30 11 C 1.806674 2.679206 0.816137 0
M  V30 12 C 1.625512 4.036528 0.644983 0
M  V30 13 C 2.781947 4.923492 0.589341 0
M  V30 14 N 4.094307 4.386466 0.713498 0
M  V30 15 O 2.886214 6.167813 0.443240 0
M  V30 16 C 0.345997 4.539502 0.528434 0
M  V30 17 C -0.797363 3.768940 0.570997 0
M  V30 18 C -0.597663 2.414095 0.742698 0
M  V30 19 C 0.674234 1.895938 0.860818 0
M  V30 20 C -1.158121 -2.568925 1.721883 0
M  V30 21 C -1.885489 -1.828029 2.661828 0
M  V30 22 C -3.040074 -2.338719 3.242344 0
M  V30 23 C -3.504383 -3.600705 2.904977 0
M  V30 24 C -2.765268 -4.305544 1.975755 0
M  V30 25 N -3.184491 -5.607037 1.584601 0 CHG=1 VAL=4
M  V30 26 O -4.214894 -6.107077 2.077711 0
M  V30 27 O -2.462993 -6.326609 0.663609 0 CHG=-1 VAL=1
M  V30 28 C -1.620052 -3.808113 1.394999 0
M  V30 29 H 2.068868 -2.536844 -2.283668 0
M  V30 30 H 1.227428 -4.055191 -1.785862 0
M  V30 31 H 0.551257 -3.068370 -3.111010 0
M  V30 32 H -1.514339 -3.370306 -1.463412 0
M  V30 33 H -1.690009 -1.793615 -0.652925 0
M  V30 34 H -1.364217 -1.876419 -2.387035 0
M  V30 35 H 1.867784 -2.077002 0.258825 0
M  V30 36 H 0.891135 -3.529201 0.409590 0
M  V30 37 H 0.723804 -1.839407 2.183091 0
M  V30 38 H -1.228035 -0.176119 1.039047 0
M  V30 39 H 4.171338 0.418458 1.193547 0
M  V30 40 H 4.775024 3.827047 1.271529 0
M  V30 41 H 4.831792 4.545850 -0.026494 0
M  V30 42 H 0.276007 5.611443 0.396613 0
M  V30 43 H -1.754609 4.255639 0.469493 0
M  V30 44 H -1.470992 1.786431 0.780206 0
M  V30 45 H -1.672039 -0.837790 3.037331 0
M  V30 46 H -3.649638 -1.824894 3.971825 0
M  V30 47 H -4.389192 -4.082641 3.300310 0
M  V30 48 H -1.004017 -4.307580 0.676040 0
M  V30 END ATOM
M  V30 BEGIN BOND
M  V30 1 1 1 2
M  V30 2 1 2 3
M  V30 3 1 2 4
M  V30 4 1 4 5
M  V30 5 1 5 6
M  V30 6 1 6 7
M  V30 7 2 7 8
M  V30 8 1 8 9
M  V30 9 2 9 10
M  V30 10 1 10 11
M  V30 11 2 11 12
M  V30 12 1 12 13
M  V30 13 1 13 14
M  V30 14 2 13 15
M  V30 15 1 12 16
M  V30 16 2 16 17
M  V30 17 1 17 18
M  V30 18 2 18 19
M  V30 19 1 5 20
M  V30 20 2 20 21
M  V30 21 1 21 22
M  V30 22 2 22 23
M  V30 23 1 23 24
M  V30 24 1 24 25
M  V30 25 2 25 26
M  V30 26 1 25 27
M  V30 27 2 24 28
M  V30 28 1 19 7
M  V30 29 1 28 20
M  V30 30 1 19 11
M  V30 31 1 1 29
M  V30 32 1 1 30
M  V30 33 1 1 31
M  V30 34 1 3 32
M  V30 35 1 3 33
M  V30 36 1 3 34
M  V30 37 1 4 35
M  V30 38 1 4 36
M  V30 39 1 5 37
M  V30 40 1 6 38
M  V30 41 1 9 39
M  V30 42 1 14 40
M  V30 43 1 14 41
M  V30 44 1 16 42
M  V30 45 1 17 43
M  V30 46 1 18 44
M  V30 47 1 21 45
M  V30 48 1 22 46
M  V30 49 1 23 47
M  V30 50 1 28 48
M  V30 END BOND
M  V30 END CTAB
M  END
>  <Dataset>  (76) 
ChEMBL_Kinases

>  <Ligand_Instance>  (76) 
nan

>  <PDB_ID>  (76) 
nan

>  <Standardized_SMILES>  (76) 
CN(C)CC(Nc1ncnc2c(C(N)=O)cccc12)c1cccc([N+](=O)[O-])c1

>  <Name>  (76) 
nan

>  <Pocket>  (76) 
nan

>  <ATP_Site>  (76) 
nan

>  <Peripheral>  (76) 
nan

>  <Num_H_Atoms_ProtBoundConf>  (76) 
nan

>  <Num_Resolved_Atoms>  (76) 
nan

>  <Num_Not_Resolved_Atoms>  (76) 
nan

$$$$
CHEMBL3298193
     RDKit          3D

  0  0  0  0  0  0  0  0  0  0999 V3000
M  V30 BEGIN CTAB
M  V30 COUNTS 51 55 0 0 0
M  V30 BEGIN ATOM
M  V30 1 C -1.728894 -0.572141 3.093692 0
M  V30 2 O -2.318687 -1.617262 2.398771 0
M  V30 3 C -1.711164 -2.482216 1.514473 0
M  V30 4 C -0.368614 -2.398161 1.197309 0
M  V30 5 C 0.303072 -3.229817 0.321805 0
M  V30 6 N 1.675783 -3.113556 -0.024908 0
M  V30 7 C 1.975123 -1.710723 -0.116305 0
M  V30 8 N 2.531686 -1.483592 -1.345873 0
M  V30 9 C 2.806694 -0.170699 -1.425759 0
M  V30 10 C 3.364121 0.685773 -2.388638 0
M  V30 11 C 3.483582 2.033428 -2.092676 0
M  V30 12 C 3.070628 2.563559 -0.876995 0
M  V30 13 C 2.518848 1.728667 0.083313 0
M  V30 14 C 2.070633 2.254130 1.371853 0
M  V30 15 C 2.826719 2.421877 2.520283 0
M  V30 16 C 2.284321 2.945246 3.675733 0
M  V30 17 C 0.958518 3.315600 3.708313 0
M  V30 18 C 0.168796 3.167329 2.594183 0
M  V30 19 C -1.158261 3.430876 2.305787 0
M  V30 20 N -1.363758 3.070219 1.028063 0
M  V30 21 N -0.252452 2.598263 0.498900 0
M  V30 22 C 0.724762 2.640008 1.435291 0
M  V30 23 C 2.411134 0.392515 -0.234954 0
M  V30 24 O 1.933859 -0.558600 0.491518 0
M  V30 25 C -0.423002 -4.232985 -0.291529 0
M  V30 26 C -1.790501 -4.371074 -0.012375 0
M  V30 27 O -2.574557 -5.350412 -0.593714 0
M  V30 28 C -2.025366 -6.252889 -1.504773 0
M  V30 29 C -2.382310 -3.498740 0.873023 0
M  V30 30 O -3.752699 -3.567486 1.208029 0
M  V30 31 C -4.657249 -2.791381 0.402158 0
M  V30 32 H -0.688761 -0.337435 2.854621 0
M  V30 33 H -2.294450 0.386255 2.935460 0
M  V30 34 H -1.782532 -0.712580 4.212789 0
M  V30 35 H 0.253657 -1.642649 1.643310 0
M  V30 36 H 2.313736 -3.900068 -0.172343 0
M  V30 37 H 3.651043 0.178889 -3.297947 0
M  V30 38 H 3.924972 2.595160 -2.905723 0
M  V30 39 H 3.190845 3.612409 -0.711556 0
M  V30 40 H 3.852809 2.114656 2.429570 0
M  V30 41 H 2.881413 3.069410 4.552821 0
M  V30 42 H 0.487148 3.735201 4.605632 0
M  V30 43 H -1.807684 3.850738 3.052652 0
M  V30 44 H -0.173717 2.252419 -0.498195 0
M  V30 45 H 0.052081 -4.913302 -0.982664 0
M  V30 46 H -1.985917 -5.787208 -2.522857 0
M  V30 47 H -2.679672 -7.164746 -1.613488 0
M  V30 48 H -1.039999 -6.614948 -1.214535 0
M  V30 49 H -5.552388 -2.497645 0.963970 0
M  V30 50 H -4.868845 -3.331469 -0.544670 0
M  V30 51 H -4.086801 -1.865550 0.123814 0
M  V30 END ATOM
M  V30 BEGIN BOND
M  V30 1 1 1 2
M  V30 2 1 2 3
M  V30 3 2 3 4
M  V30 4 1 4 5
M  V30 5 1 5 6
M  V30 6 1 6 7
M  V30 7 2 7 8
M  V30 8 1 8 9
M  V30 9 2 9 10
M  V30 10 1 10 11
M  V30 11 2 11 12
M  V30 12 1 12 13
M  V30 13 1 13 14
M  V30 14 2 14 15
M  V30 15 1 15 16
M  V30 16 2 16 17
M  V30 17 1 17 18
M  V30 18 1 18 19
M  V30 19 2 19 20
M  V30 20 1 20 21
M  V30 21 1 21 22
M  V30 22 2 13 23
M  V30 23 1 23 24
M  V30 24 2 5 25
M  V30 25 1 25 26
M  V30 26 1 26 27
M  V30 27 1 27 28
M  V30 28 2 26 29
M  V30 29 1 29 30
M  V30 30 1 30 31
M  V30 31 1 29 3
M  V30 32 1 24 7
M  V30 33 1 23 9
M  V30 34 1 22 14
M  V30 35 2 22 18
M  V30 36 1 1 32
M  V30 37 1 1 33
M  V30 38 1 1 34
M  V30 39 1 4 35
M  V30 40 1 6 36
M  V30 41 1 10 37
M  V30 42 1 11 38
M  V30 43 1 12 39
M  V30 44 1 15 40
M  V30 45 1 16 41
M  V30 46 1 17 42
M  V30 47 1 19 43
M  V30 48 1 21 44
M  V30 49 1 25 45
M  V30 50 1 28 46
M  V30 51 1 28 47
M  V30 52 1 28 48
M  V30 53 1 31 49
M  V30 54 1 31 50
M  V30 55 1 31 51
M  V30 END BOND
M  V30 END CTAB
M  END
>  <Dataset>  (77) 
ChEMBL_Kinases

>  <Ligand_Instance>  (77) 
nan

>  <PDB_ID>  (77) 
nan

>  <Standardized_SMILES>  (77) 
COc1cc(Nc2nc3cccc(-c4cccc5cn[nH]c45)c3o2)cc(OC)c1OC

>  <Name>  (77) 
nan

>  <Pocket>  (77) 
nan

>  <ATP_Site>  (77) 
nan

>  <Peripheral>  (77) 
nan

>  <Num_H_Atoms_ProtBoundConf>  (77) 
nan

>  <Num_Resolved_Atoms>  (77) 
nan

>  <Num_Not_Resolved_Atoms>  (77) 
nan

$$$$
CHEMBL3675450
     RDKit          3D

  0  0  0  0  0  0  0  0  0  0999 V3000
M  V30 BEGIN CTAB
M  V30 COUNTS 61 64 0 0 0
M  V30 BEGIN ATOM
M  V30 1 C 3.791103 -0.815325 4.675431 0
M  V30 2 O 3.241403 -1.152579 3.452138 0
M  V30 3 C 1.999477 -1.729406 3.623948 0
M  V30 4 C 1.308686 -2.133775 2.356319 0
M  V30 5 C 1.035494 -1.026036 1.399324 0
M  V30 6 N 2.192564 -0.324008 0.911178 0
M  V30 7 C 1.989892 0.817533 0.089369 0
M  V30 8 N 0.752257 1.244064 -0.220714 0
M  V30 9 C 0.561753 2.335594 -0.998856 0
M  V30 10 N 1.590844 3.053469 -1.504584 0
M  V30 11 C 2.828678 2.663306 -1.220264 0
M  V30 12 C 3.900793 3.377111 -1.721884 0
M  V30 13 C 3.744851 4.556187 -2.564387 0
M  V30 14 N 2.516904 5.126337 -2.988315 0
M  V30 15 O 4.682103 5.230383 -3.031265 0
M  V30 16 C 5.212423 3.011764 -1.453832 0
M  V30 17 C 5.417168 1.908335 -0.667241 0
M  V30 18 C 4.330772 1.213945 -0.179600 0
M  V30 19 C 3.034351 1.552081 -0.428063 0
M  V30 20 C 0.160835 -1.502322 0.296137 0
M  V30 21 C 0.540981 -1.531025 -0.968442 0
M  V30 22 C -0.228357 -1.975970 -2.137580 0
M  V30 23 C -1.599772 -2.485331 -1.854763 0
M  V30 24 C -2.004595 -2.442870 -0.422384 0
M  V30 25 N -3.317069 -2.922642 -0.197405 0
M  V30 26 C -4.081864 -3.063030 0.955045 0
M  V30 27 O -3.501109 -2.690651 2.032161 0
M  V30 28 C -5.431434 -3.565750 1.118749 0
M  V30 29 C -5.977681 -3.643870 2.390616 0
M  V30 30 C -7.241081 -4.104868 2.671870 0
M  V30 31 C -8.047223 -4.526060 1.645235 0
M  V30 32 F -9.290883 -4.981867 1.904500 0
M  V30 33 C -7.561738 -4.470858 0.379140 0
M  V30 34 C -6.311191 -4.008679 0.156618 0
M  V30 35 F -5.911012 -3.987089 -1.127093 0
M  V30 36 C -1.192660 -1.996492 0.519422 0
M  V30 37 H 4.802652 -0.343697 4.545763 0
M  V30 38 H 3.128162 -0.076207 5.171041 0
M  V30 39 H 3.910734 -1.658801 5.371371 0
M  V30 40 H 1.377119 -1.004162 4.222724 0
M  V30 41 H 2.123902 -2.595873 4.318100 0
M  V30 42 H 0.409993 -2.738873 2.573143 0
M  V30 43 H 2.011107 -2.852183 1.836262 0
M  V30 44 H 0.402305 -0.275648 1.959591 0
M  V30 45 H 3.091569 -0.726300 1.205371 0
M  V30 46 H -0.516683 2.510261 -1.128587 0
M  V30 47 H 1.516686 4.917267 -3.200225 0
M  V30 48 H 1.554580 4.761612 -3.159795 0
M  V30 49 H 6.050301 3.575860 -1.850266 0
M  V30 50 H 6.434797 1.606675 -0.446531 0
M  V30 51 H 4.572274 0.367144 0.424622 0
M  V30 52 H 1.551479 -1.199206 -1.256354 0
M  V30 53 H -0.339549 -1.098318 -2.821318 0
M  V30 54 H 0.385425 -2.764662 -2.676863 0
M  V30 55 H -1.616180 -3.584779 -2.132884 0
M  V30 56 H -2.379301 -1.974069 -2.468334 0
M  V30 57 H -3.881522 -3.253782 -1.008053 0
M  V30 58 H -5.425958 -3.336897 3.271193 0
M  V30 59 H -7.640106 -4.154251 3.675238 0
M  V30 60 H -8.208688 -4.805989 -0.418998 0
M  V30 61 H -1.478576 -1.965344 1.538694 0
M  V30 END ATOM
M  V30 BEGIN BOND
M  V30 1 1 1 2
M  V30 2 1 2 3
M  V30 3 1 3 4
M  V30 4 1 4 5
M  V30 5 1 5 6
M  V30 6 1 6 7
M  V30 7 2 7 8
M  V30 8 1 8 9
M  V30 9 2 9 10
M  V30 10 1 10 11
M  V30 11 2 11 12
M  V30 12 1 12 13
M  V30 13 1 13 14
M  V30 14 2 13 15
M  V30 15 1 12 16
M  V30 16 2 16 17
M  V30 17 1 17 18
M  V30 18 2 18 19
M  V30 19 1 5 20
M  V30 20 2 20 21
M  V30 21 1 21 22
M  V30 22 1 22 23
M  V30 23 1 23 24
M  V30 24 1 24 25
M  V30 25 1 25 26
M  V30 26 2 26 27
M  V30 27 1 26 28
M  V30 28 2 28 29
M  V30 29 1 29 30
M  V30 30 2 30 31
M  V30 31 1 31 32
M  V30 32 1 31 33
M  V30 33 2 33 34
M  V30 34 1 34 35
M  V30 35 2 24 36
M  V30 36 1 19 7
M  V30 37 1 36 20
M  V30 38 1 19 11
M  V30 39 1 34 28
M  V30 40 1 1 37
M  V30 41 1 1 38
M  V30 42 1 1 39
M  V30 43 1 3 40
M  V30 44 1 3 41
M  V30 45 1 4 42
M  V30 46 1 4 43
M  V30 47 1 5 44
M  V30 48 1 6 45
M  V30 49 1 9 46
M  V30 50 1 14 47
M  V30 51 1 14 48
M  V30 52 1 16 49
M  V30 53 1 17 50
M  V30 54 1 18 51
M  V30 55 1 21 52
M  V30 56 1 22 53
M  V30 57 1 22 54
M  V30 58 1 23 55
M  V30 59 1 23 56
M  V30 60 1 25 57
M  V30 61 1 29 58
M  V30 62 1 30 59
M  V30 63 1 33 60
M  V30 64 1 36 61
M  V30 END BOND
M  V30 END CTAB
M  END
>  <Dataset>  (78) 
ChEMBL_Kinases

>  <Ligand_Instance>  (78) 
nan

>  <PDB_ID>  (78) 
nan

>  <Standardized_SMILES>  (78) 
COCCC(Nc1ncnc2c(C(N)=O)cccc12)C1=CCCC(NC(=O)c2ccc(F)cc2F)=C1

>  <Name>  (78) 
nan

>  <Pocket>  (78) 
nan

>  <ATP_Site>  (78) 
nan

>  <Peripheral>  (78) 
nan

>  <Num_H_Atoms_ProtBoundConf>  (78) 
nan

>  <Num_Resolved_Atoms>  (78) 
nan

>  <Num_Not_Resolved_Atoms>  (78) 
nan

$$$$
CHEMBL3298199
     RDKit          3D

  0  0  0  0  0  0  0  0  0  0999 V3000
M  V30 BEGIN CTAB
M  V30 COUNTS 59 62 0 0 0
M  V30 BEGIN ATOM
M  V30 1 C 2.560541 -4.996627 0.321956 0
M  V30 2 C 2.426712 -4.038341 1.476670 0 CFG=1
M  V30 3 N 2.526892 -2.690336 0.940486 0
M  V30 4 C 3.462782 -1.668758 1.227886 0
M  V30 5 O 4.413186 -1.787588 2.048971 0
M  V30 6 N 3.387177 -0.421866 0.596181 0
M  V30 7 C 4.385617 0.589664 0.938685 0
M  V30 8 C 3.873036 1.990171 0.832841 0
M  V30 9 C 2.408543 2.124455 0.894586 0
M  V30 10 C 1.702975 3.145484 1.509753 0
M  V30 11 N 0.357624 3.144912 1.490617 0
M  V30 12 C -0.358707 2.177842 0.888626 0
M  V30 13 N -1.780884 2.170098 0.864057 0
M  V30 14 C -2.581673 1.150054 0.228465 0 CFG=1
M  V30 15 C -4.067293 1.431452 0.380184 0
M  V30 16 C -4.794605 1.410047 -0.945063 0
M  V30 17 O -4.527259 0.300498 -1.709212 0
M  V30 18 C -3.182651 0.020625 -1.850335 0 CFG=1
M  V30 19 C -2.795194 -0.179509 -3.314221 0
M  V30 20 O -3.103249 1.010898 -3.967746 0
M  V30 21 C -2.324471 1.129511 -1.276519 0
M  V30 22 N 0.330910 1.188524 0.292646 0
M  V30 23 C 1.675408 1.131207 0.276334 0
M  V30 24 C 2.420677 0.027179 -0.389050 0
M  V30 25 C 1.103805 -4.252994 2.140342 0
M  V30 26 C 1.038049 -4.881498 3.379158 0
M  V30 27 C -0.114842 -5.138043 4.093138 0
M  V30 28 C -1.291955 -4.718705 3.492487 0
M  V30 29 Cl -2.776655 -5.039915 4.394063 0
M  V30 30 C -1.271253 -4.090511 2.262614 0
M  V30 31 Cl -2.802482 -3.586065 1.561373 0
M  V30 32 C -0.088804 -3.857868 1.589811 0
M  V30 33 H 2.042264 -5.963613 0.540927 0
M  V30 34 H 2.056817 -4.618650 -0.598715 0
M  V30 35 H 3.622840 -5.137302 0.020503 0
M  V30 36 H 3.222503 -4.243303 2.212204 0
M  V30 37 H 1.746814 -2.572081 0.257060 0
M  V30 38 H 4.801426 0.386907 1.964407 0
M  V30 39 H 5.243068 0.470585 0.238230 0
M  V30 40 H 4.316987 2.619523 1.653374 0
M  V30 41 H 4.219769 2.490157 -0.107001 0
M  V30 42 H 2.283726 3.907203 1.984148 0
M  V30 43 H -2.280105 2.950255 1.334663 0
M  V30 44 H -2.385593 0.125574 0.594620 0
M  V30 45 H -4.253102 2.404859 0.854104 0
M  V30 46 H -4.564851 0.663053 1.023910 0
M  V30 47 H -4.628519 2.372836 -1.473897 0
M  V30 48 H -5.884073 1.346879 -0.674475 0
M  V30 49 H -2.966039 -0.903216 -1.265673 0
M  V30 50 H -1.681575 -0.353158 -3.285535 0
M  V30 51 H -3.318896 -1.047547 -3.742564 0
M  V30 52 H -3.897996 0.833433 -4.538516 0
M  V30 53 H -2.623056 2.099793 -1.729195 0
M  V30 54 H -1.269014 0.891977 -1.444153 0
M  V30 55 H 1.742711 -0.772110 -0.711789 0
M  V30 56 H 3.025461 0.431439 -1.249382 0
M  V30 57 H 1.998531 -5.191091 3.805713 0
M  V30 58 H -0.015166 -5.633649 5.041957 0
M  V30 59 H -0.098021 -3.367687 0.634839 0
M  V30 END ATOM
M  V30 BEGIN BOND
M  V30 1 1 1 2
M  V30 2 1 2 3
M  V30 3 1 3 4
M  V30 4 2 4 5
M  V30 5 1 4 6
M  V30 6 1 6 7
M  V30 7 1 7 8
M  V30 8 1 8 9
M  V30 9 2 9 10
M  V30 10 1 10 11
M  V30 11 2 11 12
M  V30 12 1 12 13
M  V30 13 1 13 14
M  V30 14 1 14 15
M  V30 15 1 15 16
M  V30 16 1 16 17
M  V30 17 1 17 18
M  V30 18 1 18 19
M  V30 19 1 19 20
M  V30 20 1 18 21
M  V30 21 1 12 22
M  V30 22 2 22 23
M  V30 23 1 23 24
M  V30 24 1 2 25
M  V30 25 2 25 26
M  V30 26 1 26 27
M  V30 27 2 27 28
M  V30 28 1 28 29
M  V30 29 1 28 30
M  V30 30 1 30 31
M  V30 31 2 30 32
M  V30 32 1 24 6
M  V30 33 1 32 25
M  V30 34 1 23 9
M  V30 35 1 21 14
M  V30 36 1 1 33
M  V30 37 1 1 34
M  V30 38 1 1 35
M  V30 39 1 2 36 CFG=1
M  V30 40 1 3 37
M  V30 41 1 7 38
M  V30 42 1 7 39
M  V30 43 1 8 40
M  V30 44 1 8 41
M  V30 45 1 10 42
M  V30 46 1 13 43
M  V30 47 1 14 44 CFG=1
M  V30 48 1 15 45
M  V30 49 1 15 46
M  V30 50 1 16 47
M  V30 51 1 16 48
M  V30 52 1 18 49 CFG=1
M  V30 53 1 19 50
M  V30 54 1 19 51
M  V30 55 1 20 52
M  V30 56 1 21 53
M  V30 57 1 21 54
M  V30 58 1 24 55
M  V30 59 1 24 56
M  V30 60 1 26 57
M  V30 61 1 27 58
M  V30 62 1 32 59
M  V30 END BOND
M  V30 END CTAB
M  END
>  <Dataset>  (79) 
ChEMBL_Kinases

>  <Ligand_Instance>  (79) 
nan

>  <PDB_ID>  (79) 
nan

>  <Standardized_SMILES>  (79) 
C[C@@H](NC(=O)N1CCc2cnc(N[C@H]3CCO[C@@H](CO)C3)nc2C1)c1ccc(Cl)c(Cl)c1

>  <Name>  (79) 
nan

>  <Pocket>  (79) 
nan

>  <ATP_Site>  (79) 
nan

>  <Peripheral>  (79) 
nan

>  <Num_H_Atoms_ProtBoundConf>  (79) 
nan

>  <Num_Resolved_Atoms>  (79) 
nan

>  <Num_Not_Resolved_Atoms>  (79) 
nan

$$$$
CHEMBL4208366
     RDKit          3D

  0  0  0  0  0  0  0  0  0  0999 V3000
M  V30 BEGIN CTAB
M  V30 COUNTS 67 72 0 0 0
M  V30 BEGIN ATOM
M  V30 1 C 3.598725 -1.291071 5.866426 0
M  V30 2 C 4.512944 -1.260324 4.693883 0
M  V30 3 N 4.059070 -1.961961 3.542596 0
M  V30 4 C 2.941548 -1.431401 2.851936 0
M  V30 5 C 3.167545 -1.511955 1.365817 0
M  V30 6 N 4.401138 -0.923291 0.944155 0
M  V30 7 C 4.387302 0.486948 1.046387 0
M  V30 8 C 3.296016 1.098399 0.203970 0
M  V30 9 C 2.034137 1.443077 0.629235 0
M  V30 10 C 1.121339 1.965780 -0.266455 0
M  V30 11 C 1.415779 2.169372 -1.615958 0
M  V30 12 N 0.426169 2.690665 -2.501560 0
M  V30 13 C -0.838559 2.967141 -1.851825 0
M  V30 14 N -1.314418 4.213589 -1.651879 0
M  V30 15 C -2.482624 4.423022 -1.019487 0
M  V30 16 C -3.241147 3.368209 -0.549148 0
M  V30 17 F -4.428445 3.397328 0.101913 0
M  V30 18 C -2.755257 2.095962 -0.752825 0
M  V30 19 C -3.317022 0.803630 -0.352581 0
M  V30 20 C -3.783635 0.789228 0.946141 0
M  V30 21 C -4.325217 -0.387542 1.462771 0
M  V30 22 F -4.816036 -0.519287 2.730993 0
M  V30 23 C -4.392951 -1.527976 0.678912 0
M  V30 24 N -4.825681 -2.792002 0.827321 0
M  V30 25 C -4.650534 -3.519480 -0.283371 0
M  V30 26 N -4.083508 -2.674616 -1.163845 0
M  V30 27 C -3.904756 -1.453850 -0.631563 0
M  V30 28 C -3.366756 -0.307062 -1.165567 0
M  V30 29 C -3.791478 -3.233568 -2.488307 0
M  V30 30 C -5.123068 -3.730344 -3.034367 0
M  V30 31 C -5.738885 -4.710536 -2.061186 0
M  V30 32 C -4.874268 -4.886617 -0.806052 0
M  V30 33 N -1.578314 1.915984 -1.392803 0
M  V30 34 N 2.662103 1.817704 -1.978210 0
M  V30 35 C 3.591679 1.305108 -1.152626 0
M  V30 36 C 5.501308 -1.485331 1.648726 0
M  V30 37 C 5.065729 -2.500143 2.689089 0
M  V30 38 H 3.390367 -0.284821 6.245204 0
M  V30 39 H 2.697797 -1.920162 5.703698 0
M  V30 40 H 4.136527 -1.816912 6.708789 0
M  V30 41 H 5.528033 -1.665455 4.952121 0
M  V30 42 H 4.679503 -0.180686 4.407924 0
M  V30 43 H 1.994192 -2.023651 3.058903 0
M  V30 44 H 2.669626 -0.397685 3.152074 0
M  V30 45 H 3.104352 -2.600748 1.109722 0
M  V30 46 H 2.345022 -0.970864 0.809190 0
M  V30 47 H 5.324372 0.971327 0.740863 0
M  V30 48 H 4.198530 0.780709 2.122476 0
M  V30 49 H 1.843208 1.275844 1.665118 0
M  V30 50 H 0.172670 2.203203 0.161108 0
M  V30 51 H 0.694124 2.821515 -3.502527 0
M  V30 52 H -2.903354 5.393374 -0.836952 0
M  V30 53 H -3.763212 1.649558 1.622473 0
M  V30 54 H -2.984383 -0.228330 -2.178621 0
M  V30 55 H -3.064238 -4.050852 -2.361503 0
M  V30 56 H -3.339062 -2.509328 -3.173419 0
M  V30 57 H -5.747728 -2.797428 -3.146774 0
M  V30 58 H -4.989598 -4.148311 -4.046762 0
M  V30 59 H -6.729836 -4.308657 -1.769864 0
M  V30 60 H -5.927238 -5.696074 -2.556573 0
M  V30 61 H -3.921682 -5.355694 -1.084274 0
M  V30 62 H -5.464492 -5.507889 -0.096648 0
M  V30 63 H 4.584288 1.047296 -1.542023 0
M  V30 64 H 6.085830 -2.085264 0.890095 0
M  V30 65 H 6.219561 -0.789008 2.083488 0
M  V30 66 H 5.961394 -2.745897 3.270149 0
M  V30 67 H 4.666216 -3.402121 2.186666 0
M  V30 END ATOM
M  V30 BEGIN BOND
M  V30 1 1 1 2
M  V30 2 1 2 3
M  V30 3 1 3 4
M  V30 4 1 4 5
M  V30 5 1 5 6
M  V30 6 1 6 7
M  V30 7 1 7 8
M  V30 8 2 8 9
M  V30 9 1 9 10
M  V30 10 2 10 11
M  V30 11 1 11 12
M  V30 12 1 12 13
M  V30 13 2 13 14
M  V30 14 1 14 15
M  V30 15 2 15 16
M  V30 16 1 16 17
M  V30 17 1 16 18
M  V30 18 1 18 19
M  V30 19 2 19 20
M  V30 20 1 20 21
M  V30 21 1 21 22
M  V30 22 2 21 23
M  V30 23 1 23 24
M  V30 24 2 24 25
M  V30 25 1 25 26
M  V30 26 1 26 27
M  V30 27 2 27 28
M  V30 28 1 26 29
M  V30 29 1 29 30
M  V30 30 1 30 31
M  V30 31 1 31 32
M  V30 32 2 18 33
M  V30 33 1 11 34
M  V30 34 2 34 35
M  V30 35 1 6 36
M  V30 36 1 36 37
M  V30 37 1 37 3
M  V30 38 1 35 8
M  V30 39 1 33 13
M  V30 40 1 28 19
M  V30 41 1 27 23
M  V30 42 1 32 25
M  V30 43 1 1 38
M  V30 44 1 1 39
M  V30 45 1 1 40
M  V30 46 1 2 41
M  V30 47 1 2 42
M  V30 48 1 4 43
M  V30 49 1 4 44
M  V30 50 1 5 45
M  V30 51 1 5 46
M  V30 52 1 7 47
M  V30 53 1 7 48
M  V30 54 1 9 49
M  V30 55 1 10 50
M  V30 56 1 12 51
M  V30 57 1 15 52
M  V30 58 1 20 53
M  V30 59 1 28 54
M  V30 60 1 29 55
M  V30 61 1 29 56
M  V30 62 1 30 57
M  V30 63 1 30 58
M  V30 64 1 31 59
M  V30 65 1 31 60
M  V30 66 1 32 61
M  V30 67 1 32 62
M  V30 68 1 35 63
M  V30 69 1 36 64
M  V30 70 1 36 65
M  V30 71 1 37 66
M  V30 72 1 37 67
M  V30 END BOND
M  V30 END CTAB
M  END
>  <Dataset>  (80) 
ChEMBL_Kinases

>  <Ligand_Instance>  (80) 
nan

>  <PDB_ID>  (80) 
nan

>  <Standardized_SMILES>  (80) 
CCN1CCN(Cc2ccc(Nc3ncc(F)c(-c4cc(F)c5nc6n(c5c4)CCCC6)n3)nc2)CC1

>  <Name>  (80) 
nan

>  <Pocket>  (80) 
nan

>  <ATP_Site>  (80) 
nan

>  <Peripheral>  (80) 
nan

>  <Num_H_Atoms_ProtBoundConf>  (80) 
nan

>  <Num_Resolved_Atoms>  (80) 
nan

>  <Num_Not_Resolved_Atoms>  (80) 
nan

$$$$
CHEMBL3675448
     RDKit          3D

  0  0  0  0  0  0  0  0  0  0999 V3000
M  V30 BEGIN CTAB
M  V30 COUNTS 62 65 0 0 0
M  V30 BEGIN ATOM
M  V30 1 C 0.693388 -0.238624 7.116900 0
M  V30 2 N 1.098027 -0.267870 5.726432 0
M  V30 3 C 0.286307 -1.288445 5.080956 0
M  V30 4 C 0.737989 -1.293778 3.612252 0
M  V30 5 N 0.543260 0.004829 2.990617 0
M  V30 6 C 1.145620 0.630353 1.837759 0
M  V30 7 N 2.115178 0.048782 1.119662 0
M  V30 8 C 2.695862 0.631680 0.074766 0
M  V30 9 N 2.310773 1.860188 -0.298643 0
M  V30 10 C 1.340182 2.484661 0.392233 0
M  V30 11 C 0.737571 1.884954 1.473136 0
M  V30 12 C -0.190643 2.582288 2.067599 0
M  V30 13 C -0.748607 3.938453 1.806339 0
M  V30 14 C -0.077896 4.586628 0.615206 0
M  V30 15 C 0.959223 3.695472 0.024936 0
M  V30 16 C 1.637673 4.280453 -1.133412 0
M  V30 17 N 1.382919 5.560123 -1.690349 0
M  V30 18 O 2.557377 3.663031 -1.770576 0
M  V30 19 C -0.046397 -2.373487 2.902124 0
M  V30 20 C -0.826953 -3.253215 3.665265 0
M  V30 21 C -1.581683 -4.276904 3.136557 0
M  V30 22 C -1.597943 -4.483198 1.774872 0
M  V30 23 C -0.848973 -3.647429 0.979575 0
M  V30 24 N -0.823407 -3.807934 -0.434785 0
M  V30 25 C -1.677389 -3.216104 -1.405044 0
M  V30 26 O -2.553832 -2.459468 -0.894235 0
M  V30 27 C -1.520069 -3.482739 -2.817815 0
M  V30 28 C -0.562188 -4.309147 -3.373535 0
M  V30 29 C -0.501858 -4.493964 -4.742131 0
M  V30 30 C -1.401328 -3.852251 -5.568817 0
M  V30 31 C -1.401370 -3.998724 -7.037017 0
M  V30 32 F -0.472171 -4.930577 -7.468638 0
M  V30 33 F -2.638690 -4.446531 -7.502107 0
M  V30 34 F -1.135866 -2.822414 -7.710680 0
M  V30 35 C -2.365576 -3.022637 -5.032185 0
M  V30 36 C -2.435057 -2.828764 -3.647120 0
M  V30 37 C -0.119050 -2.647187 1.565490 0
M  V30 38 H -0.405445 -0.129954 7.115511 0
M  V30 39 H 1.026853 -1.220745 7.544141 0
M  V30 40 H 1.209751 0.569876 7.668795 0
M  V30 41 H 2.110982 -0.499124 5.626395 0
M  V30 42 H -0.775126 -1.152412 5.215254 0
M  V30 43 H 0.594950 -2.260819 5.522293 0
M  V30 44 H 1.790304 -1.616521 3.615592 0
M  V30 45 H -0.167525 0.490999 3.531380 0
M  V30 46 H 3.481249 0.178607 -0.518829 0
M  V30 47 H -0.707831 2.199996 2.907633 0
M  V30 48 H -0.602624 4.630769 2.673951 0
M  V30 49 H -1.826382 3.842530 1.565430 0
M  V30 50 H -0.811593 4.843191 -0.182907 0
M  V30 51 H 0.423851 5.539972 0.879742 0
M  V30 52 H 0.520225 6.007579 -2.074986 0
M  V30 53 H 0.439681 5.857588 -2.036831 0
M  V30 54 H -0.926401 -3.224670 4.732763 0
M  V30 55 H -2.190334 -4.967172 3.699551 0
M  V30 56 H -2.158550 -5.254369 1.302732 0
M  V30 57 H -0.050597 -4.456682 -0.697179 0
M  V30 58 H 0.130479 -4.799873 -2.699156 0
M  V30 59 H 0.252268 -5.143114 -5.166340 0
M  V30 60 H -3.107930 -2.484829 -5.633007 0
M  V30 61 H -3.213793 -2.162505 -3.251161 0
M  V30 62 H 0.447949 -2.021063 0.907351 0
M  V30 END ATOM
M  V30 BEGIN BOND
M  V30 1 1 1 2
M  V30 2 1 2 3
M  V30 3 1 3 4
M  V30 4 1 4 5
M  V30 5 1 5 6
M  V30 6 2 6 7
M  V30 7 1 7 8
M  V30 8 2 8 9
M  V30 9 1 9 10
M  V30 10 1 10 11
M  V30 11 2 11 12
M  V30 12 1 12 13
M  V30 13 1 13 14
M  V30 14 1 14 15
M  V30 15 1 15 16
M  V30 16 1 16 17
M  V30 17 2 16 18
M  V30 18 1 4 19
M  V30 19 2 19 20
M  V30 20 1 20 21
M  V30 21 2 21 22
M  V30 22 1 22 23
M  V30 23 1 23 24
M  V30 24 1 24 25
M  V30 25 2 25 26
M  V30 26 1 25 27
M  V30 27 2 27 28
M  V30 28 1 28 29
M  V30 29 2 29 30
M  V30 30 1 30 31
M  V30 31 1 31 32
M  V30 32 1 31 33
M  V30 33 1 31 34
M  V30 34 1 30 35
M  V30 35 2 35 36
M  V30 36 2 23 37
M  V30 37 1 11 6
M  V30 38 1 37 19
M  V30 39 2 15 10
M  V30 40 1 36 27
M  V30 41 1 1 38
M  V30 42 1 1 39
M  V30 43 1 1 40
M  V30 44 1 2 41
M  V30 45 1 3 42
M  V30 46 1 3 43
M  V30 47 1 4 44
M  V30 48 1 5 45
M  V30 49 1 8 46
M  V30 50 1 12 47
M  V30 51 1 13 48
M  V30 52 1 13 49
M  V30 53 1 14 50
M  V30 54 1 14 51
M  V30 55 1 17 52
M  V30 56 1 17 53
M  V30 57 1 20 54
M  V30 58 1 21 55
M  V30 59 1 22 56
M  V30 60 1 24 57
M  V30 61 1 28 58
M  V30 62 1 29 59
M  V30 63 1 35 60
M  V30 64 1 36 61
M  V30 65 1 37 62
M  V30 END BOND
M  V30 END CTAB
M  END
>  <Dataset>  (81) 
ChEMBL_Kinases

>  <Ligand_Instance>  (81) 
nan

>  <PDB_ID>  (81) 
nan

>  <Standardized_SMILES>  (81) 
CNCC(Nc1ncnc2c1=CCCC=2C(N)=O)c1cccc(NC(=O)c2ccc(C(F)(F)F)cc2)c1

>  <Name>  (81) 
nan

>  <Pocket>  (81) 
nan

>  <ATP_Site>  (81) 
nan

>  <Peripheral>  (81) 
nan

>  <Num_H_Atoms_ProtBoundConf>  (81) 
nan

>  <Num_Resolved_Atoms>  (81) 
nan

>  <Num_Not_Resolved_Atoms>  (81) 
nan

$$$$
CHEMBL4207966
     RDKit          3D

  0  0  0  0  0  0  0  0  0  0999 V3000
M  V30 BEGIN CTAB
M  V30 COUNTS 67 72 0 0 0
M  V30 BEGIN ATOM
M  V30 1 C 1.930492 -2.099407 5.319469 0
M  V30 2 C 2.773840 -2.648031 4.192197 0
M  V30 3 N 3.182366 -1.654054 3.256079 0
M  V30 4 C 2.105634 -1.095500 2.462157 0
M  V30 5 C 2.725425 0.054444 1.686983 0
M  V30 6 N 3.742541 -0.340939 0.771325 0
M  V30 7 C 3.305489 -0.703808 -0.538043 0
M  V30 8 C 2.588208 0.373456 -1.223202 0
M  V30 9 C 3.107454 1.379286 -2.009898 0
M  V30 10 C 2.273491 2.317291 -2.586135 0
M  V30 11 C 0.910385 2.268881 -2.388808 0
M  V30 12 N -0.011563 3.200546 -2.939404 0
M  V30 13 C -1.413771 3.104132 -2.724040 0
M  V30 14 N -2.239903 4.056164 -3.251979 0
M  V30 15 C -3.579088 3.963237 -3.053991 0
M  V30 16 C -4.164486 2.942533 -2.336277 0
M  V30 17 C -3.300936 1.986786 -1.809749 0
M  V30 18 C -3.820051 0.863864 -1.038665 0
M  V30 19 C -5.130266 0.643497 -0.759895 0
M  V30 20 C -5.606989 -0.411640 -0.042707 0
M  V30 21 F -6.913670 -0.626501 0.231910 0
M  V30 22 C -4.714384 -1.351823 0.456107 0
M  V30 23 N -4.897040 -2.478111 1.185957 0
M  V30 24 C -3.667435 -3.021427 1.397637 0
M  V30 25 N -2.750589 -2.223289 0.796429 0
M  V30 26 C -3.354172 -1.184158 0.205436 0
M  V30 27 C -2.938483 -0.081319 -0.535348 0
M  V30 28 C -1.421566 -2.767221 0.996882 0
M  V30 29 C -0.849162 -3.344398 -0.268755 0
M  V30 30 C -1.579196 -3.861891 2.007339 0
M  V30 31 C -3.054407 -4.175645 2.061116 0
M  V30 32 N -1.965000 2.098651 -2.019535 0
M  V30 33 N 0.410187 1.275539 -1.613798 0
M  V30 34 C 1.205892 0.352601 -1.043646 0
M  V30 35 C 4.673204 -1.248757 1.351080 0
M  V30 36 C 4.119769 -2.234402 2.322401 0
M  V30 37 H 1.857015 -2.895605 6.092657 0
M  V30 38 H 0.921097 -1.951428 4.915936 0
M  V30 39 H 2.377785 -1.226321 5.822633 0
M  V30 40 H 2.174563 -3.464083 3.718726 0
M  V30 41 H 3.692658 -3.090632 4.627493 0
M  V30 42 H 1.353908 -0.601575 3.140335 0
M  V30 43 H 1.591240 -1.810140 1.819584 0
M  V30 44 H 3.244789 0.670460 2.481503 0
M  V30 45 H 1.977239 0.732974 1.257647 0
M  V30 46 H 4.243889 -0.941712 -1.119750 0
M  V30 47 H 2.744582 -1.670424 -0.548784 0
M  V30 48 H 4.171754 1.365578 -2.126839 0
M  V30 49 H 2.685016 3.098804 -3.198494 0
M  V30 50 H 0.374027 3.961091 -3.509009 0
M  V30 51 H -4.183703 4.749979 -3.498244 0
M  V30 52 H -5.235461 2.903594 -2.201015 0
M  V30 53 H -5.869203 1.320375 -1.108480 0
M  V30 54 H -1.887105 -0.024252 -0.683545 0
M  V30 55 H -0.767232 -1.966798 1.413330 0
M  V30 56 H -1.645205 -3.581747 -1.002706 0
M  V30 57 H -0.328667 -4.327448 -0.072948 0
M  V30 58 H -0.119118 -2.631840 -0.695693 0
M  V30 59 H -1.070761 -4.810093 1.713259 0
M  V30 60 H -1.193419 -3.612357 3.000469 0
M  V30 61 H -3.415148 -4.337998 3.093943 0
M  V30 62 H -3.297765 -5.123701 1.519916 0
M  V30 63 H 0.686739 -0.387132 -0.448241 0
M  V30 64 H 5.183755 -1.832578 0.554906 0
M  V30 65 H 5.471603 -0.666363 1.894226 0
M  V30 66 H 4.974642 -2.610284 2.952484 0
M  V30 67 H 3.615027 -3.067144 1.782845 0
M  V30 END ATOM
M  V30 BEGIN BOND
M  V30 1 1 1 2
M  V30 2 1 2 3
M  V30 3 1 3 4
M  V30 4 1 4 5
M  V30 5 1 5 6
M  V30 6 1 6 7
M  V30 7 1 7 8
M  V30 8 2 8 9
M  V30 9 1 9 10
M  V30 10 2 10 11
M  V30 11 1 11 12
M  V30 12 1 12 13
M  V30 13 2 13 14
M  V30 14 1 14 15
M  V30 15 2 15 16
M  V30 16 1 16 17
M  V30 17 1 17 18
M  V30 18 2 18 19
M  V30 19 1 19 20
M  V30 20 1 20 21
M  V30 21 2 20 22
M  V30 22 1 22 23
M  V30 23 2 23 24
M  V30 24 1 24 25
M  V30 25 1 25 26
M  V30 26 2 26 27
M  V30 27 1 25 28
M  V30 28 1 28 29
M  V30 29 1 28 30
M  V30 30 1 30 31
M  V30 31 2 17 32
M  V30 32 1 11 33
M  V30 33 2 33 34
M  V30 34 1 6 35
M  V30 35 1 35 36
M  V30 36 1 36 3
M  V30 37 1 34 8
M  V30 38 1 32 13
M  V30 39 1 27 18
M  V30 40 1 26 22
M  V30 41 1 31 24
M  V30 42 1 1 37
M  V30 43 1 1 38
M  V30 44 1 1 39
M  V30 45 1 2 40
M  V30 46 1 2 41
M  V30 47 1 4 42
M  V30 48 1 4 43
M  V30 49 1 5 44
M  V30 50 1 5 45
M  V30 51 1 7 46
M  V30 52 1 7 47
M  V30 53 1 9 48
M  V30 54 1 10 49
M  V30 55 1 12 50
M  V30 56 1 15 51
M  V30 57 1 16 52
M  V30 58 1 19 53
M  V30 59 1 27 54
M  V30 60 1 28 55
M  V30 61 1 29 56
M  V30 62 1 29 57
M  V30 63 1 29 58
M  V30 64 1 30 59
M  V30 65 1 30 60
M  V30 66 1 31 61
M  V30 67 1 31 62
M  V30 68 1 34 63
M  V30 69 1 35 64
M  V30 70 1 35 65
M  V30 71 1 36 66
M  V30 72 1 36 67
M  V30 END BOND
M  V30 END CTAB
M  END
>  <Dataset>  (82) 
ChEMBL_Kinases

>  <Ligand_Instance>  (82) 
nan

>  <PDB_ID>  (82) 
nan

>  <Standardized_SMILES>  (82) 
CCN1CCN(Cc2ccc(Nc3nccc(-c4cc(F)c5nc6n(c5c4)C(C)CC6)n3)nc2)CC1

>  <Name>  (82) 
nan

>  <Pocket>  (82) 
nan

>  <ATP_Site>  (82) 
nan

>  <Peripheral>  (82) 
nan

>  <Num_H_Atoms_ProtBoundConf>  (82) 
nan

>  <Num_Resolved_Atoms>  (82) 
nan

>  <Num_Not_Resolved_Atoms>  (82) 
nan

$$$$
CHEMBL3675447
     RDKit          3D

  0  0  0  0  0  0  0  0  0  0999 V3000
M  V30 BEGIN CTAB
M  V30 COUNTS 58 61 0 0 0
M  V30 BEGIN ATOM
M  V30 1 C -0.038963 -0.333933 4.211762 0
M  V30 2 C 0.009026 -0.929617 2.833499 0
M  V30 3 C 1.466153 -1.079991 2.400887 0
M  V30 4 N 2.138698 0.159364 2.365245 0
M  V30 5 C 2.891017 1.390297 2.320309 0
M  V30 6 N 4.226761 1.511240 2.251573 0
M  V30 7 C 4.881856 2.661285 2.260999 0
M  V30 8 N 4.128095 3.751980 2.345236 0
M  V30 9 C 2.793388 3.765479 2.418104 0
M  V30 10 C 2.198653 5.005591 2.486904 0
M  V30 11 C 2.992156 6.225966 2.495010 0
M  V30 12 N 2.340925 7.487719 2.566796 0
M  V30 13 O 4.236167 6.196066 2.440357 0
M  V30 14 C 0.825557 5.063210 2.548321 0
M  V30 15 C 0.117148 3.884057 2.537547 0
M  V30 16 C 0.801589 2.695718 2.466917 0
M  V30 17 C 2.151761 2.548324 2.404932 0
M  V30 18 C 1.484248 -1.843860 1.096422 0
M  V30 19 C 2.713206 -2.037140 0.500837 0
M  V30 20 C 2.778402 -2.717303 -0.696428 0
M  V30 21 C 1.602968 -3.175938 -1.246143 0
M  V30 22 C 0.357355 -3.009682 -0.693909 0
M  V30 23 N -0.877476 -3.460817 -1.220595 0
M  V30 24 C -1.143602 -4.163391 -2.400917 0
M  V30 25 O -0.179434 -4.465677 -3.143916 0
M  V30 26 C -2.456357 -4.590139 -2.866955 0
M  V30 27 C -2.539160 -5.272600 -4.065344 0
M  V30 28 C -3.763943 -5.717700 -4.582615 0
M  V30 29 C -4.917296 -5.464402 -3.870733 0
M  V30 30 O -6.129147 -5.919325 -4.408734 0
M  V30 31 C -7.310279 -5.653993 -3.668531 0
M  V30 32 N -4.838880 -4.797778 -2.699574 0
M  V30 33 C -3.648148 -4.371395 -2.207860 0
M  V30 34 C 0.341670 -2.325657 0.499194 0
M  V30 35 H -0.277102 -1.093133 4.965368 0
M  V30 36 H -0.793168 0.485237 4.302370 0
M  V30 37 H 0.969585 0.055068 4.475658 0
M  V30 38 H -0.605215 -0.379308 2.136245 0
M  V30 39 H -0.411933 -1.963210 2.928887 0
M  V30 40 H 1.878163 -1.762965 3.205534 0
M  V30 41 H 2.984299 -0.469102 2.219662 0
M  V30 42 H 5.964016 2.673124 2.202268 0
M  V30 43 H 1.389978 7.687144 2.205968 0
M  V30 44 H 2.726418 8.354647 2.981387 0
M  V30 45 H 0.307851 5.995264 2.603455 0
M  V30 46 H -0.957833 3.908491 2.584427 0
M  V30 47 H 0.210543 1.818566 2.443121 0
M  V30 48 H 3.689910 -1.713699 0.863452 0
M  V30 49 H 3.731974 -2.900684 -1.217018 0
M  V30 50 H 1.693310 -3.701998 -2.180010 0
M  V30 51 H -1.762957 -3.275783 -0.702329 0
M  V30 52 H -1.689001 -5.514465 -4.688577 0
M  V30 53 H -3.821775 -6.250306 -5.519693 0
M  V30 54 H -7.160547 -4.911803 -2.866537 0
M  V30 55 H -7.528835 -6.627491 -3.139519 0
M  V30 56 H -8.196943 -5.464814 -4.301258 0
M  V30 57 H -3.622193 -3.840836 -1.267521 0
M  V30 58 H -0.608048 -2.161752 0.973327 0
M  V30 END ATOM
M  V30 BEGIN BOND
M  V30 1 1 1 2
M  V30 2 1 2 3
M  V30 3 1 3 4
M  V30 4 1 4 5
M  V30 5 2 5 6
M  V30 6 1 6 7
M  V30 7 2 7 8
M  V30 8 1 8 9
M  V30 9 2 9 10
M  V30 10 1 10 11
M  V30 11 1 11 12
M  V30 12 2 11 13
M  V30 13 1 10 14
M  V30 14 2 14 15
M  V30 15 1 15 16
M  V30 16 2 16 17
M  V30 17 1 3 18
M  V30 18 2 18 19
M  V30 19 1 19 20
M  V30 20 2 20 21
M  V30 21 1 21 22
M  V30 22 1 22 23
M  V30 23 1 23 24
M  V30 24 2 24 25
M  V30 25 1 24 26
M  V30 26 2 26 27
M  V30 27 1 27 28
M  V30 28 2 28 29
M  V30 29 1 29 30
M  V30 30 1 30 31
M  V30 31 1 29 32
M  V30 32 2 32 33
M  V30 33 2 22 34
M  V30 34 1 17 5
M  V30 35 1 34 18
M  V30 36 1 17 9
M  V30 37 1 33 26
M  V30 38 1 1 35
M  V30 39 1 1 36
M  V30 40 1 1 37
M  V30 41 1 2 38
M  V30 42 1 2 39
M  V30 43 1 3 40
M  V30 44 1 4 41
M  V30 45 1 7 42
M  V30 46 1 12 43
M  V30 47 1 12 44
M  V30 48 1 14 45
M  V30 49 1 15 46
M  V30 50 1 16 47
M  V30 51 1 19 48
M  V30 52 1 20 49
M  V30 53 1 21 50
M  V30 54 1 23 51
M  V30 55 1 27 52
M  V30 56 1 28 53
M  V30 57 1 31 54
M  V30 58 1 31 55
M  V30 59 1 31 56
M  V30 60 1 33 57
M  V30 61 1 34 58
M  V30 END BOND
M  V30 END CTAB
M  END
>  <Dataset>  (83) 
ChEMBL_Kinases

>  <Ligand_Instance>  (83) 
nan

>  <PDB_ID>  (83) 
nan

>  <Standardized_SMILES>  (83) 
CCC(Nc1ncnc2c(C(N)=O)cccc12)c1cccc(NC(=O)c2ccc(OC)nc2)c1

>  <Name>  (83) 
nan

>  <Pocket>  (83) 
nan

>  <ATP_Site>  (83) 
nan

>  <Peripheral>  (83) 
nan

>  <Num_H_Atoms_ProtBoundConf>  (83) 
nan

>  <Num_Resolved_Atoms>  (83) 
nan

>  <Num_Not_Resolved_Atoms>  (83) 
nan

$$$$
CHEMBL4208172
     RDKit          3D

  0  0  0  0  0  0  0  0  0  0999 V3000
M  V30 BEGIN CTAB
M  V30 COUNTS 70 75 0 0 0
M  V30 BEGIN ATOM
M  V30 1 C 5.141515 -3.574005 5.650397 0
M  V30 2 C 4.014156 -2.618375 5.835578 0
M  V30 3 N 3.420687 -2.110297 4.638759 0
M  V30 4 C 2.701094 -3.103631 3.880330 0
M  V30 5 C 2.365894 -2.569436 2.500576 0
M  V30 6 N 3.576502 -2.456270 1.761947 0
M  V30 7 C 3.431668 -2.000370 0.426598 0
M  V30 8 C 2.819285 -0.679381 0.244528 0
M  V30 9 C 1.442520 -0.528909 0.103541 0
M  V30 10 C 0.957132 0.748866 -0.061908 0
M  V30 11 C 1.699103 1.904753 -0.102729 0
M  V30 12 N 1.186621 3.214910 -0.273732 0
M  V30 13 C -0.160980 3.625246 -0.438895 0
M  V30 14 N -0.452754 4.909350 -0.582461 0
M  V30 15 C -1.702313 5.364073 -0.744026 0
M  V30 16 C -2.756942 4.494778 -0.767627 0
M  V30 17 F -3.991541 5.002441 -0.933217 0
M  V30 18 C -2.499407 3.172371 -0.623995 0
M  V30 19 C -3.599290 2.213310 -0.643322 0
M  V30 20 C -4.779920 2.362177 0.026680 0
M  V30 21 C -5.732210 1.354702 -0.095863 0
M  V30 22 F -6.901612 1.478862 0.554295 0
M  V30 23 C -5.429817 0.252431 -0.893040 0
M  V30 24 N -6.185096 -0.818283 -1.150340 0
M  V30 25 C -5.516523 -1.656251 -1.972845 0
M  V30 26 N -4.318563 -1.097029 -2.234904 0
M  V30 27 C -4.243185 0.080540 -1.579493 0
M  V30 28 C -3.314600 1.111543 -1.431265 0
M  V30 29 C -3.483299 -1.891805 -3.114381 0
M  V30 30 C -2.699416 -1.040952 -4.076298 0
M  V30 31 C -2.587823 -2.852069 -2.386263 0
M  V30 32 C -4.537785 -2.708692 -3.839936 0
M  V30 33 C -5.543088 -2.945934 -2.719024 0
M  V30 34 N -1.217549 2.835678 -0.469940 0
M  V30 35 N 3.017041 1.697876 0.038048 0
M  V30 36 C 3.559888 0.483163 0.202833 0
M  V30 37 C 4.650419 -1.933822 2.520917 0
M  V30 38 C 4.267589 -1.286001 3.824460 0
M  V30 39 H 5.212184 -4.166008 6.609866 0
M  V30 40 H 6.144527 -3.095131 5.558625 0
M  V30 41 H 4.952160 -4.311904 4.863847 0
M  V30 42 H 3.209481 -3.152774 6.389302 0
M  V30 43 H 4.349026 -1.814790 6.512132 0
M  V30 44 H 3.269393 -4.033541 3.742392 0
M  V30 45 H 1.773522 -3.334551 4.468161 0
M  V30 46 H 1.636175 -3.255739 2.036010 0
M  V30 47 H 1.886370 -1.564807 2.692746 0
M  V30 48 H 2.757026 -2.735964 -0.099987 0
M  V30 49 H 4.411973 -2.123990 -0.100295 0
M  V30 50 H 0.797176 -1.395660 0.125598 0
M  V30 51 H -0.114066 0.805478 -0.165492 0
M  V30 52 H 1.918455 3.988073 -0.277178 0
M  V30 53 H -1.825328 6.450831 -0.852431 0
M  V30 54 H -4.910251 3.247601 0.611839 0
M  V30 55 H -2.386455 0.951828 -1.983535 0
M  V30 56 H -1.723657 -0.828674 -3.636077 0
M  V30 57 H -2.565103 -1.641260 -4.990325 0
M  V30 58 H -3.283283 -0.130813 -4.329826 0
M  V30 59 H -2.978919 -3.081605 -1.366015 0
M  V30 60 H -1.530090 -2.530841 -2.360173 0
M  V30 61 H -2.579953 -3.840980 -2.930354 0
M  V30 62 H -4.133915 -3.662239 -4.251986 0
M  V30 63 H -5.000190 -2.076803 -4.641548 0
M  V30 64 H -6.547148 -3.151284 -3.135708 0
M  V30 65 H -5.168975 -3.708493 -2.039065 0
M  V30 66 H 4.636215 0.474066 0.300707 0
M  V30 67 H 5.325392 -2.802134 2.771326 0
M  V30 68 H 5.198498 -1.159590 1.948197 0
M  V30 69 H 3.759655 -0.310325 3.676732 0
M  V30 70 H 5.194473 -1.077859 4.397036 0
M  V30 END ATOM
M  V30 BEGIN BOND
M  V30 1 1 1 2
M  V30 2 1 2 3
M  V30 3 1 3 4
M  V30 4 1 4 5
M  V30 5 1 5 6
M  V30 6 1 6 7
M  V30 7 1 7 8
M  V30 8 2 8 9
M  V30 9 1 9 10
M  V30 10 2 10 11
M  V30 11 1 11 12
M  V30 12 1 12 13
M  V30 13 2 13 14
M  V30 14 1 14 15
M  V30 15 2 15 16
M  V30 16 1 16 17
M  V30 17 1 16 18
M  V30 18 1 18 19
M  V30 19 2 19 20
M  V30 20 1 20 21
M  V30 21 1 21 22
M  V30 22 2 21 23
M  V30 23 1 23 24
M  V30 24 2 24 25
M  V30 25 1 25 26
M  V30 26 1 26 27
M  V30 27 2 27 28
M  V30 28 1 26 29
M  V30 29 1 29 30
M  V30 30 1 29 31
M  V30 31 1 29 32
M  V30 32 1 32 33
M  V30 33 2 18 34
M  V30 34 1 11 35
M  V30 35 2 35 36
M  V30 36 1 6 37
M  V30 37 1 37 38
M  V30 38 1 38 3
M  V30 39 1 36 8
M  V30 40 1 34 13
M  V30 41 1 28 19
M  V30 42 1 27 23
M  V30 43 1 33 25
M  V30 44 1 1 39
M  V30 45 1 1 40
M  V30 46 1 1 41
M  V30 47 1 2 42
M  V30 48 1 2 43
M  V30 49 1 4 44
M  V30 50 1 4 45
M  V30 51 1 5 46
M  V30 52 1 5 47
M  V30 53 1 7 48
M  V30 54 1 7 49
M  V30 55 1 9 50
M  V30 56 1 10 51
M  V30 57 1 12 52
M  V30 58 1 15 53
M  V30 59 1 20 54
M  V30 60 1 28 55
M  V30 61 1 30 56
M  V30 62 1 30 57
M  V30 63 1 30 58
M  V30 64 1 31 59
M  V30 65 1 31 60
M  V30 66 1 31 61
M  V30 67 1 32 62
M  V30 68 1 32 63
M  V30 69 1 33 64
M  V30 70 1 33 65
M  V30 71 1 36 66
M  V30 72 1 37 67
M  V30 73 1 37 68
M  V30 74 1 38 69
M  V30 75 1 38 70
M  V30 END BOND
M  V30 END CTAB
M  END
>  <Dataset>  (84) 
ChEMBL_Kinases

>  <Ligand_Instance>  (84) 
nan

>  <PDB_ID>  (84) 
nan

>  <Standardized_SMILES>  (84) 
CCN1CCN(Cc2ccc(Nc3ncc(F)c(-c4cc(F)c5nc6n(c5c4)C(C)(C)CC6)n3)nc2)CC1

>  <Name>  (84) 
nan

>  <Pocket>  (84) 
nan

>  <ATP_Site>  (84) 
nan

>  <Peripheral>  (84) 
nan

>  <Num_H_Atoms_ProtBoundConf>  (84) 
nan

>  <Num_Resolved_Atoms>  (84) 
nan

>  <Num_Not_Resolved_Atoms>  (84) 
nan

$$$$
CHEMBL4208112
     RDKit          3D

  0  0  0  0  0  0  0  0  0  0999 V3000
M  V30 BEGIN CTAB
M  V30 COUNTS 39 42 0 0 0
M  V30 BEGIN ATOM
M  V30 1 O -1.871390 -2.233425 3.502406 0
M  V30 2 C -0.618429 -1.998973 3.545495 0
M  V30 3 N -0.133480 -1.344125 2.381485 0
M  V30 4 C -1.018251 -1.003950 1.292555 0
M  V30 5 C -0.539835 -0.367949 0.165250 0
M  V30 6 N -1.299277 -0.019367 -0.887845 0
M  V30 7 C -1.057933 0.594907 -2.070652 0
M  V30 8 C 0.220802 1.081984 -2.545292 0
M  V30 9 C 1.414401 0.393996 -2.472831 0
M  V30 10 C 2.566907 1.005510 -2.978445 0
M  V30 11 C 2.528095 2.272396 -3.542261 0
M  V30 12 O 3.734115 2.792817 -4.017448 0
M  V30 13 C 1.314281 2.939778 -3.601398 0
M  V30 14 C 0.166115 2.349373 -3.106171 0
M  V30 15 C -2.271832 0.676775 -2.759122 0
M  V30 16 N -3.202696 0.111123 -1.971816 0
M  V30 17 C -2.612344 -0.308654 -0.841766 0
M  V30 18 C -3.119423 -0.953193 0.291196 0
M  V30 19 N -2.330594 -1.295001 1.342632 0
M  V30 20 C 0.280617 -2.348262 4.659589 0
M  V30 21 C 1.624316 -2.098648 4.709569 0
M  V30 22 C 2.310241 -2.493140 5.827471 0
M  V30 23 C 1.678218 -3.119178 6.868548 0
M  V30 24 C 0.324040 -3.388158 6.854635 0
M  V30 25 C -0.351650 -2.986250 5.725572 0
M  V30 26 H 0.859429 -1.099714 2.292928 0
M  V30 27 H 0.498256 -0.148868 0.148978 0
M  V30 28 H 1.404363 -0.581055 -2.030941 0
M  V30 29 H 3.454811 0.377971 -2.872318 0
M  V30 30 H 4.436122 2.160621 -4.379632 0
M  V30 31 H 1.387133 3.918385 -4.057420 0
M  V30 32 H -0.750337 2.934455 -3.187456 0
M  V30 33 H -2.390990 1.119010 -3.735431 0
M  V30 34 H -4.179412 -1.203557 0.363638 0
M  V30 35 H 2.058452 -1.606810 3.865080 0
M  V30 36 H 3.374150 -2.286398 5.847999 0
M  V30 37 H 2.282291 -3.399628 7.712894 0
M  V30 38 H -0.156498 -3.884495 7.688774 0
M  V30 39 H -1.425822 -3.201106 5.717664 0
M  V30 END ATOM
M  V30 BEGIN BOND
M  V30 1 2 1 2
M  V30 2 1 2 3
M  V30 3 1 3 4
M  V30 4 2 4 5
M  V30 5 1 5 6
M  V30 6 1 6 7
M  V30 7 1 7 8
M  V30 8 2 8 9
M  V30 9 1 9 10
M  V30 10 2 10 11
M  V30 11 1 11 12
M  V30 12 1 11 13
M  V30 13 2 13 14
M  V30 14 2 7 15
M  V30 15 1 15 16
M  V30 16 2 16 17
M  V30 17 1 17 18
M  V30 18 2 18 19
M  V30 19 1 2 20
M  V30 20 2 20 21
M  V30 21 1 21 22
M  V30 22 2 22 23
M  V30 23 1 23 24
M  V30 24 2 24 25
M  V30 25 1 19 4
M  V30 26 1 25 20
M  V30 27 1 17 6
M  V30 28 1 14 8
M  V30 29 1 3 26
M  V30 30 1 5 27
M  V30 31 1 9 28
M  V30 32 1 10 29
M  V30 33 1 12 30
M  V30 34 1 13 31
M  V30 35 1 14 32
M  V30 36 1 15 33
M  V30 37 1 18 34
M  V30 38 1 21 35
M  V30 39 1 22 36
M  V30 40 1 23 37
M  V30 41 1 24 38
M  V30 42 1 25 39
M  V30 END BOND
M  V30 END CTAB
M  END
>  <Dataset>  (85) 
ChEMBL_Kinases

>  <Ligand_Instance>  (85) 
nan

>  <PDB_ID>  (85) 
nan

>  <Standardized_SMILES>  (85) 
O=C(Nc1cn2c(-c3ccc(O)cc3)cnc2cn1)c1ccccc1

>  <Name>  (85) 
nan

>  <Pocket>  (85) 
nan

>  <ATP_Site>  (85) 
nan

>  <Peripheral>  (85) 
nan

>  <Num_H_Atoms_ProtBoundConf>  (85) 
nan

>  <Num_Resolved_Atoms>  (85) 
nan

>  <Num_Not_Resolved_Atoms>  (85) 
nan

$$$$
CHEMBL3298308
     RDKit          3D

  0  0  0  0  0  0  0  0  0  0999 V3000
M  V30 BEGIN CTAB
M  V30 COUNTS 51 53 0 0 0
M  V30 BEGIN ATOM
M  V30 1 C 3.359665 0.009806 3.980587 0
M  V30 2 C 4.739372 -0.184541 3.362497 0 CFG=1
M  V30 3 C 4.768152 -1.634551 2.873309 0
M  V30 4 O 6.001086 -1.908565 2.332005 0
M  V30 5 N 4.984828 0.703802 2.255236 0
M  V30 6 C 4.110945 0.545651 1.151298 0
M  V30 7 N 4.561150 -0.278891 0.188161 0
M  V30 8 C 3.862230 -0.553786 -0.934622 0
M  V30 9 C 2.630604 0.027145 -1.119192 0
M  V30 10 C 2.177176 0.866541 -0.133195 0
M  V30 11 N 2.896310 1.130312 0.989357 0
M  V30 12 C 0.840480 1.497089 -0.312838 0
M  V30 13 N -0.047971 0.361178 -0.620427 0
M  V30 14 C -1.091362 0.034684 0.286236 0
M  V30 15 O -1.131305 0.786643 1.292330 0
M  V30 16 N -1.955455 -1.049117 0.003544 0
M  V30 17 C -2.977030 -1.309524 0.969999 0 CFG=2
M  V30 18 C -2.772247 -2.713909 1.497861 0
M  V30 19 C -4.363532 -1.217629 0.414823 0
M  V30 20 C -4.681921 -1.788554 -0.813975 0
M  V30 21 C -5.996229 -1.661818 -1.262180 0
M  V30 22 C -6.995839 -1.010157 -0.568884 0
M  V30 23 Cl -8.626671 -0.884536 -1.183525 0
M  V30 24 C -6.679328 -0.447180 0.644062 0
M  V30 25 Cl -7.857543 0.405104 1.618157 0
M  V30 26 C -5.387988 -0.561062 1.103906 0
M  V30 27 C 0.268701 -0.319470 -1.864825 0
M  V30 28 C 1.702481 -0.131651 -2.263821 0
M  V30 29 H 3.386103 0.880386 4.668447 0
M  V30 30 H 3.066439 -0.891140 4.539824 0
M  V30 31 H 2.642496 0.195488 3.158247 0
M  V30 32 H 5.494179 -0.109872 4.163470 0
M  V30 33 H 4.555116 -2.316028 3.715918 0
M  V30 34 H 3.935008 -1.687891 2.135631 0
M  V30 35 H 6.255486 -2.833600 2.602488 0
M  V30 36 H 5.761892 1.405192 2.296089 0
M  V30 37 H 4.181932 -1.209217 -1.734786 0
M  V30 38 H 0.907883 2.190901 -1.168245 0
M  V30 39 H 0.497735 2.004486 0.607383 0
M  V30 40 H -1.887831 -1.646805 -0.844993 0
M  V30 41 H -2.953269 -0.619282 1.836641 0
M  V30 42 H -1.678625 -2.958925 1.484712 0
M  V30 43 H -3.245346 -2.874958 2.477945 0
M  V30 44 H -3.197112 -3.413724 0.724773 0
M  V30 45 H -3.935844 -2.311907 -1.401314 0
M  V30 46 H -6.300704 -2.085048 -2.209355 0
M  V30 47 H -5.083582 -0.128757 2.066471 0
M  V30 48 H -0.373208 0.115360 -2.655053 0
M  V30 49 H 0.050345 -1.401947 -1.804346 0
M  V30 50 H 1.809404 0.811342 -2.875897 0
M  V30 51 H 2.020448 -0.953776 -2.945275 0
M  V30 END ATOM
M  V30 BEGIN BOND
M  V30 1 1 1 2
M  V30 2 1 2 3
M  V30 3 1 3 4
M  V30 4 1 2 5
M  V30 5 1 5 6
M  V30 6 2 6 7
M  V30 7 1 7 8
M  V30 8 2 8 9
M  V30 9 1 9 10
M  V30 10 2 10 11
M  V30 11 1 10 12
M  V30 12 1 12 13
M  V30 13 1 13 14
M  V30 14 2 14 15
M  V30 15 1 14 16
M  V30 16 1 16 17
M  V30 17 1 17 18
M  V30 18 1 17 19
M  V30 19 2 19 20
M  V30 20 1 20 21
M  V30 21 2 21 22
M  V30 22 1 22 23
M  V30 23 1 22 24
M  V30 24 1 24 25
M  V30 25 2 24 26
M  V30 26 1 13 27
M  V30 27 1 27 28
M  V30 28 1 11 6
M  V30 29 1 26 19
M  V30 30 1 28 9
M  V30 31 1 1 29
M  V30 32 1 1 30
M  V30 33 1 1 31
M  V30 34 1 2 32 CFG=1
M  V30 35 1 3 33
M  V30 36 1 3 34
M  V30 37 1 4 35
M  V30 38 1 5 36
M  V30 39 1 8 37
M  V30 40 1 12 38
M  V30 41 1 12 39
M  V30 42 1 16 40
M  V30 43 1 17 41 CFG=1
M  V30 44 1 18 42
M  V30 45 1 18 43
M  V30 46 1 18 44
M  V30 47 1 20 45
M  V30 48 1 21 46
M  V30 49 1 26 47
M  V30 50 1 27 48
M  V30 51 1 27 49
M  V30 52 1 28 50
M  V30 53 1 28 51
M  V30 END BOND
M  V30 END CTAB
M  END
>  <Dataset>  (86) 
ChEMBL_Kinases

>  <Ligand_Instance>  (86) 
nan

>  <PDB_ID>  (86) 
nan

>  <Standardized_SMILES>  (86) 
C[C@@H](CO)Nc1ncc2c(n1)CN(C(=O)N[C@H](C)c1ccc(Cl)c(Cl)c1)CC2

>  <Name>  (86) 
nan

>  <Pocket>  (86) 
nan

>  <ATP_Site>  (86) 
nan

>  <Peripheral>  (86) 
nan

>  <Num_H_Atoms_ProtBoundConf>  (86) 
nan

>  <Num_Resolved_Atoms>  (86) 
nan

>  <Num_Not_Resolved_Atoms>  (86) 
nan

$$$$
CHEMBL3298309
     RDKit          3D

  0  0  0  0  0  0  0  0  0  0999 V3000
M  V30 BEGIN CTAB
M  V30 COUNTS 54 56 0 0 0
M  V30 BEGIN ATOM
M  V30 1 C -2.296362 -1.861458 5.912694 0
M  V30 2 C -1.735415 -1.977187 4.533691 0
M  V30 3 C -0.896874 -0.791598 4.106167 0 CFG=1
M  V30 4 N -0.436184 -1.077981 2.743026 0
M  V30 5 C 0.963500 -1.156710 2.489445 0
M  V30 6 O 1.930785 -1.013377 3.285572 0
M  V30 7 N 1.532931 -1.430341 1.199522 0
M  V30 8 C 2.988220 -1.462933 1.177733 0
M  V30 9 C 3.484415 -2.508121 0.172186 0
M  V30 10 C 2.999371 -2.012182 -1.155909 0
M  V30 11 C 3.795448 -1.947405 -2.277651 0
M  V30 12 N 3.219914 -1.479407 -3.401081 0
M  V30 13 C 1.924356 -1.083958 -3.457475 0
M  V30 14 N 1.334092 -0.593041 -4.650843 0
M  V30 15 C -0.023135 -0.181964 -4.698177 0 CFG=1
M  V30 16 C -0.362941 0.287179 -6.085665 0
M  V30 17 C -1.042063 -1.185127 -4.268834 0
M  V30 18 O -0.990992 -2.332175 -5.065297 0
M  V30 19 N 1.171427 -1.162507 -2.331591 0
M  V30 20 C 1.674219 -1.623893 -1.152741 0
M  V30 21 C 0.757574 -1.660396 -0.004225 0
M  V30 22 C -1.659747 0.466781 4.194144 0
M  V30 23 C -2.603166 0.619179 3.172726 0
M  V30 24 C -3.410622 1.752198 3.105781 0
M  V30 25 C -3.284670 2.742582 4.055973 0
M  V30 26 F -4.052416 3.863975 4.027855 0
M  V30 27 C -2.346028 2.595609 5.075964 0
M  V30 28 F -2.199821 3.554949 6.025756 0
M  V30 29 C -1.550457 1.469806 5.134304 0
M  V30 30 H -1.830018 -0.983487 6.407892 0
M  V30 31 H -3.417208 -1.805893 5.923870 0
M  V30 32 H -2.017896 -2.729957 6.548171 0
M  V30 33 H -2.570526 -2.129542 3.822921 0
M  V30 34 H -1.061585 -2.872782 4.508975 0
M  V30 35 H 0.016245 -0.685434 4.714733 0
M  V30 36 H -1.091055 -1.228071 1.943303 0
M  V30 37 H 3.418126 -1.714686 2.162705 0
M  V30 38 H 3.428514 -0.497213 0.861812 0
M  V30 39 H 3.034159 -3.500443 0.402411 0
M  V30 40 H 4.569274 -2.546996 0.258727 0
M  V30 41 H 4.822603 -2.266499 -2.211995 0
M  V30 42 H 1.957408 -0.547155 -5.510842 0
M  V30 43 H -0.118736 0.694250 -3.992376 0
M  V30 44 H 0.251279 1.207793 -6.280827 0
M  V30 45 H -1.442595 0.464290 -6.214595 0
M  V30 46 H 0.030459 -0.467642 -6.824574 0
M  V30 47 H -1.091491 -1.382056 -3.197376 0
M  V30 48 H -2.041611 -0.722469 -4.520482 0
M  V30 49 H -0.362227 -2.213665 -5.843769 0
M  V30 50 H 0.014838 -0.845491 -0.099280 0
M  V30 51 H 0.253834 -2.663376 0.088813 0
M  V30 52 H -2.793432 -0.087546 2.372912 0
M  V30 53 H -4.149089 1.904355 2.332741 0
M  V30 54 H -0.803672 1.285767 5.891782 0
M  V30 END ATOM
M  V30 BEGIN BOND
M  V30 1 1 1 2
M  V30 2 1 2 3
M  V30 3 1 3 4
M  V30 4 1 4 5
M  V30 5 2 5 6
M  V30 6 1 5 7
M  V30 7 1 7 8
M  V30 8 1 8 9
M  V30 9 1 9 10
M  V30 10 2 10 11
M  V30 11 1 11 12
M  V30 12 2 12 13
M  V30 13 1 13 14
M  V30 14 1 14 15
M  V30 15 1 15 16
M  V30 16 1 15 17
M  V30 17 1 17 18
M  V30 18 1 13 19
M  V30 19 2 19 20
M  V30 20 1 20 21
M  V30 21 1 3 22
M  V30 22 2 22 23
M  V30 23 1 23 24
M  V30 24 2 24 25
M  V30 25 1 25 26
M  V30 26 1 25 27
M  V30 27 1 27 28
M  V30 28 2 27 29
M  V30 29 1 21 7
M  V30 30 1 29 22
M  V30 31 1 20 10
M  V30 32 1 1 30
M  V30 33 1 1 31
M  V30 34 1 1 32
M  V30 35 1 2 33
M  V30 36 1 2 34
M  V30 37 1 3 35 CFG=1
M  V30 38 1 4 36
M  V30 39 1 8 37
M  V30 40 1 8 38
M  V30 41 1 9 39
M  V30 42 1 9 40
M  V30 43 1 11 41
M  V30 44 1 14 42
M  V30 45 1 15 43 CFG=1
M  V30 46 1 16 44
M  V30 47 1 16 45
M  V30 48 1 16 46
M  V30 49 1 17 47
M  V30 50 1 17 48
M  V30 51 1 18 49
M  V30 52 1 21 50
M  V30 53 1 21 51
M  V30 54 1 23 52
M  V30 55 1 24 53
M  V30 56 1 29 54
M  V30 END BOND
M  V30 END CTAB
M  END
>  <Dataset>  (87) 
ChEMBL_Kinases

>  <Ligand_Instance>  (87) 
nan

>  <PDB_ID>  (87) 
nan

>  <Standardized_SMILES>  (87) 
CC[C@@H](NC(=O)N1CCc2cnc(N[C@@H](C)CO)nc2C1)c1ccc(F)c(F)c1

>  <Name>  (87) 
nan

>  <Pocket>  (87) 
nan

>  <ATP_Site>  (87) 
nan

>  <Peripheral>  (87) 
nan

>  <Num_H_Atoms_ProtBoundConf>  (87) 
nan

>  <Num_Resolved_Atoms>  (87) 
nan

>  <Num_Not_Resolved_Atoms>  (87) 
nan

$$$$
CHEMBL3675443
     RDKit          3D

  0  0  0  0  0  0  0  0  0  0999 V3000
M  V30 BEGIN CTAB
M  V30 COUNTS 57 60 0 0 0
M  V30 BEGIN ATOM
M  V30 1 C 4.725878 -1.685923 6.033371 0
M  V30 2 C 3.817284 -2.316479 4.992840 0
M  V30 3 C 2.438711 -1.744021 5.188157 0
M  V30 4 C 1.978420 -1.134124 3.931928 0
M  V30 5 C 2.485743 -0.977571 2.727006 0
M  V30 6 C 1.722262 -0.301294 1.693128 0
M  V30 7 O 0.578029 0.123750 1.981241 0
M  V30 8 N 2.201568 -0.104376 0.401615 0
M  V30 9 C 1.597966 0.525708 -0.713631 0
M  V30 10 C 2.275817 0.601861 -1.910498 0
M  V30 11 C 1.749862 1.198955 -3.032718 0
M  V30 12 C 0.493808 1.763616 -3.020840 0
M  V30 13 C -0.202234 1.705313 -1.854114 0
M  V30 14 C -1.576552 2.307556 -1.794362 0
M  V30 15 C -1.521699 3.574490 -0.978111 0
M  V30 16 N -2.388315 1.318204 -1.101273 0
M  V30 17 C -2.493194 0.027401 -1.691349 0
M  V30 18 N -1.865411 -0.261319 -2.842658 0
M  V30 19 C -1.946921 -1.470687 -3.421373 0
M  V30 20 N -2.650396 -2.479103 -2.909155 0
M  V30 21 C -3.309136 -2.268664 -1.755095 0
M  V30 22 C -4.060763 -3.257110 -1.155924 0
M  V30 23 C -4.147255 -4.555573 -1.778711 0
M  V30 24 N -3.500048 -4.904497 -2.995362 0
M  V30 25 O -4.809969 -5.514646 -1.301540 0
M  V30 26 C -4.745781 -3.068234 0.026572 0
M  V30 27 C -4.657704 -1.809061 0.624108 0
M  V30 28 C -3.901362 -0.833784 0.009866 0
M  V30 29 C -3.217292 -1.023321 -1.171538 0
M  V30 30 C 0.349852 1.103361 -0.753680 0
M  V30 31 C 3.800776 -1.516461 2.537847 0
M  V30 32 C 4.276517 -2.085155 3.627688 0
M  V30 33 F 5.534720 -2.643253 3.583784 0
M  V30 34 H 4.148136 -1.712182 6.994918 0
M  V30 35 H 5.689698 -2.197961 6.131161 0
M  V30 36 H 4.821283 -0.613994 5.767852 0
M  V30 37 H 3.768173 -3.421513 5.218497 0
M  V30 38 H 2.450178 -0.923227 5.963814 0
M  V30 39 H 1.716820 -2.546338 5.509854 0
M  V30 40 H 0.966190 -0.736507 4.110465 0
M  V30 41 H 3.164769 -0.492595 0.254101 0
M  V30 42 H 3.267812 0.178051 -1.989226 0
M  V30 43 H 2.341737 1.220191 -3.936420 0
M  V30 44 H 0.051541 2.240024 -3.884180 0
M  V30 45 H -1.953030 2.539325 -2.791945 0
M  V30 46 H -1.385870 3.380460 0.097745 0
M  V30 47 H -0.679551 4.226756 -1.284920 0
M  V30 48 H -2.505781 4.097179 -1.060324 0
M  V30 49 H -2.846598 1.609140 -0.213965 0
M  V30 50 H -1.414594 -1.642484 -4.355006 0
M  V30 51 H -3.583894 -4.830313 -4.035097 0
M  V30 52 H -2.635839 -5.403160 -3.269238 0
M  V30 53 H -5.321457 -3.870935 0.458718 0
M  V30 54 H -5.195877 -1.652440 1.557854 0
M  V30 55 H -3.890439 0.096299 0.535886 0
M  V30 56 H -0.264968 1.100089 0.126230 0
M  V30 57 H 4.320393 -1.453176 1.607098 0
M  V30 END ATOM
M  V30 BEGIN BOND
M  V30 1 1 1 2
M  V30 2 1 2 3
M  V30 3 1 3 4
M  V30 4 2 4 5
M  V30 5 1 5 6
M  V30 6 2 6 7
M  V30 7 1 6 8
M  V30 8 1 8 9
M  V30 9 2 9 10
M  V30 10 1 10 11
M  V30 11 2 11 12
M  V30 12 1 12 13
M  V30 13 1 13 14
M  V30 14 1 14 15
M  V30 15 1 14 16
M  V30 16 1 16 17
M  V30 17 2 17 18
M  V30 18 1 18 19
M  V30 19 2 19 20
M  V30 20 1 20 21
M  V30 21 2 21 22
M  V30 22 1 22 23
M  V30 23 1 23 24
M  V30 24 2 23 25
M  V30 25 1 22 26
M  V30 26 2 26 27
M  V30 27 1 27 28
M  V30 28 2 28 29
M  V30 29 2 13 30
M  V30 30 1 5 31
M  V30 31 2 31 32
M  V30 32 1 32 33
M  V30 33 1 32 2
M  V30 34 1 30 9
M  V30 35 1 29 17
M  V30 36 1 29 21
M  V30 37 1 1 34
M  V30 38 1 1 35
M  V30 39 1 1 36
M  V30 40 1 2 37
M  V30 41 1 3 38
M  V30 42 1 3 39
M  V30 43 1 4 40
M  V30 44 1 8 41
M  V30 45 1 10 42
M  V30 46 1 11 43
M  V30 47 1 12 44
M  V30 48 1 14 45
M  V30 49 1 15 46
M  V30 50 1 15 47
M  V30 51 1 15 48
M  V30 52 1 16 49
M  V30 53 1 19 50
M  V30 54 1 24 51
M  V30 55 1 24 52
M  V30 56 1 26 53
M  V30 57 1 27 54
M  V30 58 1 28 55
M  V30 59 1 30 56
M  V30 60 1 31 57
M  V30 END BOND
M  V30 END CTAB
M  END
>  <Dataset>  (88) 
ChEMBL_Kinases

>  <Ligand_Instance>  (88) 
nan

>  <PDB_ID>  (88) 
nan

>  <Standardized_SMILES>  (88) 
CC1CC=C(C(=O)Nc2cccc(C(C)Nc3ncnc4c(C(N)=O)cccc34)c2)C=C1F

>  <Name>  (88) 
nan

>  <Pocket>  (88) 
nan

>  <ATP_Site>  (88) 
nan

>  <Peripheral>  (88) 
nan

>  <Num_H_Atoms_ProtBoundConf>  (88) 
nan

>  <Num_Resolved_Atoms>  (88) 
nan

>  <Num_Not_Resolved_Atoms>  (88) 
nan

$$$$
CHEMBL3298310
     RDKit          3D

  0  0  0  0  0  0  0  0  0  0999 V3000
M  V30 BEGIN CTAB
M  V30 COUNTS 54 56 0 0 0
M  V30 BEGIN ATOM
M  V30 1 C -0.476390 2.349751 4.232765 0
M  V30 2 C -1.683475 2.010392 3.404600 0
M  V30 3 C -1.934901 0.523868 3.278530 0 CFG=1
M  V30 4 N -0.815948 -0.114158 2.662752 0
M  V30 5 C -0.940339 -0.721912 1.397985 0
M  V30 6 O -2.094523 -0.646497 0.888341 0
M  V30 7 N 0.147273 -1.368296 0.748161 0
M  V30 8 C 1.421805 -1.392601 1.428182 0
M  V30 9 C 2.461669 -2.170938 0.650059 0
M  V30 10 C 2.359862 -1.804674 -0.788264 0
M  V30 11 C 3.522466 -1.569620 -1.501303 0
M  V30 12 N 3.384281 -1.241049 -2.799322 0
M  V30 13 C 2.206101 -1.134553 -3.413941 0
M  V30 14 N 2.073493 -0.787080 -4.782636 0
M  V30 15 C 0.810306 -0.673893 -5.441401 0 CFG=1
M  V30 16 C 0.980977 -0.289794 -6.892613 0
M  V30 17 C -0.008517 -1.939404 -5.395139 0
M  V30 18 O 0.628638 -3.001768 -5.992784 0
M  V30 19 N 1.091970 -1.365253 -2.709695 0
M  V30 20 C 1.118685 -1.696621 -1.419783 0
M  V30 21 C -0.058835 -1.971278 -0.554997 0
M  V30 22 C -2.281686 -0.086760 4.598097 0
M  V30 23 C -3.593388 -0.367968 4.940793 0
M  V30 24 C -3.914580 -0.937306 6.170345 0
M  V30 25 C -2.909652 -1.240185 7.094271 0
M  V30 26 Cl -3.286369 -1.954138 8.642745 0
M  V30 27 C -1.600982 -0.958411 6.749532 0
M  V30 28 Cl -0.358366 -1.338283 7.904425 0
M  V30 29 C -1.322620 -0.397537 5.529534 0
M  V30 30 H 0.390582 1.763229 3.880164 0
M  V30 31 H -0.235539 3.431829 4.080416 0
M  V30 32 H -0.661931 2.155184 5.299289 0
M  V30 33 H -1.466229 2.358713 2.356020 0
M  V30 34 H -2.584577 2.556685 3.700972 0
M  V30 35 H -2.866386 0.457048 2.640310 0
M  V30 36 H 0.092190 -0.118866 3.173524 0
M  V30 37 H 1.361419 -1.699213 2.473355 0
M  V30 38 H 1.788676 -0.325807 1.415026 0
M  V30 39 H 3.456189 -1.924200 1.026530 0
M  V30 40 H 2.224788 -3.258005 0.792401 0
M  V30 41 H 4.462712 -1.653137 -1.015973 0
M  V30 42 H 2.971263 -0.607879 -5.319742 0
M  V30 43 H 0.188045 0.122491 -4.958741 0
M  V30 44 H 0.215567 0.477122 -7.201475 0
M  V30 45 H 2.007659 0.110146 -7.014142 0
M  V30 46 H 0.892179 -1.205506 -7.517543 0
M  V30 47 H -0.360401 -2.200758 -4.398706 0
M  V30 48 H -0.927314 -1.717671 -6.003756 0
M  V30 49 H 0.754649 -3.718330 -5.322141 0
M  V30 50 H -0.999334 -1.636919 -0.995037 0
M  V30 51 H -0.099740 -3.077341 -0.361234 0
M  V30 52 H -4.408666 -0.151755 4.258812 0
M  V30 53 H -4.951572 -1.162528 6.448160 0
M  V30 54 H -0.280226 -0.212022 5.342972 0
M  V30 END ATOM
M  V30 BEGIN BOND
M  V30 1 1 1 2
M  V30 2 1 2 3
M  V30 3 1 3 4
M  V30 4 1 4 5
M  V30 5 2 5 6
M  V30 6 1 5 7
M  V30 7 1 7 8
M  V30 8 1 8 9
M  V30 9 1 9 10
M  V30 10 2 10 11
M  V30 11 1 11 12
M  V30 12 2 12 13
M  V30 13 1 13 14
M  V30 14 1 14 15
M  V30 15 1 15 16
M  V30 16 1 15 17
M  V30 17 1 17 18
M  V30 18 1 13 19
M  V30 19 2 19 20
M  V30 20 1 20 21
M  V30 21 1 3 22
M  V30 22 2 22 23
M  V30 23 1 23 24
M  V30 24 2 24 25
M  V30 25 1 25 26
M  V30 26 1 25 27
M  V30 27 1 27 28
M  V30 28 2 27 29
M  V30 29 1 21 7
M  V30 30 1 29 22
M  V30 31 1 20 10
M  V30 32 1 1 30
M  V30 33 1 1 31
M  V30 34 1 1 32
M  V30 35 1 2 33
M  V30 36 1 2 34
M  V30 37 1 3 35 CFG=3
M  V30 38 1 4 36
M  V30 39 1 8 37
M  V30 40 1 8 38
M  V30 41 1 9 39
M  V30 42 1 9 40
M  V30 43 1 11 41
M  V30 44 1 14 42
M  V30 45 1 15 43 CFG=1
M  V30 46 1 16 44
M  V30 47 1 16 45
M  V30 48 1 16 46
M  V30 49 1 17 47
M  V30 50 1 17 48
M  V30 51 1 18 49
M  V30 52 1 21 50
M  V30 53 1 21 51
M  V30 54 1 23 52
M  V30 55 1 24 53
M  V30 56 1 29 54
M  V30 END BOND
M  V30 END CTAB
M  END
>  <Dataset>  (89) 
ChEMBL_Kinases

>  <Ligand_Instance>  (89) 
nan

>  <PDB_ID>  (89) 
nan

>  <Standardized_SMILES>  (89) 
CC[C@@H](NC(=O)N1CCc2cnc(N[C@@H](C)CO)nc2C1)c1ccc(Cl)c(Cl)c1

>  <Name>  (89) 
nan

>  <Pocket>  (89) 
nan

>  <ATP_Site>  (89) 
nan

>  <Peripheral>  (89) 
nan

>  <Num_H_Atoms_ProtBoundConf>  (89) 
nan

>  <Num_Resolved_Atoms>  (89) 
nan

>  <Num_Not_Resolved_Atoms>  (89) 
nan

$$$$
CHEMBL3298311
     RDKit          3D

  0  0  0  0  0  0  0  0  0  0999 V3000
M  V30 BEGIN CTAB
M  V30 COUNTS 54 56 0 0 0
M  V30 BEGIN ATOM
M  V30 1 C 2.390704 4.110899 3.877185 0
M  V30 2 C 3.230851 3.046518 4.583433 0 CFG=1
M  V30 3 C 2.399945 2.077390 5.359064 0
M  V30 4 O 1.622182 1.245924 4.588535 0
M  V30 5 N 4.171078 2.434504 3.673067 0
M  V30 6 C 3.787805 1.754917 2.470859 0
M  V30 7 N 4.689309 1.184947 1.647393 0
M  V30 8 C 4.361608 0.546290 0.517353 0
M  V30 9 C 3.031596 0.455650 0.157997 0
M  V30 10 C 2.110743 1.030202 0.986225 0
M  V30 11 N 2.499053 1.659038 2.109073 0
M  V30 12 C 0.696577 0.902197 0.552400 0
M  V30 13 N 0.397045 -0.393851 0.019147 0
M  V30 14 C -0.802772 -1.079388 0.355378 0
M  V30 15 O -1.431416 -0.337649 1.135853 0
M  V30 16 N -1.114825 -2.354133 -0.159033 0
M  V30 17 C -2.329887 -3.001781 0.207205 0 CFG=2
M  V30 18 C -2.168397 -4.355757 0.848086 0
M  V30 19 C -3.143699 -3.187045 -1.024020 0
M  V30 20 C -4.495822 -2.900278 -1.049486 0
M  V30 21 C -5.293286 -3.061486 -2.188348 0
M  V30 22 C -4.702128 -3.528333 -3.338780 0
M  V30 23 C -5.470354 -3.734298 -4.608090 0
M  V30 24 F -4.902256 -2.928602 -5.574582 0
M  V30 25 F -5.279161 -5.068363 -4.990029 0
M  V30 26 F -6.803731 -3.475385 -4.447204 0
M  V30 27 C -3.356025 -3.828455 -3.363060 0
M  V30 28 F -2.756836 -4.287032 -4.479251 0
M  V30 29 C -2.605905 -3.653230 -2.211614 0
M  V30 30 C 1.334618 -1.020746 -0.880684 0
M  V30 31 C 2.586987 -0.229912 -1.069194 0
M  V30 32 H 1.655227 3.674361 3.200959 0
M  V30 33 H 1.855548 4.653913 4.692708 0
M  V30 34 H 3.087838 4.823949 3.420479 0
M  V30 35 H 3.827795 3.625213 5.336649 0
M  V30 36 H 3.108593 1.499120 6.008219 0
M  V30 37 H 1.774938 2.667896 6.068562 0
M  V30 38 H 1.586170 0.368408 5.061212 0
M  V30 39 H 5.216987 2.465441 3.866076 0
M  V30 40 H 5.133999 0.110015 -0.100095 0
M  V30 41 H 0.061005 1.064731 1.447600 0
M  V30 42 H 0.461215 1.685014 -0.179539 0
M  V30 43 H -0.463342 -2.840780 -0.813092 0
M  V30 44 H -2.941354 -2.392677 0.906580 0
M  V30 45 H -1.353493 -4.951033 0.395736 0
M  V30 46 H -3.112274 -4.914792 0.655456 0
M  V30 47 H -2.099711 -4.291433 1.957769 0
M  V30 48 H -4.929452 -2.532289 -0.118576 0
M  V30 49 H -6.348263 -2.826565 -2.170635 0
M  V30 50 H -1.552352 -3.887112 -2.226782 0
M  V30 51 H 0.830344 -1.179348 -1.875346 0
M  V30 52 H 1.627583 -2.047291 -0.553345 0
M  V30 53 H 2.406983 0.559174 -1.841371 0
M  V30 54 H 3.403372 -0.880119 -1.435407 0
M  V30 END ATOM
M  V30 BEGIN BOND
M  V30 1 1 1 2
M  V30 2 1 2 3
M  V30 3 1 3 4
M  V30 4 1 2 5
M  V30 5 1 5 6
M  V30 6 2 6 7
M  V30 7 1 7 8
M  V30 8 2 8 9
M  V30 9 1 9 10
M  V30 10 2 10 11
M  V30 11 1 10 12
M  V30 12 1 12 13
M  V30 13 1 13 14
M  V30 14 2 14 15
M  V30 15 1 14 16
M  V30 16 1 16 17
M  V30 17 1 17 18
M  V30 18 1 17 19
M  V30 19 2 19 20
M  V30 20 1 20 21
M  V30 21 2 21 22
M  V30 22 1 22 23
M  V30 23 1 23 24
M  V30 24 1 23 25
M  V30 25 1 23 26
M  V30 26 1 22 27
M  V30 27 1 27 28
M  V30 28 2 27 29
M  V30 29 1 13 30
M  V30 30 1 30 31
M  V30 31 1 11 6
M  V30 32 1 29 19
M  V30 33 1 31 9
M  V30 34 1 1 32
M  V30 35 1 1 33
M  V30 36 1 1 34
M  V30 37 1 2 35 CFG=1
M  V30 38 1 3 36
M  V30 39 1 3 37
M  V30 40 1 4 38
M  V30 41 1 5 39
M  V30 42 1 8 40
M  V30 43 1 12 41
M  V30 44 1 12 42
M  V30 45 1 16 43
M  V30 46 1 17 44 CFG=1
M  V30 47 1 18 45
M  V30 48 1 18 46
M  V30 49 1 18 47
M  V30 50 1 20 48
M  V30 51 1 21 49
M  V30 52 1 29 50
M  V30 53 1 30 51
M  V30 54 1 30 52
M  V30 55 1 31 53
M  V30 56 1 31 54
M  V30 END BOND
M  V30 END CTAB
M  END
>  <Dataset>  (90) 
ChEMBL_Kinases

>  <Ligand_Instance>  (90) 
nan

>  <PDB_ID>  (90) 
nan

>  <Standardized_SMILES>  (90) 
C[C@@H](CO)Nc1ncc2c(n1)CN(C(=O)N[C@H](C)c1ccc(C(F)(F)F)c(F)c1)CC2

>  <Name>  (90) 
nan

>  <Pocket>  (90) 
nan

>  <ATP_Site>  (90) 
nan

>  <Peripheral>  (90) 
nan

>  <Num_H_Atoms_ProtBoundConf>  (90) 
nan

>  <Num_Resolved_Atoms>  (90) 
nan

>  <Num_Not_Resolved_Atoms>  (90) 
nan

$$$$
CHEMBL3298312
     RDKit          3D

  0  0  0  0  0  0  0  0  0  0999 V3000
M  V30 BEGIN CTAB
M  V30 COUNTS 58 60 0 0 0
M  V30 BEGIN ATOM
M  V30 1 C -1.689153 -3.077836 5.081897 0
M  V30 2 C -0.437981 -2.252548 4.742841 0
M  V30 3 C -0.559136 -1.890909 3.309063 0 CFG=1
M  V30 4 N 0.499703 -1.109930 2.747645 0
M  V30 5 C 0.267929 0.140560 2.095160 0
M  V30 6 O -0.958033 0.458070 2.078730 0
M  V30 7 N 1.353373 0.893091 1.545883 0
M  V30 8 C 2.758461 0.534879 1.561558 0
M  V30 9 C 3.473776 1.126841 0.390904 0
M  V30 10 C 2.616075 1.434021 -0.767962 0
M  V30 11 C 2.943310 1.250217 -2.092500 0
M  V30 12 N 2.110993 1.552908 -3.099416 0
M  V30 13 C 0.875650 2.068023 -2.845734 0
M  V30 14 N -0.014364 2.390466 -3.900497 0
M  V30 15 C -1.330537 2.943912 -3.696005 0 CFG=1
M  V30 16 C -2.131781 1.981015 -2.848638 0
M  V30 17 C -1.219043 4.313039 -3.067722 0
M  V30 18 O -0.504353 5.152661 -3.885753 0
M  V30 19 N 0.535401 2.255703 -1.559521 0
M  V30 20 C 1.360159 1.956508 -0.541631 0
M  V30 21 C 0.990133 2.162113 0.900147 0
M  V30 22 C -0.610296 -3.167832 2.529199 0
M  V30 23 C -1.811580 -3.697598 2.092343 0
M  V30 24 C -1.903651 -4.867247 1.373625 0
M  V30 25 C -0.761950 -5.566284 1.058994 0
M  V30 26 O -0.659999 -6.752247 0.349019 0
M  V30 27 C -1.824960 -7.394711 -0.152701 0
M  V30 28 C 0.451965 -5.070113 1.476686 0
M  V30 29 Cl 1.991063 -5.866665 1.141021 0
M  V30 30 C 0.547785 -3.881273 2.207406 0
M  V30 31 H -1.731638 -4.026902 4.548460 0
M  V30 32 H -1.837679 -3.149076 6.183310 0
M  V30 33 H -2.547816 -2.447468 4.708178 0
M  V30 34 H 0.427875 -2.888207 4.983078 0
M  V30 35 H -0.501911 -1.370488 5.428794 0
M  V30 36 H -1.552722 -1.397822 3.166836 0
M  V30 37 H 1.474254 -1.475397 2.822367 0
M  V30 38 H 3.165151 0.989986 2.511621 0
M  V30 39 H 2.933865 -0.555292 1.686009 0
M  V30 40 H 3.942406 2.100088 0.703071 0
M  V30 41 H 4.308742 0.476800 0.035040 0
M  V30 42 H 3.927141 0.839635 -2.302771 0
M  V30 43 H 0.313171 2.212051 -4.890195 0
M  V30 44 H -1.881279 2.997019 -4.673256 0
M  V30 45 H -3.168931 1.840274 -3.190001 0
M  V30 46 H -1.649342 0.971031 -2.866233 0
M  V30 47 H -2.187821 2.349918 -1.789476 0
M  V30 48 H -0.705769 4.203377 -2.093230 0
M  V30 49 H -2.211676 4.769837 -2.883586 0
M  V30 50 H -0.210887 4.706018 -4.741412 0
M  V30 51 H -0.058524 2.425985 1.040923 0
M  V30 52 H 1.641226 2.982734 1.304896 0
M  V30 53 H -2.731147 -3.207084 2.301725 0
M  V30 54 H -2.823165 -5.307395 1.018221 0
M  V30 55 H -1.644361 -8.446153 -0.402898 0
M  V30 56 H -2.666163 -7.295404 0.588245 0
M  V30 57 H -2.128338 -6.859860 -1.066959 0
M  V30 58 H 1.490986 -3.494888 2.532465 0
M  V30 END ATOM
M  V30 BEGIN BOND
M  V30 1 1 1 2
M  V30 2 1 2 3
M  V30 3 1 3 4
M  V30 4 1 4 5
M  V30 5 2 5 6
M  V30 6 1 5 7
M  V30 7 1 7 8
M  V30 8 1 8 9
M  V30 9 1 9 10
M  V30 10 2 10 11
M  V30 11 1 11 12
M  V30 12 2 12 13
M  V30 13 1 13 14
M  V30 14 1 14 15
M  V30 15 1 15 16
M  V30 16 1 15 17
M  V30 17 1 17 18
M  V30 18 1 13 19
M  V30 19 2 19 20
M  V30 20 1 20 21
M  V30 21 1 3 22
M  V30 22 2 22 23
M  V30 23 1 23 24
M  V30 24 2 24 25
M  V30 25 1 25 26
M  V30 26 1 26 27
M  V30 27 1 25 28
M  V30 28 1 28 29
M  V30 29 2 28 30
M  V30 30 1 21 7
M  V30 31 1 30 22
M  V30 32 1 20 10
M  V30 33 1 1 31
M  V30 34 1 1 32
M  V30 35 1 1 33
M  V30 36 1 2 34
M  V30 37 1 2 35
M  V30 38 1 3 36 CFG=1
M  V30 39 1 4 37
M  V30 40 1 8 38
M  V30 41 1 8 39
M  V30 42 1 9 40
M  V30 43 1 9 41
M  V30 44 1 11 42
M  V30 45 1 14 43
M  V30 46 1 15 44 CFG=3
M  V30 47 1 16 45
M  V30 48 1 16 46
M  V30 49 1 16 47
M  V30 50 1 17 48
M  V30 51 1 17 49
M  V30 52 1 18 50
M  V30 53 1 21 51
M  V30 54 1 21 52
M  V30 55 1 23 53
M  V30 56 1 24 54
M  V30 57 1 27 55
M  V30 58 1 27 56
M  V30 59 1 27 57
M  V30 60 1 30 58
M  V30 END BOND
M  V30 END CTAB
M  END
>  <Dataset>  (91) 
ChEMBL_Kinases

>  <Ligand_Instance>  (91) 
nan

>  <PDB_ID>  (91) 
nan

>  <Standardized_SMILES>  (91) 
CC[C@@H](NC(=O)N1CCc2cnc(N[C@@H](C)CO)nc2C1)c1ccc(OC)c(Cl)c1

>  <Name>  (91) 
nan

>  <Pocket>  (91) 
nan

>  <ATP_Site>  (91) 
nan

>  <Peripheral>  (91) 
nan

>  <Num_H_Atoms_ProtBoundConf>  (91) 
nan

>  <Num_Resolved_Atoms>  (91) 
nan

>  <Num_Not_Resolved_Atoms>  (91) 
nan

$$$$
CHEMBL4208246
     RDKit          3D

  0  0  0  0  0  0  0  0  0  0999 V3000
M  V30 BEGIN CTAB
M  V30 COUNTS 60 64 0 0 0
M  V30 BEGIN ATOM
M  V30 1 C 3.708236 -2.083557 3.159419 0
M  V30 2 N 4.128417 -2.041516 1.782554 0
M  V30 3 C 4.051368 -3.299467 1.114424 0
M  V30 4 C 5.287454 -1.255699 1.547870 0
M  V30 5 C 4.967494 0.185586 1.893425 0
M  V30 6 C 3.784686 0.613894 1.062098 0
M  V30 7 N 4.050217 0.265642 -0.316521 0
M  V30 8 C 3.129809 0.223567 -1.396511 0
M  V30 9 O 3.414468 -0.085048 -2.597433 0
M  V30 10 C 1.699448 0.503478 -1.421026 0
M  V30 11 C 0.922219 -0.382721 -0.659562 0
M  V30 12 C -0.443073 -0.121600 -0.687867 0
M  V30 13 C -1.096079 0.877432 -1.358620 0
M  V30 14 C -2.537521 1.074292 -1.345323 0
M  V30 15 C -3.400778 0.255506 -0.657217 0
M  V30 16 N -4.753802 0.429907 -0.651836 0
M  V30 17 C -5.785286 -0.239252 -0.062700 0
M  V30 18 C -5.691880 -1.421698 0.788883 0
M  V30 19 C -6.516194 -2.541254 0.607772 0
M  V30 20 C -6.388695 -3.629075 1.447778 0
M  V30 21 C -5.471379 -3.663801 2.474066 0
M  V30 22 C -5.325816 -4.791096 3.360008 0
M  V30 23 N -5.188290 -5.698240 4.077924 0
M  V30 24 C -4.656668 -2.546872 2.646695 0
M  V30 25 C -4.756065 -1.440924 1.825662 0
M  V30 26 C -6.899379 0.462261 -0.473452 0
M  V30 27 N -6.570765 1.496949 -1.264359 0
M  V30 28 C -5.215217 1.474313 -1.375075 0
M  V30 29 C -4.403759 2.327566 -2.082774 0
M  V30 30 N -3.066110 2.102891 -2.049735 0
M  V30 31 C -0.284323 1.717770 -2.089106 0
M  V30 32 C 1.081401 1.526695 -2.113306 0
M  V30 33 C 5.432345 -0.106021 -0.656711 0
M  V30 34 C 5.741179 -1.395178 0.125286 0
M  V30 35 H 3.134183 -1.168477 3.387130 0
M  V30 36 H 4.588703 -2.035654 3.866052 0
M  V30 37 H 3.085820 -2.939911 3.415740 0
M  V30 38 H 3.504074 -3.151692 0.154072 0
M  V30 39 H 3.457742 -4.060427 1.660573 0
M  V30 40 H 5.014296 -3.776774 0.870574 0
M  V30 41 H 6.157060 -1.550074 2.186388 0
M  V30 42 H 5.847709 0.843503 1.739947 0
M  V30 43 H 4.653949 0.233026 2.969214 0
M  V30 44 H 2.896850 0.001020 1.357034 0
M  V30 45 H 3.565601 1.699835 1.179549 0
M  V30 46 H 1.329547 -1.211691 -0.086558 0
M  V30 47 H -1.034446 -0.828536 -0.083011 0
M  V30 48 H -3.036324 -0.576590 -0.084192 0
M  V30 49 H -7.232031 -2.524407 -0.185882 0
M  V30 50 H -7.021119 -4.517167 1.327127 0
M  V30 51 H -3.935136 -2.591830 3.467249 0
M  V30 52 H -4.082904 -0.637135 2.052481 0
M  V30 53 H -7.925953 0.224806 -0.203047 0
M  V30 54 H -4.783865 3.159140 -2.657467 0
M  V30 55 H -0.661925 2.553631 -2.670503 0
M  V30 56 H 1.742666 2.181511 -2.685824 0
M  V30 57 H 5.567604 -0.344227 -1.713021 0
M  V30 58 H 6.140690 0.673461 -0.312665 0
M  V30 59 H 6.818214 -1.578328 0.060001 0
M  V30 60 H 5.218005 -2.216706 -0.400820 0
M  V30 END ATOM
M  V30 BEGIN BOND
M  V30 1 1 1 2
M  V30 2 1 2 3
M  V30 3 1 2 4
M  V30 4 1 4 5
M  V30 5 1 5 6
M  V30 6 1 6 7
M  V30 7 1 7 8
M  V30 8 2 8 9
M  V30 9 1 8 10
M  V30 10 2 10 11
M  V30 11 1 11 12
M  V30 12 2 12 13
M  V30 13 1 13 14
M  V30 14 2 14 15
M  V30 15 1 15 16
M  V30 16 1 16 17
M  V30 17 1 17 18
M  V30 18 2 18 19
M  V30 19 1 19 20
M  V30 20 2 20 21
M  V30 21 1 21 22
M  V30 22 3 22 23
M  V30 23 1 21 24
M  V30 24 2 24 25
M  V30 25 2 17 26
M  V30 26 1 26 27
M  V30 27 2 27 28
M  V30 28 1 28 29
M  V30 29 2 29 30
M  V30 30 1 13 31
M  V30 31 2 31 32
M  V30 32 1 7 33
M  V30 33 1 33 34
M  V30 34 1 34 4
M  V30 35 1 32 10
M  V30 36 1 30 14
M  V30 37 1 28 16
M  V30 38 1 25 18
M  V30 39 1 1 35
M  V30 40 1 1 36
M  V30 41 1 1 37
M  V30 42 1 3 38
M  V30 43 1 3 39
M  V30 44 1 3 40
M  V30 45 1 4 41
M  V30 46 1 5 42
M  V30 47 1 5 43
M  V30 48 1 6 44
M  V30 49 1 6 45
M  V30 50 1 11 46
M  V30 51 1 12 47
M  V30 52 1 15 48
M  V30 53 1 19 49
M  V30 54 1 20 50
M  V30 55 1 24 51
M  V30 56 1 25 52
M  V30 57 1 26 53
M  V30 58 1 29 54
M  V30 59 1 31 55
M  V30 60 1 32 56
M  V30 61 1 33 57
M  V30 62 1 33 58
M  V30 63 1 34 59
M  V30 64 1 34 60
M  V30 END BOND
M  V30 END CTAB
M  END
>  <Dataset>  (92) 
ChEMBL_Kinases

>  <Ligand_Instance>  (92) 
nan

>  <PDB_ID>  (92) 
nan

>  <Standardized_SMILES>  (92) 
CN(C)C1CCN(C(=O)c2ccc(-c3cn4c(-c5ccc(C#N)cc5)cnc4cn3)cc2)CC1

>  <Name>  (92) 
nan

>  <Pocket>  (92) 
nan

>  <ATP_Site>  (92) 
nan

>  <Peripheral>  (92) 
nan

>  <Num_H_Atoms_ProtBoundConf>  (92) 
nan

>  <Num_Resolved_Atoms>  (92) 
nan

>  <Num_Not_Resolved_Atoms>  (92) 
nan

$$$$
CHEMBL4225224
     RDKit          3D

  0  0  0  0  0  0  0  0  0  0999 V3000
M  V30 BEGIN CTAB
M  V30 COUNTS 46 49 0 0 0
M  V30 BEGIN ATOM
M  V30 1 C 0.368567 -3.136370 2.624354 0
M  V30 2 C 1.523203 -3.125444 3.579124 0
M  V30 3 C 1.419598 -1.911144 4.459249 0
M  V30 4 N 2.802894 -3.201618 2.900924 0
M  V30 5 C 3.268138 -2.242724 1.961813 0
M  V30 6 C 4.498575 -2.305812 1.300388 0
M  V30 7 C 4.880294 -1.332282 0.399756 0
M  V30 8 C 4.069420 -0.253930 0.109625 0
M  V30 9 C 4.244941 0.817484 -0.741313 0
M  V30 10 N 3.110927 1.538607 -0.595973 0
M  V30 11 N 2.301429 0.963272 0.271140 0
M  V30 12 C 1.018558 1.474108 0.649095 0
M  V30 13 C 0.884163 2.359409 1.699936 0
M  V30 14 N -0.321121 2.840856 2.056857 0
M  V30 15 C -1.394107 2.431627 1.356003 0
M  V30 16 C -1.315552 1.549946 0.298983 0
M  V30 17 C -2.459970 1.088581 -0.478766 0
M  V30 18 C -2.207547 0.203757 -1.506636 0
M  V30 19 C -3.266655 -0.273259 -2.287248 0
M  V30 20 C -4.547848 0.157186 -2.006720 0
M  V30 21 C -5.746574 -0.261213 -2.742524 0
M  V30 22 O -6.923203 0.116569 -2.506192 0
M  V30 23 O -5.588720 -1.150103 -3.793276 0
M  V30 24 N -4.788381 1.031900 -0.988887 0
M  V30 25 C -3.755777 1.490852 -0.235258 0
M  V30 26 N -0.098080 1.085814 -0.034578 0
M  V30 27 C 2.850203 -0.171521 0.751095 0
M  V30 28 C 2.477138 -1.147768 1.648678 0
M  V30 29 H -0.231702 -4.066075 2.749273 0
M  V30 30 H 0.672798 -3.151235 1.546190 0
M  V30 31 H -0.337011 -2.302828 2.826176 0
M  V30 32 H 1.458035 -4.023866 4.231761 0
M  V30 33 H 2.280987 -1.220683 4.336119 0
M  V30 34 H 0.496934 -1.352642 4.250599 0
M  V30 35 H 1.372533 -2.190850 5.530971 0
M  V30 36 H 3.489590 -3.997124 3.066717 0
M  V30 37 H 5.138500 -3.165289 1.535285 0
M  V30 38 H 5.867010 -1.468106 -0.070980 0
M  V30 39 H 5.097275 1.034813 -1.382288 0
M  V30 40 H 1.799906 2.636137 2.209903 0
M  V30 41 H -2.352432 2.812958 1.637998 0
M  V30 42 H -1.231584 -0.173553 -1.780405 0
M  V30 43 H -3.142549 -0.967641 -3.107910 0
M  V30 44 H -6.342744 -1.298538 -4.481676 0
M  V30 45 H -3.961417 2.179096 0.562490 0
M  V30 46 H 1.509653 -0.967825 2.078032 0
M  V30 END ATOM
M  V30 BEGIN BOND
M  V30 1 1 1 2
M  V30 2 1 2 3
M  V30 3 1 2 4
M  V30 4 1 4 5
M  V30 5 2 5 6
M  V30 6 1 6 7
M  V30 7 2 7 8
M  V30 8 1 8 9
M  V30 9 2 9 10
M  V30 10 1 10 11
M  V30 11 1 11 12
M  V30 12 2 12 13
M  V30 13 1 13 14
M  V30 14 2 14 15
M  V30 15 1 15 16
M  V30 16 1 16 17
M  V30 17 2 17 18
M  V30 18 1 18 19
M  V30 19 2 19 20
M  V30 20 1 20 21
M  V30 21 2 21 22
M  V30 22 1 21 23
M  V30 23 1 20 24
M  V30 24 2 24 25
M  V30 25 2 16 26
M  V30 26 1 11 27
M  V30 27 2 27 28
M  V30 28 1 28 5
M  V30 29 1 27 8
M  V30 30 1 26 12
M  V30 31 1 25 17
M  V30 32 1 1 29
M  V30 33 1 1 30
M  V30 34 1 1 31
M  V30 35 1 2 32
M  V30 36 1 3 33
M  V30 37 1 3 34
M  V30 38 1 3 35
M  V30 39 1 4 36
M  V30 40 1 6 37
M  V30 41 1 7 38
M  V30 42 1 9 39
M  V30 43 1 13 40
M  V30 44 1 15 41
M  V30 45 1 18 42
M  V30 46 1 19 43
M  V30 47 1 23 44
M  V30 48 1 25 45
M  V30 49 1 28 46
M  V30 END BOND
M  V30 END CTAB
M  END
>  <Dataset>  (93) 
ChEMBL_Kinases

>  <Ligand_Instance>  (93) 
nan

>  <PDB_ID>  (93) 
nan

>  <Standardized_SMILES>  (93) 
CC(C)Nc1ccc2cnn(-c3cncc(-c4ccc(C(=O)O)nc4)n3)c2c1

>  <Name>  (93) 
nan

>  <Pocket>  (93) 
nan

>  <ATP_Site>  (93) 
nan

>  <Peripheral>  (93) 
nan

>  <Num_H_Atoms_ProtBoundConf>  (93) 
nan

>  <Num_Resolved_Atoms>  (93) 
nan

>  <Num_Not_Resolved_Atoms>  (93) 
nan

$$$$
CHEMBL321315
     RDKit          3D

  0  0  0  0  0  0  0  0  0  0999 V3000
M  V30 BEGIN CTAB
M  V30 COUNTS 70 75 0 0 0
M  V30 BEGIN ATOM
M  V30 1 C -0.238655 0.905258 5.382793 0
M  V30 2 N 0.177215 1.113114 3.948122 0
M  V30 3 C 1.280123 1.993080 4.029405 0
M  V30 4 C 2.089017 2.688085 3.095380 0
M  V30 5 C 2.963677 2.066194 2.046973 0
M  V30 6 N 2.225708 1.318329 1.071830 0
M  V30 7 C 2.082522 0.033658 0.794010 0
M  V30 8 C 1.065347 -0.483625 -0.216426 0
M  V30 9 C 0.925625 0.785562 -0.220998 0
M  V30 10 C -0.144340 0.642287 -1.193230 0
M  V30 11 C -0.794164 1.848567 -1.622069 0
M  V30 12 C -0.369466 3.102582 -1.101739 0
M  V30 13 C 0.683574 3.048926 -0.169476 0
M  V30 14 C 1.343426 1.940065 0.293313 0
M  V30 15 C 1.217395 -1.849875 -0.209979 0
M  V30 16 C 1.320362 -2.985807 -0.118824 0
M  V30 17 C 1.270216 -4.232794 0.570248 0
M  V30 18 O 1.516283 -5.383696 0.245998 0
M  V30 19 N 0.806260 -3.525598 1.795062 0
M  V30 20 C 0.797053 -2.146014 1.253823 0
M  V30 21 O 0.376196 -1.522059 2.339417 0
M  V30 22 C 0.705246 -3.230178 -1.542875 0
M  V30 23 C -0.634025 -2.681287 -1.676907 0
M  V30 24 N -1.352346 -2.907115 -2.735547 0
M  V30 25 C -0.530890 -3.667354 -3.484823 0
M  V30 26 C -0.614660 -4.308925 -4.689912 0
M  V30 27 C 0.495588 -5.066879 -5.063160 0
M  V30 28 C 1.649649 -5.211331 -4.327645 0
M  V30 29 C 1.783510 -4.568489 -3.081466 0
M  V30 30 C 0.668394 -3.843385 -2.758482 0
M  V30 31 C -2.668872 -2.428213 -2.736247 0
M  V30 32 C -3.126814 -1.375992 -1.791943 0
M  V30 33 O -2.821306 -1.365620 -0.533583 0
M  V30 34 C -3.005800 -0.822788 0.601511 0
M  V30 35 C -2.923544 0.626029 0.975224 0
M  V30 36 O -3.165068 0.848366 2.338307 0
M  V30 37 C -2.119892 0.521917 3.192462 0
M  V30 38 C -0.967698 1.497102 3.187273 0
M  V30 39 H -0.309226 1.836258 5.917136 0
M  V30 40 H 0.638753 0.333786 5.815732 0
M  V30 41 H -1.094450 0.279774 5.418375 0
M  V30 42 H 0.954736 2.756235 4.841563 0
M  V30 43 H 2.034458 1.388835 4.715449 0
M  V30 44 H 2.882168 3.286411 3.716458 0
M  V30 45 H 1.553589 3.573508 2.611318 0
M  V30 46 H 3.736836 1.371126 2.498944 0
M  V30 47 H 3.591634 2.831115 1.531951 0
M  V30 48 H 2.831946 -0.497902 1.416283 0
M  V30 49 H -0.782998 0.041274 -1.856934 0
M  V30 50 H -1.608219 2.059432 -2.277064 0
M  V30 51 H -0.676918 4.121300 -1.255816 0
M  V30 52 H 1.144853 3.907340 0.326449 0
M  V30 53 H 0.592468 -3.957847 2.681186 0
M  V30 54 H -0.878333 -2.103949 -0.807484 0
M  V30 55 H -1.551238 -4.124386 -5.173504 0
M  V30 56 H 0.329519 -5.543575 -6.056894 0
M  V30 57 H 2.367435 -5.832842 -4.815970 0
M  V30 58 H 2.683294 -4.707153 -2.548005 0
M  V30 59 H -3.374787 -3.304763 -2.734801 0
M  V30 60 H -2.840438 -1.999003 -3.786874 0
M  V30 61 H -3.056247 -0.378247 -2.339747 0
M  V30 62 H -4.287229 -1.498619 -1.829626 0
M  V30 63 H -4.016180 -1.239925 1.026867 0
M  V30 64 H -2.300493 -1.322632 1.373321 0
M  V30 65 H -3.739906 1.155686 0.462429 0
M  V30 66 H -2.012093 1.150545 0.684961 0
M  V30 67 H -1.884056 -0.521335 3.301605 0
M  V30 68 H -2.607539 0.757278 4.210886 0
M  V30 69 H -1.335918 2.503421 3.530468 0
M  V30 70 H -0.668496 1.672435 2.134021 0
M  V30 END ATOM
M  V30 BEGIN BOND
M  V30 1 1 1 2
M  V30 2 1 2 3
M  V30 3 1 3 4
M  V30 4 1 4 5
M  V30 5 1 5 6
M  V30 6 1 6 7
M  V30 7 2 7 8
M  V30 8 1 8 9
M  V30 9 2 9 10
M  V30 10 1 10 11
M  V30 11 2 11 12
M  V30 12 1 12 13
M  V30 13 2 13 14
M  V30 14 1 8 15
M  V30 15 2 15 16
M  V30 16 1 16 17
M  V30 17 2 17 18
M  V30 18 1 17 19
M  V30 19 1 19 20
M  V30 20 2 20 21
M  V30 21 1 16 22
M  V30 22 2 22 23
M  V30 23 1 23 24
M  V30 24 1 24 25
M  V30 25 2 25 26
M  V30 26 1 26 27
M  V30 27 2 27 28
M  V30 28 1 28 29
M  V30 29 2 29 30
M  V30 30 1 24 31
M  V30 31 1 31 32
M  V30 32 1 32 33
M  V30 33 1 33 34
M  V30 34 1 34 35
M  V30 35 1 35 36
M  V30 36 1 36 37
M  V30 37 1 37 38
M  V30 38 1 38 2
M  V30 39 1 14 6
M  V30 40 1 20 15
M  V30 41 1 30 22
M  V30 42 1 14 9
M  V30 43 1 30 25
M  V30 44 1 1 39
M  V30 45 1 1 40
M  V30 46 1 1 41
M  V30 47 1 3 42
M  V30 48 1 3 43
M  V30 49 1 4 44
M  V30 50 1 4 45
M  V30 51 1 5 46
M  V30 52 1 5 47
M  V30 53 1 7 48
M  V30 54 1 10 49
M  V30 55 1 11 50
M  V30 56 1 12 51
M  V30 57 1 13 52
M  V30 58 1 19 53
M  V30 59 1 23 54
M  V30 60 1 26 55
M  V30 61 1 27 56
M  V30 62 1 28 57
M  V30 63 1 29 58
M  V30 64 1 31 59
M  V30 65 1 31 60
M  V30 66 1 32 61
M  V30 67 1 32 62
M  V30 68 1 34 63
M  V30 69 1 34 64
M  V30 70 1 35 65
M  V30 71 1 35 66
M  V30 72 1 37 67
M  V30 73 1 37 68
M  V30 74 1 38 69
M  V30 75 1 38 70
M  V30 END BOND
M  V30 END CTAB
M  END
>  <Dataset>  (94) 
ChEMBL_Kinases

>  <Ligand_Instance>  (94) 
nan

>  <PDB_ID>  (94) 
nan

>  <Standardized_SMILES>  (94) 
CN1CCCn2cc(c3ccccc32)C2=C(C(=O)NC2=O)c2cn(c3ccccc23)CCOCCOCC1

>  <Name>  (94) 
nan

>  <Pocket>  (94) 
nan

>  <ATP_Site>  (94) 
nan

>  <Peripheral>  (94) 
nan

>  <Num_H_Atoms_ProtBoundConf>  (94) 
nan

>  <Num_Resolved_Atoms>  (94) 
nan

>  <Num_Not_Resolved_Atoms>  (94) 
nan

$$$$
CHEMBL4224959
     RDKit          3D

  0  0  0  0  0  0  0  0  0  0999 V3000
M  V30 BEGIN CTAB
M  V30 COUNTS 49 53 0 0 0
M  V30 BEGIN ATOM
M  V30 1 C 0.983291 0.287134 3.769388 0
M  V30 2 C 1.425442 -1.155339 3.642302 0
M  V30 3 C 0.529585 -1.916574 2.657040 0
M  V30 4 N 2.817633 -1.277917 3.227918 0
M  V30 5 C 3.299312 -0.760774 1.999948 0
M  V30 6 C 4.625166 -0.889638 1.634843 0
M  V30 7 C 5.143642 -0.405427 0.451620 0
M  V30 8 C 4.324982 0.248862 -0.441469 0
M  V30 9 C 4.575666 0.821569 -1.672505 0
M  V30 10 N 3.387230 1.305916 -2.063099 0
M  V30 11 N 2.463973 1.055988 -1.147839 0
M  V30 12 C 1.097029 1.447196 -1.274303 0
M  V30 13 C 0.768822 2.702365 -1.747884 0
M  V30 14 N -0.552923 3.030930 -1.851213 0
M  V30 15 C -1.491477 2.128299 -1.491031 0
M  V30 16 C -1.186958 0.869214 -1.015562 0
M  V30 17 C -2.202535 -0.103928 -0.627159 0
M  V30 18 C -3.559294 0.120556 -0.690208 0
M  V30 19 C -4.444140 -0.861724 -0.300457 0
M  V30 20 C -4.028076 -2.094159 0.163077 0
M  V30 21 C -4.933252 -3.149053 0.580864 0
M  V30 22 N -6.273150 -3.078542 0.576196 0
M  V30 23 N -6.731887 -4.234436 1.025120 0
M  V30 24 N -5.734052 -5.051079 1.320331 0
M  V30 25 N -4.629900 -4.376395 1.044410 0
M  V30 26 C -2.685276 -2.308847 0.222620 0
M  V30 27 C -1.779612 -1.331728 -0.165509 0
M  V30 28 N 0.130255 0.592167 -0.931817 0
M  V30 29 C 3.014996 0.390788 -0.109184 0
M  V30 30 C 2.528869 -0.106479 1.084391 0
M  V30 31 H 1.787582 1.004015 3.449512 0
M  V30 32 H 0.088144 0.513305 3.171887 0
M  V30 33 H 0.695811 0.532196 4.825758 0
M  V30 34 H 1.260710 -1.638744 4.625536 0
M  V30 35 H 1.080831 -2.267754 1.769482 0
M  V30 36 H -0.270016 -1.233956 2.308552 0
M  V30 37 H 0.083286 -2.823617 3.115016 0
M  V30 38 H 3.488875 -1.765818 3.859272 0
M  V30 39 H 5.309597 -1.405908 2.321666 0
M  V30 40 H 6.185688 -0.529756 0.209519 0
M  V30 41 H 5.516482 0.853170 -2.171026 0
M  V30 42 H 1.592591 3.354133 -2.010401 0
M  V30 43 H -2.523885 2.435175 -1.590917 0
M  V30 44 H -3.915076 1.056654 -1.041619 0
M  V30 45 H -5.504699 -0.658543 -0.360322 0
M  V30 46 H -3.645582 -4.673594 1.141521 0
M  V30 47 H -2.289001 -3.251312 0.575790 0
M  V30 48 H -0.707970 -1.552282 -0.099189 0
M  V30 49 H 1.476168 0.046238 1.274730 0
M  V30 END ATOM
M  V30 BEGIN BOND
M  V30 1 1 1 2
M  V30 2 1 2 3
M  V30 3 1 2 4
M  V30 4 1 4 5
M  V30 5 2 5 6
M  V30 6 1 6 7
M  V30 7 2 7 8
M  V30 8 1 8 9
M  V30 9 2 9 10
M  V30 10 1 10 11
M  V30 11 1 11 12
M  V30 12 2 12 13
M  V30 13 1 13 14
M  V30 14 2 14 15
M  V30 15 1 15 16
M  V30 16 1 16 17
M  V30 17 2 17 18
M  V30 18 1 18 19
M  V30 19 2 19 20
M  V30 20 1 20 21
M  V30 21 2 21 22
M  V30 22 1 22 23
M  V30 23 2 23 24
M  V30 24 1 24 25
M  V30 25 1 20 26
M  V30 26 2 26 27
M  V30 27 2 16 28
M  V30 28 1 11 29
M  V30 29 2 29 30
M  V30 30 1 30 5
M  V30 31 1 29 8
M  V30 32 1 28 12
M  V30 33 1 27 17
M  V30 34 1 25 21
M  V30 35 1 1 31
M  V30 36 1 1 32
M  V30 37 1 1 33
M  V30 38 1 2 34
M  V30 39 1 3 35
M  V30 40 1 3 36
M  V30 41 1 3 37
M  V30 42 1 4 38
M  V30 43 1 6 39
M  V30 44 1 7 40
M  V30 45 1 9 41
M  V30 46 1 13 42
M  V30 47 1 15 43
M  V30 48 1 18 44
M  V30 49 1 19 45
M  V30 50 1 25 46
M  V30 51 1 26 47
M  V30 52 1 27 48
M  V30 53 1 30 49
M  V30 END BOND
M  V30 END CTAB
M  END
>  <Dataset>  (95) 
ChEMBL_Kinases

>  <Ligand_Instance>  (95) 
nan

>  <PDB_ID>  (95) 
nan

>  <Standardized_SMILES>  (95) 
CC(C)Nc1ccc2cnn(-c3cncc(-c4ccc(-c5nnn[nH]5)cc4)n3)c2c1

>  <Name>  (95) 
nan

>  <Pocket>  (95) 
nan

>  <ATP_Site>  (95) 
nan

>  <Peripheral>  (95) 
nan

>  <Num_H_Atoms_ProtBoundConf>  (95) 
nan

>  <Num_Resolved_Atoms>  (95) 
nan

>  <Num_Not_Resolved_Atoms>  (95) 
nan

$$$$
CHEMBL321529
     RDKit          3D

  0  0  0  0  0  0  0  0  0  0999 V3000
M  V30 BEGIN CTAB
M  V30 COUNTS 71 76 0 0 0
M  V30 BEGIN ATOM
M  V30 1 O 3.833675 2.551847 3.206252 0
M  V30 2 C 3.607174 1.552489 2.441236 0
M  V30 3 N 4.635400 0.581930 2.289273 0
M  V30 4 C 4.013660 -0.359098 1.381902 0
M  V30 5 O 4.765482 -1.354533 1.081202 0
M  V30 6 C 2.644009 0.099821 1.040756 0
M  V30 7 C 2.425126 1.210318 1.659964 0
M  V30 8 C 1.237429 2.043940 1.589697 0
M  V30 9 C -0.056878 1.588920 1.565018 0
M  V30 10 N -0.902513 2.632157 1.471043 0
M  V30 11 C -0.223813 3.784041 1.434552 0
M  V30 12 C -0.686327 5.075678 1.337293 0
M  V30 13 C 0.208628 6.121324 1.305088 0
M  V30 14 C 1.548888 5.834084 1.371515 0
M  V30 15 C 1.941123 4.517899 1.467855 0
M  V30 16 C 1.096322 3.429306 1.505894 0
M  V30 17 C -2.372685 2.391320 1.344437 0
M  V30 18 C -2.440970 1.034033 0.698905 0
M  V30 19 O -3.670846 0.616952 0.220159 0
M  V30 20 C -3.428892 -0.650053 -0.432256 0
M  V30 21 C -3.107794 -1.745292 0.499324 0
M  V30 22 N -2.671878 -3.001106 -0.163628 0
M  V30 23 C -3.861229 -3.408276 -0.942198 0
M  V30 24 C -3.696527 -4.620081 -1.778011 0
M  V30 25 O -3.402900 -5.802193 -1.172106 0
M  V30 26 C -2.631149 -3.957990 0.917540 0
M  V30 27 C -1.735344 -3.745331 2.057128 0
M  V30 28 O -0.445127 -3.607813 1.882949 0
M  V30 29 C 0.389614 -4.368269 1.190870 0
M  V30 30 C 0.467751 -4.140304 -0.305918 0
M  V30 31 N 1.093115 -2.818441 -0.540963 0
M  V30 32 C 1.451587 -2.075333 0.539310 0
M  V30 33 C 2.083165 -0.914839 0.144785 0
M  V30 34 C 2.093420 -0.978767 -1.224760 0
M  V30 35 C 2.638719 -0.038062 -2.064040 0
M  V30 36 C 2.549131 -0.320471 -3.430866 0
M  V30 37 C 1.940231 -1.485873 -3.856278 0
M  V30 38 C 1.400396 -2.415061 -2.992052 0
M  V30 39 C 1.477564 -2.159409 -1.644089 0
M  V30 40 H 5.598511 0.588895 2.746053 0
M  V30 41 H -0.204027 0.522100 1.621050 0
M  V30 42 H -1.743734 5.305313 1.284272 0
M  V30 43 H -0.145188 7.128030 1.230148 0
M  V30 44 H 2.239397 6.651156 1.345524 0
M  V30 45 H 3.009881 4.383926 1.499495 0
M  V30 46 H -2.868941 2.460494 2.313667 0
M  V30 47 H -2.800782 3.126352 0.640683 0
M  V30 48 H -1.671114 0.914886 -0.073591 0
M  V30 49 H -2.176879 0.332357 1.562428 0
M  V30 50 H -4.424073 -0.801562 -0.939649 0
M  V30 51 H -2.653173 -0.426970 -1.180461 0
M  V30 52 H -2.281032 -1.458885 1.178138 0
M  V30 53 H -3.962181 -2.059187 1.131766 0
M  V30 54 H -4.732038 -3.508663 -0.271271 0
M  V30 55 H -4.076961 -2.535928 -1.623709 0
M  V30 56 H -4.674057 -4.771056 -2.327578 0
M  V30 57 H -2.950321 -4.483871 -2.601987 0
M  V30 58 H -2.559003 -6.233722 -1.516011 0
M  V30 59 H -2.385459 -4.989588 0.527947 0
M  V30 60 H -3.708628 -4.098599 1.265993 0
M  V30 61 H -2.133334 -2.814121 2.625978 0
M  V30 62 H -1.974155 -4.532679 2.882274 0
M  V30 63 H 1.447855 -4.206561 1.563129 0
M  V30 64 H 0.247953 -5.477795 1.396830 0
M  V30 65 H 1.255550 -4.865642 -0.664714 0
M  V30 66 H -0.410189 -4.302177 -0.881883 0
M  V30 67 H 1.346468 -2.203259 1.606120 0
M  V30 68 H 3.126512 0.888064 -1.816899 0
M  V30 69 H 2.938179 0.335810 -4.196841 0
M  V30 70 H 1.844183 -1.752374 -4.910290 0
M  V30 71 H 0.911317 -3.343635 -3.243795 0
M  V30 END ATOM
M  V30 BEGIN BOND
M  V30 1 2 1 2
M  V30 2 1 2 3
M  V30 3 1 3 4
M  V30 4 2 4 5
M  V30 5 1 4 6
M  V30 6 2 6 7
M  V30 7 1 7 8
M  V30 8 2 8 9
M  V30 9 1 9 10
M  V30 10 1 10 11
M  V30 11 2 11 12
M  V30 12 1 12 13
M  V30 13 2 13 14
M  V30 14 1 14 15
M  V30 15 2 15 16
M  V30 16 1 10 17
M  V30 17 1 17 18
M  V30 18 1 18 19
M  V30 19 1 19 20
M  V30 20 1 20 21
M  V30 21 1 21 22
M  V30 22 1 22 23
M  V30 23 1 23 24
M  V30 24 1 24 25
M  V30 25 1 22 26
M  V30 26 1 26 27
M  V30 27 1 27 28
M  V30 28 1 28 29
M  V30 29 1 29 30
M  V30 30 1 30 31
M  V30 31 1 31 32
M  V30 32 2 32 33
M  V30 33 1 33 34
M  V30 34 2 34 35
M  V30 35 1 35 36
M  V30 36 2 36 37
M  V30 37 1 37 38
M  V30 38 2 38 39
M  V30 39 1 7 2
M  V30 40 1 16 8
M  V30 41 1 39 31
M  V30 42 1 33 6
M  V30 43 1 39 34
M  V30 44 1 16 11
M  V30 45 1 3 40
M  V30 46 1 9 41
M  V30 47 1 12 42
M  V30 48 1 13 43
M  V30 49 1 14 44
M  V30 50 1 15 45
M  V30 51 1 17 46
M  V30 52 1 17 47
M  V30 53 1 18 48
M  V30 54 1 18 49
M  V30 55 1 20 50
M  V30 56 1 20 51
M  V30 57 1 21 52
M  V30 58 1 21 53
M  V30 59 1 23 54
M  V30 60 1 23 55
M  V30 61 1 24 56
M  V30 62 1 24 57
M  V30 63 1 25 58
M  V30 64 1 26 59
M  V30 65 1 26 60
M  V30 66 1 27 61
M  V30 67 1 27 62
M  V30 68 1 29 63
M  V30 69 1 29 64
M  V30 70 1 30 65
M  V30 71 1 30 66
M  V30 72 1 32 67
M  V30 73 1 35 68
M  V30 74 1 36 69
M  V30 75 1 37 70
M  V30 76 1 38 71
M  V30 END BOND
M  V30 END CTAB
M  END
>  <Dataset>  (96) 
ChEMBL_Kinases

>  <Ligand_Instance>  (96) 
nan

>  <PDB_ID>  (96) 
nan

>  <Standardized_SMILES>  (96) 
O=C1NC(=O)C2=C1c1cn(c3ccccc13)CCOCCN(CCO)CCOCCn1cc2c2ccccc21

>  <Name>  (96) 
nan

>  <Pocket>  (96) 
nan

>  <ATP_Site>  (96) 
nan

>  <Peripheral>  (96) 
nan

>  <Num_H_Atoms_ProtBoundConf>  (96) 
nan

>  <Num_Resolved_Atoms>  (96) 
nan

>  <Num_Not_Resolved_Atoms>  (96) 
nan

$$$$
CHEMBL3679634
     RDKit          3D

  0  0  0  0  0  0  0  0  0  0999 V3000
M  V30 BEGIN CTAB
M  V30 COUNTS 68 73 0 0 0
M  V30 BEGIN ATOM
M  V30 1 N 7.717283 -1.955411 4.558960 0
M  V30 2 C 6.662540 -1.753802 3.907770 0
M  V30 3 C 6.213841 -2.929381 3.330642 0
M  V30 4 C 5.066905 -3.002957 2.550113 0
M  V30 5 C 4.326189 -1.863004 2.327422 0
M  V30 6 N 3.202563 -1.831941 1.585541 0
M  V30 7 C 2.490971 -0.688622 1.381066 0
M  V30 8 C 1.307585 -0.858018 0.546387 0
M  V30 9 C 1.307713 -0.203353 -0.661760 0
M  V30 10 C 0.267445 -0.260249 -1.566291 0
M  V30 11 C -0.850932 -1.001966 -1.282719 0
M  V30 12 C -2.104040 -1.262482 -2.041052 0
M  V30 13 N -3.260492 -1.045098 -1.180215 0
M  V30 14 C -4.591319 -1.450079 -1.420276 0
M  V30 15 O -4.760792 -2.059313 -2.504087 0
M  V30 16 C -5.705416 -1.179957 -0.471515 0
M  V30 17 C -6.950706 -1.735451 -1.041179 0
M  V30 18 C -7.460033 -3.000617 -0.849497 0
M  V30 19 C -8.635211 -3.431234 -1.431032 0
M  V30 20 C -9.282367 -2.513085 -2.226531 0
M  V30 21 N -8.806564 -1.274694 -2.428780 0
M  V30 22 C -7.667586 -0.865352 -1.861833 0
M  V30 23 C -2.217309 -0.680612 -3.402614 0
M  V30 24 C -2.172064 -2.048039 -4.051614 0
M  V30 25 C -2.074721 -2.642688 -2.662406 0
M  V30 26 C -0.875327 -1.679624 -0.055096 0
M  V30 27 C 0.180712 -1.603438 0.828909 0
M  V30 28 C 2.967203 0.487776 1.976575 0
M  V30 29 C 2.130236 1.626764 1.687283 0
M  V30 30 C 0.809726 1.684087 2.117091 0
M  V30 31 C 0.044337 2.793118 1.814754 0
M  V30 32 C 0.595070 3.833992 1.089816 0
M  V30 33 C 1.899388 3.801088 0.653189 0
M  V30 34 C 2.680467 2.684902 0.953642 0
M  V30 35 C 4.104894 0.464244 2.729850 0
M  V30 36 C 4.792684 -0.708433 2.911504 0
M  V30 37 N 5.900367 -0.690696 3.652803 0
M  V30 38 C 6.308132 0.529147 4.215114 0
M  V30 39 N 7.430034 0.783311 5.027789 0
M  V30 40 O 6.143806 1.738566 4.391667 0
M  V30 41 H 8.323527 -1.364928 5.101163 0
M  V30 42 H 6.684334 -3.898856 3.413770 0
M  V30 43 H 4.692685 -3.902112 2.087057 0
M  V30 44 H 2.127366 0.418697 -1.014069 0
M  V30 45 H 0.226777 0.229648 -2.508795 0
M  V30 46 H -3.143951 -0.527486 -0.254128 0
M  V30 47 H -5.794724 -0.089372 -0.297539 0
M  V30 48 H -5.543499 -1.660180 0.512848 0
M  V30 49 H -6.858709 -3.622901 -0.205418 0
M  V30 50 H -8.960624 -4.436419 -1.227144 0
M  V30 51 H -10.210850 -2.814070 -2.702963 0
M  V30 52 H -7.326923 0.146642 -2.058120 0
M  V30 53 H -3.135675 -0.099048 -3.621376 0
M  V30 54 H -1.329670 -0.096577 -3.687493 0
M  V30 55 H -1.260482 -2.207924 -4.698632 0
M  V30 56 H -3.055703 -2.358407 -4.618717 0
M  V30 57 H -2.858017 -3.342096 -2.376720 0
M  V30 58 H -1.077357 -3.145650 -2.566412 0
M  V30 59 H -1.687906 -2.313338 0.326882 0
M  V30 60 H 0.198281 -2.117369 1.794370 0
M  V30 61 H 0.403515 0.840860 2.690298 0
M  V30 62 H -0.987985 2.841448 2.148889 0
M  V30 63 H 0.006677 4.720458 0.840330 0
M  V30 64 H 2.388214 4.593498 0.077057 0
M  V30 65 H 3.728715 2.592534 0.636415 0
M  V30 66 H 4.330084 1.442370 3.111243 0
M  V30 67 H 7.912629 0.801801 5.964095 0
M  V30 68 H 8.256836 0.980519 5.568487 0
M  V30 END ATOM
M  V30 BEGIN BOND
M  V30 1 2 1 2 CFG=2
M  V30 2 1 2 3
M  V30 3 2 3 4
M  V30 4 1 4 5
M  V30 5 2 5 6
M  V30 6 1 6 7
M  V30 7 1 7 8
M  V30 8 2 8 9
M  V30 9 1 9 10
M  V30 10 2 10 11
M  V30 11 1 11 12
M  V30 12 1 12 13
M  V30 13 1 13 14
M  V30 14 2 14 15
M  V30 15 1 14 16
M  V30 16 1 16 17
M  V30 17 2 17 18
M  V30 18 1 18 19
M  V30 19 2 19 20
M  V30 20 1 20 21
M  V30 21 2 21 22
M  V30 22 1 12 23
M  V30 23 1 23 24
M  V30 24 1 24 25
M  V30 25 1 11 26
M  V30 26 2 26 27
M  V30 27 2 7 28
M  V30 28 1 28 29
M  V30 29 2 29 30
M  V30 30 1 30 31
M  V30 31 2 31 32
M  V30 32 1 32 33
M  V30 33 2 33 34
M  V30 34 1 28 35
M  V30 35 2 35 36
M  V30 36 1 36 37
M  V30 37 1 37 38
M  V30 38 1 38 39
M  V30 39 2 38 40
M  V30 40 1 37 2
M  V30 41 1 36 5
M  V30 42 1 27 8
M  V30 43 1 34 29
M  V30 44 1 25 12
M  V30 45 1 22 17
M  V30 46 1 1 41
M  V30 47 1 3 42
M  V30 48 1 4 43
M  V30 49 1 9 44
M  V30 50 1 10 45
M  V30 51 1 13 46
M  V30 52 1 16 47
M  V30 53 1 16 48
M  V30 54 1 18 49
M  V30 55 1 19 50
M  V30 56 1 20 51
M  V30 57 1 22 52
M  V30 58 1 23 53
M  V30 59 1 23 54
M  V30 60 1 24 55
M  V30 61 1 24 56
M  V30 62 1 25 57
M  V30 63 1 25 58
M  V30 64 1 26 59
M  V30 65 1 27 60
M  V30 66 1 30 61
M  V30 67 1 31 62
M  V30 68 1 32 63
M  V30 69 1 33 64
M  V30 70 1 34 65
M  V30 71 1 35 66
M  V30 72 1 39 67
M  V30 73 1 39 68
M  V30 END BOND
M  V30 END CTAB
M  END
>  <Dataset>  (97) 
ChEMBL_Kinases

>  <Ligand_Instance>  (97) 
nan

>  <PDB_ID>  (97) 
nan

>  <Standardized_SMILES>  (97) 
N=c1ccc2nc(-c3ccc(C4(NC(=O)Cc5cccnc5)CCC4)cc3)c(-c3ccccc3)cc2n1C(N)=O

>  <Name>  (97) 
nan

>  <Pocket>  (97) 
nan

>  <ATP_Site>  (97) 
nan

>  <Peripheral>  (97) 
nan

>  <Num_H_Atoms_ProtBoundConf>  (97) 
nan

>  <Num_Resolved_Atoms>  (97) 
nan

>  <Num_Not_Resolved_Atoms>  (97) 
nan

$$$$
CHEMBL3217759
     RDKit          3D

  0  0  0  0  0  0  0  0  0  0999 V3000
M  V30 BEGIN CTAB
M  V30 COUNTS 36 38 0 0 0
M  V30 BEGIN ATOM
M  V30 1 O 1.157228 -1.555898 1.955810 0
M  V30 2 C 0.074694 -2.173236 2.131787 0
M  V30 3 N 0.096465 -3.586196 1.980294 0
M  V30 4 C 1.303741 -4.345843 1.632899 0
M  V30 5 C 1.828992 -3.889916 0.309310 0
M  V30 6 C 2.931501 -3.075195 0.119983 0
M  V30 7 C 3.300378 -2.733947 -1.184467 0
M  V30 8 C 2.568098 -3.209180 -2.249857 0
M  V30 9 C 1.461958 -4.025591 -2.078725 0
M  V30 10 C 1.100378 -4.360840 -0.786707 0
M  V30 11 Cl -0.300148 -5.392580 -0.606090 0
M  V30 12 N -1.106757 -1.474686 2.466368 0
M  V30 13 C -0.948644 0.043167 2.590263 0
M  V30 14 N -1.066970 0.817750 1.779892 0
M  V30 15 C -0.965026 2.117559 1.742764 0
M  V30 16 C -1.141894 3.028854 0.622318 0
M  V30 17 C -1.466200 2.565490 -0.633750 0
M  V30 18 C -1.632754 3.436301 -1.696432 0
M  V30 19 N -1.487936 4.764772 -1.557181 0
M  V30 20 C -1.171913 5.243284 -0.343219 0
M  V30 21 C -1.002195 4.391633 0.725960 0
M  V30 22 C -0.630449 2.618479 3.028365 0
M  V30 23 S -0.528097 1.038009 4.069144 0
M  V30 24 H -0.837834 -4.048262 2.140331 0
M  V30 25 H 0.986846 -5.410838 1.589381 0
M  V30 26 H 2.026039 -4.164881 2.451823 0
M  V30 27 H 3.444262 -2.750739 1.007904 0
M  V30 28 H 4.169970 -2.092751 -1.307159 0
M  V30 29 H 2.855172 -2.943497 -3.265162 0
M  V30 30 H 0.916837 -4.375350 -2.946036 0
M  V30 31 H -2.006587 -1.960602 2.615371 0
M  V30 32 H -1.586025 1.490851 -0.755646 0
M  V30 33 H -1.888395 2.945052 -2.639485 0
M  V30 34 H -1.044616 6.318870 -0.188212 0
M  V30 35 H -0.748848 4.826400 1.679027 0
M  V30 36 H -0.447606 3.796686 3.394116 0
M  V30 END ATOM
M  V30 BEGIN BOND
M  V30 1 2 1 2
M  V30 2 1 2 3
M  V30 3 1 3 4
M  V30 4 1 4 5
M  V30 5 2 5 6
M  V30 6 1 6 7
M  V30 7 2 7 8
M  V30 8 1 8 9
M  V30 9 2 9 10
M  V30 10 1 10 11
M  V30 11 1 2 12
M  V30 12 1 12 13
M  V30 13 2 13 14
M  V30 14 1 14 15
M  V30 15 1 15 16
M  V30 16 2 16 17
M  V30 17 1 17 18
M  V30 18 2 18 19
M  V30 19 1 19 20
M  V30 20 2 20 21
M  V30 21 2 15 22
M  V30 22 1 22 23
M  V30 23 1 10 5
M  V30 24 1 23 13
M  V30 25 1 21 16
M  V30 26 1 3 24
M  V30 27 1 4 25
M  V30 28 1 4 26
M  V30 29 1 6 27
M  V30 30 1 7 28
M  V30 31 1 8 29
M  V30 32 1 9 30
M  V30 33 1 12 31
M  V30 34 1 17 32
M  V30 35 1 18 33
M  V30 36 1 20 34
M  V30 37 1 21 35
M  V30 38 1 22 36
M  V30 END BOND
M  V30 END CTAB
M  END
>  <Dataset>  (98) 
ChEMBL_Kinases

>  <Ligand_Instance>  (98) 
nan

>  <PDB_ID>  (98) 
nan

>  <Standardized_SMILES>  (98) 
O=C(NCc1ccccc1Cl)Nc1nc(-c2ccncc2)cs1

>  <Name>  (98) 
nan

>  <Pocket>  (98) 
nan

>  <ATP_Site>  (98) 
nan

>  <Peripheral>  (98) 
nan

>  <Num_H_Atoms_ProtBoundConf>  (98) 
nan

>  <Num_Resolved_Atoms>  (98) 
nan

>  <Num_Not_Resolved_Atoms>  (98) 
nan

$$$$
CHEMBL3679633
     RDKit          3D

  0  0  0  0  0  0  0  0  0  0999 V3000
M  V30 BEGIN CTAB
M  V30 COUNTS 63 68 0 0 0
M  V30 BEGIN ATOM
M  V30 1 N 4.176886 -0.996655 2.543080 0
M  V30 2 C 3.983472 0.276069 2.447341 0
M  V30 3 C 4.027191 1.317011 3.458891 0
M  V30 4 C 3.790533 2.646310 3.169558 0
M  V30 5 C 3.869887 3.509376 4.244223 0
M  V30 6 C 4.161869 3.117782 5.533798 0
M  V30 7 C 4.389009 1.777102 5.763136 0
M  V30 8 C 4.324448 0.855274 4.724502 0
M  V30 9 N 3.712640 0.368368 1.054206 0
M  V30 10 C 4.723961 0.834499 0.313557 0
M  V30 11 N 5.897663 1.205995 0.698933 0
M  V30 12 C 4.533250 0.953432 -1.064877 0
M  V30 13 C 3.324224 0.594140 -1.632151 0
M  V30 14 C 2.281846 0.112589 -0.860560 0
M  V30 15 N 1.089691 -0.249432 -1.361877 0
M  V30 16 C 0.116064 -0.714865 -0.524945 0
M  V30 17 C -1.160218 -1.093878 -1.127309 0
M  V30 18 C -2.364284 -0.459327 -0.832578 0
M  V30 19 C -3.518051 -0.889559 -1.452772 0
M  V30 20 C -3.541342 -1.941937 -2.372412 0
M  V30 21 C -4.884601 -2.194125 -2.874059 0
M  V30 22 N -5.792688 -2.456501 -1.775310 0
M  V30 23 C -4.927558 -3.308627 -3.888050 0
M  V30 24 C -6.023567 -2.525662 -4.594217 0
M  V30 25 C -5.431877 -1.271194 -3.934320 0
M  V30 26 C -2.326944 -2.538235 -2.631564 0
M  V30 27 C -1.153328 -2.137048 -2.032420 0
M  V30 28 C 0.343824 -0.819194 0.844685 0
M  V30 29 C -0.710023 -1.314113 1.687078 0
M  V30 30 C -1.112552 -2.621186 1.424393 0
M  V30 31 C -2.123154 -3.211870 2.171580 0
M  V30 32 C -2.762381 -2.541412 3.190127 0
M  V30 33 C -2.354179 -1.233262 3.447502 0
M  V30 34 C -1.348262 -0.642094 2.705324 0
M  V30 35 C 1.568769 -0.447239 1.359833 0
M  V30 36 C 2.540973 0.021332 0.496015 0
M  V30 37 H 4.403965 -1.429233 3.446387 0
M  V30 38 H 3.561199 2.958057 2.159503 0
M  V30 39 H 3.689917 4.568854 4.060403 0
M  V30 40 H 4.203906 3.877964 6.329136 0
M  V30 41 H 4.614547 1.518126 6.792015 0
M  V30 42 H 4.518347 -0.145107 5.028039 0
M  V30 43 H 6.134323 1.152692 1.717582 0
M  V30 44 H 5.294058 1.320777 -1.744917 0
M  V30 45 H 3.145954 0.674299 -2.694696 0
M  V30 46 H -2.283499 0.340718 -0.119813 0
M  V30 47 H -4.373301 -0.287292 -1.112265 0
M  V30 48 H -5.436584 -2.013314 -0.903084 0
M  V30 49 H -5.800804 -3.511467 -1.658970 0
M  V30 50 H -5.239238 -4.278813 -3.460606 0
M  V30 51 H -4.038386 -3.451091 -4.501572 0
M  V30 52 H -5.895575 -2.589926 -5.678733 0
M  V30 53 H -7.009585 -2.809451 -4.205255 0
M  V30 54 H -6.265625 -0.664906 -3.524842 0
M  V30 55 H -4.693669 -0.745531 -4.539350 0
M  V30 56 H -2.398034 -3.345160 -3.346238 0
M  V30 57 H -0.252153 -2.694501 -2.323968 0
M  V30 58 H -0.705313 -3.256573 0.666281 0
M  V30 59 H -2.458758 -4.237766 1.986157 0
M  V30 60 H -3.547436 -3.029214 3.755637 0
M  V30 61 H -2.830614 -0.666852 4.241334 0
M  V30 62 H -1.008771 0.380675 2.885062 0
M  V30 63 H 1.694476 -0.550399 2.448724 0
M  V30 END ATOM
M  V30 BEGIN BOND
M  V30 1 2 1 2 CFG=2
M  V30 2 1 2 3
M  V30 3 2 3 4
M  V30 4 1 4 5
M  V30 5 2 5 6
M  V30 6 1 6 7
M  V30 7 2 7 8
M  V30 8 1 2 9
M  V30 9 1 9 10
M  V30 10 2 10 11 CFG=2
M  V30 11 1 10 12
M  V30 12 2 12 13
M  V30 13 1 13 14
M  V30 14 2 14 15
M  V30 15 1 15 16
M  V30 16 1 16 17
M  V30 17 2 17 18
M  V30 18 1 18 19
M  V30 19 2 19 20
M  V30 20 1 20 21
M  V30 21 1 21 22
M  V30 22 1 21 23
M  V30 23 1 23 24
M  V30 24 1 24 25
M  V30 25 1 20 26
M  V30 26 2 26 27
M  V30 27 2 16 28
M  V30 28 1 28 29
M  V30 29 2 29 30
M  V30 30 1 30 31
M  V30 31 2 31 32
M  V30 32 1 32 33
M  V30 33 2 33 34
M  V30 34 1 28 35
M  V30 35 2 35 36
M  V30 36 1 8 3
M  V30 37 1 36 9
M  V30 38 1 36 14
M  V30 39 1 27 17
M  V30 40 1 34 29
M  V30 41 1 25 21
M  V30 42 1 1 37
M  V30 43 1 4 38
M  V30 44 1 5 39
M  V30 45 1 6 40
M  V30 46 1 7 41
M  V30 47 1 8 42
M  V30 48 1 11 43
M  V30 49 1 12 44
M  V30 50 1 13 45
M  V30 51 1 18 46
M  V30 52 1 19 47
M  V30 53 1 22 48
M  V30 54 1 22 49
M  V30 55 1 23 50
M  V30 56 1 23 51
M  V30 57 1 24 52
M  V30 58 1 24 53
M  V30 59 1 25 54
M  V30 60 1 25 55
M  V30 61 1 26 56
M  V30 62 1 27 57
M  V30 63 1 30 58
M  V30 64 1 31 59
M  V30 65 1 32 60
M  V30 66 1 33 61
M  V30 67 1 34 62
M  V30 68 1 35 63
M  V30 END BOND
M  V30 END CTAB
M  END
>  <Dataset>  (99) 
ChEMBL_Kinases

>  <Ligand_Instance>  (99) 
nan

>  <PDB_ID>  (99) 
nan

>  <Standardized_SMILES>  (99) 
N=C(c1ccccc1)n1c(=N)ccc2nc(-c3ccc(C4(N)CCC4)cc3)c(-c3ccccc3)cc21

>  <Name>  (99) 
nan

>  <Pocket>  (99) 
nan

>  <ATP_Site>  (99) 
nan

>  <Peripheral>  (99) 
nan

>  <Num_H_Atoms_ProtBoundConf>  (99) 
nan

>  <Num_Resolved_Atoms>  (99) 
nan

>  <Num_Not_Resolved_Atoms>  (99) 
nan

$$$$
CHEMBL3217784
     RDKit          3D

  0  0  0  0  0  0  0  0  0  0999 V3000
M  V30 BEGIN CTAB
M  V30 COUNTS 38 40 0 0 0
M  V30 BEGIN ATOM
M  V30 1 N -0.590931 -3.214205 2.233916 0
M  V30 2 C -0.369230 -2.764775 0.930928 0
M  V30 3 O -1.558403 -2.464410 1.023705 0
M  V30 4 C 0.901259 -2.862700 0.264135 0
M  V30 5 C 1.926518 -3.466701 0.956948 0
M  V30 6 C 3.113306 -3.561175 0.263069 0
M  V30 7 C 3.234511 -3.079864 -1.022076 0
M  V30 8 C 2.155826 -2.473801 -1.676873 0
M  V30 9 C 0.926274 -2.352926 -1.013797 0
M  V30 10 N -0.218336 -1.766982 -1.578394 0
M  V30 11 C -1.050443 -0.667579 -1.326784 0
M  V30 12 N -0.882922 0.220222 -0.367245 0
M  V30 13 C -1.646816 1.281795 -0.088892 0
M  V30 14 N -1.438128 2.217998 0.951991 0
M  V30 15 C -0.402931 2.259432 1.919301 0
M  V30 16 C -0.357823 3.245006 2.879047 0
M  V30 17 C 0.618776 3.340093 3.841940 0
M  V30 18 C 1.635965 2.411804 3.886862 0
M  V30 19 F 2.565301 2.544495 4.843479 0
M  V30 20 C 1.612314 1.418058 2.938749 0
M  V30 21 C 0.622957 1.342458 1.982526 0
M  V30 22 N -2.704362 1.437801 -0.899898 0
M  V30 23 C -2.958449 0.587415 -1.903360 0
M  V30 24 C -2.138665 -0.489860 -2.145457 0
M  V30 25 Cl -2.537467 -1.555833 -3.475051 0
M  V30 26 H -0.561532 -3.534074 3.213875 0
M  V30 27 H -0.764412 -3.548023 3.200043 0
M  V30 28 H 1.785813 -3.828884 1.963483 0
M  V30 29 H 3.971243 -4.018400 0.725440 0
M  V30 30 H 4.131845 -3.120646 -1.623396 0
M  V30 31 H 2.229318 -2.085919 -2.692906 0
M  V30 32 H -0.389505 -2.411610 -2.377869 0
M  V30 33 H -2.145732 3.004861 1.032447 0
M  V30 34 H -1.131017 4.003089 2.893964 0
M  V30 35 H 0.588126 4.143243 4.563241 0
M  V30 36 H 2.436523 0.692001 2.998997 0
M  V30 37 H 0.700974 0.527115 1.292803 0
M  V30 38 H -3.835027 0.770347 -2.526710 0
M  V30 END ATOM
M  V30 BEGIN BOND
M  V30 1 1 1 2
M  V30 2 2 2 3
M  V30 3 1 2 4
M  V30 4 2 4 5
M  V30 5 1 5 6
M  V30 6 2 6 7
M  V30 7 1 7 8
M  V30 8 2 8 9
M  V30 9 1 9 10
M  V30 10 1 10 11
M  V30 11 2 11 12
M  V30 12 1 12 13
M  V30 13 1 13 14
M  V30 14 1 14 15
M  V30 15 2 15 16
M  V30 16 1 16 17
M  V30 17 2 17 18
M  V30 18 1 18 19
M  V30 19 1 18 20
M  V30 20 2 20 21
M  V30 21 2 13 22
M  V30 22 1 22 23
M  V30 23 2 23 24
M  V30 24 1 24 25
M  V30 25 1 9 4
M  V30 26 1 24 11
M  V30 27 1 21 15
M  V30 28 1 1 26
M  V30 29 1 1 27
M  V30 30 1 5 28
M  V30 31 1 6 29
M  V30 32 1 7 30
M  V30 33 1 8 31
M  V30 34 1 10 32
M  V30 35 1 14 33
M  V30 36 1 16 34
M  V30 37 1 17 35
M  V30 38 1 20 36
M  V30 39 1 21 37
M  V30 40 1 23 38
M  V30 END BOND
M  V30 END CTAB
M  END
>  <Dataset>  (100) 
ChEMBL_Kinases

>  <Ligand_Instance>  (100) 
nan

>  <PDB_ID>  (100) 
nan

>  <Standardized_SMILES>  (100) 
NC(=O)c1ccccc1Nc1nc(Nc2ccc(F)cc2)ncc1Cl

>  <Name>  (100) 
nan

>  <Pocket>  (100) 
nan

>  <ATP_Site>  (100) 
nan

>  <Peripheral>  (100) 
nan

>  <Num_H_Atoms_ProtBoundConf>  (100) 
nan

>  <Num_Resolved_Atoms>  (100) 
nan

>  <Num_Not_Resolved_Atoms>  (100) 
nan

$$$$
CHEMBL3679632
     RDKit          3D

  0  0  0  0  0  0  0  0  0  0999 V3000
M  V30 BEGIN CTAB
M  V30 COUNTS 58 63 0 0 0
M  V30 BEGIN ATOM
M  V30 1 C 6.596384 -1.938725 2.327485 0
M  V30 2 C 6.026574 -1.346356 1.065640 0 CFG=2
M  V30 3 O 6.967942 -0.906332 0.148086 0
M  V30 4 C 4.961705 -0.322845 1.405256 0
M  V30 5 C 3.979194 -1.500831 1.448592 0 CFG=1
M  V30 6 N 4.014401 -2.201236 2.720010 0
M  V30 7 C 2.649148 -1.080817 1.009526 0
M  V30 8 C 1.878836 -0.641792 2.069860 0
M  V30 9 C 0.565932 -0.188864 1.890102 0
M  V30 10 C 0.040831 -0.189970 0.591499 0
M  V30 11 C -1.323204 0.278387 0.390277 0
M  V30 12 N -1.596244 1.550685 0.730284 0
M  V30 13 C -2.828313 2.064623 0.579789 0
M  V30 14 C -3.012446 3.380847 0.943477 0
M  V30 15 C -4.280726 3.887067 0.768574 0
M  V30 16 C -5.247581 3.053138 0.254091 0
M  V30 17 N -6.528865 3.334987 0.003619 0
M  V30 18 N -7.090932 2.247851 -0.483280 0
M  V30 19 C -6.200158 1.218287 -0.568292 0
M  V30 20 C -6.555232 -0.118205 -1.074147 0
M  V30 21 F -6.188200 -0.291287 -2.400717 0
M  V30 22 F -7.965366 -0.163790 -1.127415 0
M  V30 23 N -5.075043 1.769437 -0.101693 0
M  V30 24 C -3.854321 1.299576 0.070179 0
M  V30 25 C -3.581755 0.004889 -0.278157 0
M  V30 26 C -2.314362 -0.534977 -0.126713 0
M  V30 27 C -1.912155 -1.910025 -0.465477 0
M  V30 28 C -1.451144 -2.871619 0.410724 0
M  V30 29 C -1.113091 -4.123261 -0.059990 0
M  V30 30 C -1.240043 -4.403178 -1.411226 0
M  V30 31 C -1.698343 -3.456957 -2.302534 0
M  V30 32 C -2.037004 -2.200692 -1.825853 0
M  V30 33 C 0.818409 -0.630950 -0.464861 0
M  V30 34 C 2.109191 -1.070238 -0.247290 0
M  V30 35 C 4.879501 -2.164430 0.454532 0
M  V30 36 H 6.421674 -1.310724 3.234574 0
M  V30 37 H 7.704792 -2.004341 2.185542 0
M  V30 38 H 6.253016 -2.981532 2.520780 0
M  V30 39 H 7.738082 -1.523339 0.208400 0
M  V30 40 H 4.665879 0.358261 0.606228 0
M  V30 41 H 5.027548 0.086344 2.434736 0
M  V30 42 H 4.039567 -1.524834 3.496858 0
M  V30 43 H 3.106229 -2.717856 2.777517 0
M  V30 44 H 2.173732 -0.592687 3.125312 0
M  V30 45 H -0.064914 0.161586 2.698428 0
M  V30 46 H -2.267520 4.039864 1.345418 0
M  V30 47 H -4.499132 4.904544 1.028996 0
M  V30 48 H -6.315083 -0.965084 -0.422161 0
M  V30 49 H -4.218084 -0.736083 -0.697783 0
M  V30 50 H -1.396872 -2.527651 1.445807 0
M  V30 51 H -0.759759 -4.829760 0.674609 0
M  V30 52 H -0.962777 -5.405997 -1.748384 0
M  V30 53 H -1.792530 -3.689473 -3.356482 0
M  V30 54 H -2.399081 -1.472760 -2.570027 0
M  V30 55 H 0.409469 -0.629606 -1.461372 0
M  V30 56 H 2.756660 -1.421473 -1.019118 0
M  V30 57 H 4.695646 -1.827413 -0.565170 0
M  V30 58 H 5.034544 -3.260234 0.600598 0
M  V30 END ATOM
M  V30 BEGIN BOND
M  V30 1 1 1 2
M  V30 2 1 2 3 CFG=3
M  V30 3 1 2 4
M  V30 4 1 4 5
M  V30 5 1 5 6 CFG=1
M  V30 6 1 5 7
M  V30 7 2 7 8
M  V30 8 1 8 9
M  V30 9 2 9 10
M  V30 10 1 10 11
M  V30 11 2 11 12
M  V30 12 1 12 13
M  V30 13 1 13 14
M  V30 14 2 14 15
M  V30 15 1 15 16
M  V30 16 2 16 17
M  V30 17 1 17 18
M  V30 18 2 18 19
M  V30 19 1 19 20
M  V30 20 1 20 21
M  V30 21 1 20 22
M  V30 22 1 19 23
M  V30 23 1 23 24
M  V30 24 1 24 25
M  V30 25 2 25 26
M  V30 26 1 26 27
M  V30 27 2 27 28
M  V30 28 1 28 29
M  V30 29 2 29 30
M  V30 30 1 30 31
M  V30 31 2 31 32
M  V30 32 1 10 33
M  V30 33 2 33 34
M  V30 34 1 5 35
M  V30 35 1 35 2
M  V30 36 1 34 7
M  V30 37 1 26 11
M  V30 38 1 32 27
M  V30 39 2 24 13
M  V30 40 1 23 16
M  V30 41 1 1 36
M  V30 42 1 1 37
M  V30 43 1 1 38
M  V30 44 1 3 39
M  V30 45 1 4 40
M  V30 46 1 4 41
M  V30 47 1 6 42
M  V30 48 1 6 43
M  V30 49 1 8 44
M  V30 50 1 9 45
M  V30 51 1 14 46
M  V30 52 1 15 47
M  V30 53 1 20 48
M  V30 54 1 25 49
M  V30 55 1 28 50
M  V30 56 1 29 51
M  V30 57 1 30 52
M  V30 58 1 31 53
M  V30 59 1 32 54
M  V30 60 1 33 55
M  V30 61 1 34 56
M  V30 62 1 35 57
M  V30 63 1 35 58
M  V30 END BOND
M  V30 END CTAB
M  END
>  <Dataset>  (101) 
ChEMBL_Kinases

>  <Ligand_Instance>  (101) 
nan

>  <PDB_ID>  (101) 
nan

>  <Standardized_SMILES>  (101) 
C[C@]1(O)C[C@@](N)(c2ccc(-c3nc4ccc5nnc(C(F)F)n5c4cc3-c3ccccc3)cc2)C1

>  <Name>  (101) 
nan

>  <Pocket>  (101) 
nan

>  <ATP_Site>  (101) 
nan

>  <Peripheral>  (101) 
nan

>  <Num_H_Atoms_ProtBoundConf>  (101) 
nan

>  <Num_Resolved_Atoms>  (101) 
nan

>  <Num_Not_Resolved_Atoms>  (101) 
nan

$$$$
CHEMBL3238163
     RDKit          3D

  0  0  0  0  0  0  0  0  0  0999 V3000
M  V30 BEGIN CTAB
M  V30 COUNTS 63 66 0 0 0
M  V30 BEGIN ATOM
M  V30 1 C 5.750908 -3.677190 2.600374 0
M  V30 2 N 5.142599 -2.476172 2.041787 0
M  V30 3 C 6.054476 -1.375220 2.233868 0
M  V30 4 C 3.899635 -2.231943 2.729635 0
M  V30 5 C 3.154194 -1.027454 2.220659 0
M  V30 6 O 3.943175 0.103340 2.379480 0
M  V30 7 C 2.682226 -1.213607 0.799026 0
M  V30 8 N 1.883856 -0.060958 0.410992 0
M  V30 9 C 1.412117 -0.225366 -0.962599 0
M  V30 10 C 0.144187 -1.058657 -0.984485 0
M  V30 11 N -0.928050 -0.251442 -0.493903 0
M  V30 12 C -2.327019 -0.109811 -0.671011 0
M  V30 13 N -2.711924 1.102144 -1.110716 0
M  V30 14 C -4.028552 1.399356 -1.320568 0
M  V30 15 C -4.434893 2.722355 -1.797455 0
M  V30 16 C -5.744077 3.039915 -2.013272 0
M  V30 17 C -6.005785 4.334590 -2.466692 0
M  V30 18 N -5.029458 5.258832 -2.693436 0
M  V30 19 C -3.732434 4.935138 -2.476642 0
M  V30 20 C -3.438223 3.657669 -2.025936 0
M  V30 21 C -4.928674 0.390391 -1.055891 0
M  V30 22 N -4.586138 -0.834383 -0.615610 0
M  V30 23 C -3.258882 -1.088000 -0.419895 0
M  V30 24 N -2.900781 -2.386659 0.036593 0
M  V30 25 C -2.178474 -3.580831 -0.401515 0
M  V30 26 C -1.419129 -4.069303 0.799419 0
M  V30 27 C -2.047684 -3.371244 1.993405 0
M  V30 28 C -3.321659 -2.821667 1.380066 0
M  V30 29 C -0.409526 0.710208 0.471876 0
M  V30 30 C 0.726819 0.091172 1.276337 0
M  V30 31 H 5.232897 -3.966349 3.548930 0
M  V30 32 H 5.584311 -4.496406 1.853724 0
M  V30 33 H 6.808925 -3.484360 2.811515 0
M  V30 34 H 5.914027 -0.651857 1.410239 0
M  V30 35 H 5.874016 -0.871840 3.223857 0
M  V30 36 H 7.121787 -1.747743 2.261910 0
M  V30 37 H 4.140066 -2.136951 3.818006 0
M  V30 38 H 3.209720 -3.105275 2.637452 0
M  V30 39 H 2.264604 -0.851052 2.877769 0
M  V30 40 H 3.689857 0.775102 1.702964 0
M  V30 41 H 3.582153 -1.174627 0.150167 0
M  V30 42 H 2.152172 -2.160249 0.686898 0
M  V30 43 H 2.215161 -0.817055 -1.477452 0
M  V30 44 H 1.326889 0.741300 -1.457889 0
M  V30 45 H 0.367889 -1.944698 -0.381269 0
M  V30 46 H -0.013748 -1.315910 -2.069028 0
M  V30 47 H -6.542973 2.354099 -1.850530 0
M  V30 48 H -7.026695 4.688753 -2.670120 0
M  V30 49 H -3.004924 5.713100 -2.674376 0
M  V30 50 H -2.371380 3.450628 -1.867953 0
M  V30 51 H -5.970588 0.532979 -1.191407 0
M  V30 52 H -1.500060 -3.385968 -1.242867 0
M  V30 53 H -2.933499 -4.363074 -0.724725 0
M  V30 54 H -1.580831 -5.167458 0.962096 0
M  V30 55 H -0.339267 -3.914092 0.776030 0
M  V30 56 H -2.297357 -4.038926 2.820466 0
M  V30 57 H -1.383126 -2.549979 2.259707 0
M  V30 58 H -3.684206 -2.009495 2.004119 0
M  V30 59 H -4.066373 -3.623110 1.233223 0
M  V30 60 H -1.158409 1.140330 1.133194 0
M  V30 61 H 0.010622 1.561340 -0.138661 0
M  V30 62 H 0.360495 -0.848251 1.686396 0
M  V30 63 H 0.999554 0.849326 2.044017 0
M  V30 END ATOM
M  V30 BEGIN BOND
M  V30 1 1 1 2
M  V30 2 1 2 3
M  V30 3 1 2 4
M  V30 4 1 4 5
M  V30 5 1 5 6
M  V30 6 1 5 7
M  V30 7 1 7 8
M  V30 8 1 8 9
M  V30 9 1 9 10
M  V30 10 1 10 11
M  V30 11 1 11 12
M  V30 12 2 12 13
M  V30 13 1 13 14
M  V30 14 1 14 15
M  V30 15 2 15 16
M  V30 16 1 16 17
M  V30 17 2 17 18
M  V30 18 1 18 19
M  V30 19 2 19 20
M  V30 20 2 14 21
M  V30 21 1 21 22
M  V30 22 2 22 23
M  V30 23 1 23 24
M  V30 24 1 24 25
M  V30 25 1 25 26
M  V30 26 1 26 27
M  V30 27 1 27 28
M  V30 28 1 11 29
M  V30 29 1 29 30
M  V30 30 1 30 8
M  V30 31 1 23 12
M  V30 32 1 28 24
M  V30 33 1 20 15
M  V30 34 1 1 31
M  V30 35 1 1 32
M  V30 36 1 1 33
M  V30 37 1 3 34
M  V30 38 1 3 35
M  V30 39 1 3 36
M  V30 40 1 4 37
M  V30 41 1 4 38
M  V30 42 1 5 39
M  V30 43 1 6 40
M  V30 44 1 7 41
M  V30 45 1 7 42
M  V30 46 1 9 43
M  V30 47 1 9 44
M  V30 48 1 10 45
M  V30 49 1 10 46
M  V30 50 1 16 47
M  V30 51 1 17 48
M  V30 52 1 19 49
M  V30 53 1 20 50
M  V30 54 1 21 51
M  V30 55 1 25 52
M  V30 56 1 25 53
M  V30 57 1 26 54
M  V30 58 1 26 55
M  V30 59 1 27 56
M  V30 60 1 27 57
M  V30 61 1 28 58
M  V30 62 1 28 59
M  V30 63 1 29 60
M  V30 64 1 29 61
M  V30 65 1 30 62
M  V30 66 1 30 63
M  V30 END BOND
M  V30 END CTAB
M  END
>  <Dataset>  (102) 
ChEMBL_Kinases

>  <Ligand_Instance>  (102) 
nan

>  <PDB_ID>  (102) 
nan

>  <Standardized_SMILES>  (102) 
CN(C)CC(O)CN1CCN(c2nc(-c3ccncc3)cnc2N2CCCC2)CC1

>  <Name>  (102) 
nan

>  <Pocket>  (102) 
nan

>  <ATP_Site>  (102) 
nan

>  <Peripheral>  (102) 
nan

>  <Num_H_Atoms_ProtBoundConf>  (102) 
nan

>  <Num_Resolved_Atoms>  (102) 
nan

>  <Num_Not_Resolved_Atoms>  (102) 
nan

$$$$
CHEMBL3218006
     RDKit          3D

  0  0  0  0  0  0  0  0  0  0999 V3000
M  V30 BEGIN CTAB
M  V30 COUNTS 40 42 0 0 0
M  V30 BEGIN ATOM
M  V30 1 C 1.256230 -6.570221 -0.682075 0
M  V30 2 O 1.374279 -5.362512 -1.408971 0
M  V30 3 C 1.936807 -4.249357 -0.849277 0
M  V30 4 C 2.446924 -4.128364 0.426773 0
M  V30 5 C 2.990622 -2.927297 0.859902 0
M  V30 6 C 2.997773 -1.865320 -0.039225 0
M  V30 7 C 2.502379 -1.928990 -1.325319 0
M  V30 8 C 2.525818 -0.778645 -2.252571 0
M  V30 9 N 1.310589 0.006869 -2.140099 0
M  V30 10 C 0.970709 0.907481 -1.122362 0
M  V30 11 O 1.731547 1.136626 -0.147376 0
M  V30 12 N -0.286405 1.580809 -1.209057 0
M  V30 13 C -0.583731 2.532748 -0.078508 0
M  V30 14 N -1.135091 2.220145 0.906496 0
M  V30 15 C -1.425291 3.006826 1.933958 0
M  V30 16 C -2.123408 2.536520 3.140103 0
M  V30 17 C -2.542938 1.236134 3.320239 0
M  V30 18 C -3.199028 0.720560 4.414695 0
M  V30 19 N -3.456708 1.599205 5.424063 0
M  V30 20 C -3.080745 2.884492 5.326846 0
M  V30 21 C -2.424984 3.354450 4.208193 0
M  V30 22 C -1.035392 4.343451 1.834417 0
M  V30 23 S -0.224923 4.313865 0.124757 0
M  V30 24 C 1.964522 -3.161656 -1.715143 0
M  V30 25 H 1.016921 -6.335822 0.372880 0
M  V30 26 H 0.423251 -7.170382 -1.153736 0
M  V30 27 H 2.158971 -7.203801 -0.725362 0
M  V30 28 H 2.398772 -5.006996 1.055701 0
M  V30 29 H 3.387759 -2.838392 1.858324 0
M  V30 30 H 3.424465 -0.969091 0.339189 0
M  V30 31 H 2.782715 -1.021530 -3.285095 0
M  V30 32 H 3.340806 -0.103925 -1.883502 0
M  V30 33 H 0.634567 -0.149362 -2.936207 0
M  V30 34 H -0.984777 1.448901 -1.990699 0
M  V30 35 H -2.354028 0.510372 2.536335 0
M  V30 36 H -3.495282 -0.316047 4.478321 0
M  V30 37 H -3.301527 3.555277 6.147228 0
M  V30 38 H -2.135938 4.405388 4.166955 0
M  V30 39 H -1.163362 5.117386 2.515823 0
M  V30 40 H 1.580611 -3.178237 -2.740787 0
M  V30 END ATOM
M  V30 BEGIN BOND
M  V30 1 1 1 2
M  V30 2 1 2 3
M  V30 3 2 3 4
M  V30 4 1 4 5
M  V30 5 2 5 6
M  V30 6 1 6 7
M  V30 7 1 7 8
M  V30 8 1 8 9
M  V30 9 1 9 10
M  V30 10 2 10 11
M  V30 11 1 10 12
M  V30 12 1 12 13
M  V30 13 2 13 14
M  V30 14 1 14 15
M  V30 15 1 15 16
M  V30 16 2 16 17
M  V30 17 1 17 18
M  V30 18 2 18 19
M  V30 19 1 19 20
M  V30 20 2 20 21
M  V30 21 2 15 22
M  V30 22 1 22 23
M  V30 23 2 7 24
M  V30 24 1 24 3
M  V30 25 1 23 13
M  V30 26 1 21 16
M  V30 27 1 1 25
M  V30 28 1 1 26
M  V30 29 1 1 27
M  V30 30 1 4 28
M  V30 31 1 5 29
M  V30 32 1 6 30
M  V30 33 1 8 31
M  V30 34 1 8 32
M  V30 35 1 9 33
M  V30 36 1 12 34
M  V30 37 1 17 35
M  V30 38 1 18 36
M  V30 39 1 20 37
M  V30 40 1 21 38
M  V30 41 1 22 39
M  V30 42 1 24 40
M  V30 END BOND
M  V30 END CTAB
M  END
>  <Dataset>  (103) 
ChEMBL_Kinases

>  <Ligand_Instance>  (103) 
nan

>  <PDB_ID>  (103) 
nan

>  <Standardized_SMILES>  (103) 
COc1cccc(CNC(=O)Nc2nc(-c3ccncc3)cs2)c1

>  <Name>  (103) 
nan

>  <Pocket>  (103) 
nan

>  <ATP_Site>  (103) 
nan

>  <Peripheral>  (103) 
nan

>  <Num_H_Atoms_ProtBoundConf>  (103) 
nan

>  <Num_Resolved_Atoms>  (103) 
nan

>  <Num_Not_Resolved_Atoms>  (103) 
nan

$$$$
CHEMBL3218007
     RDKit          3D

  0  0  0  0  0  0  0  0  0  0999 V3000
M  V30 BEGIN CTAB
M  V30 COUNTS 40 42 0 0 0
M  V30 BEGIN ATOM
M  V30 1 C -1.418436 -3.497052 0.609950 0
M  V30 2 O -1.044897 -2.777997 -0.544282 0
M  V30 3 C -0.020414 -3.189674 -1.353973 0
M  V30 4 C 0.756911 -4.310931 -1.174736 0
M  V30 5 C 1.757400 -4.640517 -2.046255 0
M  V30 6 C 1.995575 -3.824057 -3.139805 0
M  V30 7 C 1.205100 -2.700633 -3.304067 0
M  V30 8 C 0.173065 -2.345261 -2.419059 0
M  V30 9 C -0.450175 -1.075488 -2.857369 0
M  V30 10 N 0.073691 0.101970 -2.218573 0
M  V30 11 C 0.210399 0.706949 -0.969593 0
M  V30 12 O -0.271287 0.050562 -0.019122 0
M  V30 13 N 0.831172 1.945721 -0.774228 0
M  V30 14 C 0.853879 2.375154 0.643734 0
M  V30 15 N 0.518624 2.000369 1.699399 0
M  V30 16 C 0.676820 2.630129 2.840042 0
M  V30 17 C 0.221178 2.070363 4.104676 0
M  V30 18 C -0.407387 0.853677 4.232533 0
M  V30 19 C -0.858713 0.277085 5.399738 0
M  V30 20 N -0.664882 0.976413 6.531096 0
M  V30 21 C -0.057889 2.172861 6.484818 0
M  V30 22 C 0.388243 2.732992 5.297138 0
M  V30 23 C 1.325516 3.898169 2.763766 0
M  V30 24 S 1.644798 4.018116 0.902587 0
M  V30 25 H -0.715909 -3.316781 1.455789 0
M  V30 26 H -2.468899 -3.281603 0.907569 0
M  V30 27 H -1.380425 -4.600165 0.432756 0
M  V30 28 H 0.505900 -4.895098 -0.296006 0
M  V30 29 H 2.279239 -5.546112 -1.774949 0
M  V30 30 H 2.789378 -4.129672 -3.788702 0
M  V30 31 H 1.510439 -2.153218 -4.210644 0
M  V30 32 H -0.540360 -0.990832 -3.936383 0
M  V30 33 H -1.518609 -1.153307 -2.427517 0
M  V30 34 H 0.512590 0.720442 -2.981031 0
M  V30 35 H 1.219816 2.474710 -1.550627 0
M  V30 36 H -0.574969 0.268718 3.327472 0
M  V30 37 H -1.346462 -0.699484 5.384497 0
M  V30 38 H 0.081345 2.710455 7.420755 0
M  V30 39 H 0.864915 3.697517 5.353961 0
M  V30 40 H 1.547199 4.597064 3.700477 0
M  V30 END ATOM
M  V30 BEGIN BOND
M  V30 1 1 1 2
M  V30 2 1 2 3
M  V30 3 2 3 4
M  V30 4 1 4 5
M  V30 5 2 5 6
M  V30 6 1 6 7
M  V30 7 2 7 8
M  V30 8 1 8 9
M  V30 9 1 9 10
M  V30 10 1 10 11
M  V30 11 2 11 12
M  V30 12 1 11 13
M  V30 13 1 13 14
M  V30 14 2 14 15
M  V30 15 1 15 16
M  V30 16 1 16 17
M  V30 17 2 17 18
M  V30 18 1 18 19
M  V30 19 2 19 20
M  V30 20 1 20 21
M  V30 21 2 21 22
M  V30 22 2 16 23
M  V30 23 1 23 24
M  V30 24 1 8 3
M  V30 25 1 24 14
M  V30 26 1 22 17
M  V30 27 1 1 25
M  V30 28 1 1 26
M  V30 29 1 1 27
M  V30 30 1 4 28
M  V30 31 1 5 29
M  V30 32 1 6 30
M  V30 33 1 7 31
M  V30 34 1 9 32
M  V30 35 1 9 33
M  V30 36 1 10 34
M  V30 37 1 13 35
M  V30 38 1 18 36
M  V30 39 1 19 37
M  V30 40 1 21 38
M  V30 41 1 22 39
M  V30 42 1 23 40
M  V30 END BOND
M  V30 END CTAB
M  END
>  <Dataset>  (104) 
ChEMBL_Kinases

>  <Ligand_Instance>  (104) 
nan

>  <PDB_ID>  (104) 
nan

>  <Standardized_SMILES>  (104) 
COc1ccccc1CNC(=O)Nc1nc(-c2ccncc2)cs1

>  <Name>  (104) 
nan

>  <Pocket>  (104) 
nan

>  <ATP_Site>  (104) 
nan

>  <Peripheral>  (104) 
nan

>  <Num_H_Atoms_ProtBoundConf>  (104) 
nan

>  <Num_Resolved_Atoms>  (104) 
nan

>  <Num_Not_Resolved_Atoms>  (104) 
nan

$$$$
CHEMBL3218009
     RDKit          3D

  0  0  0  0  0  0  0  0  0  0999 V3000
M  V30 BEGIN CTAB
M  V30 COUNTS 38 40 0 0 0
M  V30 BEGIN ATOM
M  V30 1 N 1.345036 -4.042152 3.049065 0
M  V30 2 C 2.000253 -3.908836 1.807373 0
M  V30 3 C 2.033010 -4.932339 0.885225 0
M  V30 4 C 2.717540 -4.664256 -0.304093 0
M  V30 5 C 3.320076 -3.438947 -0.523957 0
M  V30 6 C 3.271687 -2.415796 0.430969 0
M  V30 7 C 3.967730 -1.167650 0.039703 0
M  V30 8 N 3.103010 -0.234321 -0.672895 0
M  V30 9 C 2.110410 0.583522 -0.065084 0
M  V30 10 O 1.942830 0.521168 1.172781 0
M  V30 11 N 1.365676 1.429656 -0.925751 0
M  V30 12 C 0.339956 2.246303 -0.152578 0
M  V30 13 N -0.760959 1.867327 0.039095 0
M  V30 14 C -1.717759 2.490639 0.692120 0
M  V30 15 C -3.064539 1.963665 0.893558 0
M  V30 16 C -4.045991 2.639854 1.582636 0
M  V30 17 C -5.299540 2.084040 1.735828 0
M  V30 18 N -5.606113 0.877998 1.225268 0
M  V30 19 C -4.705667 0.158508 0.542059 0
M  V30 20 C -3.464294 0.737277 0.405012 0
M  V30 21 C -1.349218 3.743488 1.202568 0
M  V30 22 S 0.459508 3.865059 0.631623 0
M  V30 23 C 2.594347 -2.691717 1.598177 0
M  V30 24 H 1.505527 -4.014328 4.080202 0
M  V30 25 H 0.315696 -4.245079 2.996821 0
M  V30 26 H 1.537809 -5.846553 1.144620 0
M  V30 27 H 2.735149 -5.479639 -1.021745 0
M  V30 28 H 3.810234 -3.356183 -1.466255 0
M  V30 29 H 4.881614 -1.385809 -0.536887 0
M  V30 30 H 4.326346 -0.642239 0.961378 0
M  V30 31 H 3.254247 -0.189118 -1.725173 0
M  V30 32 H 1.481232 1.506945 -1.968867 0
M  V30 33 H -3.838141 3.604038 2.003732 0
M  V30 34 H -6.075861 2.622854 2.283046 0
M  V30 35 H -4.877372 -0.833158 0.094244 0
M  V30 36 H -2.707474 0.162965 -0.152453 0
M  V30 37 H -2.007805 4.458704 1.798840 0
M  V30 38 H 2.576530 -1.897024 2.301973 0
M  V30 END ATOM
M  V30 BEGIN BOND
M  V30 1 1 1 2
M  V30 2 2 2 3
M  V30 3 1 3 4
M  V30 4 2 4 5
M  V30 5 1 5 6
M  V30 6 1 6 7
M  V30 7 1 7 8
M  V30 8 1 8 9
M  V30 9 2 9 10
M  V30 10 1 9 11
M  V30 11 1 11 12
M  V30 12 2 12 13
M  V30 13 1 13 14
M  V30 14 1 14 15
M  V30 15 2 15 16
M  V30 16 1 16 17
M  V30 17 2 17 18
M  V30 18 1 18 19
M  V30 19 2 19 20
M  V30 20 2 14 21
M  V30 21 1 21 22
M  V30 22 2 6 23
M  V30 23 1 23 2
M  V30 24 1 22 12
M  V30 25 1 20 15
M  V30 26 1 1 24
M  V30 27 1 1 25
M  V30 28 1 3 26
M  V30 29 1 4 27
M  V30 30 1 5 28
M  V30 31 1 7 29
M  V30 32 1 7 30
M  V30 33 1 8 31
M  V30 34 1 11 32
M  V30 35 1 16 33
M  V30 36 1 17 34
M  V30 37 1 19 35
M  V30 38 1 20 36
M  V30 39 1 21 37
M  V30 40 1 23 38
M  V30 END BOND
M  V30 END CTAB
M  END
>  <Dataset>  (105) 
ChEMBL_Kinases

>  <Ligand_Instance>  (105) 
nan

>  <PDB_ID>  (105) 
nan

>  <Standardized_SMILES>  (105) 
Nc1cccc(CNC(=O)Nc2nc(-c3ccncc3)cs2)c1

>  <Name>  (105) 
nan

>  <Pocket>  (105) 
nan

>  <ATP_Site>  (105) 
nan

>  <Peripheral>  (105) 
nan

>  <Num_H_Atoms_ProtBoundConf>  (105) 
nan

>  <Num_Resolved_Atoms>  (105) 
nan

>  <Num_Not_Resolved_Atoms>  (105) 
nan

$$$$
CHEMBL3679631
     RDKit          3D

  0  0  0  0  0  0  0  0  0  0999 V3000
M  V30 BEGIN CTAB
M  V30 COUNTS 63 68 0 0 0
M  V30 BEGIN ATOM
M  V30 1 N 1.502062 3.236402 3.747860 0
M  V30 2 C 1.847259 2.001143 3.865649 0
M  V30 3 C 3.173857 1.415513 3.725343 0
M  V30 4 C 4.236802 2.236786 3.428092 0
M  V30 5 C 5.497611 1.694210 3.292719 0
M  V30 6 C 5.602158 0.320399 3.471886 0
M  V30 7 C 4.533645 -0.520824 3.773058 0
M  V30 8 C 3.285967 0.066646 3.899832 0
M  V30 9 N 0.692135 1.230037 4.170081 0
M  V30 10 C 0.183151 1.093429 5.418095 0
M  V30 11 N 0.776024 1.692652 6.382793 0
M  V30 12 C -0.948749 0.321363 5.621278 0
M  V30 13 C -1.581729 -0.323156 4.567318 0
M  V30 14 C -1.013557 -0.146346 3.308043 0
M  V30 15 N -1.587839 -0.749149 2.252237 0
M  V30 16 C -1.085173 -0.616851 1.004736 0
M  V30 17 C -1.791136 -1.316200 -0.068836 0
M  V30 18 C -2.389091 -0.633576 -1.109173 0
M  V30 19 C -3.053019 -1.303666 -2.116209 0
M  V30 20 C -3.158506 -2.655407 -2.146935 0
M  V30 21 C -3.796734 -3.571440 -3.088649 0
M  V30 22 N -4.523333 -4.663740 -2.434937 0
M  V30 23 C -4.485294 -3.010921 -4.285009 0
M  V30 24 C -3.743675 -4.003847 -5.162614 0
M  V30 25 F -4.430627 -5.134892 -5.495913 0
M  V30 26 F -3.248775 -3.357905 -6.265513 0
M  V30 27 C -2.741238 -4.157483 -4.037551 0
M  V30 28 C -2.554403 -3.357312 -1.094512 0
M  V30 29 C -1.881195 -2.694468 -0.071771 0
M  V30 30 C 0.041379 0.138858 0.731894 0
M  V30 31 C 0.566409 0.270316 -0.608775 0
M  V30 32 C 1.047243 -0.762588 -1.374365 0
M  V30 33 C 1.526315 -0.493272 -2.656629 0
M  V30 34 C 1.520361 0.796061 -3.157945 0
M  V30 35 C 1.027037 1.834600 -2.364162 0
M  V30 36 C 0.546189 1.585750 -1.085496 0
M  V30 37 C 0.630736 0.758355 1.820417 0
M  V30 38 C 0.128131 0.632699 3.103780 0
M  V30 39 H 2.250848 3.948151 3.520031 0
M  V30 40 H 4.166096 3.305654 3.287019 0
M  V30 41 H 6.409541 2.227494 3.061780 0
M  V30 42 H 6.570666 -0.183479 3.379938 0
M  V30 43 H 4.687413 -1.581720 3.899577 0
M  V30 44 H 2.410653 -0.535142 4.134099 0
M  V30 45 H 0.478642 1.661551 7.379785 0
M  V30 46 H -1.377194 0.195648 6.612960 0
M  V30 47 H -2.470590 -0.939101 4.673992 0
M  V30 48 H -2.353416 0.440182 -1.162677 0
M  V30 49 H -3.536256 -0.816579 -2.949122 0
M  V30 50 H -3.878799 -5.460401 -2.214971 0
M  V30 51 H -4.861752 -4.249169 -1.524732 0
M  V30 52 H -4.216223 -1.959372 -4.470777 0
M  V30 53 H -5.591360 -3.157255 -4.306427 0
M  V30 54 H -1.886531 -3.484864 -4.214989 0
M  V30 55 H -2.428824 -5.176613 -3.816716 0
M  V30 56 H -2.538921 -4.445498 -0.957013 0
M  V30 57 H -1.404702 -3.202946 0.754323 0
M  V30 58 H 1.040447 -1.754772 -0.960427 0
M  V30 59 H 1.913980 -1.313294 -3.279669 0
M  V30 60 H 1.882483 1.049800 -4.145386 0
M  V30 61 H 1.027051 2.852763 -2.773610 0
M  V30 62 H 0.179118 2.429034 -0.521190 0
M  V30 63 H 1.521766 1.365184 1.654377 0
M  V30 END ATOM
M  V30 BEGIN BOND
M  V30 1 2 1 2 CFG=2
M  V30 2 1 2 3
M  V30 3 2 3 4
M  V30 4 1 4 5
M  V30 5 2 5 6
M  V30 6 1 6 7
M  V30 7 2 7 8
M  V30 8 1 2 9
M  V30 9 1 9 10
M  V30 10 2 10 11 CFG=2
M  V30 11 1 10 12
M  V30 12 2 12 13
M  V30 13 1 13 14
M  V30 14 2 14 15
M  V30 15 1 15 16
M  V30 16 1 16 17
M  V30 17 2 17 18
M  V30 18 1 18 19
M  V30 19 2 19 20
M  V30 20 1 20 21
M  V30 21 1 21 22
M  V30 22 1 21 23
M  V30 23 1 23 24
M  V30 24 1 24 25
M  V30 25 1 24 26
M  V30 26 1 24 27
M  V30 27 1 20 28
M  V30 28 2 28 29
M  V30 29 2 16 30
M  V30 30 1 30 31
M  V30 31 2 31 32
M  V30 32 1 32 33
M  V30 33 2 33 34
M  V30 34 1 34 35
M  V30 35 2 35 36
M  V30 36 1 30 37
M  V30 37 2 37 38
M  V30 38 1 8 3
M  V30 39 1 38 9
M  V30 40 1 38 14
M  V30 41 1 29 17
M  V30 42 1 36 31
M  V30 43 1 27 21
M  V30 44 1 1 39
M  V30 45 1 4 40
M  V30 46 1 5 41
M  V30 47 1 6 42
M  V30 48 1 7 43
M  V30 49 1 8 44
M  V30 50 1 11 45
M  V30 51 1 12 46
M  V30 52 1 13 47
M  V30 53 1 18 48
M  V30 54 1 19 49
M  V30 55 1 22 50
M  V30 56 1 22 51
M  V30 57 1 23 52
M  V30 58 1 23 53
M  V30 59 1 27 54
M  V30 60 1 27 55
M  V30 61 1 28 56
M  V30 62 1 29 57
M  V30 63 1 32 58
M  V30 64 1 33 59
M  V30 65 1 34 60
M  V30 66 1 35 61
M  V30 67 1 36 62
M  V30 68 1 37 63
M  V30 END BOND
M  V30 END CTAB
M  END
>  <Dataset>  (106) 
ChEMBL_Kinases

>  <Ligand_Instance>  (106) 
nan

>  <PDB_ID>  (106) 
nan

>  <Standardized_SMILES>  (106) 
N=C(c1ccccc1)n1c(=N)ccc2nc(-c3ccc(C4(N)CC(F)(F)C4)cc3)c(-c3ccccc3)cc21

>  <Name>  (106) 
nan

>  <Pocket>  (106) 
nan

>  <ATP_Site>  (106) 
nan

>  <Peripheral>  (106) 
nan

>  <Num_H_Atoms_ProtBoundConf>  (106) 
nan

>  <Num_Resolved_Atoms>  (106) 
nan

>  <Num_Not_Resolved_Atoms>  (106) 
nan

$$$$
CHEMBL3218012
     RDKit          3D

  0  0  0  0  0  0  0  0  0  0999 V3000
M  V30 BEGIN CTAB
M  V30 COUNTS 37 39 0 0 0
M  V30 BEGIN ATOM
M  V30 1 O 1.041925 -1.558682 2.192821 0
M  V30 2 C -0.091214 -2.106474 2.198450 0
M  V30 3 N -0.281540 -3.508269 2.052949 0
M  V30 4 C 0.861512 -4.405330 1.885415 0
M  V30 5 C 1.627455 -4.040517 0.664706 0
M  V30 6 C 2.833764 -3.371278 0.710840 0
M  V30 7 C 3.537685 -3.037358 -0.427280 0
M  V30 8 C 3.053263 -3.365754 -1.676806 0
M  V30 9 C 1.853923 -4.031802 -1.733862 0
M  V30 10 C 1.125906 -4.379171 -0.597090 0
M  V30 11 O -0.088173 -5.051807 -0.619826 0
M  V30 12 N -1.270365 -1.331117 2.354882 0
M  V30 13 C -1.108288 0.161768 2.512250 0
M  V30 14 N -1.099693 0.917983 1.588370 0
M  V30 15 C -0.957893 2.240975 1.698226 0
M  V30 16 C -0.953871 3.132406 0.541434 0
M  V30 17 C -1.095581 2.689032 -0.755759 0
M  V30 18 C -1.089172 3.557308 -1.848720 0
M  V30 19 N -0.941646 4.875714 -1.663285 0
M  V30 20 C -0.800283 5.355398 -0.420561 0
M  V30 21 C -0.806684 4.497450 0.658886 0
M  V30 22 C -0.811213 2.732281 3.017038 0
M  V30 23 S -0.903558 1.106141 3.997046 0
M  V30 24 H -1.234892 -3.931781 2.061196 0
M  V30 25 H 0.539880 -5.454852 1.886559 0
M  V30 26 H 1.530387 -4.242397 2.755207 0
M  V30 27 H 3.261881 -3.088254 1.668120 0
M  V30 28 H 4.494733 -2.505203 -0.370049 0
M  V30 29 H 3.548183 -3.137409 -2.610904 0
M  V30 30 H 1.432759 -4.311329 -2.700185 0
M  V30 31 H -0.882838 -4.513719 -0.934219 0
M  V30 32 H -2.251197 -1.692283 2.372641 0
M  V30 33 H -1.215405 1.599724 -0.867674 0
M  V30 34 H -1.214576 3.022054 -2.802623 0
M  V30 35 H -0.680095 6.430690 -0.268335 0
M  V30 36 H -0.687691 4.959641 1.626652 0
M  V30 37 H -0.679740 3.829797 3.296462 0
M  V30 END ATOM
M  V30 BEGIN BOND
M  V30 1 2 1 2
M  V30 2 1 2 3
M  V30 3 1 3 4
M  V30 4 1 4 5
M  V30 5 2 5 6
M  V30 6 1 6 7
M  V30 7 2 7 8
M  V30 8 1 8 9
M  V30 9 2 9 10
M  V30 10 1 10 11
M  V30 11 1 2 12
M  V30 12 1 12 13
M  V30 13 2 13 14
M  V30 14 1 14 15
M  V30 15 1 15 16
M  V30 16 2 16 17
M  V30 17 1 17 18
M  V30 18 2 18 19
M  V30 19 1 19 20
M  V30 20 2 20 21
M  V30 21 2 15 22
M  V30 22 1 22 23
M  V30 23 1 10 5
M  V30 24 1 23 13
M  V30 25 1 21 16
M  V30 26 1 3 24
M  V30 27 1 4 25
M  V30 28 1 4 26
M  V30 29 1 6 27
M  V30 30 1 7 28
M  V30 31 1 8 29
M  V30 32 1 9 30
M  V30 33 1 11 31
M  V30 34 1 12 32
M  V30 35 1 17 33
M  V30 36 1 18 34
M  V30 37 1 20 35
M  V30 38 1 21 36
M  V30 39 1 22 37
M  V30 END BOND
M  V30 END CTAB
M  END
>  <Dataset>  (107) 
ChEMBL_Kinases

>  <Ligand_Instance>  (107) 
nan

>  <PDB_ID>  (107) 
nan

>  <Standardized_SMILES>  (107) 
O=C(NCc1ccccc1O)Nc1nc(-c2ccncc2)cs1

>  <Name>  (107) 
nan

>  <Pocket>  (107) 
nan

>  <ATP_Site>  (107) 
nan

>  <Peripheral>  (107) 
nan

>  <Num_H_Atoms_ProtBoundConf>  (107) 
nan

>  <Num_Resolved_Atoms>  (107) 
nan

>  <Num_Not_Resolved_Atoms>  (107) 
nan

$$$$
CHEMBL3218013
     RDKit          3D

  0  0  0  0  0  0  0  0  0  0999 V3000
M  V30 BEGIN CTAB
M  V30 COUNTS 37 39 0 0 0
M  V30 BEGIN ATOM
M  V30 1 O 0.777252 -1.670753 1.551879 0
M  V30 2 C -0.263073 -1.981526 2.207485 0
M  V30 3 N -0.409690 -3.404159 2.376565 0
M  V30 4 C 0.462430 -4.477751 1.901164 0
M  V30 5 C 1.633780 -3.945890 1.153039 0
M  V30 6 C 2.867335 -3.593770 1.663102 0
M  V30 7 C 3.846785 -3.113258 0.814241 0
M  V30 8 C 3.648726 -2.965513 -0.542447 0
M  V30 9 O 4.679441 -2.474503 -1.344291 0
M  V30 10 C 2.423847 -3.308969 -1.087546 0
M  V30 11 C 1.456839 -3.787507 -0.223688 0
M  V30 12 N -1.288681 -1.170730 2.791686 0
M  V30 13 C -0.924656 0.265682 2.488438 0
M  V30 14 N -1.312560 0.811212 1.485316 0
M  V30 15 C -1.007281 2.082283 1.188553 0
M  V30 16 C -1.483297 2.732458 -0.030137 0
M  V30 17 C -2.275785 2.109961 -0.969945 0
M  V30 18 C -2.733471 2.700536 -2.119627 0
M  V30 19 N -2.391551 3.990898 -2.366865 0
M  V30 20 C -1.629544 4.661183 -1.509025 0
M  V30 21 C -1.180192 4.037031 -0.351958 0
M  V30 22 C -0.194340 2.779097 2.115365 0
M  V30 23 S 0.051590 1.406026 3.407517 0
M  V30 24 H -1.219409 -3.802971 2.895568 0
M  V30 25 H -0.109585 -5.162919 1.247781 0
M  V30 26 H 0.870614 -5.067961 2.745612 0
M  V30 27 H 2.969886 -3.727703 2.723991 0
M  V30 28 H 4.802285 -2.854121 1.294285 0
M  V30 29 H 4.635869 -1.472105 -1.559111 0
M  V30 30 H 2.221965 -3.210688 -2.143943 0
M  V30 31 H 0.498264 -4.049242 -0.694259 0
M  V30 32 H -2.105979 -1.582644 3.316073 0
M  V30 33 H -2.566046 1.062763 -0.790876 0
M  V30 34 H -3.364261 2.134798 -2.822797 0
M  V30 35 H -1.359179 5.679858 -1.703471 0
M  V30 36 H -0.563662 4.629421 0.310141 0
M  V30 37 H 0.132980 3.785054 2.025155 0
M  V30 END ATOM
M  V30 BEGIN BOND
M  V30 1 2 1 2
M  V30 2 1 2 3
M  V30 3 1 3 4
M  V30 4 1 4 5
M  V30 5 2 5 6
M  V30 6 1 6 7
M  V30 7 2 7 8
M  V30 8 1 8 9
M  V30 9 1 8 10
M  V30 10 2 10 11
M  V30 11 1 2 12
M  V30 12 1 12 13
M  V30 13 2 13 14
M  V30 14 1 14 15
M  V30 15 1 15 16
M  V30 16 2 16 17
M  V30 17 1 17 18
M  V30 18 2 18 19
M  V30 19 1 19 20
M  V30 20 2 20 21
M  V30 21 2 15 22
M  V30 22 1 22 23
M  V30 23 1 11 5
M  V30 24 1 23 13
M  V30 25 1 21 16
M  V30 26 1 3 24
M  V30 27 1 4 25
M  V30 28 1 4 26
M  V30 29 1 6 27
M  V30 30 1 7 28
M  V30 31 1 9 29
M  V30 32 1 10 30
M  V30 33 1 11 31
M  V30 34 1 12 32
M  V30 35 1 17 33
M  V30 36 1 18 34
M  V30 37 1 20 35
M  V30 38 1 21 36
M  V30 39 1 22 37
M  V30 END BOND
M  V30 END CTAB
M  END
>  <Dataset>  (108) 
ChEMBL_Kinases

>  <Ligand_Instance>  (108) 
nan

>  <PDB_ID>  (108) 
nan

>  <Standardized_SMILES>  (108) 
O=C(NCc1ccc(O)cc1)Nc1nc(-c2ccncc2)cs1

>  <Name>  (108) 
nan

>  <Pocket>  (108) 
nan

>  <ATP_Site>  (108) 
nan

>  <Peripheral>  (108) 
nan

>  <Num_H_Atoms_ProtBoundConf>  (108) 
nan

>  <Num_Resolved_Atoms>  (108) 
nan

>  <Num_Not_Resolved_Atoms>  (108) 
nan

$$$$
CHEMBL3679630
     RDKit          3D

  0  0  0  0  0  0  0  0  0  0999 V3000
M  V30 BEGIN CTAB
M  V30 COUNTS 56 60 0 0 0
M  V30 BEGIN ATOM
M  V30 1 C 4.846947 -4.671222 0.470741 0
M  V30 2 C 4.618094 -3.509650 -0.454366 0
M  V30 3 N 4.449049 -3.849179 -1.685418 0
M  V30 4 N 4.588554 -2.155520 -0.022839 0
M  V30 5 C 5.713228 -1.442143 0.193000 0
M  V30 6 N 6.856914 -2.046278 -0.011656 0
M  V30 7 C 5.656794 -0.133932 0.611102 0
M  V30 8 C 4.455290 0.506273 0.827980 0
M  V30 9 C 3.304155 -0.224539 0.606853 0
M  V30 10 N 2.109236 0.363242 0.807130 0
M  V30 11 C 0.933800 -0.266668 0.618773 0
M  V30 12 C -0.372638 0.353206 0.830673 0
M  V30 13 C -1.133450 0.416694 -0.343120 0
M  V30 14 C -2.395994 0.980638 -0.289057 0
M  V30 15 C -2.944418 1.488009 0.879263 0
M  V30 16 C -4.264163 2.094323 1.012641 0
M  V30 17 N -4.946702 1.812732 2.284743 0
M  V30 18 C -4.327748 3.608473 0.785332 0
M  V30 19 C -5.754652 3.355272 0.284043 0
M  V30 20 C -5.252121 1.953591 -0.087446 0
M  V30 21 C -2.163881 1.407187 2.014581 0
M  V30 22 C -0.899303 0.852725 2.006277 0
M  V30 23 C 0.973219 -1.598380 0.193452 0
M  V30 24 C -0.219504 -2.401784 -0.050860 0
M  V30 25 C -0.598050 -2.974959 -1.248930 0
M  V30 26 C -1.764461 -3.714753 -1.326409 0
M  V30 27 C -2.537950 -3.864508 -0.177240 0
M  V30 28 C -2.176093 -3.300469 1.024769 0
M  V30 29 C -1.000131 -2.556372 1.096228 0
M  V30 30 C 2.203125 -2.190981 -0.008993 0
M  V30 31 C 3.407625 -1.544264 0.184580 0
M  V30 32 H 5.131709 -4.305352 1.481947 0
M  V30 33 H 3.937381 -5.281618 0.607203 0
M  V30 34 H 5.670730 -5.287220 0.102816 0
M  V30 35 H 4.478046 -4.849094 -1.958900 0
M  V30 36 H 6.841897 -3.036614 -0.327447 0
M  V30 37 H 6.622728 0.351530 0.756471 0
M  V30 38 H 4.466861 1.535027 1.156225 0
M  V30 39 H -0.801266 0.052625 -1.301528 0
M  V30 40 H -3.010067 1.046276 -1.173823 0
M  V30 41 H -4.731790 0.804915 2.503975 0
M  V30 42 H -4.501697 2.353875 3.059374 0
M  V30 43 H -4.286038 4.180376 1.731303 0
M  V30 44 H -3.725861 3.990806 -0.040284 0
M  V30 45 H -6.075147 3.982645 -0.546226 0
M  V30 46 H -6.428211 3.333245 1.173967 0
M  V30 47 H -6.068066 1.234838 0.102476 0
M  V30 48 H -4.904939 1.998115 -1.132370 0
M  V30 49 H -2.440189 1.758376 3.019295 0
M  V30 50 H -0.239023 0.758937 2.857305 0
M  V30 51 H 0.086456 -2.791921 -2.088675 0
M  V30 52 H -2.021650 -4.146404 -2.289890 0
M  V30 53 H -3.449176 -4.442399 -0.235868 0
M  V30 54 H -2.795097 -3.429143 1.913688 0
M  V30 55 H -0.773020 -2.141280 2.064867 0
M  V30 56 H 2.274166 -3.223172 -0.338884 0
M  V30 END ATOM
M  V30 BEGIN BOND
M  V30 1 1 1 2
M  V30 2 2 2 3 CFG=2
M  V30 3 1 2 4
M  V30 4 1 4 5
M  V30 5 2 5 6 CFG=2
M  V30 6 1 5 7
M  V30 7 2 7 8
M  V30 8 1 8 9
M  V30 9 2 9 10
M  V30 10 1 10 11
M  V30 11 1 11 12
M  V30 12 2 12 13
M  V30 13 1 13 14
M  V30 14 2 14 15
M  V30 15 1 15 16
M  V30 16 1 16 17
M  V30 17 1 16 18
M  V30 18 1 18 19
M  V30 19 1 19 20
M  V30 20 1 15 21
M  V30 21 2 21 22
M  V30 22 2 11 23
M  V30 23 1 23 24
M  V30 24 2 24 25
M  V30 25 1 25 26
M  V30 26 2 26 27
M  V30 27 1 27 28
M  V30 28 2 28 29
M  V30 29 1 23 30
M  V30 30 2 30 31
M  V30 31 1 31 4
M  V30 32 1 31 9
M  V30 33 1 22 12
M  V30 34 1 29 24
M  V30 35 1 20 16
M  V30 36 1 1 32
M  V30 37 1 1 33
M  V30 38 1 1 34
M  V30 39 1 3 35
M  V30 40 1 6 36
M  V30 41 1 7 37
M  V30 42 1 8 38
M  V30 43 1 13 39
M  V30 44 1 14 40
M  V30 45 1 17 41
M  V30 46 1 17 42
M  V30 47 1 18 43
M  V30 48 1 18 44
M  V30 49 1 19 45
M  V30 50 1 19 46
M  V30 51 1 20 47
M  V30 52 1 20 48
M  V30 53 1 21 49
M  V30 54 1 22 50
M  V30 55 1 25 51
M  V30 56 1 26 52
M  V30 57 1 27 53
M  V30 58 1 28 54
M  V30 59 1 29 55
M  V30 60 1 30 56
M  V30 END BOND
M  V30 END CTAB
M  END
>  <Dataset>  (109) 
ChEMBL_Kinases

>  <Ligand_Instance>  (109) 
nan

>  <PDB_ID>  (109) 
nan

>  <Standardized_SMILES>  (109) 
CC(=N)n1c(=N)ccc2nc(-c3ccc(C4(N)CCC4)cc3)c(-c3ccccc3)cc21

>  <Name>  (109) 
nan

>  <Pocket>  (109) 
nan

>  <ATP_Site>  (109) 
nan

>  <Peripheral>  (109) 
nan

>  <Num_H_Atoms_ProtBoundConf>  (109) 
nan

>  <Num_Resolved_Atoms>  (109) 
nan

>  <Num_Not_Resolved_Atoms>  (109) 
nan

$$$$
CHEMBL3218014
     RDKit          3D

  0  0  0  0  0  0  0  0  0  0999 V3000
M  V30 BEGIN CTAB
M  V30 COUNTS 42 44 0 0 0
M  V30 BEGIN ATOM
M  V30 1 N 5.461749 -5.845039 -1.064767 0
M  V30 2 C 4.228505 -5.238962 -1.353472 0
M  V30 3 O 4.089351 -4.838537 -0.142573 0
M  V30 4 N 3.311017 -5.011405 -2.405668 0
M  V30 5 C 2.124241 -4.300005 -2.204315 0
M  V30 6 C 0.940617 -4.879931 -1.822959 0
M  V30 7 C -0.251900 -4.208369 -1.615387 0
M  V30 8 C -0.216304 -2.831495 -1.818170 0
M  V30 9 C 0.927193 -2.164535 -2.201670 0
M  V30 10 C 0.978358 -0.685939 -2.416491 0
M  V30 11 N 1.379770 -0.001970 -1.204324 0
M  V30 12 C 0.564375 0.237041 -0.072918 0
M  V30 13 O -0.629256 -0.148563 -0.046878 0
M  V30 14 N 1.076807 0.912162 1.046716 0
M  V30 15 C 0.274557 1.173332 2.233378 0
M  V30 16 N -0.517584 2.235875 2.549845 0
M  V30 17 C -1.093837 2.125637 3.724797 0
M  V30 18 C -1.965243 3.239686 4.132478 0
M  V30 19 C -2.633872 3.262265 5.335002 0
M  V30 20 C -3.467464 4.254501 5.802640 0
M  V30 21 N -3.650824 5.329267 4.988476 0
M  V30 22 C -3.042818 5.382745 3.815708 0
M  V30 23 C -2.217113 4.369196 3.385571 0
M  V30 24 C -0.955602 1.012305 4.662145 0
M  V30 25 S 0.186487 -0.021063 3.671700 0
M  V30 26 C 2.064879 -2.924553 -2.382880 0
M  V30 27 H 5.599707 -6.848628 -0.741005 0
M  V30 28 H 6.431906 -5.424402 -1.116451 0
M  V30 29 H 3.786023 -5.494257 -3.228014 0
M  V30 30 H 0.958226 -5.968934 -1.674355 0
M  V30 31 H -1.143070 -4.739751 -1.315109 0
M  V30 32 H -1.131400 -2.292192 -1.665814 0
M  V30 33 H -0.025047 -0.321147 -2.751784 0
M  V30 34 H 1.744833 -0.512325 -3.198844 0
M  V30 35 H 2.374946 0.362458 -1.135831 0
M  V30 36 H 2.065704 1.248155 1.059720 0
M  V30 37 H -2.533464 2.431278 6.040583 0
M  V30 38 H -3.955953 4.199034 6.755990 0
M  V30 39 H -3.153639 6.213500 3.129274 0
M  V30 40 H -1.719729 4.432487 2.405095 0
M  V30 41 H -1.361522 0.869108 5.558787 0
M  V30 42 H 2.961280 -2.380575 -2.686512 0
M  V30 END ATOM
M  V30 BEGIN BOND
M  V30 1 1 1 2
M  V30 2 2 2 3
M  V30 3 1 2 4
M  V30 4 1 4 5
M  V30 5 2 5 6
M  V30 6 1 6 7
M  V30 7 2 7 8
M  V30 8 1 8 9
M  V30 9 1 9 10
M  V30 10 1 10 11
M  V30 11 1 11 12
M  V30 12 2 12 13
M  V30 13 1 12 14
M  V30 14 1 14 15
M  V30 15 2 15 16
M  V30 16 1 16 17
M  V30 17 1 17 18
M  V30 18 2 18 19
M  V30 19 1 19 20
M  V30 20 2 20 21
M  V30 21 1 21 22
M  V30 22 2 22 23
M  V30 23 2 17 24
M  V30 24 1 24 25
M  V30 25 2 9 26
M  V30 26 1 26 5
M  V30 27 1 25 15
M  V30 28 1 23 18
M  V30 29 1 1 27
M  V30 30 1 1 28
M  V30 31 1 4 29
M  V30 32 1 6 30
M  V30 33 1 7 31
M  V30 34 1 8 32
M  V30 35 1 10 33
M  V30 36 1 10 34
M  V30 37 1 11 35
M  V30 38 1 14 36
M  V30 39 1 19 37
M  V30 40 1 20 38
M  V30 41 1 22 39
M  V30 42 1 23 40
M  V30 43 1 24 41
M  V30 44 1 26 42
M  V30 END BOND
M  V30 END CTAB
M  END
>  <Dataset>  (110) 
ChEMBL_Kinases

>  <Ligand_Instance>  (110) 
nan

>  <PDB_ID>  (110) 
nan

>  <Standardized_SMILES>  (110) 
NC(=O)Nc1cccc(CNC(=O)Nc2nc(-c3ccncc3)cs2)c1

>  <Name>  (110) 
nan

>  <Pocket>  (110) 
nan

>  <ATP_Site>  (110) 
nan

>  <Peripheral>  (110) 
nan

>  <Num_H_Atoms_ProtBoundConf>  (110) 
nan

>  <Num_Resolved_Atoms>  (110) 
nan

>  <Num_Not_Resolved_Atoms>  (110) 
nan

$$$$
CHEMBL3218005
     RDKit          3D

  0  0  0  0  0  0  0  0  0  0999 V3000
M  V30 BEGIN CTAB
M  V30 COUNTS 36 38 0 0 0
M  V30 BEGIN ATOM
M  V30 1 O 0.427738 -1.824797 1.235455 0
M  V30 2 C -0.521220 -1.702323 2.047248 0
M  V30 3 N -1.018853 -2.732310 2.893536 0
M  V30 4 C -0.449076 -4.048349 2.883681 0
M  V30 5 C 0.663414 -4.206349 1.941238 0
M  V30 6 C 1.959245 -3.955878 2.343814 0
M  V30 7 C 2.998011 -4.115387 1.423365 0
M  V30 8 C 2.751701 -4.518933 0.118674 0
M  V30 9 C 1.446923 -4.777812 -0.309780 0
M  V30 10 C 0.438725 -4.609432 0.630398 0
M  V30 11 N -1.181871 -0.462484 2.168608 0
M  V30 12 C -0.785450 0.719089 1.355463 0
M  V30 13 N -0.194411 1.688821 1.120489 0
M  V30 14 C -0.256256 2.460388 0.072952 0
M  V30 15 C -0.394798 3.255007 -1.126675 0
M  V30 16 C -1.291074 2.862026 -2.090351 0
M  V30 17 C -1.510828 3.527556 -3.262373 0
M  V30 18 N -0.785914 4.618827 -3.432883 0
M  V30 19 C 0.096022 5.046236 -2.534622 0
M  V30 20 C 0.330258 4.393320 -1.354714 0
M  V30 21 C 0.733048 2.916138 1.113367 0
M  V30 22 S 0.452869 1.520174 2.374627 0
M  V30 23 H -1.812283 -2.588306 3.556306 0
M  V30 24 H -0.171474 -4.304995 3.929019 0
M  V30 25 H -1.257237 -4.745303 2.578509 0
M  V30 26 H 2.164120 -3.642746 3.351300 0
M  V30 27 H 4.031606 -3.926330 1.707620 0
M  V30 28 H 3.562890 -4.633233 -0.564437 0
M  V30 29 H 1.216314 -5.092521 -1.313420 0
M  V30 30 H -0.572550 -4.796958 0.343615 0
M  V30 31 H -1.974820 -0.270297 2.812407 0
M  V30 32 H -1.871968 1.946935 -1.903967 0
M  V30 33 H -2.218192 3.197145 -3.997903 0
M  V30 34 H 0.653968 5.950463 -2.744957 0
M  V30 35 H 1.054417 4.778328 -0.659033 0
M  V30 36 H 1.500670 3.947419 1.088406 0
M  V30 END ATOM
M  V30 BEGIN BOND
M  V30 1 2 1 2
M  V30 2 1 2 3
M  V30 3 1 3 4
M  V30 4 1 4 5
M  V30 5 2 5 6
M  V30 6 1 6 7
M  V30 7 2 7 8
M  V30 8 1 8 9
M  V30 9 2 9 10
M  V30 10 1 2 11
M  V30 11 1 11 12
M  V30 12 2 12 13
M  V30 13 1 13 14
M  V30 14 1 14 15
M  V30 15 2 15 16
M  V30 16 1 16 17
M  V30 17 2 17 18
M  V30 18 1 18 19
M  V30 19 2 19 20
M  V30 20 2 14 21
M  V30 21 1 21 22
M  V30 22 1 10 5
M  V30 23 1 22 12
M  V30 24 1 20 15
M  V30 25 1 3 23
M  V30 26 1 4 24
M  V30 27 1 4 25
M  V30 28 1 6 26
M  V30 29 1 7 27
M  V30 30 1 8 28
M  V30 31 1 9 29
M  V30 32 1 10 30
M  V30 33 1 11 31
M  V30 34 1 16 32
M  V30 35 1 17 33
M  V30 36 1 19 34
M  V30 37 1 20 35
M  V30 38 1 21 36
M  V30 END BOND
M  V30 END CTAB
M  END
>  <Dataset>  (111) 
ChEMBL_Kinases

>  <Ligand_Instance>  (111) 
nan

>  <PDB_ID>  (111) 
nan

>  <Standardized_SMILES>  (111) 
O=C(NCc1ccccc1)Nc1nc(-c2ccncc2)cs1

>  <Name>  (111) 
nan

>  <Pocket>  (111) 
nan

>  <ATP_Site>  (111) 
nan

>  <Peripheral>  (111) 
nan

>  <Num_H_Atoms_ProtBoundConf>  (111) 
nan

>  <Num_Resolved_Atoms>  (111) 
nan

>  <Num_Not_Resolved_Atoms>  (111) 
nan

$$$$
CHEMBL3680396
     RDKit          3D

  0  0  0  0  0  0  0  0  0  0999 V3000
M  V30 BEGIN CTAB
M  V30 COUNTS 58 61 0 0 0
M  V30 BEGIN ATOM
M  V30 1 N 0.547215 -0.890562 6.087785 0
M  V30 2 C 1.792233 -1.462745 5.699395 0
M  V30 3 O 2.419502 -2.188031 6.524439 0
M  V30 4 C 2.351458 -1.223885 4.366743 0
M  V30 5 C 3.542357 -1.783510 4.024200 0
M  V30 6 C 4.031928 -1.524010 2.739939 0
M  V30 7 C 3.296726 -0.724338 1.890554 0
M  V30 8 C 2.096192 -0.150015 2.212013 0
M  V30 9 C 1.412577 0.640508 1.313649 0
M  V30 10 N 1.883469 0.887054 -0.003288 0
M  V30 11 C 1.208480 1.722467 -0.968450 0
M  V30 12 C 1.451655 3.147659 -0.701742 0
M  V30 13 C 1.083680 3.752558 0.585321 0
M  V30 14 O 1.385409 5.151115 0.602873 0
M  V30 15 C -0.209692 1.313828 -1.139402 0
M  V30 16 C -1.302795 2.054046 -1.180796 0
M  V30 17 C -2.748981 1.798367 -1.340156 0
M  V30 18 C -3.002629 0.343411 -1.544971 0
M  V30 19 C -1.788803 -0.504886 -1.501910 0
M  V30 20 N -2.131968 -1.870622 -1.684036 0
M  V30 21 C -1.339625 -3.035440 -1.721016 0
M  V30 22 O -0.105842 -2.905644 -1.572642 0
M  V30 23 C -1.809270 -4.396766 -1.916510 0
M  V30 24 C -3.122637 -4.758503 -2.098339 0
M  V30 25 C -3.570883 -6.047489 -2.283805 0
M  V30 26 C -2.655641 -7.078165 -2.292917 0
M  V30 27 C -1.326862 -6.760153 -2.114033 0
M  V30 28 C -0.930544 -5.453797 -1.932401 0
M  V30 29 C -0.547319 -0.117809 -1.326211 0
M  V30 30 N 0.263591 1.102693 1.827141 0
M  V30 31 C -0.221906 0.874529 3.032834 0
M  V30 32 N 0.473176 0.093391 3.893220 0
M  V30 33 C 1.659626 -0.436265 3.485419 0
M  V30 34 H -0.465838 -1.160324 6.186605 0
M  V30 35 H 0.943280 0.062718 6.299584 0
M  V30 36 H 4.051802 -2.394821 4.746331 0
M  V30 37 H 4.976902 -1.981302 2.499059 0
M  V30 38 H 3.770219 -0.600971 0.948234 0
M  V30 39 H 2.771163 0.452367 -0.323061 0
M  V30 40 H 1.657050 1.466745 -1.999189 0
M  V30 41 H 2.535416 3.430130 -0.897806 0
M  V30 42 H 0.922896 3.746814 -1.515529 0
M  V30 43 H 1.673565 3.382444 1.455471 0
M  V30 44 H 0.022228 3.691647 0.855609 0
M  V30 45 H 1.415768 5.469360 1.539202 0
M  V30 46 H -1.152260 3.126863 -1.088011 0
M  V30 47 H -3.132734 2.346106 -2.238789 0
M  V30 48 H -3.323914 2.118681 -0.432307 0
M  V30 49 H -3.490683 0.152994 -2.548959 0
M  V30 50 H -3.681776 -0.060678 -0.751271 0
M  V30 51 H -3.136473 -2.191390 -1.827574 0
M  V30 52 H -3.896819 -4.023226 -2.105095 0
M  V30 53 H -4.613249 -6.294502 -2.423870 0
M  V30 54 H -2.881303 -8.126323 -2.428561 0
M  V30 55 H -0.574616 -7.540106 -2.114411 0
M  V30 56 H 0.136418 -5.269359 -1.796274 0
M  V30 57 H 0.301887 -0.780513 -1.303130 0
M  V30 58 H -1.168200 1.369804 3.188105 0
M  V30 END ATOM
M  V30 BEGIN BOND
M  V30 1 1 1 2
M  V30 2 2 2 3
M  V30 3 1 2 4
M  V30 4 2 4 5
M  V30 5 1 5 6
M  V30 6 2 6 7
M  V30 7 1 7 8
M  V30 8 2 8 9
M  V30 9 1 9 10
M  V30 10 1 10 11
M  V30 11 1 11 12
M  V30 12 1 12 13
M  V30 13 1 13 14
M  V30 14 1 11 15
M  V30 15 2 15 16
M  V30 16 1 16 17
M  V30 17 1 17 18
M  V30 18 1 18 19
M  V30 19 1 19 20
M  V30 20 1 20 21
M  V30 21 2 21 22
M  V30 22 1 21 23
M  V30 23 2 23 24
M  V30 24 1 24 25
M  V30 25 2 25 26
M  V30 26 1 26 27
M  V30 27 2 27 28
M  V30 28 2 19 29
M  V30 29 1 9 30
M  V30 30 2 30 31
M  V30 31 1 31 32
M  V30 32 2 32 33
M  V30 33 1 33 4
M  V30 34 1 33 8
M  V30 35 1 29 15
M  V30 36 1 28 23
M  V30 37 1 1 34
M  V30 38 1 1 35
M  V30 39 1 5 36
M  V30 40 1 6 37
M  V30 41 1 7 38
M  V30 42 1 10 39
M  V30 43 1 11 40
M  V30 44 1 12 41
M  V30 45 1 12 42
M  V30 46 1 13 43
M  V30 47 1 13 44
M  V30 48 1 14 45
M  V30 49 1 16 46
M  V30 50 1 17 47
M  V30 51 1 17 48
M  V30 52 1 18 49
M  V30 53 1 18 50
M  V30 54 1 20 51
M  V30 55 1 24 52
M  V30 56 1 25 53
M  V30 57 1 26 54
M  V30 58 1 27 55
M  V30 59 1 28 56
M  V30 60 1 29 57
M  V30 61 1 31 58
M  V30 END BOND
M  V30 END CTAB
M  END
>  <Dataset>  (112) 
ChEMBL_Kinases

>  <Ligand_Instance>  (112) 
nan

>  <PDB_ID>  (112) 
nan

>  <Standardized_SMILES>  (112) 
NC(=O)c1cccc2c(NC(CCO)C3=CCCC(NC(=O)c4ccccc4)=C3)ncnc12

>  <Name>  (112) 
nan

>  <Pocket>  (112) 
nan

>  <ATP_Site>  (112) 
nan

>  <Peripheral>  (112) 
nan

>  <Num_H_Atoms_ProtBoundConf>  (112) 
nan

>  <Num_Resolved_Atoms>  (112) 
nan

>  <Num_Not_Resolved_Atoms>  (112) 
nan

$$$$
CHEMBL4228067
     RDKit          3D

  0  0  0  0  0  0  0  0  0  0999 V3000
M  V30 BEGIN CTAB
M  V30 COUNTS 62 66 0 0 0
M  V30 BEGIN ATOM
M  V30 1 C 6.198757 -1.046481 7.031861 0
M  V30 2 N 4.875195 -0.676254 6.591055 0
M  V30 3 C 4.159402 -1.096771 5.507023 0
M  V30 4 C 2.980366 -0.410404 5.601420 0
M  V30 5 N 1.886034 -0.494637 4.706268 0
M  V30 6 C 1.816683 -1.306340 3.550118 0
M  V30 7 N 2.211002 -0.907903 2.330053 0
M  V30 8 N 2.140823 -1.676945 1.254142 0
M  V30 9 C 2.573236 -1.227828 -0.063156 0
M  V30 10 C 1.406252 -0.599376 -0.741393 0
M  V30 11 C 1.248832 0.773550 -0.533842 0
M  V30 12 C 0.204113 1.489505 -1.105334 0
M  V30 13 C -0.716017 0.858180 -1.901622 0
M  V30 14 C -1.785065 1.635365 -2.475961 0
M  V30 15 O -1.825996 2.850435 -2.222113 0
M  V30 16 N -2.797499 1.097956 -3.316202 0
M  V30 17 C -3.896651 1.755154 -3.939557 0
M  V30 18 C -5.241389 1.300333 -3.354353 0
M  V30 19 C -5.475941 -0.162869 -3.634910 0
M  V30 20 C -5.119390 -0.486839 -5.056221 0
M  V30 21 C -4.987993 0.715068 -5.940646 0
M  V30 22 C -3.943775 1.704594 -5.442214 0
M  V30 23 C -0.559688 -0.499567 -2.106458 0
M  V30 24 C 0.473131 -1.222464 -1.544985 0
M  V30 25 C 1.645285 -2.920974 1.410883 0
M  V30 26 O 1.532850 -3.732627 0.465933 0
M  V30 27 C 1.223673 -3.395919 2.625065 0
M  V30 28 C 0.714256 -4.668022 2.798842 0
M  V30 29 C 0.292871 -5.136599 4.023431 0
M  V30 30 C 0.369173 -4.322601 5.152058 0
M  V30 31 C 0.879053 -3.054274 4.969211 0
M  V30 32 C 1.304814 -2.571528 3.748936 0
M  V30 33 C 2.974264 0.405009 6.708650 0
M  V30 34 N 4.173192 0.202985 7.288750 0
M  V30 35 H 6.166519 -1.427666 8.092299 0
M  V30 36 H 6.633956 -1.831857 6.412250 0
M  V30 37 H 6.813982 -0.125952 7.067097 0
M  V30 38 H 4.502157 -1.801589 4.790781 0
M  V30 39 H 1.008331 0.036920 4.805176 0
M  V30 40 H 2.861433 -2.121602 -0.680883 0
M  V30 41 H 3.430729 -0.553094 -0.027530 0
M  V30 42 H 1.948959 1.317553 0.086872 0
M  V30 43 H 0.142246 2.549460 -0.902959 0
M  V30 44 H -2.786605 0.077233 -3.546190 0
M  V30 45 H -3.847086 2.831380 -3.655056 0
M  V30 46 H -5.251508 1.541207 -2.289879 0
M  V30 47 H -6.016592 1.887181 -3.894730 0
M  V30 48 H -4.885837 -0.744868 -2.895914 0
M  V30 49 H -6.543894 -0.366287 -3.413384 0
M  V30 50 H -5.951653 -1.087597 -5.477207 0
M  V30 51 H -4.212983 -1.131322 -5.084491 0
M  V30 52 H -5.972537 1.217381 -5.988019 0
M  V30 53 H -4.632429 0.361789 -6.928293 0
M  V30 54 H -2.952210 1.515401 -5.906472 0
M  V30 55 H -4.256495 2.675164 -5.889302 0
M  V30 56 H -1.274281 -1.022895 -2.732480 0
M  V30 57 H 0.622125 -2.277343 -1.684672 0
M  V30 58 H 0.640554 -5.329614 1.939631 0
M  V30 59 H -0.100803 -6.147392 4.105722 0
M  V30 60 H 0.037341 -4.701966 6.097180 0
M  V30 61 H 0.946507 -2.404536 5.837915 0
M  V30 62 H 2.195040 1.071759 7.061515 0
M  V30 END ATOM
M  V30 BEGIN BOND
M  V30 1 1 1 2
M  V30 2 1 2 3
M  V30 3 2 3 4
M  V30 4 1 4 5
M  V30 5 1 5 6
M  V30 6 2 6 7
M  V30 7 1 7 8
M  V30 8 1 8 9
M  V30 9 1 9 10
M  V30 10 2 10 11
M  V30 11 1 11 12
M  V30 12 2 12 13
M  V30 13 1 13 14
M  V30 14 2 14 15
M  V30 15 1 14 16
M  V30 16 1 16 17
M  V30 17 1 17 18
M  V30 18 1 18 19
M  V30 19 1 19 20
M  V30 20 1 20 21
M  V30 21 1 21 22
M  V30 22 1 13 23
M  V30 23 2 23 24
M  V30 24 1 8 25
M  V30 25 2 25 26
M  V30 26 1 25 27
M  V30 27 2 27 28
M  V30 28 1 28 29
M  V30 29 2 29 30
M  V30 30 1 30 31
M  V30 31 2 31 32
M  V30 32 1 4 33
M  V30 33 2 33 34
M  V30 34 1 34 2
M  V30 35 1 32 6
M  V30 36 1 24 10
M  V30 37 1 32 27
M  V30 38 1 22 17
M  V30 39 1 1 35
M  V30 40 1 1 36
M  V30 41 1 1 37
M  V30 42 1 3 38
M  V30 43 1 5 39
M  V30 44 1 9 40
M  V30 45 1 9 41
M  V30 46 1 11 42
M  V30 47 1 12 43
M  V30 48 1 16 44
M  V30 49 1 17 45
M  V30 50 1 18 46
M  V30 51 1 18 47
M  V30 52 1 19 48
M  V30 53 1 19 49
M  V30 54 1 20 50
M  V30 55 1 20 51
M  V30 56 1 21 52
M  V30 57 1 21 53
M  V30 58 1 22 54
M  V30 59 1 22 55
M  V30 60 1 23 56
M  V30 61 1 24 57
M  V30 62 1 28 58
M  V30 63 1 29 59
M  V30 64 1 30 60
M  V30 65 1 31 61
M  V30 66 1 33 62
M  V30 END BOND
M  V30 END CTAB
M  END
>  <Dataset>  (113) 
ChEMBL_Kinases

>  <Ligand_Instance>  (113) 
nan

>  <PDB_ID>  (113) 
nan

>  <Standardized_SMILES>  (113) 
Cn1cc(Nc2nn(Cc3ccc(C(=O)NC4CCCCC4)cc3)c(=O)c3ccccc23)cn1

>  <Name>  (113) 
nan

>  <Pocket>  (113) 
nan

>  <ATP_Site>  (113) 
nan

>  <Peripheral>  (113) 
nan

>  <Num_H_Atoms_ProtBoundConf>  (113) 
nan

>  <Num_Resolved_Atoms>  (113) 
nan

>  <Num_Not_Resolved_Atoms>  (113) 
nan

$$$$
CHEMBL4228055
     RDKit          3D

  0  0  0  0  0  0  0  0  0  0999 V3000
M  V30 BEGIN CTAB
M  V30 COUNTS 72 75 0 0 0
M  V30 BEGIN ATOM
M  V30 1 C 1.447878 -4.972601 1.659919 0
M  V30 2 C 0.572139 -5.300644 0.501661 0
M  V30 3 C 1.305510 -5.724945 -0.747693 0
M  V30 4 C 0.243798 -6.008820 -1.779168 0
M  V30 5 C 2.349451 -4.761103 -1.201739 0
M  V30 6 N 1.884711 -3.441008 -1.521947 0
M  V30 7 C 1.444695 -3.058731 -2.848047 0
M  V30 8 C 2.552615 -2.540380 -3.734475 0
M  V30 9 O 2.006822 -2.200875 -4.994496 0
M  V30 10 C 1.826836 -2.413868 -0.554947 0
M  V30 11 O 1.984070 -1.955943 0.599120 0
M  V30 12 C 1.378577 -1.031585 -0.711111 0
M  V30 13 C 1.467600 -0.258265 0.557078 0
M  V30 14 C 0.305049 -0.025700 1.223242 0
M  V30 15 C 0.277633 0.671413 2.390924 0
M  V30 16 C -0.836637 1.083265 3.292428 0
M  V30 17 N -0.667798 0.517452 4.605573 0
M  V30 18 C -1.489020 -0.317627 5.407530 0
M  V30 19 O -1.157831 -0.762969 6.529162 0
M  V30 20 N -2.716862 -0.553685 4.735800 0
M  V30 21 C -3.013722 -0.014764 3.457593 0
M  V30 22 C -4.291838 -0.274822 2.800522 0
M  V30 23 C -2.172145 0.741339 2.781129 0
M  V30 24 C -2.300248 1.416506 1.514742 0
M  V30 25 O -1.417067 2.147483 0.925576 0
M  V30 26 N -3.255892 1.590075 0.484796 0
M  V30 27 C -2.679329 2.426443 -0.524480 0
M  V30 28 C -1.949703 2.051601 -1.633655 0
M  V30 29 C -1.482042 3.032125 -2.487056 0
M  V30 30 C -1.747912 4.358027 -2.221713 0
M  V30 31 N -1.381721 5.451895 -2.927807 0
M  V30 32 N -1.854677 6.538470 -2.307082 0
M  V30 33 C -2.529489 6.149872 -1.195470 0
M  V30 34 C -2.474413 4.764048 -1.121041 0
M  V30 35 C -2.943649 3.776330 -0.264256 0
M  V30 36 C 1.511115 1.134573 2.868985 0
M  V30 37 C 2.682892 0.891733 2.184311 0
M  V30 38 C 2.697745 0.185032 1.002002 0
M  V30 39 F 3.807697 -0.089897 0.278066 0
M  V30 40 H 1.019285 -4.039851 2.130921 0
M  V30 41 H 2.512505 -4.877388 1.444486 0
M  V30 42 H 1.355873 -5.744413 2.465225 0
M  V30 43 H -0.087258 -6.178420 0.767563 0
M  V30 44 H -0.146382 -4.475818 0.251301 0
M  V30 45 H 1.815008 -6.682798 -0.524474 0
M  V30 46 H -0.290562 -6.919425 -1.390404 0
M  V30 47 H 0.658029 -6.334460 -2.749033 0
M  V30 48 H -0.524271 -5.222951 -1.854678 0
M  V30 49 H 2.815968 -5.151310 -2.153152 0
M  V30 50 H 3.185525 -4.787227 -0.473469 0
M  V30 51 H 0.700597 -2.209126 -2.806481 0
M  V30 52 H 0.993781 -3.929947 -3.389678 0
M  V30 53 H 2.968324 -1.629301 -3.313955 0
M  V30 54 H 3.323956 -3.332108 -3.919550 0
M  V30 55 H 1.257202 -1.582646 -4.896849 0
M  V30 56 H 0.362152 -0.934405 -1.179454 0
M  V30 57 H 2.057118 -0.512924 -1.417679 0
M  V30 58 H -0.646341 -0.379899 0.895712 0
M  V30 59 H -0.724754 2.204115 3.415505 0
M  V30 60 H 0.278690 0.827643 4.981149 0
M  V30 61 H -3.437215 -1.152744 5.204024 0
M  V30 62 H -4.238797 -0.856385 1.859637 0
M  V30 63 H -4.847768 -0.988698 3.496076 0
M  V30 64 H -4.941742 0.593239 2.761479 0
M  V30 65 H -4.148783 1.086268 0.679948 0
M  V30 66 H -1.813574 0.981081 -1.724095 0
M  V30 67 H -0.917138 2.691741 -3.339983 0
M  V30 68 H -0.826991 5.549433 -3.815832 0
M  V30 69 H -3.044884 6.739941 -0.450075 0
M  V30 70 H -3.504121 4.163952 0.576740 0
M  V30 71 H 1.674156 1.709661 3.787843 0
M  V30 72 H 3.659844 1.237588 2.527884 0
M  V30 END ATOM
M  V30 BEGIN BOND
M  V30 1 1 1 2
M  V30 2 1 2 3
M  V30 3 1 3 4
M  V30 4 1 3 5
M  V30 5 1 5 6
M  V30 6 1 6 7
M  V30 7 1 7 8
M  V30 8 1 8 9
M  V30 9 1 6 10
M  V30 10 2 10 11
M  V30 11 1 10 12
M  V30 12 1 12 13
M  V30 13 2 13 14
M  V30 14 1 14 15
M  V30 15 1 15 16
M  V30 16 1 16 17
M  V30 17 1 17 18
M  V30 18 2 18 19
M  V30 19 1 18 20
M  V30 20 1 20 21
M  V30 21 1 21 22
M  V30 22 2 21 23
M  V30 23 1 23 24
M  V30 24 2 24 25
M  V30 25 1 24 26
M  V30 26 1 26 27
M  V30 27 2 27 28
M  V30 28 1 28 29
M  V30 29 2 29 30
M  V30 30 1 30 31
M  V30 31 1 31 32
M  V30 32 2 32 33
M  V30 33 1 33 34
M  V30 34 2 34 35
M  V30 35 2 15 36
M  V30 36 1 36 37
M  V30 37 2 37 38
M  V30 38 1 38 39
M  V30 39 1 38 13
M  V30 40 1 23 16
M  V30 41 1 35 27
M  V30 42 1 34 30
M  V30 43 1 1 40
M  V30 44 1 1 41
M  V30 45 1 1 42
M  V30 46 1 2 43
M  V30 47 1 2 44
M  V30 48 1 3 45
M  V30 49 1 4 46
M  V30 50 1 4 47
M  V30 51 1 4 48
M  V30 52 1 5 49
M  V30 53 1 5 50
M  V30 54 1 7 51
M  V30 55 1 7 52
M  V30 56 1 8 53
M  V30 57 1 8 54
M  V30 58 1 9 55
M  V30 59 1 12 56
M  V30 60 1 12 57
M  V30 61 1 14 58
M  V30 62 1 16 59
M  V30 63 1 17 60
M  V30 64 1 20 61
M  V30 65 1 22 62
M  V30 66 1 22 63
M  V30 67 1 22 64
M  V30 68 1 26 65
M  V30 69 1 28 66
M  V30 70 1 29 67
M  V30 71 1 31 68
M  V30 72 1 33 69
M  V30 73 1 35 70
M  V30 74 1 36 71
M  V30 75 1 37 72
M  V30 END BOND
M  V30 END CTAB
M  END
>  <Dataset>  (114) 
ChEMBL_Kinases

>  <Ligand_Instance>  (114) 
nan

>  <PDB_ID>  (114) 
nan

>  <Standardized_SMILES>  (114) 
CCC(C)CN(CCO)C(=O)Cc1cc(C2NC(=O)NC(C)=C2C(=O)Nc2ccc3[nH]ncc3c2)ccc1F

>  <Name>  (114) 
nan

>  <Pocket>  (114) 
nan

>  <ATP_Site>  (114) 
nan

>  <Peripheral>  (114) 
nan

>  <Num_H_Atoms_ProtBoundConf>  (114) 
nan

>  <Num_Resolved_Atoms>  (114) 
nan

>  <Num_Not_Resolved_Atoms>  (114) 
nan

$$$$
CHEMBL4227907
     RDKit          3D

  0  0  0  0  0  0  0  0  0  0999 V3000
M  V30 BEGIN CTAB
M  V30 COUNTS 147 152 0 0 0
M  V30 BEGIN ATOM
M  V30 1 C 0.019418 5.385500 0.327663 0
M  V30 2 C -0.173631 5.384217 1.820652 0
M  V30 3 N -1.172586 6.091338 2.245259 0
M  V30 4 C -1.387400 6.095785 3.593771 0
M  V30 5 S -0.060315 5.013899 4.244453 0
M  V30 6 C 0.657414 4.658002 2.656126 0
M  V30 7 C 1.780400 3.817662 2.486781 0
M  V30 8 C 2.528808 3.516219 1.385247 0
M  V30 9 C 3.598043 2.675860 1.298084 0
M  V30 10 C 4.007289 2.022208 2.464951 0
M  V30 11 C 5.183023 1.157919 2.341379 0
M  V30 12 N 4.907023 -0.159697 1.880668 0
M  V30 13 C 5.653276 -1.328084 2.149442 0
M  V30 14 O 6.621793 -0.967981 2.923003 0
M  V30 15 C 5.677109 -2.765953 1.839940 0 CFG=2
M  V30 16 C 7.111527 -3.280046 1.879258 0
M  V30 17 C 7.390531 -3.730916 0.469812 0 CFG=1
M  V30 18 O 8.274874 -4.817204 0.495618 0
M  V30 19 C 6.072185 -4.120175 -0.106029 0
M  V30 20 N 5.155822 -3.192742 0.579278 0
M  V30 21 C 3.978618 -2.906393 -0.189366 0
M  V30 22 O 2.912677 -2.330498 0.085686 0
M  V30 23 C 3.482855 -3.110452 -1.551527 0 CFG=1
M  V30 24 N 2.004934 -2.959364 -1.498447 0
M  V30 25 C 1.120929 -3.656659 -2.423566 0
M  V30 26 O 1.788811 -4.344965 -3.250981 0
M  V30 27 C -0.321634 -3.411917 -2.190851 0
M  V30 28 O -1.211768 -4.003477 -3.003929 0
M  V30 29 C -1.457719 -3.538930 -4.246608 0
M  V30 30 C -0.302075 -3.394703 -5.154204 0
M  V30 31 C -0.818203 -2.814289 -6.520909 0
M  V30 32 O -1.460663 -1.634489 -6.236275 0
M  V30 33 C -1.948192 -0.885233 -7.278617 0
M  V30 34 C -2.674622 0.298074 -6.630120 0
M  V30 35 C -3.179031 1.222824 -7.676898 0
M  V30 36 C -3.923532 2.403774 -7.115251 0
M  V30 37 O -5.102424 2.053478 -6.429379 0
M  V30 38 C -5.584088 3.258235 -5.936153 0
M  V30 39 C -6.897882 3.237840 -5.263349 0
M  V30 40 C -7.054902 2.352473 -4.084473 0
M  V30 41 O -6.149260 2.620384 -3.059704 0
M  V30 42 C -6.229611 1.865152 -1.885732 0
M  V30 43 C -7.228765 0.907878 -1.796109 0
M  V30 44 C -7.363747 0.125123 -0.668896 0
M  V30 45 C -6.509221 0.260704 0.414750 0
M  V30 46 N -6.611431 -0.506944 1.625459 0
M  V30 47 C -5.324487 -1.089966 1.787347 0
M  V30 48 N -5.546245 -2.317410 1.223058 0
M  V30 49 C -4.555425 -3.250800 1.139518 0
M  V30 50 C -3.289992 -2.950256 1.636413 0
M  V30 51 Br -1.779555 -4.122310 1.645017 0
M  V30 52 C -3.091499 -1.680792 2.207780 0
M  V30 53 N -1.823240 -1.273850 2.692331 0
M  V30 54 C -1.438301 -0.021050 3.315454 0
M  V30 55 C 0.041618 0.104798 3.522398 0
M  V30 56 C 0.652313 -0.965206 4.369404 0
M  V30 57 N 0.161546 -1.064800 5.697932 0
M  V30 58 C -0.977862 -1.908864 6.076292 0
M  V30 59 C 0.735501 -0.365173 6.767342 0
M  V30 60 O 1.564321 0.179022 6.008373 0
M  V30 61 C 1.275327 0.328571 7.950043 0
M  V30 62 C 2.392715 1.313269 7.712213 0
M  V30 63 C 3.418476 0.238820 7.985569 0
M  V30 64 C 2.301858 -0.532761 8.683786 0
M  V30 65 N -4.106534 -0.761261 2.280638 0
M  V30 66 C -5.523045 1.244151 0.259213 0
M  V30 67 C -5.348242 2.052375 -0.844970 0
M  V30 68 C 3.941813 -1.910711 -2.388745 0
M  V30 69 C 3.525477 -1.998171 -3.824081 0
M  V30 70 C 3.266012 -0.663771 -1.819350 0
M  V30 71 C 5.423260 -1.678745 -2.330074 0
M  V30 72 C 3.317753 2.260967 3.611336 0
M  V30 73 C 2.256237 3.121573 3.606704 0
M  V30 74 H 0.033717 4.356219 -0.072899 0
M  V30 75 H 0.964844 5.908464 0.100280 0
M  V30 76 H -0.761363 5.961438 -0.212960 0
M  V30 77 H -2.257683 6.705429 4.005502 0
M  V30 78 H 2.243204 4.004843 0.478927 0
M  V30 79 H 4.122127 2.505946 0.375068 0
M  V30 80 H 5.796066 1.171130 3.296367 0
M  V30 81 H 5.889478 1.620203 1.597279 0
M  V30 82 H 4.077865 -0.387888 1.317688 0
M  V30 83 H 5.128296 -3.321542 2.671338 0
M  V30 84 H 7.220053 -4.077158 2.633488 0
M  V30 85 H 7.787431 -2.407792 2.129113 0
M  V30 86 H 7.791527 -2.907723 -0.159674 0
M  V30 87 H 8.709488 -4.820399 1.389411 0
M  V30 88 H 5.789465 -5.128560 0.327196 0
M  V30 89 H 6.002474 -4.141100 -1.180302 0
M  V30 90 H 3.745286 -4.043171 -2.051699 0
M  V30 91 H 1.442253 -2.358786 -0.822443 0
M  V30 92 H -0.483586 -2.283078 -2.268977 0
M  V30 93 H -0.561540 -3.613225 -1.106434 0
M  V30 94 H -2.194830 -4.213398 -4.775740 0
M  V30 95 H -1.957126 -2.514176 -4.222247 0
M  V30 96 H 0.440561 -2.657632 -4.843698 0
M  V30 97 H 0.118119 -4.379733 -5.408989 0
M  V30 98 H -1.479488 -3.530968 -7.015728 0
M  V30 99 H 0.088993 -2.648687 -7.116489 0
M  V30 100 H -1.127920 -0.531615 -7.949088 0
M  V30 101 H -2.666860 -1.448583 -7.878150 0
M  V30 102 H -2.073177 0.814941 -5.875444 0
M  V30 103 H -3.577845 -0.138341 -6.120118 0
M  V30 104 H -2.316241 1.622867 -8.281370 0
M  V30 105 H -3.845378 0.740905 -8.413449 0
M  V30 106 H -4.127541 3.173218 -7.875515 0
M  V30 107 H -3.281190 2.882080 -6.317708 0
M  V30 108 H -5.661751 3.951864 -6.813127 0
M  V30 109 H -4.802695 3.744162 -5.291616 0
M  V30 110 H -7.666117 3.021591 -6.064849 0
M  V30 111 H -7.140623 4.313999 -4.995456 0
M  V30 112 H -7.026234 1.284310 -4.419447 0
M  V30 113 H -8.079521 2.542606 -3.653296 0
M  V30 114 H -7.960749 0.693335 -2.557782 0
M  V30 115 H -8.136577 -0.651920 -0.544220 0
M  V30 116 H -7.447370 -0.618019 2.263986 0
M  V30 117 H -4.522547 -4.256048 0.739179 0
M  V30 118 H -1.064992 -1.947557 2.590964 0
M  V30 119 H -1.988771 0.130603 4.259948 0
M  V30 120 H -1.703494 0.761037 2.538845 0
M  V30 121 H 0.538862 0.201463 2.535140 0
M  V30 122 H 0.190350 1.073872 4.078336 0
M  V30 123 H 0.530021 -1.949687 3.849943 0
M  V30 124 H 1.751824 -0.780870 4.388138 0
M  V30 125 H -1.812795 -1.244240 6.351869 0
M  V30 126 H -0.763328 -2.522406 6.966539 0
M  V30 127 H -1.307563 -2.515089 5.200868 0
M  V30 128 H 0.492009 0.703692 8.655577 0
M  V30 129 H 2.429164 2.132880 8.482489 0
M  V30 130 H 2.387144 1.722902 6.701541 0
M  V30 131 H 3.747747 -0.257831 7.053951 0
M  V30 132 H 4.251454 0.560553 8.655468 0
M  V30 133 H 2.279375 -1.587023 8.336455 0
M  V30 134 H 2.309567 -0.397309 9.767382 0
M  V30 135 H -4.855586 1.347331 1.115603 0
M  V30 136 H -4.561707 2.792806 -0.881903 0
M  V30 137 H 3.898703 -2.961810 -4.274834 0
M  V30 138 H 4.072288 -1.175446 -4.360232 0
M  V30 139 H 2.471920 -1.829638 -4.018116 0
M  V30 140 H 3.812071 -0.445574 -0.894079 0
M  V30 141 H 2.193856 -0.759554 -1.763785 0
M  V30 142 H 3.455168 0.206844 -2.521037 0
M  V30 143 H 5.955464 -2.411071 -2.952023 0
M  V30 144 H 5.791047 -1.592138 -1.291444 0
M  V30 145 H 5.682534 -0.666839 -2.781299 0
M  V30 146 H 3.666839 1.737600 4.479064 0
M  V30 147 H 1.799990 3.215726 4.603837 0
M  V30 END ATOM
M  V30 BEGIN BOND
M  V30 1 1 1 2
M  V30 2 1 2 3
M  V30 3 2 3 4
M  V30 4 1 4 5
M  V30 5 1 5 6
M  V30 6 1 6 7
M  V30 7 2 7 8
M  V30 8 1 8 9
M  V30 9 2 9 10
M  V30 10 1 10 11
M  V30 11 1 11 12
M  V30 12 1 12 13
M  V30 13 2 13 14
M  V30 14 1 13 15
M  V30 15 1 15 16
M  V30 16 1 16 17
M  V30 17 1 17 18
M  V30 18 1 17 19
M  V30 19 1 19 20
M  V30 20 1 20 21
M  V30 21 2 21 22
M  V30 22 1 21 23
M  V30 23 1 23 24
M  V30 24 1 24 25
M  V30 25 2 25 26
M  V30 26 1 25 27
M  V30 27 1 27 28
M  V30 28 1 28 29
M  V30 29 1 29 30
M  V30 30 1 30 31
M  V30 31 1 31 32
M  V30 32 1 32 33
M  V30 33 1 33 34
M  V30 34 1 34 35
M  V30 35 1 35 36
M  V30 36 1 36 37
M  V30 37 1 37 38
M  V30 38 1 38 39
M  V30 39 1 39 40
M  V30 40 1 40 41
M  V30 41 1 41 42
M  V30 42 2 42 43
M  V30 43 1 43 44
M  V30 44 2 44 45
M  V30 45 1 45 46
M  V30 46 1 46 47
M  V30 47 2 47 48
M  V30 48 1 48 49
M  V30 49 2 49 50
M  V30 50 1 50 51
M  V30 51 1 50 52
M  V30 52 1 52 53
M  V30 53 1 53 54
M  V30 54 1 54 55
M  V30 55 1 55 56
M  V30 56 1 56 57
M  V30 57 1 57 58
M  V30 58 1 57 59
M  V30 59 2 59 60
M  V30 60 1 59 61
M  V30 61 1 61 62
M  V30 62 1 62 63
M  V30 63 1 63 64
M  V30 64 2 52 65
M  V30 65 1 45 66
M  V30 66 2 66 67
M  V30 67 1 23 68
M  V30 68 1 68 69
M  V30 69 1 68 70
M  V30 70 1 68 71
M  V30 71 1 10 72
M  V30 72 2 72 73
M  V30 73 2 6 2
M  V30 74 1 73 7
M  V30 75 1 20 15
M  V30 76 1 67 42
M  V30 77 1 65 47
M  V30 78 1 64 61
M  V30 79 1 1 74
M  V30 80 1 1 75
M  V30 81 1 1 76
M  V30 82 1 4 77
M  V30 83 1 8 78
M  V30 84 1 9 79
M  V30 85 1 11 80
M  V30 86 1 11 81
M  V30 87 1 12 82
M  V30 88 1 15 83 CFG=1
M  V30 89 1 16 84
M  V30 90 1 16 85
M  V30 91 1 17 86 CFG=3
M  V30 92 1 18 87
M  V30 93 1 19 88
M  V30 94 1 19 89
M  V30 95 1 23 90 CFG=3
M  V30 96 1 24 91
M  V30 97 1 27 92
M  V30 98 1 27 93
M  V30 99 1 29 94
M  V30 100 1 29 95
M  V30 101 1 30 96
M  V30 102 1 30 97
M  V30 103 1 31 98
M  V30 104 1 31 99
M  V30 105 1 33 100
M  V30 106 1 33 101
M  V30 107 1 34 102
M  V30 108 1 34 103
M  V30 109 1 35 104
M  V30 110 1 35 105
M  V30 111 1 36 106
M  V30 112 1 36 107
M  V30 113 1 38 108
M  V30 114 1 38 109
M  V30 115 1 39 110
M  V30 116 1 39 111
M  V30 117 1 40 112
M  V30 118 1 40 113
M  V30 119 1 43 114
M  V30 120 1 44 115
M  V30 121 1 46 116
M  V30 122 1 49 117
M  V30 123 1 53 118
M  V30 124 1 54 119
M  V30 125 1 54 120
M  V30 126 1 55 121
M  V30 127 1 55 122
M  V30 128 1 56 123
M  V30 129 1 56 124
M  V30 130 1 58 125
M  V30 131 1 58 126
M  V30 132 1 58 127
M  V30 133 1 61 128
M  V30 134 1 62 129
M  V30 135 1 62 130
M  V30 136 1 63 131
M  V30 137 1 63 132
M  V30 138 1 64 133
M  V30 139 1 64 134
M  V30 140 1 66 135
M  V30 141 1 67 136
M  V30 142 1 69 137
M  V30 143 1 69 138
M  V30 144 1 69 139
M  V30 145 1 70 140
M  V30 146 1 70 141
M  V30 147 1 70 142
M  V30 148 1 71 143
M  V30 149 1 71 144
M  V30 150 1 71 145
M  V30 151 1 72 146
M  V30 152 1 73 147
M  V30 END BOND
M  V30 END CTAB
M  END
>  <Dataset>  (115) 
ChEMBL_Kinases

>  <Ligand_Instance>  (115) 
nan

>  <PDB_ID>  (115) 
nan

>  <Standardized_SMILES>  (115) 
Cc1ncsc1-c1ccc(CNC(=O)[C@@H]2C[C@@H](O)CN2C(=O)[C@@H](NC(=O)COCCCOCCCCOCCCOc2ccc(Nc3ncc(Br)c(NCCCN(C)C(=O)C4CCC4)n3)cc2)C(C)(C)C)cc1

>  <Name>  (115) 
nan

>  <Pocket>  (115) 
nan

>  <ATP_Site>  (115) 
nan

>  <Peripheral>  (115) 
nan

>  <Num_H_Atoms_ProtBoundConf>  (115) 
nan

>  <Num_Resolved_Atoms>  (115) 
nan

>  <Num_Not_Resolved_Atoms>  (115) 
nan

$$$$
CHEMBL4227886
     RDKit          3D

  0  0  0  0  0  0  0  0  0  0999 V3000
M  V30 BEGIN CTAB
M  V30 COUNTS 47 50 0 0 0
M  V30 BEGIN ATOM
M  V30 1 C 0.730574 -1.304772 4.429580 0
M  V30 2 C 1.073875 -2.569977 3.690365 0
M  V30 3 C 0.182476 -2.696601 2.473368 0
M  V30 4 N 2.476371 -2.488063 3.307036 0
M  V30 5 C 3.038973 -1.504687 2.462257 0
M  V30 6 C 4.403796 -1.500930 2.152696 0
M  V30 7 C 4.953024 -0.550431 1.332218 0
M  V30 8 C 4.187985 0.449416 0.771002 0
M  V30 9 C 4.470411 1.507824 -0.068566 0
M  V30 10 N 3.308908 2.147433 -0.276498 0
M  V30 11 N 2.320256 1.540116 0.391034 0
M  V30 12 C 0.947935 1.922616 0.419002 0
M  V30 13 C 0.611290 3.130058 0.997520 0
M  V30 14 N -0.708106 3.477902 1.014214 0
M  V30 15 C -1.601083 2.618478 0.463485 0
M  V30 16 C -1.268527 1.411550 -0.115273 0
M  V30 17 C -2.276244 0.532796 -0.690055 0
M  V30 18 C -3.635921 0.758752 -0.740514 0
M  V30 19 C -4.500877 -0.151137 -1.313846 0
M  V30 20 C -4.018450 -1.323814 -1.857132 0
M  V30 21 C -4.982744 -2.244236 -2.447994 0
M  V30 22 O -6.199596 -1.924392 -2.432577 0
M  V30 23 O -4.608152 -3.451346 -3.022323 0
M  V30 24 C -2.668163 -1.606570 -1.837005 0
M  V30 25 C -1.850304 -0.662390 -1.251833 0
M  V30 26 Cl -0.130066 -1.052325 -1.241425 0
M  V30 27 N 0.042330 1.091489 -0.118744 0
M  V30 28 C 2.837603 0.485860 1.047800 0
M  V30 29 C 2.322043 -0.484691 1.875375 0
M  V30 30 H 0.410224 -1.515005 5.472504 0
M  V30 31 H -0.131775 -0.827921 3.941553 0
M  V30 32 H 1.564946 -0.560317 4.414218 0
M  V30 33 H 0.904477 -3.425865 4.385787 0
M  V30 34 H 0.771452 -2.682033 1.510657 0
M  V30 35 H -0.399608 -3.650491 2.547867 0
M  V30 36 H -0.576557 -1.892678 2.393359 0
M  V30 37 H 3.124855 -3.218646 3.688424 0
M  V30 38 H 5.054363 -2.254814 2.559271 0
M  V30 39 H 6.021867 -0.578075 1.112227 0
M  V30 40 H 5.459737 1.747456 -0.466643 0
M  V30 41 H 1.376436 3.768267 1.419004 0
M  V30 42 H -2.624322 2.961417 0.513979 0
M  V30 43 H -3.981272 1.684854 -0.307095 0
M  V30 44 H -5.568290 0.119970 -1.305325 0
M  V30 45 H -5.242958 -4.262327 -2.961293 0
M  V30 46 H -2.298950 -2.515858 -2.258870 0
M  V30 47 H 1.265844 -0.400137 2.048801 0
M  V30 END ATOM
M  V30 BEGIN BOND
M  V30 1 1 1 2
M  V30 2 1 2 3
M  V30 3 1 2 4
M  V30 4 1 4 5
M  V30 5 2 5 6
M  V30 6 1 6 7
M  V30 7 2 7 8
M  V30 8 1 8 9
M  V30 9 2 9 10
M  V30 10 1 10 11
M  V30 11 1 11 12
M  V30 12 2 12 13
M  V30 13 1 13 14
M  V30 14 2 14 15
M  V30 15 1 15 16
M  V30 16 1 16 17
M  V30 17 2 17 18
M  V30 18 1 18 19
M  V30 19 2 19 20
M  V30 20 1 20 21
M  V30 21 2 21 22
M  V30 22 1 21 23
M  V30 23 1 20 24
M  V30 24 2 24 25
M  V30 25 1 25 26
M  V30 26 2 16 27
M  V30 27 1 11 28
M  V30 28 2 28 29
M  V30 29 1 29 5
M  V30 30 1 28 8
M  V30 31 1 27 12
M  V30 32 1 25 17
M  V30 33 1 1 30
M  V30 34 1 1 31
M  V30 35 1 1 32
M  V30 36 1 2 33
M  V30 37 1 3 34
M  V30 38 1 3 35
M  V30 39 1 3 36
M  V30 40 1 4 37
M  V30 41 1 6 38
M  V30 42 1 7 39
M  V30 43 1 9 40
M  V30 44 1 13 41
M  V30 45 1 15 42
M  V30 46 1 18 43
M  V30 47 1 19 44
M  V30 48 1 23 45
M  V30 49 1 24 46
M  V30 50 1 29 47
M  V30 END BOND
M  V30 END CTAB
M  END
>  <Dataset>  (116) 
ChEMBL_Kinases

>  <Ligand_Instance>  (116) 
nan

>  <PDB_ID>  (116) 
nan

>  <Standardized_SMILES>  (116) 
CC(C)Nc1ccc2cnn(-c3cncc(-c4ccc(C(=O)O)cc4Cl)n3)c2c1

>  <Name>  (116) 
nan

>  <Pocket>  (116) 
nan

>  <ATP_Site>  (116) 
nan

>  <Peripheral>  (116) 
nan

>  <Num_H_Atoms_ProtBoundConf>  (116) 
nan

>  <Num_Resolved_Atoms>  (116) 
nan

>  <Num_Not_Resolved_Atoms>  (116) 
nan

$$$$
CHEMBL3680394
     RDKit          3D

  0  0  0  0  0  0  0  0  0  0999 V3000
M  V30 BEGIN CTAB
M  V30 COUNTS 59 62 0 0 0
M  V30 BEGIN ATOM
M  V30 1 C 2.405538 -1.258516 5.642614 0
M  V30 2 C 1.600010 -1.959230 4.574063 0
M  V30 3 C 0.528763 -1.036104 4.047619 0
M  V30 4 N 1.060403 0.179039 3.460400 0
M  V30 5 C 0.160041 1.128269 2.921813 0
M  V30 6 N -1.152433 0.918511 2.947587 0
M  V30 7 C -2.057658 1.783042 2.450415 0
M  V30 8 N -1.644443 2.938167 1.886596 0
M  V30 9 C -0.326028 3.244652 1.811837 0
M  V30 10 C 0.118519 4.425285 1.236895 0
M  V30 11 C -0.848239 5.385629 0.686485 0
M  V30 12 N -2.237036 5.087379 0.751171 0
M  V30 13 O -0.447731 6.454634 0.166608 0
M  V30 14 C 1.465878 4.711912 1.174104 0
M  V30 15 C 2.361842 3.797926 1.695979 0
M  V30 16 C 1.879753 2.635465 2.259285 0
M  V30 17 C 0.550062 2.314091 2.340897 0
M  V30 18 C -0.387403 -1.729012 3.106003 0
M  V30 19 C -1.587661 -2.218113 3.590818 0
M  V30 20 C -2.426172 -2.857651 2.700480 0
M  V30 21 C -2.071619 -3.000331 1.372470 0
M  V30 22 C -0.862853 -2.504227 0.898711 0
M  V30 23 N -0.623532 -2.717887 -0.485213 0
M  V30 24 C 0.007822 -3.793225 -1.156249 0
M  V30 25 O 0.474365 -4.775848 -0.551614 0
M  V30 26 C 0.129120 -3.773381 -2.609508 0
M  V30 27 C 0.756516 -4.840171 -3.220250 0
M  V30 28 C 0.925288 -4.922667 -4.598727 0
M  V30 29 C 0.460109 -3.916978 -5.420196 0
M  V30 30 O 0.558655 -3.867555 -6.803432 0
M  V30 31 C -0.468320 -4.420274 -7.611064 0
M  V30 32 F -0.572722 -5.761517 -7.315489 0
M  V30 33 F -0.238364 -4.167110 -8.931104 0
M  V30 34 F -1.658861 -3.805816 -7.223071 0
M  V30 35 C -0.167026 -2.850395 -4.810487 0
M  V30 36 C -0.335207 -2.768965 -3.432958 0
M  V30 37 C -0.025447 -1.864521 1.792253 0
M  V30 38 H 1.851478 -0.341436 5.986206 0
M  V30 39 H 2.535483 -1.867976 6.555235 0
M  V30 40 H 3.370088 -0.866598 5.257272 0
M  V30 41 H 2.251869 -2.350814 3.773892 0
M  V30 42 H 1.119134 -2.841236 5.041758 0
M  V30 43 H -0.065670 -0.682153 4.940120 0
M  V30 44 H 2.098079 0.245055 3.489959 0
M  V30 45 H -3.097601 1.518161 2.521272 0
M  V30 46 H -2.547018 4.637833 -0.152062 0
M  V30 47 H -2.999413 5.204723 1.459915 0
M  V30 48 H 1.770836 5.653782 0.712207 0
M  V30 49 H 3.399391 4.075644 1.618514 0
M  V30 50 H 2.622137 1.982523 2.638361 0
M  V30 51 H -1.839540 -2.089431 4.647845 0
M  V30 52 H -3.357934 -3.224555 3.129562 0
M  V30 53 H -2.806831 -3.521850 0.754083 0
M  V30 54 H -1.023976 -1.881311 -0.959349 0
M  V30 55 H 1.161348 -5.683059 -2.696823 0
M  V30 56 H 1.412500 -5.749122 -5.085063 0
M  V30 57 H -0.573207 -1.998963 -5.369253 0
M  V30 58 H -0.822726 -1.936003 -2.982720 0
M  V30 59 H 0.906511 -1.492662 1.382874 0
M  V30 END ATOM
M  V30 BEGIN BOND
M  V30 1 1 1 2
M  V30 2 1 2 3
M  V30 3 1 3 4
M  V30 4 1 4 5
M  V30 5 2 5 6
M  V30 6 1 6 7
M  V30 7 2 7 8
M  V30 8 1 8 9
M  V30 9 2 9 10
M  V30 10 1 10 11
M  V30 11 1 11 12
M  V30 12 2 11 13
M  V30 13 1 10 14
M  V30 14 2 14 15
M  V30 15 1 15 16
M  V30 16 2 16 17
M  V30 17 1 3 18
M  V30 18 2 18 19
M  V30 19 1 19 20
M  V30 20 2 20 21
M  V30 21 1 21 22
M  V30 22 1 22 23
M  V30 23 1 23 24
M  V30 24 2 24 25
M  V30 25 1 24 26
M  V30 26 2 26 27
M  V30 27 1 27 28
M  V30 28 2 28 29
M  V30 29 1 29 30
M  V30 30 1 30 31
M  V30 31 1 31 32
M  V30 32 1 31 33
M  V30 33 1 31 34
M  V30 34 1 29 35
M  V30 35 2 35 36
M  V30 36 2 22 37
M  V30 37 1 17 5
M  V30 38 1 37 18
M  V30 39 1 17 9
M  V30 40 1 36 26
M  V30 41 1 1 38
M  V30 42 1 1 39
M  V30 43 1 1 40
M  V30 44 1 2 41
M  V30 45 1 2 42
M  V30 46 1 3 43
M  V30 47 1 4 44
M  V30 48 1 7 45
M  V30 49 1 12 46
M  V30 50 1 12 47
M  V30 51 1 14 48
M  V30 52 1 15 49
M  V30 53 1 16 50
M  V30 54 1 19 51
M  V30 55 1 20 52
M  V30 56 1 21 53
M  V30 57 1 23 54
M  V30 58 1 27 55
M  V30 59 1 28 56
M  V30 60 1 35 57
M  V30 61 1 36 58
M  V30 62 1 37 59
M  V30 END BOND
M  V30 END CTAB
M  END
>  <Dataset>  (117) 
ChEMBL_Kinases

>  <Ligand_Instance>  (117) 
nan

>  <PDB_ID>  (117) 
nan

>  <Standardized_SMILES>  (117) 
CCC(Nc1ncnc2c(C(N)=O)cccc12)c1cccc(NC(=O)c2ccc(OC(F)(F)F)cc2)c1

>  <Name>  (117) 
nan

>  <Pocket>  (117) 
nan

>  <ATP_Site>  (117) 
nan

>  <Peripheral>  (117) 
nan

>  <Num_H_Atoms_ProtBoundConf>  (117) 
nan

>  <Num_Resolved_Atoms>  (117) 
nan

>  <Num_Not_Resolved_Atoms>  (117) 
nan

$$$$
CHEMBL4227804
     RDKit          3D

  0  0  0  0  0  0  0  0  0  0999 V3000
M  V30 BEGIN CTAB
M  V30 COUNTS 62 66 0 0 0
M  V30 BEGIN ATOM
M  V30 1 C 5.364095 -1.310652 6.362791 0
M  V30 2 N 4.014507 -0.858274 6.399536 0
M  V30 3 C 3.785734 0.519477 6.193148 0
M  V30 4 C 3.327850 0.902848 4.828203 0
M  V30 5 C 3.246871 -0.261215 3.873784 0
M  V30 6 N 2.483143 0.069671 2.684559 0
M  V30 7 C 2.850370 -0.006265 1.332212 0
M  V30 8 O 3.983246 -0.404677 0.955400 0
M  V30 9 C 1.917976 0.380472 0.280996 0
M  V30 10 C 2.327157 0.285812 -1.032975 0
M  V30 11 C 1.494171 0.636009 -2.098124 0
M  V30 12 C 0.220209 1.091694 -1.828329 0
M  V30 13 C -0.775040 1.498830 -2.880360 0
M  V30 14 N -1.553381 0.307940 -3.246227 0
M  V30 15 N -2.644139 0.109476 -2.531998 0
M  V30 16 C -3.489188 -0.940782 -2.724724 0
M  V30 17 C -4.660183 -1.053187 -1.869293 0
M  V30 18 C -6.015823 -1.277056 -1.985242 0
M  V30 19 N -6.574526 -1.278093 -0.768411 0
M  V30 20 N -5.649073 -1.064051 0.153372 0
M  V30 21 C -5.944791 -1.008973 1.567967 0
M  V30 22 C -4.474147 -0.923801 -0.493615 0
M  V30 23 C -3.106875 -1.790365 -3.738973 0
M  V30 24 C -3.916521 -2.872412 -3.976311 0
M  V30 25 C -3.635823 -3.790196 -4.957453 0
M  V30 26 C -2.491442 -3.573359 -5.701071 0
M  V30 27 C -1.650071 -2.501044 -5.496505 0
M  V30 28 C -1.973389 -1.606094 -4.499721 0
M  V30 29 C -1.178763 -0.511692 -4.230287 0
M  V30 30 O -0.130732 -0.289385 -4.890767 0
M  V30 31 C -0.227774 1.200335 -0.506100 0
M  V30 32 C 0.638247 0.840179 0.506194 0
M  V30 33 C 2.513296 -1.420431 4.511315 0
M  V30 34 C 3.035459 -1.747673 5.860628 0
M  V30 35 H 6.123578 -0.539745 6.233965 0
M  V30 36 H 5.508008 -2.142546 5.615999 0
M  V30 37 H 5.549092 -1.825112 7.350159 0
M  V30 38 H 3.116048 0.941522 6.989291 0
M  V30 39 H 4.767220 1.053763 6.370012 0
M  V30 40 H 3.935676 1.714117 4.378304 0
M  V30 41 H 2.288708 1.302652 4.923335 0
M  V30 42 H 4.273351 -0.626897 3.617294 0
M  V30 43 H 1.562867 0.392416 3.017734 0
M  V30 44 H 3.311755 -0.062639 -1.326177 0
M  V30 45 H 1.798208 0.568410 -3.131732 0
M  V30 46 H -0.209768 1.766153 -3.790572 0
M  V30 47 H -1.408401 2.322515 -2.519304 0
M  V30 48 H -6.430730 -1.408619 -2.976324 0
M  V30 49 H -5.046803 -1.226584 2.189950 0
M  V30 50 H -6.706725 -1.744984 1.857476 0
M  V30 51 H -6.348966 0.007726 1.826415 0
M  V30 52 H -3.586280 -0.738975 0.105750 0
M  V30 53 H -4.808181 -3.055969 -3.399028 0
M  V30 54 H -4.280089 -4.644296 -5.141069 0
M  V30 55 H -2.250987 -4.284581 -6.480352 0
M  V30 56 H -0.747081 -2.344694 -6.094705 0
M  V30 57 H -1.221140 1.554434 -0.262470 0
M  V30 58 H 0.290005 0.925339 1.516638 0
M  V30 59 H 2.676663 -2.294613 3.814151 0
M  V30 60 H 1.413531 -1.264071 4.485816 0
M  V30 61 H 3.364261 -2.806231 5.892784 0
M  V30 62 H 2.154350 -1.713797 6.566751 0
M  V30 END ATOM
M  V30 BEGIN BOND
M  V30 1 1 1 2
M  V30 2 1 2 3
M  V30 3 1 3 4
M  V30 4 1 4 5
M  V30 5 1 5 6
M  V30 6 1 6 7
M  V30 7 2 7 8
M  V30 8 1 7 9
M  V30 9 2 9 10
M  V30 10 1 10 11
M  V30 11 2 11 12
M  V30 12 1 12 13
M  V30 13 1 13 14
M  V30 14 1 14 15
M  V30 15 2 15 16
M  V30 16 1 16 17
M  V30 17 1 17 18
M  V30 18 2 18 19
M  V30 19 1 19 20
M  V30 20 1 20 21
M  V30 21 1 20 22
M  V30 22 1 16 23
M  V30 23 2 23 24
M  V30 24 1 24 25
M  V30 25 2 25 26
M  V30 26 1 26 27
M  V30 27 2 27 28
M  V30 28 1 28 29
M  V30 29 2 29 30
M  V30 30 1 12 31
M  V30 31 2 31 32
M  V30 32 1 5 33
M  V30 33 1 33 34
M  V30 34 1 34 2
M  V30 35 1 32 9
M  V30 36 1 29 14
M  V30 37 2 22 17
M  V30 38 1 28 23
M  V30 39 1 1 35
M  V30 40 1 1 36
M  V30 41 1 1 37
M  V30 42 1 3 38
M  V30 43 1 3 39
M  V30 44 1 4 40
M  V30 45 1 4 41
M  V30 46 1 5 42
M  V30 47 1 6 43
M  V30 48 1 10 44
M  V30 49 1 11 45
M  V30 50 1 13 46
M  V30 51 1 13 47
M  V30 52 1 18 48
M  V30 53 1 21 49
M  V30 54 1 21 50
M  V30 55 1 21 51
M  V30 56 1 22 52
M  V30 57 1 24 53
M  V30 58 1 25 54
M  V30 59 1 26 55
M  V30 60 1 27 56
M  V30 61 1 31 57
M  V30 62 1 32 58
M  V30 63 1 33 59
M  V30 64 1 33 60
M  V30 65 1 34 61
M  V30 66 1 34 62
M  V30 END BOND
M  V30 END CTAB
M  END
>  <Dataset>  (118) 
ChEMBL_Kinases

>  <Ligand_Instance>  (118) 
nan

>  <PDB_ID>  (118) 
nan

>  <Standardized_SMILES>  (118) 
CN1CCC(NC(=O)c2ccc(Cn3nc(-c4cnn(C)c4)c4ccccc4c3=O)cc2)CC1

>  <Name>  (118) 
nan

>  <Pocket>  (118) 
nan

>  <ATP_Site>  (118) 
nan

>  <Peripheral>  (118) 
nan

>  <Num_H_Atoms_ProtBoundConf>  (118) 
nan

>  <Num_Resolved_Atoms>  (118) 
nan

>  <Num_Not_Resolved_Atoms>  (118) 
nan

$$$$
CHEMBL4227791
     RDKit          3D

  0  0  0  0  0  0  0  0  0  0999 V3000
M  V30 BEGIN CTAB
M  V30 COUNTS 49 52 0 0 0
M  V30 BEGIN ATOM
M  V30 1 C 2.954813 -3.972269 4.191375 0
M  V30 2 C 2.647575 -2.826937 3.218430 0
M  V30 3 C 2.555003 -1.578478 4.035604 0
M  V30 4 N 3.745717 -2.796485 2.268895 0
M  V30 5 C 3.828252 -1.853607 1.185084 0
M  V30 6 C 4.857912 -1.802503 0.271194 0
M  V30 7 C 4.878204 -0.873563 -0.745987 0
M  V30 8 C 3.862545 0.046702 -0.889712 0
M  V30 9 C 3.648989 1.056834 -1.799255 0
M  V30 10 N 2.491286 1.613413 -1.432895 0
M  V30 11 N 1.980537 1.019136 -0.366973 0
M  V30 12 C 0.764667 1.335549 0.306518 0
M  V30 13 C 0.826402 2.199504 1.397583 0
M  V30 14 N -0.316331 2.497791 2.031720 0
M  V30 15 C -1.488979 1.977688 1.626019 0
M  V30 16 C -1.576578 1.120657 0.549529 0
M  V30 17 C -2.820207 0.530794 0.070343 0
M  V30 18 C -2.731954 -0.307007 -1.020441 0
M  V30 19 C -3.913681 -0.883316 -1.495974 0
M  V30 20 C -5.156675 -0.664892 -0.941758 0
M  V30 21 C -6.362157 -1.331018 -1.526863 0
M  V30 22 N -6.975393 -0.513959 -2.561192 0
M  V30 23 C -5.213353 0.183824 0.156000 0
M  V30 24 C -4.042291 0.769298 0.645608 0
M  V30 25 N -0.437843 0.820139 -0.086580 0
M  V30 26 C 2.814581 0.028950 0.003529 0
M  V30 27 C 2.829305 -0.915862 1.008587 0
M  V30 28 H 3.404901 -4.785664 3.554077 0
M  V30 29 H 3.767161 -3.614346 4.840622 0
M  V30 30 H 2.053010 -4.323608 4.692135 0
M  V30 31 H 1.691074 -3.082380 2.730832 0
M  V30 32 H 1.503081 -1.192452 3.994902 0
M  V30 33 H 3.214445 -0.752909 3.707738 0
M  V30 34 H 2.739473 -1.748566 5.118641 0
M  V30 35 H 4.568081 -3.470269 2.307621 0
M  V30 36 H 5.660919 -2.539028 0.394453 0
M  V30 37 H 5.726514 -0.906576 -1.418035 0
M  V30 38 H 4.281558 1.342653 -2.634656 0
M  V30 39 H 1.767397 2.620358 1.727612 0
M  V30 40 H -2.372292 2.237159 2.153153 0
M  V30 41 H -1.816424 -0.569394 -1.558445 0
M  V30 42 H -3.864140 -1.554227 -2.364801 0
M  V30 43 H -7.149163 -1.507143 -0.760980 0
M  V30 44 H -6.058371 -2.294811 -1.995118 0
M  V30 45 H -6.217664 0.069395 -3.013379 0
M  V30 46 H -7.614433 0.159493 -2.079502 0
M  V30 47 H -6.183253 0.357431 0.592506 0
M  V30 48 H -4.120185 1.419120 1.493742 0
M  V30 49 H 1.960864 -0.852072 1.664090 0
M  V30 END ATOM
M  V30 BEGIN BOND
M  V30 1 1 1 2
M  V30 2 1 2 3
M  V30 3 1 2 4
M  V30 4 1 4 5
M  V30 5 2 5 6
M  V30 6 1 6 7
M  V30 7 2 7 8
M  V30 8 1 8 9
M  V30 9 2 9 10
M  V30 10 1 10 11
M  V30 11 1 11 12
M  V30 12 2 12 13
M  V30 13 1 13 14
M  V30 14 2 14 15
M  V30 15 1 15 16
M  V30 16 1 16 17
M  V30 17 2 17 18
M  V30 18 1 18 19
M  V30 19 2 19 20
M  V30 20 1 20 21
M  V30 21 1 21 22
M  V30 22 1 20 23
M  V30 23 2 23 24
M  V30 24 2 16 25
M  V30 25 1 11 26
M  V30 26 2 26 27
M  V30 27 1 27 5
M  V30 28 1 26 8
M  V30 29 1 25 12
M  V30 30 1 24 17
M  V30 31 1 1 28
M  V30 32 1 1 29
M  V30 33 1 1 30
M  V30 34 1 2 31
M  V30 35 1 3 32
M  V30 36 1 3 33
M  V30 37 1 3 34
M  V30 38 1 4 35
M  V30 39 1 6 36
M  V30 40 1 7 37
M  V30 41 1 9 38
M  V30 42 1 13 39
M  V30 43 1 15 40
M  V30 44 1 18 41
M  V30 45 1 19 42
M  V30 46 1 21 43
M  V30 47 1 21 44
M  V30 48 1 22 45
M  V30 49 1 22 46
M  V30 50 1 23 47
M  V30 51 1 24 48
M  V30 52 1 27 49
M  V30 END BOND
M  V30 END CTAB
M  END
>  <Dataset>  (119) 
ChEMBL_Kinases

>  <Ligand_Instance>  (119) 
nan

>  <PDB_ID>  (119) 
nan

>  <Standardized_SMILES>  (119) 
CC(C)Nc1ccc2cnn(-c3cncc(-c4ccc(CN)cc4)n3)c2c1

>  <Name>  (119) 
nan

>  <Pocket>  (119) 
nan

>  <ATP_Site>  (119) 
nan

>  <Peripheral>  (119) 
nan

>  <Num_H_Atoms_ProtBoundConf>  (119) 
nan

>  <Num_Resolved_Atoms>  (119) 
nan

>  <Num_Not_Resolved_Atoms>  (119) 
nan

$$$$
CHEMBL4227400
     RDKit          3D

  0  0  0  0  0  0  0  0  0  0999 V3000
M  V30 BEGIN CTAB
M  V30 COUNTS 67 71 0 0 0
M  V30 BEGIN ATOM
M  V30 1 C 6.867795 -0.415285 5.339925 0
M  V30 2 O 5.815011 -1.048660 4.671867 0
M  V30 3 C 4.588637 -1.205983 5.306876 0
M  V30 4 C 4.407714 -0.734948 6.608059 0
M  V30 5 C 3.241178 -0.826184 7.353523 0
M  V30 6 C 2.172709 -1.449978 6.715088 0
M  V30 7 C 2.312516 -1.929985 5.427130 0
M  V30 8 C 3.490822 -1.813180 4.735578 0
M  V30 9 C 3.724618 -2.301925 3.355906 0
M  V30 10 C 4.281999 -3.722464 3.445475 0
M  V30 11 N 2.499146 -2.320941 2.590388 0
M  V30 12 C 2.202954 -1.789997 1.343443 0
M  V30 13 O 3.187726 -1.188391 0.784938 0
M  V30 14 C 0.953074 -1.834467 0.612524 0
M  V30 15 C 0.904397 -1.369125 -0.706559 0
M  V30 16 C -0.257773 -1.405131 -1.454634 0
M  V30 17 C -0.128065 -0.905084 -2.882191 0
M  V30 18 N 0.839639 -1.738400 -3.534648 0
M  V30 19 C 0.674235 -2.625925 -4.604103 0
M  V30 20 O 1.578536 -3.338776 -5.050534 0
M  V30 21 N -0.640414 -2.633553 -5.139069 0
M  V30 22 C -1.601406 -1.778225 -4.545274 0
M  V30 23 C -2.957858 -1.792662 -5.100775 0
M  V30 24 C -1.485911 -0.948695 -3.531880 0
M  V30 25 C -2.322164 -0.001283 -2.864121 0
M  V30 26 O -1.870828 0.671696 -1.870392 0
M  V30 27 N -3.614377 0.502428 -2.928804 0
M  V30 28 C -4.361579 1.449806 -2.227205 0
M  V30 29 C -5.695300 1.641165 -2.504430 0
M  V30 30 C -6.529652 2.545599 -1.903908 0
M  V30 31 C -5.969150 3.338666 -0.926541 0
M  V30 32 N -6.608276 4.306835 -0.202699 0
M  V30 33 N -5.675858 4.817872 0.621511 0
M  V30 34 C -4.520697 4.180589 0.400523 0
M  V30 35 C -4.628951 3.218889 -0.576906 0
M  V30 36 C -3.881465 2.284367 -1.236092 0
M  V30 37 C -1.422925 -1.903226 -0.932109 0
M  V30 38 C -1.443564 -2.381817 0.373625 0
M  V30 39 C -0.257806 -2.311854 1.047605 0
M  V30 40 F -0.316198 -2.784884 2.321126 0
M  V30 41 H 7.713801 -0.171629 4.668462 0
M  V30 42 H 7.289569 -1.070931 6.140905 0
M  V30 43 H 6.574338 0.533642 5.832255 0
M  V30 44 H 5.223729 -0.248822 7.124841 0
M  V30 45 H 3.163253 -0.449138 8.343359 0
M  V30 46 H 1.225003 -1.552480 7.244076 0
M  V30 47 H 1.458033 -2.393685 5.003745 0
M  V30 48 H 4.481906 -1.708717 2.798485 0
M  V30 49 H 4.791846 -3.837074 4.419069 0
M  V30 50 H 4.949783 -3.908014 2.566025 0
M  V30 51 H 3.415784 -4.402334 3.440260 0
M  V30 52 H 1.756862 -2.828854 3.087468 0
M  V30 53 H 1.814834 -0.968990 -1.142603 0
M  V30 54 H 0.238716 0.139697 -2.803664 0
M  V30 55 H 1.770499 -1.595065 -3.082319 0
M  V30 56 H -0.893360 -3.240452 -5.932153 0
M  V30 57 H -3.226079 -0.834287 -5.574726 0
M  V30 58 H -2.980889 -2.578678 -5.916075 0
M  V30 59 H -3.701375 -2.043547 -4.330505 0
M  V30 60 H -4.127530 0.046830 -3.706315 0
M  V30 61 H -6.180253 1.030183 -3.271783 0
M  V30 62 H -7.565949 2.626975 -2.182952 0
M  V30 63 H -7.606048 4.585459 -0.276815 0
M  V30 64 H -3.550824 4.346749 0.897780 0
M  V30 65 H -2.891792 2.298147 -0.881755 0
M  V30 66 H -2.338861 -1.959587 -1.486457 0
M  V30 67 H -2.346725 -2.772499 0.793935 0
M  V30 END ATOM
M  V30 BEGIN BOND
M  V30 1 1 1 2
M  V30 2 1 2 3
M  V30 3 2 3 4
M  V30 4 1 4 5
M  V30 5 2 5 6
M  V30 6 1 6 7
M  V30 7 2 7 8
M  V30 8 1 8 9
M  V30 9 1 9 10
M  V30 10 1 9 11
M  V30 11 1 11 12
M  V30 12 2 12 13
M  V30 13 1 12 14
M  V30 14 2 14 15
M  V30 15 1 15 16
M  V30 16 1 16 17
M  V30 17 1 17 18
M  V30 18 1 18 19
M  V30 19 2 19 20
M  V30 20 1 19 21
M  V30 21 1 21 22
M  V30 22 1 22 23
M  V30 23 2 22 24
M  V30 24 1 24 25
M  V30 25 2 25 26
M  V30 26 1 25 27
M  V30 27 1 27 28
M  V30 28 2 28 29
M  V30 29 1 29 30
M  V30 30 2 30 31
M  V30 31 1 31 32
M  V30 32 1 32 33
M  V30 33 2 33 34
M  V30 34 1 34 35
M  V30 35 2 35 36
M  V30 36 2 16 37
M  V30 37 1 37 38
M  V30 38 2 38 39
M  V30 39 1 39 40
M  V30 40 1 8 3
M  V30 41 1 39 14
M  V30 42 1 24 17
M  V30 43 1 36 28
M  V30 44 1 35 31
M  V30 45 1 1 41
M  V30 46 1 1 42
M  V30 47 1 1 43
M  V30 48 1 4 44
M  V30 49 1 5 45
M  V30 50 1 6 46
M  V30 51 1 7 47
M  V30 52 1 9 48
M  V30 53 1 10 49
M  V30 54 1 10 50
M  V30 55 1 10 51
M  V30 56 1 11 52
M  V30 57 1 15 53
M  V30 58 1 17 54
M  V30 59 1 18 55
M  V30 60 1 21 56
M  V30 61 1 23 57
M  V30 62 1 23 58
M  V30 63 1 23 59
M  V30 64 1 27 60
M  V30 65 1 29 61
M  V30 66 1 30 62
M  V30 67 1 32 63
M  V30 68 1 34 64
M  V30 69 1 36 65
M  V30 70 1 37 66
M  V30 71 1 38 67
M  V30 END BOND
M  V30 END CTAB
M  END
>  <Dataset>  (120) 
ChEMBL_Kinases

>  <Ligand_Instance>  (120) 
nan

>  <PDB_ID>  (120) 
nan

>  <Standardized_SMILES>  (120) 
COc1ccccc1C(C)NC(=O)c1cc(C2NC(=O)NC(C)=C2C(=O)Nc2ccc3[nH]ncc3c2)ccc1F

>  <Name>  (120) 
nan

>  <Pocket>  (120) 
nan

>  <ATP_Site>  (120) 
nan

>  <Peripheral>  (120) 
nan

>  <Num_H_Atoms_ProtBoundConf>  (120) 
nan

>  <Num_Resolved_Atoms>  (120) 
nan

>  <Num_Not_Resolved_Atoms>  (120) 
nan

$$$$
CHEMBL3733136
     RDKit          3D

  0  0  0  0  0  0  0  0  0  0999 V3000
M  V30 BEGIN CTAB
M  V30 COUNTS 37 38 0 0 0
M  V30 BEGIN ATOM
M  V30 1 C -0.269847 -1.598905 3.325706 0
M  V30 2 S 0.477155 -3.254988 3.167424 0
M  V30 3 C 1.919060 -3.187613 2.087522 0
M  V30 4 C 2.636251 -4.326336 1.828385 0
M  V30 5 C 3.732249 -4.228287 0.996448 0
M  V30 6 C 4.093711 -3.028484 0.445170 0
M  V30 7 C 3.393382 -1.839064 0.679793 0
M  V30 8 N 3.793668 -0.621929 0.098852 0
M  V30 9 C 3.103785 0.638704 0.300170 0
M  V30 10 C 1.716934 0.474956 -0.226158 0
M  V30 11 O 0.988966 -0.391862 -0.773981 0
M  V30 12 N 0.899711 1.657085 -0.091660 0
M  V30 13 N -0.423100 1.507590 -0.591346 0
M  V30 14 C -1.411782 1.282685 0.204400 0
M  V30 15 C -2.766288 1.131265 -0.324390 0
M  V30 16 C -3.867382 0.886206 0.505828 0
M  V30 17 C -5.143085 0.749538 -0.053574 0
M  V30 18 N -5.339224 0.848370 -1.377691 0
M  V30 19 C -4.269134 1.084097 -2.159390 0
M  V30 20 C -2.976487 1.232877 -1.698950 0
M  V30 21 C 2.317497 -2.003182 1.512649 0
M  V30 22 H 0.522730 -0.807572 3.405109 0
M  V30 23 H -0.910408 -1.381439 2.446473 0
M  V30 24 H -0.817716 -1.587857 4.271844 0
M  V30 25 H 2.382700 -5.275427 2.240544 0
M  V30 26 H 4.296531 -5.143390 0.797150 0
M  V30 27 H 4.974514 -3.018929 -0.206985 0
M  V30 28 H 4.629624 -0.617916 -0.509890 0
M  V30 29 H 3.629695 1.474654 -0.157988 0
M  V30 30 H 3.096003 0.796158 1.413081 0
M  V30 31 H 1.146713 2.604768 0.321482 0
M  V30 32 H -1.264763 1.201271 1.272735 0
M  V30 33 H -3.713826 0.805026 1.581785 0
M  V30 34 H -6.008396 0.557213 0.596106 0
M  V30 35 H -4.500215 1.153488 -3.233379 0
M  V30 36 H -2.183866 1.420187 -2.409200 0
M  V30 37 H 1.712287 -1.149382 1.758896 0
M  V30 END ATOM
M  V30 BEGIN BOND
M  V30 1 1 1 2
M  V30 2 1 2 3
M  V30 3 2 3 4
M  V30 4 1 4 5
M  V30 5 2 5 6
M  V30 6 1 6 7
M  V30 7 1 7 8
M  V30 8 1 8 9
M  V30 9 1 9 10
M  V30 10 2 10 11
M  V30 11 1 10 12
M  V30 12 1 12 13
M  V30 13 2 13 14
M  V30 14 1 14 15
M  V30 15 2 15 16
M  V30 16 1 16 17
M  V30 17 2 17 18
M  V30 18 1 18 19
M  V30 19 2 19 20
M  V30 20 2 7 21
M  V30 21 1 21 3
M  V30 22 1 20 15
M  V30 23 1 1 22
M  V30 24 1 1 23
M  V30 25 1 1 24
M  V30 26 1 4 25
M  V30 27 1 5 26
M  V30 28 1 6 27
M  V30 29 1 8 28
M  V30 30 1 9 29
M  V30 31 1 9 30
M  V30 32 1 12 31
M  V30 33 1 14 32
M  V30 34 1 16 33
M  V30 35 1 17 34
M  V30 36 1 19 35
M  V30 37 1 20 36
M  V30 38 1 21 37
M  V30 END BOND
M  V30 END CTAB
M  END
>  <Dataset>  (121) 
ChEMBL_Kinases

>  <Ligand_Instance>  (121) 
nan

>  <PDB_ID>  (121) 
nan

>  <Standardized_SMILES>  (121) 
CSc1cccc(NCC(=O)N/N=C/c2ccncc2)c1

>  <Name>  (121) 
nan

>  <Pocket>  (121) 
nan

>  <ATP_Site>  (121) 
nan

>  <Peripheral>  (121) 
nan

>  <Num_H_Atoms_ProtBoundConf>  (121) 
nan

>  <Num_Resolved_Atoms>  (121) 
nan

>  <Num_Not_Resolved_Atoms>  (121) 
nan

$$$$
CHEMBL4227081
     RDKit          3D

  0  0  0  0  0  0  0  0  0  0999 V3000
M  V30 BEGIN CTAB
M  V30 COUNTS 66 71 0 0 0
M  V30 BEGIN ATOM
M  V30 1 C 3.437902 -1.851621 4.572209 0
M  V30 2 C 2.022734 -2.030754 4.979067 0
M  V30 3 C 1.173013 -1.186730 4.437319 0
M  V30 4 C 1.349863 -0.092488 3.511451 0
M  V30 5 O 0.376039 0.632482 3.091865 0
M  V30 6 N 2.369516 0.568190 2.790721 0
M  V30 7 C 2.002812 1.664866 1.958459 0
M  V30 8 C 1.973346 2.978309 2.420978 0
M  V30 9 C 1.622538 4.055560 1.634146 0
M  V30 10 C 1.285707 3.806130 0.323629 0
M  V30 11 N 0.912896 4.675165 -0.631731 0
M  V30 12 N 0.694759 3.944823 -1.726739 0
M  V30 13 C 0.919136 2.660831 -1.480852 0
M  V30 14 C 1.305761 2.520140 -0.160819 0
M  V30 15 C 1.657785 1.448034 0.632992 0
M  V30 16 C -0.270624 -1.361972 4.729937 0
M  V30 17 C -1.041782 -1.917954 3.588976 0
M  V30 18 C -2.346272 -2.222868 3.917433 0
M  V30 19 C -3.182564 -2.762616 2.949789 0
M  V30 20 C -2.660696 -2.968311 1.697072 0
M  V30 21 F -3.460879 -3.484526 0.765211 0
M  V30 22 C -1.376786 -2.683133 1.323009 0
M  V30 23 C -0.737557 -2.867551 0.033133 0
M  V30 24 O 0.468104 -2.500335 -0.181262 0
M  V30 25 N -1.275058 -3.441333 -1.143012 0
M  V30 26 C -0.617856 -3.610620 -2.421302 0
M  V30 27 C -0.571767 -2.326002 -3.186737 0
M  V30 28 C 0.408456 -1.360836 -3.222297 0
M  V30 29 N 0.282253 -0.253575 -3.965409 0
M  V30 30 C -0.812836 -0.036292 -4.712424 0
M  V30 31 C -1.855911 -0.945845 -4.746196 0
M  V30 32 C -1.700023 -2.068766 -3.976821 0
M  V30 33 C -2.953906 -0.472900 -5.650386 0
M  V30 34 C -2.717301 1.018630 -5.617595 0
M  V30 35 C -1.211368 1.093115 -5.620949 0
M  V30 36 C -0.574094 -2.146194 2.316775 0
M  V30 37 N -0.438931 -2.241551 5.851123 0
M  V30 38 C 0.441562 -3.179207 6.450045 0
M  V30 39 O 0.105113 -4.016524 7.293004 0
M  V30 40 N 1.759122 -3.025400 5.950864 0
M  V30 41 H 3.591482 -2.053834 3.506772 0
M  V30 42 H 4.087882 -2.617966 5.092440 0
M  V30 43 H 3.768574 -0.888022 4.959229 0
M  V30 44 H 3.295636 0.139184 2.980120 0
M  V30 45 H 2.243365 3.161098 3.463782 0
M  V30 46 H 1.607269 5.063901 2.014809 0
M  V30 47 H 0.784998 5.708019 -0.642006 0
M  V30 48 H 0.820576 1.842363 -2.186726 0
M  V30 49 H 1.664209 0.443527 0.222613 0
M  V30 50 H -0.744024 -0.367772 4.983079 0
M  V30 51 H -2.848570 -2.091487 4.889521 0
M  V30 52 H -4.215510 -3.021314 3.151690 0
M  V30 53 H -2.266063 -3.780666 -1.070665 0
M  V30 54 H 0.412925 -4.025363 -2.294411 0
M  V30 55 H -1.184061 -4.357019 -3.015794 0
M  V30 56 H 1.267111 -1.585201 -2.609731 0
M  V30 57 H -2.525057 -2.773796 -4.013070 0
M  V30 58 H -3.959193 -0.725133 -5.260848 0
M  V30 59 H -2.774718 -0.818837 -6.682139 0
M  V30 60 H -3.102182 1.530534 -6.521057 0
M  V30 61 H -3.080093 1.448503 -4.663361 0
M  V30 62 H -0.825443 2.055117 -5.248122 0
M  V30 63 H -0.802824 0.816588 -6.621458 0
M  V30 64 H 0.453442 -1.896379 2.119817 0
M  V30 65 H -1.400516 -2.155006 6.294676 0
M  V30 66 H 2.525360 -3.635712 6.293405 0
M  V30 END ATOM
M  V30 BEGIN BOND
M  V30 1 1 1 2
M  V30 2 2 2 3
M  V30 3 1 3 4
M  V30 4 2 4 5
M  V30 5 1 4 6
M  V30 6 1 6 7
M  V30 7 2 7 8
M  V30 8 1 8 9
M  V30 9 2 9 10
M  V30 10 1 10 11
M  V30 11 1 11 12
M  V30 12 2 12 13
M  V30 13 1 13 14
M  V30 14 2 14 15
M  V30 15 1 3 16
M  V30 16 1 16 17
M  V30 17 2 17 18
M  V30 18 1 18 19
M  V30 19 2 19 20
M  V30 20 1 20 21
M  V30 21 1 20 22
M  V30 22 1 22 23
M  V30 23 2 23 24
M  V30 24 1 23 25
M  V30 25 1 25 26
M  V30 26 1 26 27
M  V30 27 2 27 28
M  V30 28 1 28 29
M  V30 29 2 29 30
M  V30 30 1 30 31
M  V30 31 2 31 32
M  V30 32 1 31 33
M  V30 33 1 33 34
M  V30 34 1 34 35
M  V30 35 2 22 36
M  V30 36 1 16 37
M  V30 37 1 37 38
M  V30 38 2 38 39
M  V30 39 1 38 40
M  V30 40 1 40 2
M  V30 41 1 15 7
M  V30 42 1 36 17
M  V30 43 1 14 10
M  V30 44 1 32 27
M  V30 45 1 35 30
M  V30 46 1 1 41
M  V30 47 1 1 42
M  V30 48 1 1 43
M  V30 49 1 6 44
M  V30 50 1 8 45
M  V30 51 1 9 46
M  V30 52 1 11 47
M  V30 53 1 13 48
M  V30 54 1 15 49
M  V30 55 1 16 50
M  V30 56 1 18 51
M  V30 57 1 19 52
M  V30 58 1 25 53
M  V30 59 1 26 54
M  V30 60 1 26 55
M  V30 61 1 28 56
M  V30 62 1 32 57
M  V30 63 1 33 58
M  V30 64 1 33 59
M  V30 65 1 34 60
M  V30 66 1 34 61
M  V30 67 1 35 62
M  V30 68 1 35 63
M  V30 69 1 36 64
M  V30 70 1 37 65
M  V30 71 1 40 66
M  V30 END BOND
M  V30 END CTAB
M  END
>  <Dataset>  (122) 
ChEMBL_Kinases

>  <Ligand_Instance>  (122) 
nan

>  <PDB_ID>  (122) 
nan

>  <Standardized_SMILES>  (122) 
CC1=C(C(=O)Nc2ccc3[nH]ncc3c2)C(c2ccc(F)c(C(=O)NCc3cnc4c(c3)CCC4)c2)NC(=O)N1

>  <Name>  (122) 
nan

>  <Pocket>  (122) 
nan

>  <ATP_Site>  (122) 
nan

>  <Peripheral>  (122) 
nan

>  <Num_H_Atoms_ProtBoundConf>  (122) 
nan

>  <Num_Resolved_Atoms>  (122) 
nan

>  <Num_Not_Resolved_Atoms>  (122) 
nan

$$$$
CHEMBL3680389
     RDKit          3D

  0  0  0  0  0  0  0  0  0  0999 V3000
M  V30 BEGIN CTAB
M  V30 COUNTS 52 55 0 0 0
M  V30 BEGIN ATOM
M  V30 1 C 5.105043 0.517532 3.302330 0
M  V30 2 C 5.484801 0.148996 1.918227 0
M  V30 3 O 6.648296 -0.414267 1.604862 0
M  V30 4 C 6.737711 -0.638951 0.327836 0
M  V30 5 C 5.580593 -0.221390 -0.347860 0
M  V30 6 C 4.847146 0.258822 0.707823 0
M  V30 7 C 3.499129 0.856566 0.669026 0
M  V30 8 O 2.996615 1.343019 1.737797 0
M  V30 9 N 2.585601 1.001497 -0.427858 0
M  V30 10 C 1.496037 1.658973 0.266714 0
M  V30 11 C 1.553698 3.035223 0.333156 0
M  V30 12 C 0.529071 3.657357 1.012740 0
M  V30 13 C -0.474432 2.906149 1.577569 0
M  V30 14 C -0.503333 1.533803 1.493173 0
M  V30 15 C -1.503681 0.575337 2.091880 0
M  V30 16 C -0.730653 -0.315426 3.072053 0
M  V30 17 N -2.304212 -0.115142 1.175573 0
M  V30 18 C -3.135135 -0.824179 0.226373 0
M  V30 19 N -4.156010 -0.322963 -0.476904 0
M  V30 20 C -4.953150 -0.978131 -1.309069 0
M  V30 21 N -4.643369 -2.267532 -1.405907 0
M  V30 22 C -3.649872 -2.877005 -0.756583 0
M  V30 23 C -3.551571 -4.208171 -1.060359 0
M  V30 24 C -4.398484 -4.947217 -1.950473 0
M  V30 25 N -5.523389 -4.535319 -2.713460 0
M  V30 26 O -4.278749 -6.165398 -2.222632 0
M  V30 27 C -2.526263 -4.932974 -0.446797 0
M  V30 28 C -1.682726 -4.244914 0.429990 0
M  V30 29 C -1.866407 -2.903113 0.670945 0
M  V30 30 C -2.852384 -2.154782 0.094693 0
M  V30 31 C 0.494203 0.855242 0.825009 0
M  V30 32 H 4.031444 0.243749 3.499468 0
M  V30 33 H 5.738110 -0.053224 4.036323 0
M  V30 34 H 5.248791 1.598873 3.491014 0
M  V30 35 H 7.597813 -1.096164 -0.179626 0
M  V30 36 H 5.322115 -0.253234 -1.391826 0
M  V30 37 H 2.950392 0.618847 -1.324226 0
M  V30 38 H 2.368541 3.568620 -0.129586 0
M  V30 39 H 0.499825 4.729068 1.111515 0
M  V30 40 H -1.316134 3.308203 2.130136 0
M  V30 41 H -2.131799 1.195052 2.805047 0
M  V30 42 H -0.290458 0.409882 3.803436 0
M  V30 43 H -1.451098 -0.928382 3.639387 0
M  V30 44 H 0.095794 -0.851426 2.611792 0
M  V30 45 H -2.699055 0.857874 0.956799 0
M  V30 46 H -5.742193 -0.443667 -1.808574 0
M  V30 47 H -6.528177 -4.477890 -2.387775 0
M  V30 48 H -5.341787 -4.264412 -3.696710 0
M  V30 49 H -2.299574 -5.975315 -0.565958 0
M  V30 50 H -0.866616 -4.758352 0.935709 0
M  V30 51 H -1.216182 -2.387645 1.333573 0
M  V30 52 H 0.570464 -0.218639 0.693904 0
M  V30 END ATOM
M  V30 BEGIN BOND
M  V30 1 1 1 2
M  V30 2 1 2 3
M  V30 3 1 3 4
M  V30 4 2 4 5
M  V30 5 1 5 6
M  V30 6 1 6 7
M  V30 7 2 7 8
M  V30 8 1 7 9
M  V30 9 1 9 10
M  V30 10 2 10 11
M  V30 11 1 11 12
M  V30 12 2 12 13
M  V30 13 1 13 14
M  V30 14 1 14 15
M  V30 15 1 15 16
M  V30 16 1 15 17
M  V30 17 1 17 18
M  V30 18 2 18 19
M  V30 19 1 19 20
M  V30 20 2 20 21
M  V30 21 1 21 22
M  V30 22 2 22 23
M  V30 23 1 23 24
M  V30 24 1 24 25
M  V30 25 2 24 26
M  V30 26 1 23 27
M  V30 27 2 27 28
M  V30 28 1 28 29
M  V30 29 2 29 30
M  V30 30 2 14 31
M  V30 31 2 6 2
M  V30 32 1 31 10
M  V30 33 1 30 18
M  V30 34 1 30 22
M  V30 35 1 1 32
M  V30 36 1 1 33
M  V30 37 1 1 34
M  V30 38 1 4 35
M  V30 39 1 5 36
M  V30 40 1 9 37
M  V30 41 1 11 38
M  V30 42 1 12 39
M  V30 43 1 13 40
M  V30 44 1 15 41
M  V30 45 1 16 42
M  V30 46 1 16 43
M  V30 47 1 16 44
M  V30 48 1 17 45
M  V30 49 1 20 46
M  V30 50 1 25 47
M  V30 51 1 25 48
M  V30 52 1 27 49
M  V30 53 1 28 50
M  V30 54 1 29 51
M  V30 55 1 31 52
M  V30 END BOND
M  V30 END CTAB
M  END
>  <Dataset>  (123) 
ChEMBL_Kinases

>  <Ligand_Instance>  (123) 
nan

>  <PDB_ID>  (123) 
nan

>  <Standardized_SMILES>  (123) 
Cc1occc1C(=O)Nc1cccc(C(C)Nc2ncnc3c(C(N)=O)cccc23)c1

>  <Name>  (123) 
nan

>  <Pocket>  (123) 
nan

>  <ATP_Site>  (123) 
nan

>  <Peripheral>  (123) 
nan

>  <Num_H_Atoms_ProtBoundConf>  (123) 
nan

>  <Num_Resolved_Atoms>  (123) 
nan

>  <Num_Not_Resolved_Atoms>  (123) 
nan

$$$$
CHEMBL4226724
     RDKit          3D

  0  0  0  0  0  0  0  0  0  0999 V3000
M  V30 BEGIN CTAB
M  V30 COUNTS 57 61 0 0 0
M  V30 BEGIN ATOM
M  V30 1 C 5.131897 -4.473541 -1.441638 0
M  V30 2 N 4.480166 -4.637874 -0.163420 0
M  V30 3 C 3.453436 -3.930963 0.384315 0
M  V30 4 C 3.140053 -4.439790 1.651459 0
M  V30 5 C 2.072322 -3.801536 2.394963 0
M  V30 6 N 2.100656 -2.459517 2.463865 0
M  V30 7 N 1.178691 -1.735599 3.116864 0
M  V30 8 C 1.361541 -0.279864 3.091725 0
M  V30 9 C 0.684792 0.362663 1.944598 0
M  V30 10 C 1.403813 0.507128 0.754461 0
M  V30 11 C 0.758451 1.115247 -0.324813 0
M  V30 12 C -0.542029 1.573847 -0.267854 0
M  V30 13 C -1.106587 2.193575 -1.464826 0
M  V30 14 O -0.369413 2.271968 -2.466665 0
M  V30 15 N -2.439595 2.689733 -1.496356 0
M  V30 16 C -3.016674 3.293619 -2.633107 0
M  V30 17 C -4.268645 2.697573 -3.182865 0
M  V30 18 C -4.553891 3.658215 -4.325058 0
M  V30 19 C -4.060874 5.000595 -3.822795 0
M  V30 20 C -3.451568 4.722660 -2.446204 0
M  V30 21 C -1.215316 1.410766 0.927393 0
M  V30 22 C -0.626475 0.816525 2.026880 0
M  V30 23 C 0.132722 -2.324166 3.765611 0
M  V30 24 O -0.698611 -1.589422 4.360114 0
M  V30 25 C 0.058120 -3.699442 3.724344 0
M  V30 26 C -0.979651 -4.337903 4.358315 0
M  V30 27 C -1.060074 -5.716489 4.313964 0
M  V30 28 C -0.074846 -6.419916 3.619882 0
M  V30 29 C 0.966490 -5.778511 2.984002 0
M  V30 30 C 1.025715 -4.404289 3.042520 0
M  V30 31 C 4.039471 -5.474733 1.803600 0
M  V30 32 N 4.823345 -5.572104 0.713313 0
M  V30 33 H 4.540243 -3.861966 -2.141269 0
M  V30 34 H 6.110227 -3.952862 -1.321900 0
M  V30 35 H 5.309640 -5.447632 -1.964397 0
M  V30 36 H 3.036824 -3.105756 -0.210397 0
M  V30 37 H 0.897354 0.068090 4.049761 0
M  V30 38 H 2.439594 -0.097805 3.152919 0
M  V30 39 H 2.411087 0.158310 0.691262 0
M  V30 40 H 1.381314 1.194444 -1.221951 0
M  V30 41 H -3.061612 2.625926 -0.659266 0
M  V30 42 H -2.275703 3.315077 -3.466542 0
M  V30 43 H -4.078963 1.667796 -3.521581 0
M  V30 44 H -5.143139 2.799934 -2.510339 0
M  V30 45 H -3.925629 3.311257 -5.186060 0
M  V30 46 H -5.632340 3.674547 -4.581626 0
M  V30 47 H -3.206936 5.331850 -4.479018 0
M  V30 48 H -4.836985 5.767293 -3.803667 0
M  V30 49 H -4.223037 4.816500 -1.682202 0
M  V30 50 H -2.625081 5.406328 -2.218988 0
M  V30 51 H -2.229713 1.762770 0.988180 0
M  V30 52 H -1.194520 0.711910 2.940223 0
M  V30 53 H -1.704878 -3.737591 4.874885 0
M  V30 54 H -1.861494 -6.248871 4.800698 0
M  V30 55 H -0.134394 -7.506795 3.582163 0
M  V30 56 H 1.704635 -6.358688 2.452924 0
M  V30 57 H 4.018090 -6.046271 2.720692 0
M  V30 END ATOM
M  V30 BEGIN BOND
M  V30 1 1 1 2
M  V30 2 1 2 3
M  V30 3 2 3 4
M  V30 4 1 4 5
M  V30 5 2 5 6
M  V30 6 1 6 7
M  V30 7 1 7 8
M  V30 8 1 8 9
M  V30 9 2 9 10
M  V30 10 1 10 11
M  V30 11 2 11 12
M  V30 12 1 12 13
M  V30 13 2 13 14
M  V30 14 1 13 15
M  V30 15 1 15 16
M  V30 16 1 16 17
M  V30 17 1 17 18
M  V30 18 1 18 19
M  V30 19 1 19 20
M  V30 20 1 12 21
M  V30 21 2 21 22
M  V30 22 1 7 23
M  V30 23 2 23 24
M  V30 24 1 23 25
M  V30 25 2 25 26
M  V30 26 1 26 27
M  V30 27 2 27 28
M  V30 28 1 28 29
M  V30 29 2 29 30
M  V30 30 1 4 31
M  V30 31 2 31 32
M  V30 32 1 32 2
M  V30 33 1 30 5
M  V30 34 1 22 9
M  V30 35 1 30 25
M  V30 36 1 20 16
M  V30 37 1 1 33
M  V30 38 1 1 34
M  V30 39 1 1 35
M  V30 40 1 3 36
M  V30 41 1 8 37
M  V30 42 1 8 38
M  V30 43 1 10 39
M  V30 44 1 11 40
M  V30 45 1 15 41
M  V30 46 1 16 42
M  V30 47 1 17 43
M  V30 48 1 17 44
M  V30 49 1 18 45
M  V30 50 1 18 46
M  V30 51 1 19 47
M  V30 52 1 19 48
M  V30 53 1 20 49
M  V30 54 1 20 50
M  V30 55 1 21 51
M  V30 56 1 22 52
M  V30 57 1 26 53
M  V30 58 1 27 54
M  V30 59 1 28 55
M  V30 60 1 29 56
M  V30 61 1 31 57
M  V30 END BOND
M  V30 END CTAB
M  END
>  <Dataset>  (124) 
ChEMBL_Kinases

>  <Ligand_Instance>  (124) 
nan

>  <PDB_ID>  (124) 
nan

>  <Standardized_SMILES>  (124) 
Cn1cc(-c2nn(Cc3ccc(C(=O)NC4CCCC4)cc3)c(=O)c3ccccc23)cn1

>  <Name>  (124) 
nan

>  <Pocket>  (124) 
nan

>  <ATP_Site>  (124) 
nan

>  <Peripheral>  (124) 
nan

>  <Num_H_Atoms_ProtBoundConf>  (124) 
nan

>  <Num_Resolved_Atoms>  (124) 
nan

>  <Num_Not_Resolved_Atoms>  (124) 
nan

$$$$
CHEMBL4225917
     RDKit          3D

  0  0  0  0  0  0  0  0  0  0999 V3000
M  V30 BEGIN CTAB
M  V30 COUNTS 67 72 0 0 0
M  V30 BEGIN ATOM
M  V30 1 C 4.774345 -1.919115 4.272296 0
M  V30 2 C 3.591984 -2.829661 4.115547 0
M  V30 3 C 2.578053 -2.323673 3.426770 0
M  V30 4 C 2.765890 -0.962512 2.938863 0
M  V30 5 O 3.597045 -0.023902 2.924914 0
M  V30 6 N 1.718286 -0.306781 2.181766 0
M  V30 7 C 1.963896 1.024267 1.749145 0
M  V30 8 C 1.442253 1.889963 2.723378 0
M  V30 9 C 1.535122 3.263620 2.572694 0
M  V30 10 C 2.168418 3.673940 1.417531 0
M  V30 11 N 2.410429 4.950038 0.992742 0
M  V30 12 N 3.039202 4.909502 -0.159681 0
M  V30 13 C 3.257973 3.656416 -0.580924 0
M  V30 14 C 2.704857 2.900814 0.423266 0
M  V30 15 C 2.575131 1.533850 0.635078 0
M  V30 16 C 1.320028 -2.968588 3.047080 0
M  V30 17 C 1.265375 -3.260139 1.568115 0
M  V30 18 C 2.455706 -3.506087 0.914164 0
M  V30 19 C 2.412992 -3.792541 -0.432042 0
M  V30 20 C 1.229445 -3.844017 -1.159325 0
M  V30 21 F 1.220452 -4.134046 -2.480498 0
M  V30 22 C 0.018164 -3.602281 -0.538655 0
M  V30 23 C -1.316206 -3.648594 -1.179189 0
M  V30 24 C -1.598873 -2.509048 -2.082426 0
M  V30 25 O -0.799422 -2.659252 -3.041971 0
M  V30 26 N -2.520800 -1.440258 -1.999097 0
M  V30 27 C -3.430415 -1.218468 -0.865165 0
M  V30 28 C -4.347305 -0.199461 -1.429943 0
M  V30 29 C -5.501395 0.332774 -0.889826 0
M  V30 30 C -6.152655 1.277816 -1.649141 0
M  V30 31 C -5.734164 1.720210 -2.891939 0
M  V30 32 C -6.515997 2.767009 -3.636667 0
M  V30 33 C -4.582224 1.189619 -3.432234 0
M  V30 34 C -3.935937 0.244382 -2.667124 0
M  V30 35 C -2.657783 -0.464732 -3.042816 0
M  V30 36 C 0.119162 -3.316999 0.827381 0
M  V30 37 N 1.166045 -4.196925 3.792205 0
M  V30 38 C 2.229280 -4.788974 4.528904 0
M  V30 39 O 2.184422 -5.932707 5.079254 0
M  V30 40 N 3.471614 -4.129333 4.717924 0
M  V30 41 H 5.167259 -1.701677 3.254033 0
M  V30 42 H 4.523026 -0.990253 4.810690 0
M  V30 43 H 5.555101 -2.450025 4.852742 0
M  V30 44 H 0.783330 -0.773006 1.945560 0
M  V30 45 H 0.929102 1.621651 3.659364 0
M  V30 46 H 1.159068 3.998116 3.273882 0
M  V30 47 H 2.185186 5.886421 1.421587 0
M  V30 48 H 3.714982 3.179804 -1.430472 0
M  V30 49 H 2.934880 0.780088 -0.031891 0
M  V30 50 H 0.410213 -2.337792 3.221622 0
M  V30 51 H 3.419664 -3.482917 1.412087 0
M  V30 52 H 3.371969 -3.986786 -0.942202 0
M  V30 53 H -1.491177 -4.633588 -1.684714 0
M  V30 54 H -2.076629 -3.542191 -0.342851 0
M  V30 55 H -2.875820 -0.695128 -0.042920 0
M  V30 56 H -3.927395 -2.118022 -0.512822 0
M  V30 57 H -5.845823 -0.000398 0.077694 0
M  V30 58 H -7.067862 1.670986 -1.177988 0
M  V30 59 H -7.470646 2.978637 -3.127053 0
M  V30 60 H -6.623728 2.485483 -4.682262 0
M  V30 61 H -5.888582 3.700538 -3.517479 0
M  V30 62 H -4.218767 1.503369 -4.396742 0
M  V30 63 H -2.728759 -0.954869 -4.016294 0
M  V30 64 H -1.803207 0.271774 -3.036129 0
M  V30 65 H -0.790343 -3.114737 1.388871 0
M  V30 66 H 0.241742 -4.673706 3.797012 0
M  V30 67 H 4.301582 -4.478117 5.241096 0
M  V30 END ATOM
M  V30 BEGIN BOND
M  V30 1 1 1 2
M  V30 2 2 2 3
M  V30 3 1 3 4
M  V30 4 2 4 5
M  V30 5 1 4 6
M  V30 6 1 6 7
M  V30 7 2 7 8
M  V30 8 1 8 9
M  V30 9 2 9 10
M  V30 10 1 10 11
M  V30 11 1 11 12
M  V30 12 2 12 13
M  V30 13 1 13 14
M  V30 14 2 14 15
M  V30 15 1 3 16
M  V30 16 1 16 17
M  V30 17 2 17 18
M  V30 18 1 18 19
M  V30 19 2 19 20
M  V30 20 1 20 21
M  V30 21 1 20 22
M  V30 22 1 22 23
M  V30 23 1 23 24
M  V30 24 2 24 25
M  V30 25 1 24 26
M  V30 26 1 26 27
M  V30 27 1 27 28
M  V30 28 2 28 29
M  V30 29 1 29 30
M  V30 30 2 30 31
M  V30 31 1 31 32
M  V30 32 1 31 33
M  V30 33 2 33 34
M  V30 34 1 34 35
M  V30 35 2 22 36
M  V30 36 1 16 37
M  V30 37 1 37 38
M  V30 38 2 38 39
M  V30 39 1 38 40
M  V30 40 1 40 2
M  V30 41 1 15 7
M  V30 42 1 36 17
M  V30 43 1 14 10
M  V30 44 1 35 26
M  V30 45 1 34 28
M  V30 46 1 1 41
M  V30 47 1 1 42
M  V30 48 1 1 43
M  V30 49 1 6 44
M  V30 50 1 8 45
M  V30 51 1 9 46
M  V30 52 1 11 47
M  V30 53 1 13 48
M  V30 54 1 15 49
M  V30 55 1 16 50
M  V30 56 1 18 51
M  V30 57 1 19 52
M  V30 58 1 23 53
M  V30 59 1 23 54
M  V30 60 1 27 55
M  V30 61 1 27 56
M  V30 62 1 29 57
M  V30 63 1 30 58
M  V30 64 1 32 59
M  V30 65 1 32 60
M  V30 66 1 32 61
M  V30 67 1 33 62
M  V30 68 1 35 63
M  V30 69 1 35 64
M  V30 70 1 36 65
M  V30 71 1 37 66
M  V30 72 1 40 67
M  V30 END BOND
M  V30 END CTAB
M  END
>  <Dataset>  (125) 
ChEMBL_Kinases

>  <Ligand_Instance>  (125) 
nan

>  <PDB_ID>  (125) 
nan

>  <Standardized_SMILES>  (125) 
CC1=C(C(=O)Nc2ccc3[nH]ncc3c2)C(c2ccc(F)c(CC(=O)N3Cc4ccc(C)cc4C3)c2)NC(=O)N1

>  <Name>  (125) 
nan

>  <Pocket>  (125) 
nan

>  <ATP_Site>  (125) 
nan

>  <Peripheral>  (125) 
nan

>  <Num_H_Atoms_ProtBoundConf>  (125) 
nan

>  <Num_Resolved_Atoms>  (125) 
nan

>  <Num_Not_Resolved_Atoms>  (125) 
nan

$$$$
CHEMBL4225880
     RDKit          3D

  0  0  0  0  0  0  0  0  0  0999 V3000
M  V30 BEGIN CTAB
M  V30 COUNTS 60 64 0 0 0
M  V30 BEGIN ATOM
M  V30 1 C 5.153302 -0.760299 6.084722 0
M  V30 2 N 4.575173 -1.563264 5.040508 0
M  V30 3 C 4.586922 -1.487926 3.697671 0
M  V30 4 C 3.851263 -2.543826 3.144031 0
M  V30 5 C 3.747152 -2.616189 1.699375 0
M  V30 6 N 3.419315 -1.464315 1.042239 0
M  V30 7 N 3.294470 -1.397148 -0.270911 0
M  V30 8 C 2.942777 -0.143162 -0.920318 0
M  V30 9 C 1.489353 0.050503 -1.072309 0
M  V30 10 C 0.770587 0.689260 -0.064268 0
M  V30 11 C -0.591412 0.905253 -0.137063 0
M  V30 12 C -1.305427 0.484316 -1.240433 0
M  V30 13 C -2.738933 0.635588 -1.467680 0
M  V30 14 O -3.357858 0.238852 -2.489072 0
M  V30 15 N -3.613484 1.266019 -0.530975 0
M  V30 16 C -5.019763 1.441349 -0.699645 0
M  V30 17 C -5.848260 0.739272 0.326813 0
M  V30 18 C -7.290707 0.761051 -0.129545 0
M  V30 19 C -7.480301 1.506305 -1.433158 0
M  V30 20 C -6.847423 2.869463 -1.429716 0
M  V30 21 C -5.479825 2.874173 -0.767175 0
M  V30 22 C -0.615965 -0.159453 -2.269367 0
M  V30 23 C 0.744690 -0.355313 -2.156927 0
M  V30 24 C 3.481670 -2.463769 -1.066856 0
M  V30 25 O 3.378904 -2.471933 -2.326466 0
M  V30 26 C 3.813433 -3.657650 -0.487385 0
M  V30 27 C 4.036931 -4.831385 -1.211340 0
M  V30 28 C 4.373887 -6.001150 -0.561286 0
M  V30 29 C 4.499352 -6.044929 0.816805 0
M  V30 30 C 4.273610 -4.874187 1.507230 0
M  V30 31 C 3.938243 -3.705364 0.879619 0
M  V30 32 C 3.412886 -3.234557 4.251758 0
M  V30 33 N 3.859652 -2.627624 5.371947 0
M  V30 34 H 4.360739 -0.172848 6.603072 0
M  V30 35 H 5.714678 -1.354288 6.846870 0
M  V30 36 H 5.881793 -0.038059 5.642692 0
M  V30 37 H 5.136568 -0.661032 3.233025 0
M  V30 38 H 3.311193 0.718611 -0.303885 0
M  V30 39 H 3.384599 -0.090755 -1.938009 0
M  V30 40 H 1.242821 1.063510 0.856686 0
M  V30 41 H -1.166691 1.396392 0.629618 0
M  V30 42 H -3.209183 1.645165 0.375536 0
M  V30 43 H -5.280762 0.989380 -1.696616 0
M  V30 44 H -5.749405 1.344934 1.270926 0
M  V30 45 H -5.480730 -0.269797 0.594898 0
M  V30 46 H -7.975652 1.172190 0.634367 0
M  V30 47 H -7.590534 -0.303839 -0.330533 0
M  V30 48 H -8.585913 1.687742 -1.530247 0
M  V30 49 H -7.219411 0.916469 -2.328202 0
M  V30 50 H -6.779134 3.167887 -2.515147 0
M  V30 51 H -7.543477 3.611586 -0.977533 0
M  V30 52 H -5.626435 3.251233 0.265892 0
M  V30 53 H -4.846674 3.521725 -1.399217 0
M  V30 54 H -1.117998 -0.514517 -3.163086 0
M  V30 55 H 1.249951 -0.853339 -2.963496 0
M  V30 56 H 3.923271 -4.734318 -2.294590 0
M  V30 57 H 4.514429 -6.821195 -1.254261 0
M  V30 58 H 4.766363 -7.017567 1.196562 0
M  V30 59 H 4.385790 -4.944424 2.574202 0
M  V30 60 H 2.802262 -4.113768 4.104521 0
M  V30 END ATOM
M  V30 BEGIN BOND
M  V30 1 1 1 2
M  V30 2 1 2 3
M  V30 3 2 3 4
M  V30 4 1 4 5
M  V30 5 2 5 6
M  V30 6 1 6 7
M  V30 7 1 7 8
M  V30 8 1 8 9
M  V30 9 2 9 10
M  V30 10 1 10 11
M  V30 11 2 11 12
M  V30 12 1 12 13
M  V30 13 2 13 14
M  V30 14 1 13 15
M  V30 15 1 15 16
M  V30 16 1 16 17
M  V30 17 1 17 18
M  V30 18 1 18 19
M  V30 19 1 19 20
M  V30 20 1 20 21
M  V30 21 1 12 22
M  V30 22 2 22 23
M  V30 23 1 7 24
M  V30 24 2 24 25
M  V30 25 1 24 26
M  V30 26 2 26 27
M  V30 27 1 27 28
M  V30 28 2 28 29
M  V30 29 1 29 30
M  V30 30 2 30 31
M  V30 31 1 4 32
M  V30 32 2 32 33
M  V30 33 1 33 2
M  V30 34 1 31 5
M  V30 35 1 23 9
M  V30 36 1 31 26
M  V30 37 1 21 16
M  V30 38 1 1 34
M  V30 39 1 1 35
M  V30 40 1 1 36
M  V30 41 1 3 37
M  V30 42 1 8 38
M  V30 43 1 8 39
M  V30 44 1 10 40
M  V30 45 1 11 41
M  V30 46 1 15 42
M  V30 47 1 16 43
M  V30 48 1 17 44
M  V30 49 1 17 45
M  V30 50 1 18 46
M  V30 51 1 18 47
M  V30 52 1 19 48
M  V30 53 1 19 49
M  V30 54 1 20 50
M  V30 55 1 20 51
M  V30 56 1 21 52
M  V30 57 1 21 53
M  V30 58 1 22 54
M  V30 59 1 23 55
M  V30 60 1 27 56
M  V30 61 1 28 57
M  V30 62 1 29 58
M  V30 63 1 30 59
M  V30 64 1 32 60
M  V30 END BOND
M  V30 END CTAB
M  END
>  <Dataset>  (126) 
ChEMBL_Kinases

>  <Ligand_Instance>  (126) 
nan

>  <PDB_ID>  (126) 
nan

>  <Standardized_SMILES>  (126) 
Cn1cc(-c2nn(Cc3ccc(C(=O)NC4CCCCC4)cc3)c(=O)c3ccccc23)cn1

>  <Name>  (126) 
nan

>  <Pocket>  (126) 
nan

>  <ATP_Site>  (126) 
nan

>  <Peripheral>  (126) 
nan

>  <Num_H_Atoms_ProtBoundConf>  (126) 
nan

>  <Num_Resolved_Atoms>  (126) 
nan

>  <Num_Not_Resolved_Atoms>  (126) 
nan

$$$$
CHEMBL4225489
     RDKit          3D

  0  0  0  0  0  0  0  0  0  0999 V3000
M  V30 BEGIN CTAB
M  V30 COUNTS 70 73 0 0 0
M  V30 BEGIN ATOM
M  V30 1 C 4.388790 -5.288206 2.468081 0
M  V30 2 C 3.894178 -4.093284 3.146272 0
M  V30 3 C 3.491618 -3.080210 3.701943 0
M  V30 4 C 3.032194 -1.859281 4.377245 0
M  V30 5 N 1.611828 -1.669085 4.146410 0
M  V30 6 C 0.591086 -2.211393 5.020862 0
M  V30 7 C 0.203555 -1.269173 6.136156 0
M  V30 8 C -0.870948 -2.002324 6.943768 0
M  V30 9 C -1.373685 -1.198036 8.103770 0
M  V30 10 C 1.027062 -0.956482 3.075735 0
M  V30 11 O -0.178012 -0.732617 2.791141 0
M  V30 12 C 1.115838 -0.154507 1.832205 0
M  V30 13 C -0.236041 0.215241 1.337722 0
M  V30 14 C -0.689179 -0.506659 0.262015 0
M  V30 15 C -1.923347 -0.281296 -0.308632 0
M  V30 16 C -2.658781 -0.884845 -1.455262 0
M  V30 17 N -3.974108 -1.242227 -0.880495 0
M  V30 18 C -5.284843 -0.806051 -1.202321 0
M  V30 19 O -6.246874 -1.236831 -0.542599 0
M  V30 20 N -5.300224 0.105473 -2.287952 0
M  V30 21 C -4.092360 0.520014 -2.958940 0
M  V30 22 C -4.312462 1.473522 -4.076717 0
M  V30 23 C -2.904240 0.045402 -2.554609 0
M  V30 24 C -1.838141 0.582062 -3.390635 0
M  V30 25 O -1.855888 1.378293 -4.363489 0
M  V30 26 N -0.475573 0.252771 -3.220626 0
M  V30 27 C 0.703669 0.651847 -3.904397 0
M  V30 28 C 1.511920 1.730969 -3.606819 0
M  V30 29 C 2.632883 1.985831 -4.373302 0
M  V30 30 C 2.926903 1.135957 -5.444881 0
M  V30 31 N 3.931911 1.137442 -6.347130 0
M  V30 32 N 3.781356 0.123042 -7.174745 0
M  V30 33 C 2.675811 -0.590070 -6.857598 0
M  V30 34 C 2.123584 0.056821 -5.746898 0
M  V30 35 C 1.003892 -0.192668 -4.976536 0
M  V30 36 C -2.661613 0.734416 0.298442 0
M  V30 37 C -2.221181 1.474405 1.385265 0
M  V30 38 C -0.977859 1.211909 1.921830 0
M  V30 39 F -0.431976 1.850077 2.968053 0
M  V30 40 H 4.812203 -5.956008 3.245019 0
M  V30 41 H 3.590268 -5.813670 1.903551 0
M  V30 42 H 5.184322 -5.043107 1.726447 0
M  V30 43 H 3.605487 -1.024437 3.885938 0
M  V30 44 H 3.270681 -1.869020 5.455376 0
M  V30 45 H 0.935003 -3.151872 5.514034 0
M  V30 46 H -0.343242 -2.502332 4.498616 0
M  V30 47 H 1.072561 -1.135690 6.827890 0
M  V30 48 H -0.133409 -0.294182 5.785287 0
M  V30 49 H -0.446112 -2.982660 7.249846 0
M  V30 50 H -1.752839 -2.208639 6.273346 0
M  V30 51 H -0.899610 -0.217171 8.230009 0
M  V30 52 H -1.229457 -1.779553 9.041397 0
M  V30 53 H -2.477365 -0.982066 8.023857 0
M  V30 54 H 1.706416 -0.703539 1.088603 0
M  V30 55 H 1.672846 0.792354 2.059418 0
M  V30 56 H -0.188542 -1.323191 -0.283554 0
M  V30 57 H -2.169751 -1.828653 -1.703279 0
M  V30 58 H -3.863754 -1.938908 -0.106359 0
M  V30 59 H -6.241726 0.461490 -2.575077 0
M  V30 60 H -3.835926 2.462876 -3.919221 0
M  V30 61 H -5.391498 1.704369 -4.214189 0
M  V30 62 H -4.016575 0.977070 -5.032457 0
M  V30 63 H -0.144519 -0.412163 -2.490008 0
M  V30 64 H 1.205755 2.327324 -2.765302 0
M  V30 65 H 3.258010 2.815938 -4.147188 0
M  V30 66 H 4.731284 1.805914 -6.431266 0
M  V30 67 H 2.267395 -1.482075 -7.336967 0
M  V30 68 H 0.414965 -1.056021 -5.266748 0
M  V30 69 H -3.667525 1.056839 -0.016852 0
M  V30 70 H -2.784318 2.256213 1.856007 0
M  V30 END ATOM
M  V30 BEGIN BOND
M  V30 1 1 1 2
M  V30 2 3 2 3
M  V30 3 1 3 4
M  V30 4 1 4 5
M  V30 5 1 5 6
M  V30 6 1 6 7
M  V30 7 1 7 8
M  V30 8 1 8 9
M  V30 9 1 5 10
M  V30 10 2 10 11
M  V30 11 1 10 12
M  V30 12 1 12 13
M  V30 13 2 13 14
M  V30 14 1 14 15
M  V30 15 1 15 16
M  V30 16 1 16 17
M  V30 17 1 17 18
M  V30 18 2 18 19
M  V30 19 1 18 20
M  V30 20 1 20 21
M  V30 21 1 21 22
M  V30 22 2 21 23
M  V30 23 1 23 24
M  V30 24 2 24 25
M  V30 25 1 24 26
M  V30 26 1 26 27
M  V30 27 2 27 28
M  V30 28 1 28 29
M  V30 29 2 29 30
M  V30 30 1 30 31
M  V30 31 1 31 32
M  V30 32 2 32 33
M  V30 33 1 33 34
M  V30 34 2 34 35
M  V30 35 2 15 36
M  V30 36 1 36 37
M  V30 37 2 37 38
M  V30 38 1 38 39
M  V30 39 1 38 13
M  V30 40 1 23 16
M  V30 41 1 35 27
M  V30 42 1 34 30
M  V30 43 1 1 40
M  V30 44 1 1 41
M  V30 45 1 1 42
M  V30 46 1 4 43
M  V30 47 1 4 44
M  V30 48 1 6 45
M  V30 49 1 6 46
M  V30 50 1 7 47
M  V30 51 1 7 48
M  V30 52 1 8 49
M  V30 53 1 8 50
M  V30 54 1 9 51
M  V30 55 1 9 52
M  V30 56 1 9 53
M  V30 57 1 12 54
M  V30 58 1 12 55
M  V30 59 1 14 56
M  V30 60 1 16 57
M  V30 61 1 17 58
M  V30 62 1 20 59
M  V30 63 1 22 60
M  V30 64 1 22 61
M  V30 65 1 22 62
M  V30 66 1 26 63
M  V30 67 1 28 64
M  V30 68 1 29 65
M  V30 69 1 31 66
M  V30 70 1 33 67
M  V30 71 1 35 68
M  V30 72 1 36 69
M  V30 73 1 37 70
M  V30 END BOND
M  V30 END CTAB
M  END
>  <Dataset>  (127) 
ChEMBL_Kinases

>  <Ligand_Instance>  (127) 
nan

>  <PDB_ID>  (127) 
nan

>  <Standardized_SMILES>  (127) 
CC#CCN(CCCC)C(=O)Cc1cc(C2NC(=O)NC(C)=C2C(=O)Nc2ccc3[nH]ncc3c2)ccc1F

>  <Name>  (127) 
nan

>  <Pocket>  (127) 
nan

>  <ATP_Site>  (127) 
nan

>  <Peripheral>  (127) 
nan

>  <Num_H_Atoms_ProtBoundConf>  (127) 
nan

>  <Num_Resolved_Atoms>  (127) 
nan

>  <Num_Not_Resolved_Atoms>  (127) 
nan

$$$$
CHEMBL4225427
     RDKit          3D

  0  0  0  0  0  0  0  0  0  0999 V3000
M  V30 BEGIN CTAB
M  V30 COUNTS 62 66 0 0 0
M  V30 BEGIN ATOM
M  V30 1 C 4.174065 0.457032 7.301642 0
M  V30 2 O 4.382659 1.696317 7.854513 0
M  V30 3 C 3.187947 2.360513 8.110066 0
M  V30 4 C 2.449115 2.535718 6.850445 0
M  V30 5 N 2.529361 3.565739 5.985161 0
M  V30 6 O 1.720805 3.336730 5.013360 0
M  V30 7 C 1.094248 2.200371 5.175843 0
M  V30 8 C 0.076397 1.453556 4.390219 0
M  V30 9 N 0.810490 0.579180 3.478770 0
M  V30 10 C -0.104913 -0.155078 2.706080 0
M  V30 11 O -1.295615 0.174068 3.044703 0
M  V30 12 C 0.152012 -1.145968 1.670433 0
M  V30 13 C -0.967178 -1.710221 1.072372 0
M  V30 14 C -0.863118 -2.650580 0.088409 0
M  V30 15 C -2.144286 -3.211072 -0.485240 0
M  V30 16 N -2.898247 -3.639032 0.659752 0
M  V30 17 C -4.147198 -3.255446 1.200835 0
M  V30 18 O -4.636301 -3.761949 2.237069 0
M  V30 19 N -4.739701 -2.239783 0.411011 0
M  V30 20 C -4.074277 -1.754472 -0.741970 0
M  V30 21 C -4.761536 -0.691348 -1.511992 0
M  V30 22 C -2.910414 -2.141934 -1.205624 0
M  V30 23 C -2.163096 -1.718711 -2.362342 0
M  V30 24 O -1.018517 -2.208055 -2.679089 0
M  V30 25 N -2.184544 -0.840213 -3.468649 0
M  V30 26 C -1.067562 -0.871333 -4.348286 0
M  V30 27 C -1.233465 -1.784970 -5.383484 0
M  V30 28 C -0.280782 -1.978621 -6.346083 0
M  V30 29 C 0.882238 -1.221391 -6.259538 0
M  V30 30 N 2.013364 -1.125314 -6.988325 0
M  V30 31 N 2.842351 -0.238585 -6.485882 0
M  V30 32 C 2.301802 0.310004 -5.382741 0
M  V30 33 C 1.080882 -0.297397 -5.235702 0
M  V30 34 C 0.097433 -0.129764 -4.283086 0
M  V30 35 C 0.351947 -3.103868 -0.377806 0
M  V30 36 C 1.477912 -2.558684 0.200055 0
M  V30 37 C 1.354717 -1.611799 1.190442 0
M  V30 38 F 2.452441 -1.074878 1.759250 0
M  V30 39 N 1.531445 1.677045 6.319219 0
M  V30 40 H 3.631859 0.580148 6.346157 0
M  V30 41 H 5.097385 -0.096469 7.080064 0
M  V30 42 H 3.525582 -0.156842 7.978144 0
M  V30 43 H 2.620492 1.807478 8.884805 0
M  V30 44 H 3.492816 3.377520 8.470400 0
M  V30 45 H -0.498541 2.208634 3.788089 0
M  V30 46 H -0.647156 0.931983 5.015562 0
M  V30 47 H 1.823377 0.410598 3.307260 0
M  V30 48 H -1.957339 -1.404087 1.386288 0
M  V30 49 H -1.949904 -4.059513 -1.132380 0
M  V30 50 H -2.335249 -4.384014 1.126740 0
M  V30 51 H -5.669228 -1.859989 0.694159 0
M  V30 52 H -5.705838 -0.404370 -0.971319 0
M  V30 53 H -4.974795 -1.071602 -2.508753 0
M  V30 54 H -4.161133 0.236691 -1.550292 0
M  V30 55 H -3.068938 -0.288595 -3.448647 0
M  V30 56 H -2.112925 -2.413793 -5.520155 0
M  V30 57 H -0.380487 -2.680025 -7.161850 0
M  V30 58 H 2.201926 -1.691704 -7.849213 0
M  V30 59 H 2.694898 1.057319 -4.729475 0
M  V30 60 H 0.139525 0.540981 -3.462919 0
M  V30 61 H 0.474894 -3.842473 -1.138579 0
M  V30 62 H 2.484716 -2.845924 -0.094187 0
M  V30 END ATOM
M  V30 BEGIN BOND
M  V30 1 1 1 2
M  V30 2 1 2 3
M  V30 3 1 3 4
M  V30 4 2 4 5
M  V30 5 1 5 6
M  V30 6 1 6 7
M  V30 7 1 7 8
M  V30 8 1 8 9
M  V30 9 1 9 10
M  V30 10 2 10 11
M  V30 11 1 10 12
M  V30 12 2 12 13
M  V30 13 1 13 14
M  V30 14 1 14 15
M  V30 15 1 15 16
M  V30 16 1 16 17
M  V30 17 2 17 18
M  V30 18 1 17 19
M  V30 19 1 19 20
M  V30 20 1 20 21
M  V30 21 2 20 22
M  V30 22 1 22 23
M  V30 23 2 23 24
M  V30 24 1 23 25
M  V30 25 1 25 26
M  V30 26 2 26 27
M  V30 27 1 27 28
M  V30 28 2 28 29
M  V30 29 1 29 30
M  V30 30 1 30 31
M  V30 31 2 31 32
M  V30 32 1 32 33
M  V30 33 2 33 34
M  V30 34 2 14 35
M  V30 35 1 35 36
M  V30 36 2 36 37
M  V30 37 1 37 38
M  V30 38 2 7 39
M  V30 39 1 39 4
M  V30 40 1 37 12
M  V30 41 1 22 15
M  V30 42 1 34 26
M  V30 43 1 33 29
M  V30 44 1 1 40
M  V30 45 1 1 41
M  V30 46 1 1 42
M  V30 47 1 3 43
M  V30 48 1 3 44
M  V30 49 1 8 45
M  V30 50 1 8 46
M  V30 51 1 9 47
M  V30 52 1 13 48
M  V30 53 1 15 49
M  V30 54 1 16 50
M  V30 55 1 19 51
M  V30 56 1 21 52
M  V30 57 1 21 53
M  V30 58 1 21 54
M  V30 59 1 25 55
M  V30 60 1 27 56
M  V30 61 1 28 57
M  V30 62 1 30 58
M  V30 63 1 32 59
M  V30 64 1 34 60
M  V30 65 1 35 61
M  V30 66 1 36 62
M  V30 END BOND
M  V30 END CTAB
M  END
>  <Dataset>  (128) 
ChEMBL_Kinases

>  <Ligand_Instance>  (128) 
nan

>  <PDB_ID>  (128) 
nan

>  <Standardized_SMILES>  (128) 
COCc1noc(CNC(=O)c2cc(C3NC(=O)NC(C)=C3C(=O)Nc3ccc4[nH]ncc4c3)ccc2F)n1

>  <Name>  (128) 
nan

>  <Pocket>  (128) 
nan

>  <ATP_Site>  (128) 
nan

>  <Peripheral>  (128) 
nan

>  <Num_H_Atoms_ProtBoundConf>  (128) 
nan

>  <Num_Resolved_Atoms>  (128) 
nan

>  <Num_Not_Resolved_Atoms>  (128) 
nan

$$$$
CHEMBL4225330
     RDKit          3D

  0  0  0  0  0  0  0  0  0  0999 V3000
M  V30 BEGIN CTAB
M  V30 COUNTS 50 53 0 0 0
M  V30 BEGIN ATOM
M  V30 1 C -2.028426 -3.185301 -0.233274 0
M  V30 2 C -0.562877 -3.371594 -0.431259 0
M  V30 3 C 0.320412 -2.303348 -0.468495 0
M  V30 4 C 1.675992 -2.468209 -0.651126 0
M  V30 5 C 2.492998 -1.264616 -0.670533 0
M  V30 6 C 3.860505 -1.252261 -0.842267 0
M  V30 7 N 4.621147 -0.153505 -0.861847 0
M  V30 8 C 3.985241 1.029015 -0.699357 0
M  V30 9 C 2.598234 1.085995 -0.520337 0
M  V30 10 N 1.965645 2.355021 -0.352241 0
M  V30 11 N 2.415886 3.482879 -0.849411 0
M  V30 12 C 1.606252 4.519236 -0.524981 0
M  V30 13 C 0.613662 3.921434 0.220014 0
M  V30 14 C -0.502701 4.445997 0.835476 0
M  V30 15 C -1.355791 3.625613 1.532811 0
M  V30 16 C -1.171455 2.266289 1.667758 0
M  V30 17 N -2.059572 1.425119 2.389515 0
M  V30 18 C -1.875003 -0.005312 2.542377 0
M  V30 19 C -0.582489 -0.314995 3.249224 0
M  V30 20 C -3.052810 -0.563348 3.325795 0
M  V30 21 C -0.045443 1.779279 1.039117 0
M  V30 22 C 0.823404 2.562184 0.338714 0
M  V30 23 N 1.901822 -0.067038 -0.512623 0
M  V30 24 C 2.167717 -3.726213 -0.800719 0
M  V30 25 C 1.340457 -4.832036 -0.773199 0
M  V30 26 C -0.013795 -4.628541 -0.588030 0
M  V30 27 C -0.895440 -5.794594 -0.557857 0
M  V30 28 O -2.119710 -5.718099 -0.398073 0
M  V30 29 O -0.402234 -7.075297 -0.709128 0
M  V30 30 H -2.417772 -3.661652 0.671734 0
M  V30 31 H -2.205545 -2.079838 -0.197751 0
M  V30 32 H -2.628598 -3.542399 -1.090610 0
M  V30 33 H -0.129141 -1.326808 -0.343836 0
M  V30 34 H 4.373234 -2.194359 -0.972519 0
M  V30 35 H 4.532863 1.961969 -0.703686 0
M  V30 36 H 1.698004 5.575395 -0.779869 0
M  V30 37 H -0.722925 5.515807 0.777281 0
M  V30 38 H -2.228628 4.099464 2.002050 0
M  V30 39 H -2.896718 1.910539 2.828669 0
M  V30 40 H -1.852753 -0.432377 1.515816 0
M  V30 41 H -0.765699 -0.788795 4.253176 0
M  V30 42 H 0.032322 0.598713 3.451264 0
M  V30 43 H -0.011208 -1.044341 2.641204 0
M  V30 44 H -2.680874 -0.878033 4.314250 0
M  V30 45 H -3.875564 0.183447 3.433963 0
M  V30 46 H -3.409693 -1.450120 2.794355 0
M  V30 47 H 0.209515 0.749394 1.066619 0
M  V30 48 H 3.227141 -3.879960 -0.945203 0
M  V30 49 H 1.781177 -5.825797 -0.897995 0
M  V30 50 H -0.849242 -7.905440 -0.345691 0
M  V30 END ATOM
M  V30 BEGIN BOND
M  V30 1 1 1 2
M  V30 2 2 2 3
M  V30 3 1 3 4
M  V30 4 1 4 5
M  V30 5 2 5 6
M  V30 6 1 6 7
M  V30 7 2 7 8
M  V30 8 1 8 9
M  V30 9 1 9 10
M  V30 10 1 10 11
M  V30 11 2 11 12
M  V30 12 1 12 13
M  V30 13 2 13 14
M  V30 14 1 14 15
M  V30 15 2 15 16
M  V30 16 1 16 17
M  V30 17 1 17 18
M  V30 18 1 18 19
M  V30 19 1 18 20
M  V30 20 1 16 21
M  V30 21 2 21 22
M  V30 22 2 9 23
M  V30 23 2 4 24
M  V30 24 1 24 25
M  V30 25 2 25 26
M  V30 26 1 26 27
M  V30 27 2 27 28
M  V30 28 1 27 29
M  V30 29 1 26 2
M  V30 30 1 23 5
M  V30 31 1 22 10
M  V30 32 1 22 13
M  V30 33 1 1 30
M  V30 34 1 1 31
M  V30 35 1 1 32
M  V30 36 1 3 33
M  V30 37 1 6 34
M  V30 38 1 8 35
M  V30 39 1 12 36
M  V30 40 1 14 37
M  V30 41 1 15 38
M  V30 42 1 17 39
M  V30 43 1 18 40
M  V30 44 1 19 41
M  V30 45 1 19 42
M  V30 46 1 19 43
M  V30 47 1 20 44
M  V30 48 1 20 45
M  V30 49 1 20 46
M  V30 50 1 21 47
M  V30 51 1 24 48
M  V30 52 1 25 49
M  V30 53 1 29 50
M  V30 END BOND
M  V30 END CTAB
M  END
>  <Dataset>  (129) 
ChEMBL_Kinases

>  <Ligand_Instance>  (129) 
nan

>  <PDB_ID>  (129) 
nan

>  <Standardized_SMILES>  (129) 
Cc1cc(-c2cncc(-n3ncc4ccc(NC(C)C)cc43)n2)ccc1C(=O)O

>  <Name>  (129) 
nan

>  <Pocket>  (129) 
nan

>  <ATP_Site>  (129) 
nan

>  <Peripheral>  (129) 
nan

>  <Num_H_Atoms_ProtBoundConf>  (129) 
nan

>  <Num_Resolved_Atoms>  (129) 
nan

>  <Num_Not_Resolved_Atoms>  (129) 
nan

$$$$
CHEMBL4227138
     RDKit          3D

  0  0  0  0  0  0  0  0  0  0999 V3000
M  V30 BEGIN CTAB
M  V30 COUNTS 63 68 0 0 0
M  V30 BEGIN ATOM
M  V30 1 C 1.816459 1.645853 5.131559 0
M  V30 2 C 1.425470 0.211774 5.044639 0
M  V30 3 C 1.243669 -0.482191 3.894783 0
M  V30 4 C 1.502843 0.410442 2.756537 0
M  V30 5 O 1.832881 1.622740 2.704095 0
M  V30 6 N 1.426264 0.044093 1.362980 0
M  V30 7 C 1.728635 1.128479 0.491936 0
M  V30 8 C 0.590285 1.872894 0.157342 0
M  V30 9 C 0.661520 2.971251 -0.679603 0
M  V30 10 C 1.889340 3.345312 -1.200822 0
M  V30 11 N 2.326096 4.322931 -2.017873 0
M  V30 12 N 3.649855 4.201644 -2.186454 0
M  V30 13 C 4.097129 3.142762 -1.480735 0
M  V30 14 C 3.003484 2.608539 -0.866917 0
M  V30 15 C 2.954493 1.518555 -0.040270 0
M  V30 16 C 0.814187 -1.869749 3.742377 0
M  V30 17 C -0.482296 -2.118482 3.105165 0
M  V30 18 C -1.516426 -1.678168 3.919107 0
M  V30 19 C -2.858182 -1.818224 3.546210 0
M  V30 20 C -3.103442 -2.414727 2.329851 0
M  V30 21 F -4.367503 -2.590213 1.895126 0
M  V30 22 C -2.136449 -2.865908 1.489170 0
M  V30 23 C -2.228376 -3.497602 0.185566 0
M  V30 24 O -1.223720 -3.977890 -0.444949 0
M  V30 25 N -3.383813 -3.687462 -0.588144 0
M  V30 26 C -3.469379 -4.317048 -1.888728 0
M  V30 27 C -2.958344 -3.371741 -2.909537 0
M  V30 28 C -1.649909 -3.270456 -3.392072 0
M  V30 29 N -1.562792 -2.273574 -4.323626 0
M  V30 30 C -0.527681 -1.813881 -5.048894 0
M  V30 31 C -0.691930 -0.776249 -5.941740 0
M  V30 32 C -1.931495 -0.218521 -6.078720 0
M  V30 33 C -2.967311 -0.710539 -5.323797 0
M  V30 34 C -2.801562 -1.758764 -4.422033 0
M  V30 35 N -3.641381 -2.418088 -3.572579 0
M  V30 36 C -0.849126 -2.697071 1.917728 0
M  V30 37 N 0.831847 -2.467881 5.097875 0
M  V30 38 C 0.985647 -1.867271 6.378965 0
M  V30 39 O 0.839443 -2.591405 7.385124 0
M  V30 40 N 1.290732 -0.491479 6.281254 0
M  V30 41 H 1.039856 2.333677 4.730258 0
M  V30 42 H 1.875557 1.928300 6.219394 0
M  V30 43 H 2.837243 1.840383 4.752859 0
M  V30 44 H 1.178637 -0.925598 1.118759 0
M  V30 45 H -0.422491 1.646417 0.525700 0
M  V30 46 H -0.193376 3.567796 -0.957486 0
M  V30 47 H 1.698780 5.049834 -2.440126 0
M  V30 48 H 5.125216 2.830702 -1.447669 0
M  V30 49 H 3.765945 0.880273 0.278628 0
M  V30 50 H 1.578696 -2.429229 3.181221 0
M  V30 51 H -1.436648 -1.190431 4.905828 0
M  V30 52 H -3.703864 -1.496676 4.135238 0
M  V30 53 H -4.287032 -3.343644 -0.203521 0
M  V30 54 H -2.808087 -5.224901 -1.880139 0
M  V30 55 H -4.481984 -4.670944 -2.119734 0
M  V30 56 H -0.799041 -3.844473 -3.128952 0
M  V30 57 H 0.463621 -2.261519 -4.939600 0
M  V30 58 H 0.193010 -0.452508 -6.499337 0
M  V30 59 H -2.045461 0.600859 -6.787697 0
M  V30 60 H -3.960146 -0.250495 -5.445346 0
M  V30 61 H 0.046882 -3.011060 1.355190 0
M  V30 62 H 0.703072 -3.508658 5.045963 0
M  V30 63 H 1.416992 -0.003359 7.210966 0
M  V30 END ATOM
M  V30 BEGIN BOND
M  V30 1 1 1 2
M  V30 2 2 2 3
M  V30 3 1 3 4
M  V30 4 2 4 5
M  V30 5 1 4 6
M  V30 6 1 6 7
M  V30 7 2 7 8
M  V30 8 1 8 9
M  V30 9 2 9 10
M  V30 10 1 10 11
M  V30 11 1 11 12
M  V30 12 2 12 13
M  V30 13 1 13 14
M  V30 14 2 14 15
M  V30 15 1 3 16
M  V30 16 1 16 17
M  V30 17 2 17 18
M  V30 18 1 18 19
M  V30 19 2 19 20
M  V30 20 1 20 21
M  V30 21 1 20 22
M  V30 22 1 22 23
M  V30 23 2 23 24
M  V30 24 1 23 25
M  V30 25 1 25 26
M  V30 26 1 26 27
M  V30 27 2 27 28
M  V30 28 1 28 29
M  V30 29 1 29 30
M  V30 30 2 30 31
M  V30 31 1 31 32
M  V30 32 2 32 33
M  V30 33 1 33 34
M  V30 34 2 34 35
M  V30 35 2 22 36
M  V30 36 1 16 37
M  V30 37 1 37 38
M  V30 38 2 38 39
M  V30 39 1 38 40
M  V30 40 1 40 2
M  V30 41 1 15 7
M  V30 42 1 36 17
M  V30 43 1 14 10
M  V30 44 1 35 27
M  V30 45 1 34 29
M  V30 46 1 1 41
M  V30 47 1 1 42
M  V30 48 1 1 43
M  V30 49 1 6 44
M  V30 50 1 8 45
M  V30 51 1 9 46
M  V30 52 1 11 47
M  V30 53 1 13 48
M  V30 54 1 15 49
M  V30 55 1 16 50
M  V30 56 1 18 51
M  V30 57 1 19 52
M  V30 58 1 25 53
M  V30 59 1 26 54
M  V30 60 1 26 55
M  V30 61 1 28 56
M  V30 62 1 30 57
M  V30 63 1 31 58
M  V30 64 1 32 59
M  V30 65 1 33 60
M  V30 66 1 36 61
M  V30 67 1 37 62
M  V30 68 1 40 63
M  V30 END BOND
M  V30 END CTAB
M  END
>  <Dataset>  (130) 
ChEMBL_Kinases

>  <Ligand_Instance>  (130) 
nan

>  <PDB_ID>  (130) 
nan

>  <Standardized_SMILES>  (130) 
CC1=C(C(=O)Nc2ccc3[nH]ncc3c2)C(c2ccc(F)c(C(=O)NCc3cn4ccccc4n3)c2)NC(=O)N1

>  <Name>  (130) 
nan

>  <Pocket>  (130) 
nan

>  <ATP_Site>  (130) 
nan

>  <Peripheral>  (130) 
nan

>  <Num_H_Atoms_ProtBoundConf>  (130) 
nan

>  <Num_Resolved_Atoms>  (130) 
nan

>  <Num_Not_Resolved_Atoms>  (130) 
nan

$$$$
CHEMBL3218277
     RDKit          3D

  0  0  0  0  0  0  0  0  0  0999 V3000
M  V30 BEGIN CTAB
M  V30 COUNTS 39 41 0 0 0
M  V30 BEGIN ATOM
M  V30 1 C -2.023186 -3.102887 -0.323874 0
M  V30 2 C -0.975656 -3.075766 0.779508 0 CFG=1
M  V30 3 N -0.931412 -1.721807 1.304323 0
M  V30 4 C 0.085039 -0.756550 1.235690 0
M  V30 5 O 1.116071 -1.166243 0.607339 0
M  V30 6 N -0.125397 0.498101 1.835063 0
M  V30 7 C 1.120963 1.375230 1.627599 0
M  V30 8 N 1.239365 2.047129 0.727708 0
M  V30 9 C 2.212515 2.871264 0.357433 0
M  V30 10 C 2.295792 3.712546 -0.826885 0
M  V30 11 C 3.366249 4.533390 -1.106017 0
M  V30 12 C 3.405035 5.315631 -2.241472 0
M  V30 13 N 2.401121 5.298342 -3.105080 0
M  V30 14 C 1.339164 4.525688 -2.890483 0
M  V30 15 C 1.282944 3.737729 -1.761922 0
M  V30 16 C 3.266953 2.860082 1.308348 0
M  V30 17 S 2.640624 1.623010 2.603421 0
M  V30 18 C -1.327788 -4.067783 1.797934 0
M  V30 19 C -2.214464 -5.124005 1.737876 0
M  V30 20 C -2.406370 -5.955612 2.822551 0
M  V30 21 C -1.709874 -5.752282 4.009884 0
M  V30 22 C -0.816119 -4.704017 4.100257 0
M  V30 23 C -0.640411 -3.884658 3.001658 0
M  V30 24 H -2.111183 -4.073491 -0.809731 0
M  V30 25 H -3.035912 -2.842979 0.072803 0
M  V30 26 H -1.766415 -2.375385 -1.133665 0
M  V30 27 H -0.014310 -3.324784 0.247222 0
M  V30 28 H -1.837591 -1.506651 1.798270 0
M  V30 29 H -0.979386 0.799941 2.340432 0
M  V30 30 H 4.200836 4.568405 -0.418939 0
M  V30 31 H 4.280134 5.938462 -2.397566 0
M  V30 32 H 0.519828 4.516279 -3.602333 0
M  V30 33 H 0.399036 3.126335 -1.630736 0
M  V30 34 H 4.298830 3.481300 1.293548 0
M  V30 35 H -2.709452 -5.205119 0.778678 0
M  V30 36 H -3.130828 -6.726332 2.605533 0
M  V30 37 H -1.930463 -6.454837 4.795511 0
M  V30 38 H -0.289760 -4.566742 5.027381 0
M  V30 39 H 0.092444 -3.081735 3.178847 0
M  V30 END ATOM
M  V30 BEGIN BOND
M  V30 1 1 1 2
M  V30 2 1 2 3
M  V30 3 1 3 4
M  V30 4 2 4 5
M  V30 5 1 4 6
M  V30 6 1 6 7
M  V30 7 2 7 8
M  V30 8 1 8 9
M  V30 9 1 9 10
M  V30 10 2 10 11
M  V30 11 1 11 12
M  V30 12 2 12 13
M  V30 13 1 13 14
M  V30 14 2 14 15
M  V30 15 2 9 16
M  V30 16 1 16 17
M  V30 17 1 2 18
M  V30 18 2 18 19
M  V30 19 1 19 20
M  V30 20 2 20 21
M  V30 21 1 21 22
M  V30 22 2 22 23
M  V30 23 1 17 7
M  V30 24 1 23 18
M  V30 25 1 15 10
M  V30 26 1 1 24
M  V30 27 1 1 25
M  V30 28 1 1 26
M  V30 29 1 2 27 CFG=3
M  V30 30 1 3 28
M  V30 31 1 6 29
M  V30 32 1 11 30
M  V30 33 1 12 31
M  V30 34 1 14 32
M  V30 35 1 15 33
M  V30 36 1 16 34
M  V30 37 1 19 35
M  V30 38 1 20 36
M  V30 39 1 21 37
M  V30 40 1 22 38
M  V30 41 1 23 39
M  V30 END BOND
M  V30 END CTAB
M  END
>  <Dataset>  (131) 
ChEMBL_Kinases

>  <Ligand_Instance>  (131) 
nan

>  <PDB_ID>  (131) 
nan

>  <Standardized_SMILES>  (131) 
C[C@@H](NC(=O)Nc1nc(-c2ccncc2)cs1)c1ccccc1

>  <Name>  (131) 
nan

>  <Pocket>  (131) 
nan

>  <ATP_Site>  (131) 
nan

>  <Peripheral>  (131) 
nan

>  <Num_H_Atoms_ProtBoundConf>  (131) 
nan

>  <Num_Resolved_Atoms>  (131) 
nan

>  <Num_Not_Resolved_Atoms>  (131) 
nan

$$$$
CHEMBL3218278
     RDKit          3D

  0  0  0  0  0  0  0  0  0  0999 V3000
M  V30 BEGIN CTAB
M  V30 COUNTS 40 42 0 0 0
M  V30 BEGIN ATOM
M  V30 1 O 0.268927 -0.099810 0.241482 0
M  V30 2 C 0.193102 0.580128 1.295249 0
M  V30 3 N 1.267652 1.060106 2.053517 0
M  V30 4 C 2.578810 0.653912 1.440418 0
M  V30 5 N 2.856167 0.042438 0.496855 0
M  V30 6 C 4.082290 -0.234565 0.082153 0
M  V30 7 C 4.347585 -1.014948 -1.123057 0
M  V30 8 C 3.380836 -1.543326 -1.952084 0
M  V30 9 C 3.651677 -2.273894 -3.080244 0
M  V30 10 N 4.924303 -2.510005 -3.431502 0
M  V30 11 C 5.936876 -2.035918 -2.686010 0
M  V30 12 C 5.621108 -1.308373 -1.563026 0
M  V30 13 C 5.140823 0.261530 0.862601 0
M  V30 14 S 4.156766 1.145580 2.220057 0
M  V30 15 N -1.097684 0.923506 1.811388 0
M  V30 16 C -2.304168 0.503018 1.143467 0 CFG=2
M  V30 17 C -3.166349 1.615432 0.670695 0
M  V30 18 O -2.519113 2.438955 -0.234787 0
M  V30 19 C -3.084949 -0.455808 1.957432 0
M  V30 20 C -2.359957 -1.485645 2.567101 0
M  V30 21 C -2.914451 -2.469727 3.360775 0
M  V30 22 C -4.285340 -2.418234 3.556187 0
M  V30 23 C -5.030964 -1.407187 2.963381 0
M  V30 24 C -4.446206 -0.441010 2.177311 0
M  V30 25 H 1.302546 1.621842 2.925291 0
M  V30 26 H 2.326980 -1.362327 -1.683706 0
M  V30 27 H 2.846454 -2.670880 -3.704012 0
M  V30 28 H 6.962088 -2.223855 -2.965436 0
M  V30 29 H 6.478667 -0.941341 -0.985062 0
M  V30 30 H 6.181004 0.150258 0.702370 0
M  V30 31 H -1.228207 1.496318 2.698455 0
M  V30 32 H -1.975154 -0.080321 0.239504 0
M  V30 33 H -4.001213 1.140332 0.089503 0
M  V30 34 H -3.680121 2.156034 1.486067 0
M  V30 35 H -2.812089 2.337011 -1.163833 0
M  V30 36 H -1.277174 -1.544994 2.426034 0
M  V30 37 H -2.291880 -3.236783 3.800938 0
M  V30 38 H -4.754415 -3.188014 4.183031 0
M  V30 39 H -6.085663 -1.389748 3.129561 0
M  V30 40 H -4.986085 0.361867 1.697765 0
M  V30 END ATOM
M  V30 BEGIN BOND
M  V30 1 2 1 2
M  V30 2 1 2 3
M  V30 3 1 3 4
M  V30 4 2 4 5
M  V30 5 1 5 6
M  V30 6 1 6 7
M  V30 7 2 7 8
M  V30 8 1 8 9
M  V30 9 2 9 10
M  V30 10 1 10 11
M  V30 11 2 11 12
M  V30 12 2 6 13
M  V30 13 1 13 14
M  V30 14 1 2 15
M  V30 15 1 15 16
M  V30 16 1 16 17
M  V30 17 1 17 18
M  V30 18 1 16 19
M  V30 19 2 19 20
M  V30 20 1 20 21
M  V30 21 2 21 22
M  V30 22 1 22 23
M  V30 23 2 23 24
M  V30 24 1 14 4
M  V30 25 1 24 19
M  V30 26 1 12 7
M  V30 27 1 3 25
M  V30 28 1 8 26
M  V30 29 1 9 27
M  V30 30 1 11 28
M  V30 31 1 12 29
M  V30 32 1 13 30
M  V30 33 1 15 31
M  V30 34 1 16 32 CFG=3
M  V30 35 1 17 33
M  V30 36 1 17 34
M  V30 37 1 18 35
M  V30 38 1 20 36
M  V30 39 1 21 37
M  V30 40 1 22 38
M  V30 41 1 23 39
M  V30 42 1 24 40
M  V30 END BOND
M  V30 END CTAB
M  END
>  <Dataset>  (132) 
ChEMBL_Kinases

>  <Ligand_Instance>  (132) 
nan

>  <PDB_ID>  (132) 
nan

>  <Standardized_SMILES>  (132) 
O=C(Nc1nc(-c2ccncc2)cs1)N[C@H](CO)c1ccccc1

>  <Name>  (132) 
nan

>  <Pocket>  (132) 
nan

>  <ATP_Site>  (132) 
nan

>  <Peripheral>  (132) 
nan

>  <Num_H_Atoms_ProtBoundConf>  (132) 
nan

>  <Num_Resolved_Atoms>  (132) 
nan

>  <Num_Not_Resolved_Atoms>  (132) 
nan

$$$$
CHEMBL3218279
     RDKit          3D

  0  0  0  0  0  0  0  0  0  0999 V3000
M  V30 BEGIN CTAB
M  V30 COUNTS 42 44 0 0 0
M  V30 BEGIN ATOM
M  V30 1 C 0.691153 -4.847718 1.319147 0
M  V30 2 C 1.164373 -3.724347 2.214985 0
M  V30 3 C 0.136233 -2.626246 2.331694 0 CFG=1
M  V30 4 N -0.164076 -2.047566 1.040393 0
M  V30 5 C 0.106755 -0.657065 0.795032 0
M  V30 6 O 0.605193 0.088021 1.680841 0
M  V30 7 N -0.236691 -0.210608 -0.522985 0
M  V30 8 C 0.036173 1.199474 -0.776939 0
M  V30 9 N 1.092493 1.691067 -1.225791 0
M  V30 10 C 1.196267 2.990458 -1.404446 0
M  V30 11 C 2.438817 3.583015 -1.933974 0
M  V30 12 C 2.606329 4.921007 -2.140669 0
M  V30 13 C 3.735123 5.518340 -2.628073 0
M  V30 14 N 4.788775 4.710114 -2.936143 0
M  V30 15 C 4.716820 3.384751 -2.766629 0
M  V30 16 C 3.550929 2.842459 -2.271238 0
M  V30 17 C 0.092206 3.849193 -1.082928 0
M  V30 18 S -1.097328 2.718791 -0.515433 0
M  V30 19 C -1.089243 -3.131851 2.999716 0
M  V30 20 C -2.070170 -3.880303 2.371462 0
M  V30 21 C -3.198441 -4.341541 3.000926 0
M  V30 22 C -3.399906 -4.061163 4.340562 0
M  V30 23 C -2.445873 -3.315345 5.012104 0
M  V30 24 C -1.331973 -2.878109 4.329328 0
M  V30 25 H -0.033289 -5.468063 1.879420 0
M  V30 26 H 0.321595 -4.508935 0.337919 0
M  V30 27 H 1.569199 -5.512762 1.143299 0
M  V30 28 H 2.098310 -3.295098 1.815635 0
M  V30 29 H 1.369308 -4.146779 3.200673 0
M  V30 30 H 0.559635 -1.831582 2.964859 0
M  V30 31 H -0.575339 -2.667841 0.313563 0
M  V30 32 H -0.650164 -0.793973 -1.283386 0
M  V30 33 H 1.796663 5.614770 -1.911756 0
M  V30 34 H 3.811538 6.587331 -2.771688 0
M  V30 35 H 5.572478 2.755007 -3.019669 0
M  V30 36 H 3.495548 1.750321 -2.133018 0
M  V30 37 H 0.051784 4.885170 -1.179196 0
M  V30 38 H -1.935506 -4.114114 1.319040 0
M  V30 39 H -3.932487 -4.928939 2.438372 0
M  V30 40 H -4.315281 -4.461493 4.762859 0
M  V30 41 H -2.659660 -3.133153 6.043474 0
M  V30 42 H -0.603376 -2.297240 4.880372 0
M  V30 END ATOM
M  V30 BEGIN BOND
M  V30 1 1 1 2
M  V30 2 1 2 3
M  V30 3 1 3 4
M  V30 4 1 4 5
M  V30 5 2 5 6
M  V30 6 1 5 7
M  V30 7 1 7 8
M  V30 8 2 8 9
M  V30 9 1 9 10
M  V30 10 1 10 11
M  V30 11 2 11 12
M  V30 12 1 12 13
M  V30 13 2 13 14
M  V30 14 1 14 15
M  V30 15 2 15 16
M  V30 16 2 10 17
M  V30 17 1 17 18
M  V30 18 1 3 19
M  V30 19 2 19 20
M  V30 20 1 20 21
M  V30 21 2 21 22
M  V30 22 1 22 23
M  V30 23 2 23 24
M  V30 24 1 18 8
M  V30 25 1 24 19
M  V30 26 1 16 11
M  V30 27 1 1 25
M  V30 28 1 1 26
M  V30 29 1 1 27
M  V30 30 1 2 28
M  V30 31 1 2 29
M  V30 32 1 3 30 CFG=1
M  V30 33 1 4 31
M  V30 34 1 7 32
M  V30 35 1 12 33
M  V30 36 1 13 34
M  V30 37 1 15 35
M  V30 38 1 16 36
M  V30 39 1 17 37
M  V30 40 1 20 38
M  V30 41 1 21 39
M  V30 42 1 22 40
M  V30 43 1 23 41
M  V30 44 1 24 42
M  V30 END BOND
M  V30 END CTAB
M  END
>  <Dataset>  (133) 
ChEMBL_Kinases

>  <Ligand_Instance>  (133) 
nan

>  <PDB_ID>  (133) 
nan

>  <Standardized_SMILES>  (133) 
CC[C@@H](NC(=O)Nc1nc(-c2ccncc2)cs1)c1ccccc1

>  <Name>  (133) 
nan

>  <Pocket>  (133) 
nan

>  <ATP_Site>  (133) 
nan

>  <Peripheral>  (133) 
nan

>  <Num_H_Atoms_ProtBoundConf>  (133) 
nan

>  <Num_Resolved_Atoms>  (133) 
nan

>  <Num_Not_Resolved_Atoms>  (133) 
nan

$$$$
CHEMBL373934
     RDKit          3D

  0  0  0  0  0  0  0  0  0  0999 V3000
M  V30 BEGIN CTAB
M  V30 COUNTS 32 34 0 0 0
M  V30 BEGIN ATOM
M  V30 1 O -1.681716 0.228797 4.403629 0
M  V30 2 C -0.632280 0.186555 3.714740 0
M  V30 3 C 0.641910 0.529384 4.175079 0
M  V30 4 C 1.726961 0.436306 3.300260 0
M  V30 5 C 1.581347 0.016106 1.993976 0
M  V30 6 S 3.132629 -0.003769 1.115969 0
M  V30 7 C 2.881560 -0.553893 -0.562895 0
M  V30 8 C 1.740763 -0.933658 -1.215863 0
M  V30 9 C 1.814224 -1.322693 -2.534067 0
M  V30 10 C 2.988981 -1.348942 -3.234511 0
M  V30 11 C 4.164171 -0.967200 -2.593013 0
M  V30 12 C 4.094886 -0.573265 -1.260875 0
M  V30 13 F 5.326128 -0.232741 -0.784298 0
M  V30 14 N 0.342899 -0.286950 1.645769 0
M  V30 15 N -0.707667 -0.215645 2.430877 0
M  V30 16 C -1.947674 -0.594189 1.835157 0
M  V30 17 C -2.229311 -1.930050 1.539440 0
M  V30 18 C -3.419578 -2.332520 0.962588 0
M  V30 19 C -4.310619 -1.324222 0.698826 0
M  V30 20 C -4.133788 0.020820 0.949473 0
M  V30 21 C -2.922360 0.332608 1.524026 0
M  V30 22 Cl -2.591570 2.022440 1.886860 0
M  V30 23 H 0.701502 0.850844 5.201558 0
M  V30 24 H 2.644878 0.732394 3.793489 0
M  V30 25 H 0.881851 -0.877591 -0.582463 0
M  V30 26 H 0.876494 -1.608800 -2.985137 0
M  V30 27 H 2.970317 -1.667720 -4.273432 0
M  V30 28 H 5.040745 -1.010028 -3.192101 0
M  V30 29 H -1.483285 -2.679342 1.772458 0
M  V30 30 H -3.639643 -3.364897 0.732992 0
M  V30 31 H -5.262520 -1.626327 0.240028 0
M  V30 32 H -4.892350 0.753889 0.708836 0
M  V30 END ATOM
M  V30 BEGIN BOND
M  V30 1 2 1 2
M  V30 2 1 2 3
M  V30 3 2 3 4
M  V30 4 1 4 5
M  V30 5 1 5 6
M  V30 6 1 6 7
M  V30 7 2 7 8
M  V30 8 1 8 9
M  V30 9 2 9 10
M  V30 10 1 10 11
M  V30 11 2 11 12
M  V30 12 1 12 13
M  V30 13 2 5 14
M  V30 14 1 14 15
M  V30 15 1 15 16
M  V30 16 2 16 17
M  V30 17 1 17 18
M  V30 18 2 18 19
M  V30 19 1 19 20
M  V30 20 2 20 21
M  V30 21 1 21 22
M  V30 22 1 15 2
M  V30 23 1 21 16
M  V30 24 1 12 7
M  V30 25 1 3 23
M  V30 26 1 4 24
M  V30 27 1 8 25
M  V30 28 1 9 26
M  V30 29 1 10 27
M  V30 30 1 11 28
M  V30 31 1 17 29
M  V30 32 1 18 30
M  V30 33 1 19 31
M  V30 34 1 20 32
M  V30 END BOND
M  V30 END CTAB
M  END
>  <Dataset>  (134) 
ChEMBL_Kinases

>  <Ligand_Instance>  (134) 
nan

>  <PDB_ID>  (134) 
nan

>  <Standardized_SMILES>  (134) 
O=c1ccc(Sc2ccccc2F)nn1-c1ccccc1Cl

>  <Name>  (134) 
nan

>  <Pocket>  (134) 
nan

>  <ATP_Site>  (134) 
nan

>  <Peripheral>  (134) 
nan

>  <Num_H_Atoms_ProtBoundConf>  (134) 
nan

>  <Num_Resolved_Atoms>  (134) 
nan

>  <Num_Not_Resolved_Atoms>  (134) 
nan

$$$$
CHEMBL3218280
     RDKit          3D

  0  0  0  0  0  0  0  0  0  0999 V3000
M  V30 BEGIN CTAB
M  V30 COUNTS 40 42 0 0 0
M  V30 BEGIN ATOM
M  V30 1 N 0.836730 -5.383021 0.728498 0
M  V30 2 C 1.400368 -4.650436 1.808725 0
M  V30 3 O 2.148366 -5.414329 2.499267 0
M  V30 4 C 1.054207 -3.236171 1.943136 0 CFG=1
M  V30 5 N 0.137897 -2.767981 0.897063 0
M  V30 6 C 0.475788 -1.729947 -0.029597 0
M  V30 7 O 1.630923 -1.210885 0.086632 0
M  V30 8 N -0.445334 -1.310995 -1.025113 0
M  V30 9 C 0.086564 -0.195968 -1.921213 0
M  V30 10 N -0.047870 0.906445 -1.688772 0
M  V30 11 C 0.357109 1.974570 -2.370120 0
M  V30 12 C 0.153022 3.373180 -2.018416 0
M  V30 13 C 0.598848 4.434069 -2.768994 0
M  V30 14 C 0.401248 5.755918 -2.428588 0
M  V30 15 N -0.266892 6.034936 -1.295662 0
M  V30 16 C -0.740905 5.062175 -0.496959 0
M  V30 17 C -0.519924 3.754038 -0.876910 0
M  V30 18 C 1.055372 1.641924 -3.554241 0
M  V30 19 S 1.025960 -0.254577 -3.512574 0
M  V30 20 C 0.540511 -2.859527 3.284533 0
M  V30 21 C 1.361866 -2.313836 4.263993 0
M  V30 22 C 0.867786 -1.969580 5.505171 0
M  V30 23 C -0.468236 -2.170413 5.781199 0
M  V30 24 C -1.317981 -2.711740 4.831097 0
M  V30 25 C -0.800302 -3.053225 3.582933 0
M  V30 26 H -0.147707 -5.492454 1.031428 0
M  V30 27 H 0.497870 -5.922671 -0.106610 0
M  V30 28 H 1.972695 -2.599151 1.792485 0
M  V30 29 H -0.826135 -3.204212 0.803351 0
M  V30 30 H -1.388675 -1.740966 -1.113439 0
M  V30 31 H 1.141792 4.233121 -3.689531 0
M  V30 32 H 0.778212 6.538002 -3.063730 0
M  V30 33 H -1.285378 5.265340 0.426163 0
M  V30 34 H -0.912205 2.967384 -0.215844 0
M  V30 35 H 1.506587 2.334098 -4.315517 0
M  V30 36 H 2.388273 -2.191962 3.963689 0
M  V30 37 H 1.604880 -1.550381 6.192239 0
M  V30 38 H -0.797042 -1.879106 6.776510 0
M  V30 39 H -2.356979 -2.841439 5.117836 0
M  V30 40 H -1.497831 -3.468673 2.881708 0
M  V30 END ATOM
M  V30 BEGIN BOND
M  V30 1 1 1 2
M  V30 2 2 2 3
M  V30 3 1 2 4
M  V30 4 1 4 5
M  V30 5 1 5 6
M  V30 6 2 6 7
M  V30 7 1 6 8
M  V30 8 1 8 9
M  V30 9 2 9 10
M  V30 10 1 10 11
M  V30 11 1 11 12
M  V30 12 2 12 13
M  V30 13 1 13 14
M  V30 14 2 14 15
M  V30 15 1 15 16
M  V30 16 2 16 17
M  V30 17 2 11 18
M  V30 18 1 18 19
M  V30 19 1 4 20
M  V30 20 2 20 21
M  V30 21 1 21 22
M  V30 22 2 22 23
M  V30 23 1 23 24
M  V30 24 2 24 25
M  V30 25 1 19 9
M  V30 26 1 25 20
M  V30 27 1 17 12
M  V30 28 1 1 26
M  V30 29 1 1 27
M  V30 30 1 4 28 CFG=3
M  V30 31 1 5 29
M  V30 32 1 8 30
M  V30 33 1 13 31
M  V30 34 1 14 32
M  V30 35 1 16 33
M  V30 36 1 17 34
M  V30 37 1 18 35
M  V30 38 1 21 36
M  V30 39 1 22 37
M  V30 40 1 23 38
M  V30 41 1 24 39
M  V30 42 1 25 40
M  V30 END BOND
M  V30 END CTAB
M  END
>  <Dataset>  (135) 
ChEMBL_Kinases

>  <Ligand_Instance>  (135) 
nan

>  <PDB_ID>  (135) 
nan

>  <Standardized_SMILES>  (135) 
NC(=O)[C@@H](NC(=O)Nc1nc(-c2ccncc2)cs1)c1ccccc1

>  <Name>  (135) 
nan

>  <Pocket>  (135) 
nan

>  <ATP_Site>  (135) 
nan

>  <Peripheral>  (135) 
nan

>  <Num_H_Atoms_ProtBoundConf>  (135) 
nan

>  <Num_Resolved_Atoms>  (135) 
nan

>  <Num_Not_Resolved_Atoms>  (135) 
nan

$$$$
CHEMBL3218281
     RDKit          3D

  0  0  0  0  0  0  0  0  0  0999 V3000
M  V30 BEGIN CTAB
M  V30 COUNTS 43 45 0 0 0
M  V30 BEGIN ATOM
M  V30 1 C -0.690681 -4.782822 0.608912 0
M  V30 2 O -1.485582 -4.483459 1.683747 0
M  V30 3 C -1.797566 -3.159055 1.838828 0
M  V30 4 C -0.540220 -2.338430 2.042668 0 CFG=1
M  V30 5 N -0.896479 -0.926704 2.196519 0
M  V30 6 C -0.485330 0.088919 1.278550 0
M  V30 7 O 0.226155 -0.292413 0.286961 0
M  V30 8 N -0.895096 1.417085 1.540246 0
M  V30 9 C -0.393617 2.336973 0.510293 0
M  V30 10 N 0.254595 2.244809 -0.467721 0
M  V30 11 C 0.617303 3.200342 -1.291619 0
M  V30 12 C 1.426274 2.962208 -2.477958 0
M  V30 13 C 1.797527 3.966302 -3.327341 0
M  V30 14 C 2.561888 3.782050 -4.459866 0
M  V30 15 N 2.975936 2.521106 -4.755583 0
M  V30 16 C 2.646545 1.484203 -3.961934 0
M  V30 17 C 1.889849 1.720475 -2.855473 0
M  V30 18 C 0.156756 4.480235 -0.930291 0
M  V30 19 S -0.807192 4.119734 0.660801 0
M  V30 20 C 0.169756 -2.785611 3.268614 0
M  V30 21 C -0.436281 -2.428445 4.463365 0
M  V30 22 C 0.126616 -2.780823 5.674298 0
M  V30 23 C 1.305298 -3.496902 5.768230 0
M  V30 24 C 1.902492 -3.848483 4.562361 0
M  V30 25 C 1.345376 -3.499689 3.359647 0
M  V30 26 H -1.155234 -4.491776 -0.357768 0
M  V30 27 H 0.332473 -4.385275 0.655213 0
M  V30 28 H -0.598511 -5.908730 0.593285 0
M  V30 29 H -2.504783 -3.048781 2.685842 0
M  V30 30 H -2.338421 -2.752520 0.957932 0
M  V30 31 H 0.066473 -2.420401 1.125760 0
M  V30 32 H -1.477096 -0.652953 3.013386 0
M  V30 33 H -1.460601 1.748961 2.320202 0
M  V30 34 H 1.510725 4.979861 -3.160707 0
M  V30 35 H 2.843852 4.587961 -5.116403 0
M  V30 36 H 2.988987 0.499264 -4.222810 0
M  V30 37 H 1.637316 0.851067 -2.226718 0
M  V30 38 H 0.391199 5.491720 -1.571323 0
M  V30 39 H -1.349002 -1.877019 4.627721 0
M  V30 40 H -0.283191 -2.541170 6.667590 0
M  V30 41 H 1.767876 -3.785974 6.696278 0
M  V30 42 H 2.831818 -4.412471 4.560104 0
M  V30 43 H 1.796763 -3.762751 2.424953 0
M  V30 END ATOM
M  V30 BEGIN BOND
M  V30 1 1 1 2
M  V30 2 1 2 3
M  V30 3 1 3 4
M  V30 4 1 4 5
M  V30 5 1 5 6
M  V30 6 2 6 7
M  V30 7 1 6 8
M  V30 8 1 8 9
M  V30 9 2 9 10
M  V30 10 1 10 11
M  V30 11 1 11 12
M  V30 12 2 12 13
M  V30 13 1 13 14
M  V30 14 2 14 15
M  V30 15 1 15 16
M  V30 16 2 16 17
M  V30 17 2 11 18
M  V30 18 1 18 19
M  V30 19 1 4 20
M  V30 20 2 20 21
M  V30 21 1 21 22
M  V30 22 2 22 23
M  V30 23 1 23 24
M  V30 24 2 24 25
M  V30 25 1 19 9
M  V30 26 1 25 20
M  V30 27 1 17 12
M  V30 28 1 1 26
M  V30 29 1 1 27
M  V30 30 1 1 28
M  V30 31 1 3 29
M  V30 32 1 3 30
M  V30 33 1 4 31 CFG=3
M  V30 34 1 5 32
M  V30 35 1 8 33
M  V30 36 1 13 34
M  V30 37 1 14 35
M  V30 38 1 16 36
M  V30 39 1 17 37
M  V30 40 1 18 38
M  V30 41 1 21 39
M  V30 42 1 22 40
M  V30 43 1 23 41
M  V30 44 1 24 42
M  V30 45 1 25 43
M  V30 END BOND
M  V30 END CTAB
M  END
>  <Dataset>  (136) 
ChEMBL_Kinases

>  <Ligand_Instance>  (136) 
nan

>  <PDB_ID>  (136) 
nan

>  <Standardized_SMILES>  (136) 
COC[C@@H](NC(=O)Nc1nc(-c2ccncc2)cs1)c1ccccc1

>  <Name>  (136) 
nan

>  <Pocket>  (136) 
nan

>  <ATP_Site>  (136) 
nan

>  <Peripheral>  (136) 
nan

>  <Num_H_Atoms_ProtBoundConf>  (136) 
nan

>  <Num_Resolved_Atoms>  (136) 
nan

>  <Num_Not_Resolved_Atoms>  (136) 
nan

$$$$
CHEMBL374193
     RDKit          3D

  0  0  0  0  0  0  0  0  0  0999 V3000
M  V30 BEGIN CTAB
M  V30 COUNTS 53 55 0 0 0
M  V30 BEGIN ATOM
M  V30 1 C 5.650380 -0.417792 7.285144 0
M  V30 2 S 3.944881 -0.331717 6.841264 0
M  V30 3 O 3.269229 -1.598638 7.335455 0
M  V30 4 O 3.340621 0.886194 7.449951 0
M  V30 5 C 3.737001 -0.275259 5.096020 0
M  V30 6 C 3.706328 0.972092 4.510518 0
M  V30 7 C 3.543630 1.036317 3.146783 0
M  V30 8 C 3.408924 -0.058701 2.323017 0
M  V30 9 C 3.228672 -0.078124 0.869475 0
M  V30 10 N 1.849074 -0.067893 0.431959 0
M  V30 11 C 0.989992 1.092809 0.430086 0
M  V30 12 O 1.470901 2.179510 0.839082 0
M  V30 13 C -0.386933 0.956822 -0.041617 0
M  V30 14 C -1.192469 2.076954 -0.023988 0
M  V30 15 C -2.506728 2.028078 -0.452378 0
M  V30 16 N -3.373786 3.179947 -0.445678 0
M  V30 17 C -3.069332 0.856288 -0.916283 0
M  V30 18 C -4.423721 0.729770 -1.372546 0
M  V30 19 N -5.513377 0.636188 -1.747124 0
M  V30 20 C -2.221671 -0.255066 -0.918713 0
M  V30 21 C -2.657835 -1.569000 -1.379392 0
M  V30 22 C -2.348596 -2.698936 -0.625520 0
M  V30 23 C -2.756206 -3.937571 -1.063511 0
M  V30 24 C -3.471334 -4.024172 -2.256965 0
M  V30 25 C -3.788045 -2.920975 -3.018084 0
M  V30 26 S -4.687926 -3.058013 -4.515931 0
M  V30 27 C -3.501592 -3.251448 -5.827583 0
M  V30 28 O -5.459892 -4.347135 -4.447146 0
M  V30 29 O -5.558114 -1.880492 -4.729228 0
M  V30 30 C -3.365024 -1.685618 -2.553263 0
M  V30 31 N -0.935542 -0.206243 -0.499013 0
M  V30 32 C 3.448856 -1.294362 2.980448 0
M  V30 33 C 3.610649 -1.412846 4.351553 0
M  V30 34 H 6.062326 0.569932 7.611605 0
M  V30 35 H 5.790287 -1.144396 8.092797 0
M  V30 36 H 6.235274 -0.819145 6.414272 0
M  V30 37 H 3.801394 1.896580 5.052187 0
M  V30 38 H 3.516237 1.996479 2.656760 0
M  V30 39 H 3.699569 -0.994084 0.463870 0
M  V30 40 H 3.809164 0.765537 0.444810 0
M  V30 41 H 1.397506 -0.965162 0.078019 0
M  V30 42 H -0.904414 3.050370 0.304576 0
M  V30 43 H -3.513828 3.439533 -1.446560 0
M  V30 44 H -3.823103 3.721666 0.312473 0
M  V30 45 H -1.796069 -2.642546 0.299378 0
M  V30 46 H -2.523108 -4.843110 -0.483936 0
M  V30 47 H -3.771354 -5.006898 -2.564786 0
M  V30 48 H -2.687585 -3.944697 -5.544755 0
M  V30 49 H -3.041112 -2.271844 -6.089604 0
M  V30 50 H -4.010853 -3.628677 -6.738017 0
M  V30 51 H -3.633215 -0.842944 -3.182597 0
M  V30 52 H 3.356501 -2.256511 2.471056 0
M  V30 53 H 3.641435 -2.355037 4.859261 0
M  V30 END ATOM
M  V30 BEGIN BOND
M  V30 1 1 1 2
M  V30 2 2 2 3
M  V30 3 2 2 4
M  V30 4 1 2 5
M  V30 5 2 5 6
M  V30 6 1 6 7
M  V30 7 2 7 8
M  V30 8 1 8 9
M  V30 9 1 9 10
M  V30 10 1 10 11
M  V30 11 2 11 12
M  V30 12 1 11 13
M  V30 13 2 13 14
M  V30 14 1 14 15
M  V30 15 1 15 16
M  V30 16 2 15 17
M  V30 17 1 17 18
M  V30 18 3 18 19
M  V30 19 1 17 20
M  V30 20 1 20 21
M  V30 21 2 21 22
M  V30 22 1 22 23
M  V30 23 2 23 24
M  V30 24 1 24 25
M  V30 25 1 25 26
M  V30 26 1 26 27
M  V30 27 2 26 28
M  V30 28 2 26 29
M  V30 29 2 25 30
M  V30 30 2 20 31
M  V30 31 1 8 32
M  V30 32 2 32 33
M  V30 33 1 33 5
M  V30 34 1 31 13
M  V30 35 1 30 21
M  V30 36 1 1 34
M  V30 37 1 1 35
M  V30 38 1 1 36
M  V30 39 1 6 37
M  V30 40 1 7 38
M  V30 41 1 9 39
M  V30 42 1 9 40
M  V30 43 1 10 41
M  V30 44 1 14 42
M  V30 45 1 16 43
M  V30 46 1 16 44
M  V30 47 1 22 45
M  V30 48 1 23 46
M  V30 49 1 24 47
M  V30 50 1 27 48
M  V30 51 1 27 49
M  V30 52 1 27 50
M  V30 53 1 30 51
M  V30 54 1 32 52
M  V30 55 1 33 53
M  V30 END BOND
M  V30 END CTAB
M  END
>  <Dataset>  (137) 
ChEMBL_Kinases

>  <Ligand_Instance>  (137) 
nan

>  <PDB_ID>  (137) 
nan

>  <Standardized_SMILES>  (137) 
CS(=O)(=O)c1ccc(CNC(=O)c2cc(N)c(C#N)c(-c3cccc(S(C)(=O)=O)c3)n2)cc1

>  <Name>  (137) 
nan

>  <Pocket>  (137) 
nan

>  <ATP_Site>  (137) 
nan

>  <Peripheral>  (137) 
nan

>  <Num_H_Atoms_ProtBoundConf>  (137) 
nan

>  <Num_Resolved_Atoms>  (137) 
nan

>  <Num_Not_Resolved_Atoms>  (137) 
nan

$$$$
CHEMBL3218282
     RDKit          3D

  0  0  0  0  0  0  0  0  0  0999 V3000
M  V30 BEGIN CTAB
M  V30 COUNTS 43 45 0 0 0
M  V30 BEGIN ATOM
M  V30 1 C -0.164572 -7.258222 -2.732240 0
M  V30 2 O -0.462720 -6.316161 -1.731029 0
M  V30 3 C 0.183579 -5.104456 -1.548810 0
M  V30 4 C 1.216460 -4.527771 -2.245217 0
M  V30 5 C 1.683484 -3.289796 -1.849908 0
M  V30 6 C 1.122208 -2.638381 -0.770064 0
M  V30 7 C 0.070024 -3.201483 -0.042226 0
M  V30 8 C -0.455088 -2.414836 1.103121 0 CFG=1
M  V30 9 C -1.234047 -3.382204 1.993752 0
M  V30 10 N 0.681281 -1.870986 1.866825 0
M  V30 11 C 0.791784 -0.445729 2.044976 0
M  V30 12 O -0.107593 0.277099 1.530474 0
M  V30 13 N 1.911726 -0.050686 2.784030 0
M  V30 14 C 1.883376 1.453881 2.883562 0
M  V30 15 N 1.241617 2.313639 2.553702 0
M  V30 16 C 1.378115 3.608769 2.737220 0
M  V30 17 C 0.430393 4.613745 2.235069 0
M  V30 18 C -0.710588 4.333822 1.514949 0
M  V30 19 C -1.580274 5.272479 1.058390 0
M  V30 20 N -1.323550 6.585341 1.320707 0
M  V30 21 C -0.236578 6.953147 2.014772 0
M  V30 22 C 0.627774 5.956881 2.463399 0
M  V30 23 C 2.508083 3.964027 3.461135 0
M  V30 24 S 3.282476 2.323225 3.812967 0
M  V30 25 C -0.379276 -4.457356 -0.470330 0
M  V30 26 H -1.090693 -7.572141 -3.261842 0
M  V30 27 H 0.538139 -6.845439 -3.464425 0
M  V30 28 H 0.209679 -8.160131 -2.197899 0
M  V30 29 H 1.563052 -5.138672 -3.061005 0
M  V30 30 H 2.497787 -2.879922 -2.431486 0
M  V30 31 H 1.508172 -1.652382 -0.470598 0
M  V30 32 H -1.075439 -1.589529 0.753250 0
M  V30 33 H -0.671637 -4.337235 2.085493 0
M  V30 34 H -2.195427 -3.592525 1.496149 0
M  V30 35 H -1.467705 -2.946844 2.985751 0
M  V30 36 H 1.381627 -2.552597 2.260757 0
M  V30 37 H 2.668603 -0.570399 3.223190 0
M  V30 38 H -0.914709 3.271041 1.306211 0
M  V30 39 H -2.463504 5.031154 0.498726 0
M  V30 40 H -0.028047 7.987091 2.225233 0
M  V30 41 H 1.490656 6.280963 3.016993 0
M  V30 42 H 2.866462 4.976147 3.759592 0
M  V30 43 H -1.200140 -4.785948 0.175475 0
M  V30 END ATOM
M  V30 BEGIN BOND
M  V30 1 1 1 2
M  V30 2 1 2 3
M  V30 3 2 3 4
M  V30 4 1 4 5
M  V30 5 2 5 6
M  V30 6 1 6 7
M  V30 7 1 7 8
M  V30 8 1 8 9
M  V30 9 1 8 10
M  V30 10 1 10 11
M  V30 11 2 11 12
M  V30 12 1 11 13
M  V30 13 1 13 14
M  V30 14 2 14 15
M  V30 15 1 15 16
M  V30 16 1 16 17
M  V30 17 2 17 18
M  V30 18 1 18 19
M  V30 19 2 19 20
M  V30 20 1 20 21
M  V30 21 2 21 22
M  V30 22 2 16 23
M  V30 23 1 23 24
M  V30 24 2 7 25
M  V30 25 1 25 3
M  V30 26 1 24 14
M  V30 27 1 22 17
M  V30 28 1 1 26
M  V30 29 1 1 27
M  V30 30 1 1 28
M  V30 31 1 4 29
M  V30 32 1 5 30
M  V30 33 1 6 31
M  V30 34 1 8 32 CFG=3
M  V30 35 1 9 33
M  V30 36 1 9 34
M  V30 37 1 9 35
M  V30 38 1 10 36
M  V30 39 1 13 37
M  V30 40 1 18 38
M  V30 41 1 19 39
M  V30 42 1 21 40
M  V30 43 1 22 41
M  V30 44 1 23 42
M  V30 45 1 25 43
M  V30 END BOND
M  V30 END CTAB
M  END
>  <Dataset>  (138) 
ChEMBL_Kinases

>  <Ligand_Instance>  (138) 
nan

>  <PDB_ID>  (138) 
nan

>  <Standardized_SMILES>  (138) 
COc1cccc([C@@H](C)NC(=O)Nc2nc(-c3ccncc3)cs2)c1

>  <Name>  (138) 
nan

>  <Pocket>  (138) 
nan

>  <ATP_Site>  (138) 
nan

>  <Peripheral>  (138) 
nan

>  <Num_H_Atoms_ProtBoundConf>  (138) 
nan

>  <Num_Resolved_Atoms>  (138) 
nan

>  <Num_Not_Resolved_Atoms>  (138) 
nan

$$$$
CHEMBL3218283
     RDKit          3D

  0  0  0  0  0  0  0  0  0  0999 V3000
M  V30 BEGIN CTAB
M  V30 COUNTS 39 41 0 0 0
M  V30 BEGIN ATOM
M  V30 1 C -2.506580 -3.348305 0.333581 0
M  V30 2 C -1.339344 -2.997947 1.230553 0 CFG=1
M  V30 3 N -1.286963 -1.565553 1.449641 0
M  V30 4 C -0.245695 -0.650614 1.113674 0
M  V30 5 O 0.702748 -1.254461 0.562898 0
M  V30 6 N -0.404752 0.733259 1.424451 0
M  V30 7 C 0.828671 1.431972 0.960540 0
M  V30 8 N 1.119494 1.914927 -0.004548 0
M  V30 9 C 2.206350 2.530392 -0.413463 0
M  V30 10 C 2.449927 3.119893 -1.719518 0
M  V30 11 C 1.524933 3.104866 -2.739978 0
M  V30 12 C 1.708144 3.648066 -3.992093 0
M  V30 13 N 2.891705 4.245615 -4.243200 0
M  V30 14 C 3.846953 4.303823 -3.304237 0
M  V30 15 C 3.619157 3.747611 -2.068248 0
M  V30 16 C 3.196452 2.578538 0.592068 0
M  V30 17 S 2.370298 1.691300 2.030480 0
M  V30 18 C -1.444580 -3.646701 2.562911 0
M  V30 19 C -2.270321 -4.675371 2.993353 0
M  V30 20 C -2.197237 -5.120740 4.277458 0
M  V30 21 C -1.316238 -4.583477 5.199086 0
M  V30 22 C -0.487721 -3.560340 4.789256 0
M  V30 23 F 0.369816 -3.048677 5.714180 0
M  V30 24 C -0.556189 -3.106402 3.495899 0
M  V30 25 H -2.681252 -4.430727 0.277346 0
M  V30 26 H -3.409143 -2.856778 0.732810 0
M  V30 27 H -2.304856 -2.969829 -0.688377 0
M  V30 28 H -0.407794 -3.366598 0.727020 0
M  V30 29 H -2.191028 -1.271597 1.926652 0
M  V30 30 H -1.247669 1.089682 1.883295 0
M  V30 31 H 0.549152 2.626203 -2.570631 0
M  V30 32 H 0.936324 3.593969 -4.731726 0
M  V30 33 H 4.776278 4.786088 -3.536511 0
M  V30 34 H 4.422896 3.816579 -1.331548 0
M  V30 35 H 4.287412 3.060106 0.547824 0
M  V30 36 H -2.917977 -5.027203 2.209993 0
M  V30 37 H -2.876364 -5.934135 4.551184 0
M  V30 38 H -1.269748 -4.947579 6.215018 0
M  V30 39 H 0.141705 -2.300659 3.289021 0
M  V30 END ATOM
M  V30 BEGIN BOND
M  V30 1 1 1 2
M  V30 2 1 2 3
M  V30 3 1 3 4
M  V30 4 2 4 5
M  V30 5 1 4 6
M  V30 6 1 6 7
M  V30 7 2 7 8
M  V30 8 1 8 9
M  V30 9 1 9 10
M  V30 10 2 10 11
M  V30 11 1 11 12
M  V30 12 2 12 13
M  V30 13 1 13 14
M  V30 14 2 14 15
M  V30 15 2 9 16
M  V30 16 1 16 17
M  V30 17 1 2 18
M  V30 18 2 18 19
M  V30 19 1 19 20
M  V30 20 2 20 21
M  V30 21 1 21 22
M  V30 22 1 22 23
M  V30 23 2 22 24
M  V30 24 1 17 7
M  V30 25 1 24 18
M  V30 26 1 15 10
M  V30 27 1 1 25
M  V30 28 1 1 26
M  V30 29 1 1 27
M  V30 30 1 2 28 CFG=3
M  V30 31 1 3 29
M  V30 32 1 6 30
M  V30 33 1 11 31
M  V30 34 1 12 32
M  V30 35 1 14 33
M  V30 36 1 15 34
M  V30 37 1 16 35
M  V30 38 1 19 36
M  V30 39 1 20 37
M  V30 40 1 21 38
M  V30 41 1 24 39
M  V30 END BOND
M  V30 END CTAB
M  END
>  <Dataset>  (139) 
ChEMBL_Kinases

>  <Ligand_Instance>  (139) 
nan

>  <PDB_ID>  (139) 
nan

>  <Standardized_SMILES>  (139) 
C[C@@H](NC(=O)Nc1nc(-c2ccncc2)cs1)c1cccc(F)c1

>  <Name>  (139) 
nan

>  <Pocket>  (139) 
nan

>  <ATP_Site>  (139) 
nan

>  <Peripheral>  (139) 
nan

>  <Num_H_Atoms_ProtBoundConf>  (139) 
nan

>  <Num_Resolved_Atoms>  (139) 
nan

>  <Num_Not_Resolved_Atoms>  (139) 
nan

$$$$
CHEMBL3218015
     RDKit          3D

  0  0  0  0  0  0  0  0  0  0999 V3000
M  V30 BEGIN CTAB
M  V30 COUNTS 44 46 0 0 0
M  V30 BEGIN ATOM
M  V30 1 C 2.651767 -3.581933 2.331537 0
M  V30 2 S 2.854259 -3.610883 0.586696 0
M  V30 3 O 1.549295 -4.044309 -0.019838 0
M  V30 4 O 3.869788 -4.673231 0.228843 0
M  V30 5 N 3.395467 -2.114602 -0.073905 0
M  V30 6 C 2.891445 -1.081508 -0.909194 0
M  V30 7 C 2.253551 -1.510384 -2.061108 0
M  V30 8 C 1.729295 -0.598251 -2.968477 0
M  V30 9 C 1.891557 0.726225 -2.635230 0
M  V30 10 C 2.523403 1.156428 -1.491964 0
M  V30 11 C 2.601425 2.631058 -1.328349 0
M  V30 12 N 1.364231 3.092033 -0.709194 0
M  V30 13 C 0.437814 2.303452 0.060383 0
M  V30 14 O 0.598980 1.082801 0.295606 0
M  V30 15 N -0.645362 3.081237 0.494369 0
M  V30 16 C -1.636906 2.287437 1.284158 0
M  V30 17 N -1.702489 1.188603 1.605762 0
M  V30 18 C -2.682124 0.628781 2.322923 0
M  V30 19 C -2.686236 -0.783275 2.689671 0
M  V30 20 C -3.700000 -1.354430 3.427209 0
M  V30 21 C -3.776803 -2.678811 3.814226 0
M  V30 22 N -2.784422 -3.507646 3.450728 0
M  V30 23 C -1.771869 -2.999645 2.730720 0
M  V30 24 C -1.694472 -1.678831 2.344319 0
M  V30 25 C -3.720501 1.488851 2.707867 0
M  V30 26 S -3.124698 3.119677 1.939265 0
M  V30 27 C 3.040419 0.243151 -0.598662 0
M  V30 28 H 3.358909 -4.312443 2.825483 0
M  V30 29 H 2.841661 -2.592776 2.803386 0
M  V30 30 H 1.634172 -3.898902 2.652619 0
M  V30 31 H 4.390284 -1.877738 0.212498 0
M  V30 32 H 2.140187 -2.564731 -2.298539 0
M  V30 33 H 1.237472 -0.928542 -3.855578 0
M  V30 34 H 1.463407 1.422661 -3.374094 0
M  V30 35 H 2.776861 3.132817 -2.318603 0
M  V30 36 H 3.438327 2.910642 -0.642613 0
M  V30 37 H 1.239057 4.128312 -0.910956 0
M  V30 38 H -0.816735 4.078035 0.328442 0
M  V30 39 H -4.533999 -0.754178 3.756498 0
M  V30 40 H -4.595017 -3.073427 4.391297 0
M  V30 41 H -0.973179 -3.657456 2.436681 0
M  V30 42 H -0.850318 -1.298005 1.756579 0
M  V30 43 H -4.615540 1.212612 3.301049 0
M  V30 44 H 3.535524 0.590302 0.295079 0
M  V30 END ATOM
M  V30 BEGIN BOND
M  V30 1 1 1 2
M  V30 2 2 2 3
M  V30 3 2 2 4
M  V30 4 1 2 5
M  V30 5 1 5 6
M  V30 6 2 6 7
M  V30 7 1 7 8
M  V30 8 2 8 9
M  V30 9 1 9 10
M  V30 10 1 10 11
M  V30 11 1 11 12
M  V30 12 1 12 13
M  V30 13 2 13 14
M  V30 14 1 13 15
M  V30 15 1 15 16
M  V30 16 2 16 17
M  V30 17 1 17 18
M  V30 18 1 18 19
M  V30 19 2 19 20
M  V30 20 1 20 21
M  V30 21 2 21 22
M  V30 22 1 22 23
M  V30 23 2 23 24
M  V30 24 2 18 25
M  V30 25 1 25 26
M  V30 26 2 10 27
M  V30 27 1 27 6
M  V30 28 1 26 16
M  V30 29 1 24 19
M  V30 30 1 1 28
M  V30 31 1 1 29
M  V30 32 1 1 30
M  V30 33 1 5 31
M  V30 34 1 7 32
M  V30 35 1 8 33
M  V30 36 1 9 34
M  V30 37 1 11 35
M  V30 38 1 11 36
M  V30 39 1 12 37
M  V30 40 1 15 38
M  V30 41 1 20 39
M  V30 42 1 21 40
M  V30 43 1 23 41
M  V30 44 1 24 42
M  V30 45 1 25 43
M  V30 46 1 27 44
M  V30 END BOND
M  V30 END CTAB
M  END
>  <Dataset>  (140) 
ChEMBL_Kinases

>  <Ligand_Instance>  (140) 
nan

>  <PDB_ID>  (140) 
nan

>  <Standardized_SMILES>  (140) 
CS(=O)(=O)Nc1cccc(CNC(=O)Nc2nc(-c3ccncc3)cs2)c1

>  <Name>  (140) 
nan

>  <Pocket>  (140) 
nan

>  <ATP_Site>  (140) 
nan

>  <Peripheral>  (140) 
nan

>  <Num_H_Atoms_ProtBoundConf>  (140) 
nan

>  <Num_Resolved_Atoms>  (140) 
nan

>  <Num_Not_Resolved_Atoms>  (140) 
nan

$$$$
CHEMBL3218284
     RDKit          3D

  0  0  0  0  0  0  0  0  0  0999 V3000
M  V30 BEGIN CTAB
M  V30 COUNTS 39 41 0 0 0
M  V30 BEGIN ATOM
M  V30 1 C 0.333238 -4.822644 2.571135 0
M  V30 2 C -0.067275 -3.406139 2.286995 0 CFG=1
M  V30 3 N 0.500877 -2.942445 1.010954 0
M  V30 4 C 1.242941 -1.737830 1.032384 0
M  V30 5 O 1.440078 -1.056593 2.056114 0
M  V30 6 N 1.799935 -1.272830 -0.189330 0
M  V30 7 C 2.580327 -0.013747 -0.188709 0
M  V30 8 N 1.852034 1.229387 -0.426592 0
M  V30 9 C 2.707855 2.222868 -0.387886 0
M  V30 10 C 2.087359 3.535156 -0.615411 0
M  V30 11 C 0.752675 3.743511 -0.848292 0
M  V30 12 C 0.138745 4.983524 -1.067653 0
M  V30 13 N 0.931580 6.054833 -1.046548 0
M  V30 14 C 2.253535 5.956650 -0.826500 0
M  V30 15 C 2.792871 4.715878 -0.618940 0
M  V30 16 C 4.144837 2.203016 -0.157260 0
M  V30 17 S 4.247687 0.312076 0.044659 0
M  V30 18 C -1.557912 -3.413654 2.061873 0
M  V30 19 C -2.088561 -3.939460 0.901937 0
M  V30 20 C -3.456940 -3.934600 0.719494 0
M  V30 21 C -4.316658 -3.416639 1.667674 0
M  V30 22 C -3.800705 -2.890280 2.826687 0
M  V30 23 Cl -4.834576 -2.212945 4.079344 0
M  V30 24 C -2.439663 -2.902621 2.992655 0
M  V30 25 H 0.067491 -5.054034 3.615264 0
M  V30 26 H -0.266226 -5.503948 1.920636 0
M  V30 27 H 1.416210 -5.004552 2.361440 0
M  V30 28 H 0.208571 -2.687121 3.060146 0
M  V30 29 H 0.367794 -3.472606 0.121896 0
M  V30 30 H 1.670931 -1.802269 -1.095001 0
M  V30 31 H 0.081808 2.896380 -0.871972 0
M  V30 32 H -0.916769 5.046841 -1.241876 0
M  V30 33 H 2.859653 6.846296 -0.817292 0
M  V30 34 H 3.868913 4.717578 -0.447825 0
M  V30 35 H 4.804725 2.972349 -0.127745 0
M  V30 36 H -1.471550 -4.356368 0.128202 0
M  V30 37 H -3.924479 -4.338025 -0.178963 0
M  V30 38 H -5.404097 -3.412189 1.523897 0
M  V30 39 H -2.020292 -2.483607 3.916523 0
M  V30 END ATOM
M  V30 BEGIN BOND
M  V30 1 1 1 2
M  V30 2 1 2 3
M  V30 3 1 3 4
M  V30 4 2 4 5
M  V30 5 1 4 6
M  V30 6 1 6 7
M  V30 7 2 7 8
M  V30 8 1 8 9
M  V30 9 1 9 10
M  V30 10 2 10 11
M  V30 11 1 11 12
M  V30 12 2 12 13
M  V30 13 1 13 14
M  V30 14 2 14 15
M  V30 15 2 9 16
M  V30 16 1 16 17
M  V30 17 1 2 18
M  V30 18 2 18 19
M  V30 19 1 19 20
M  V30 20 2 20 21
M  V30 21 1 21 22
M  V30 22 1 22 23
M  V30 23 2 22 24
M  V30 24 1 17 7
M  V30 25 1 24 18
M  V30 26 1 15 10
M  V30 27 1 1 25
M  V30 28 1 1 26
M  V30 29 1 1 27
M  V30 30 1 2 28 CFG=1
M  V30 31 1 3 29
M  V30 32 1 6 30
M  V30 33 1 11 31
M  V30 34 1 12 32
M  V30 35 1 14 33
M  V30 36 1 15 34
M  V30 37 1 16 35
M  V30 38 1 19 36
M  V30 39 1 20 37
M  V30 40 1 21 38
M  V30 41 1 24 39
M  V30 END BOND
M  V30 END CTAB
M  END
>  <Dataset>  (141) 
ChEMBL_Kinases

>  <Ligand_Instance>  (141) 
nan

>  <PDB_ID>  (141) 
nan

>  <Standardized_SMILES>  (141) 
C[C@@H](NC(=O)Nc1nc(-c2ccncc2)cs1)c1cccc(Cl)c1

>  <Name>  (141) 
nan

>  <Pocket>  (141) 
nan

>  <ATP_Site>  (141) 
nan

>  <Peripheral>  (141) 
nan

>  <Num_H_Atoms_ProtBoundConf>  (141) 
nan

>  <Num_Resolved_Atoms>  (141) 
nan

>  <Num_Not_Resolved_Atoms>  (141) 
nan

$$$$
CHEMBL3218285
     RDKit          3D

  0  0  0  0  0  0  0  0  0  0999 V3000
M  V30 BEGIN CTAB
M  V30 COUNTS 39 41 0 0 0
M  V30 BEGIN ATOM
M  V30 1 C 0.297313 -4.497338 0.893625 0
M  V30 2 C -0.262948 -3.142943 1.246189 0 CFG=2
M  V30 3 N 0.702429 -2.325700 1.974711 0
M  V30 4 C 1.074012 -1.075607 1.389318 0
M  V30 5 O 0.579260 -0.728069 0.306703 0
M  V30 6 N 2.002479 -0.284214 2.084977 0
M  V30 7 C 2.375916 0.991082 1.479107 0
M  V30 8 N 1.915480 1.440485 0.355013 0
M  V30 9 C 2.375437 2.633473 -0.041600 0
M  V30 10 C 1.847683 3.136522 -1.318863 0
M  V30 11 C 0.936816 2.484303 -2.116224 0
M  V30 12 C 0.468651 2.994133 -3.308099 0
M  V30 13 N 0.911515 4.193310 -3.736729 0
M  V30 14 C 1.796763 4.895191 -3.024735 0
M  V30 15 C 2.240884 4.351432 -1.838437 0
M  V30 16 C 3.294077 3.350461 0.707800 0
M  V30 17 S 3.482790 2.124259 2.132863 0
M  V30 18 C -1.445547 -3.292232 2.148075 0
M  V30 19 C -2.736838 -3.131625 1.653100 0
M  V30 20 C -3.888208 -3.250382 2.409477 0
M  V30 21 C -3.735966 -3.552076 3.760648 0
M  V30 22 C -2.460620 -3.716621 4.276590 0
M  V30 23 C -1.322895 -3.589861 3.486153 0
M  V30 24 H 0.714496 -5.034617 1.745189 0
M  V30 25 H 1.012830 -4.391482 0.058066 0
M  V30 26 H -0.572938 -5.081031 0.498089 0
M  V30 27 H -0.550173 -2.629153 0.328960 0
M  V30 28 H 1.077501 -2.683190 2.882465 0
M  V30 29 H 2.438750 -0.538495 2.991339 0
M  V30 30 H 0.569404 1.506226 -1.776158 0
M  V30 31 H -0.251334 2.426761 -3.890393 0
M  V30 32 H 2.140401 5.850420 -3.380225 0
M  V30 33 H 2.964495 4.978805 -1.306102 0
M  V30 34 H 3.697072 4.285943 0.461884 0
M  V30 35 H -2.897124 -2.894742 0.599745 0
M  V30 36 H -4.859001 -3.115225 1.971455 0
M  V30 37 H -4.611503 -3.655978 4.397959 0
M  V30 38 H -2.385712 -3.951201 5.335234 0
M  V30 39 H -0.348684 -3.721826 3.908944 0
M  V30 END ATOM
M  V30 BEGIN BOND
M  V30 1 1 1 2
M  V30 2 1 2 3
M  V30 3 1 3 4
M  V30 4 2 4 5
M  V30 5 1 4 6
M  V30 6 1 6 7
M  V30 7 2 7 8
M  V30 8 1 8 9
M  V30 9 1 9 10
M  V30 10 2 10 11
M  V30 11 1 11 12
M  V30 12 2 12 13
M  V30 13 1 13 14
M  V30 14 2 14 15
M  V30 15 2 9 16
M  V30 16 1 16 17
M  V30 17 1 2 18
M  V30 18 2 18 19
M  V30 19 1 19 20
M  V30 20 2 20 21
M  V30 21 1 21 22
M  V30 22 2 22 23
M  V30 23 1 17 7
M  V30 24 1 23 18
M  V30 25 1 15 10
M  V30 26 1 1 24
M  V30 27 1 1 25
M  V30 28 1 1 26
M  V30 29 1 2 27 CFG=3
M  V30 30 1 3 28
M  V30 31 1 6 29
M  V30 32 1 11 30
M  V30 33 1 12 31
M  V30 34 1 14 32
M  V30 35 1 15 33
M  V30 36 1 16 34
M  V30 37 1 19 35
M  V30 38 1 20 36
M  V30 39 1 21 37
M  V30 40 1 22 38
M  V30 41 1 23 39
M  V30 END BOND
M  V30 END CTAB
M  END
>  <Dataset>  (142) 
ChEMBL_Kinases

>  <Ligand_Instance>  (142) 
nan

>  <PDB_ID>  (142) 
nan

>  <Standardized_SMILES>  (142) 
C[C@H](NC(=O)Nc1nc(-c2ccncc2)cs1)c1ccccc1

>  <Name>  (142) 
nan

>  <Pocket>  (142) 
nan

>  <ATP_Site>  (142) 
nan

>  <Peripheral>  (142) 
nan

>  <Num_H_Atoms_ProtBoundConf>  (142) 
nan

>  <Num_Resolved_Atoms>  (142) 
nan

>  <Num_Not_Resolved_Atoms>  (142) 
nan

$$$$
CHEMBL3218286
     RDKit          3D

  0  0  0  0  0  0  0  0  0  0999 V3000
M  V30 BEGIN CTAB
M  V30 COUNTS 40 42 0 0 0
M  V30 BEGIN ATOM
M  V30 1 O 0.509366 0.486197 0.416361 0
M  V30 2 C -0.035131 -0.379841 1.163606 0
M  V30 3 N 0.726945 -1.439806 1.724862 0
M  V30 4 C 2.206681 -1.462564 1.374984 0
M  V30 5 N 2.667092 -1.996614 0.481758 0
M  V30 6 C 3.907443 -2.096635 0.067797 0
M  V30 7 C 4.401048 -2.810941 -1.100754 0
M  V30 8 C 3.559390 -3.500923 -1.947650 0
M  V30 9 C 3.962503 -4.187491 -3.055579 0
M  V30 10 N 5.275314 -4.196519 -3.349670 0
M  V30 11 C 6.145807 -3.548644 -2.571598 0
M  V30 12 C 5.731532 -2.856574 -1.453098 0
M  V30 13 C 4.796919 -1.394703 0.922399 0
M  V30 14 S 3.622848 -0.684408 2.230482 0
M  V30 15 N -1.428280 -0.344619 1.483277 0
M  V30 16 C -2.264063 0.721602 0.935693 0 CFG=1
M  V30 17 C -3.384172 0.174727 0.079503 0
M  V30 18 O -4.123231 1.272847 -0.394955 0
M  V30 19 C -2.786348 1.606427 2.009810 0
M  V30 20 C -2.793557 2.996735 1.945836 0
M  V30 21 C -3.300180 3.727071 2.994729 0
M  V30 22 C -3.805369 3.105617 4.117796 0
M  V30 23 C -3.809508 1.718012 4.206030 0
M  V30 24 C -3.295702 0.981854 3.142022 0
M  V30 25 H 0.361326 -2.198062 2.351586 0
M  V30 26 H 2.483391 -3.503468 -1.721379 0
M  V30 27 H 3.240021 -4.713314 -3.683659 0
M  V30 28 H 7.220631 -3.549822 -2.803092 0
M  V30 29 H 6.461738 -2.355210 -0.863067 0
M  V30 30 H 6.004422 -1.300218 0.804980 0
M  V30 31 H -1.835202 -1.068632 2.096146 0
M  V30 32 H -1.576637 1.353716 0.317244 0
M  V30 33 H -2.999572 -0.416148 -0.752835 0
M  V30 34 H -4.075142 -0.383150 0.737506 0
M  V30 35 H -4.181887 1.210688 -1.393685 0
M  V30 36 H -2.373912 3.410849 1.018688 0
M  V30 37 H -3.273822 4.800013 2.876643 0
M  V30 38 H -4.179619 3.785309 4.884557 0
M  V30 39 H -4.217474 1.285800 5.108991 0
M  V30 40 H -3.342132 -0.097604 3.303563 0
M  V30 END ATOM
M  V30 BEGIN BOND
M  V30 1 2 1 2
M  V30 2 1 2 3
M  V30 3 1 3 4
M  V30 4 2 4 5
M  V30 5 1 5 6
M  V30 6 1 6 7
M  V30 7 2 7 8
M  V30 8 1 8 9
M  V30 9 2 9 10
M  V30 10 1 10 11
M  V30 11 2 11 12
M  V30 12 2 6 13
M  V30 13 1 13 14
M  V30 14 1 2 15
M  V30 15 1 15 16
M  V30 16 1 16 17
M  V30 17 1 17 18
M  V30 18 1 16 19
M  V30 19 2 19 20
M  V30 20 1 20 21
M  V30 21 2 21 22
M  V30 22 1 22 23
M  V30 23 2 23 24
M  V30 24 1 14 4
M  V30 25 1 24 19
M  V30 26 1 12 7
M  V30 27 1 3 25
M  V30 28 1 8 26
M  V30 29 1 9 27
M  V30 30 1 11 28
M  V30 31 1 12 29
M  V30 32 1 13 30
M  V30 33 1 15 31
M  V30 34 1 16 32 CFG=3
M  V30 35 1 17 33
M  V30 36 1 17 34
M  V30 37 1 18 35
M  V30 38 1 20 36
M  V30 39 1 21 37
M  V30 40 1 22 38
M  V30 41 1 23 39
M  V30 42 1 24 40
M  V30 END BOND
M  V30 END CTAB
M  END
>  <Dataset>  (143) 
ChEMBL_Kinases

>  <Ligand_Instance>  (143) 
nan

>  <PDB_ID>  (143) 
nan

>  <Standardized_SMILES>  (143) 
O=C(Nc1nc(-c2ccncc2)cs1)N[C@@H](CO)c1ccccc1

>  <Name>  (143) 
nan

>  <Pocket>  (143) 
nan

>  <ATP_Site>  (143) 
nan

>  <Peripheral>  (143) 
nan

>  <Num_H_Atoms_ProtBoundConf>  (143) 
nan

>  <Num_Resolved_Atoms>  (143) 
nan

>  <Num_Not_Resolved_Atoms>  (143) 
nan

$$$$
CHEMBL3218288
     RDKit          3D

  0  0  0  0  0  0  0  0  0  0999 V3000
M  V30 BEGIN CTAB
M  V30 COUNTS 40 42 0 0 0
M  V30 BEGIN ATOM
M  V30 1 N -1.327901 -4.628378 0.870410 0
M  V30 2 C -1.226035 -3.802675 2.031170 0
M  V30 3 O -2.089501 -4.187808 2.875406 0
M  V30 4 C -0.260425 -2.697754 2.176139 0 CFG=2
M  V30 5 N 0.593283 -2.518522 1.015840 0
M  V30 6 C 0.565524 -1.349773 0.205817 0
M  V30 7 O -0.255597 -0.463929 0.558109 0
M  V30 8 N 1.445220 -1.316646 -0.880485 0
M  V30 9 C 1.263252 -0.012254 -1.602182 0
M  V30 10 N 0.671270 0.940577 -1.574816 0
M  V30 11 C 0.671837 2.000531 -2.340659 0
M  V30 12 C -0.170374 3.176235 -2.171805 0
M  V30 13 C -0.097471 4.246913 -3.032819 0
M  V30 14 C -0.904872 5.343220 -2.848653 0
M  V30 15 N -1.791202 5.446225 -1.852048 0
M  V30 16 C -1.895681 4.421683 -0.986187 0
M  V30 17 C -1.096475 3.334239 -1.166851 0
M  V30 18 C 1.617261 1.887920 -3.401559 0
M  V30 19 S 2.366110 0.245747 -3.120814 0
M  V30 20 C 0.521200 -2.764945 3.433163 0
M  V30 21 C 1.665770 -3.525628 3.531821 0
M  V30 22 C 2.391342 -3.582993 4.712004 0
M  V30 23 C 1.985129 -2.869532 5.843667 0
M  V30 24 C 0.837392 -2.099920 5.762689 0
M  V30 25 C 0.139901 -2.063416 4.579145 0
M  V30 26 H -1.969466 -4.583346 0.042723 0
M  V30 27 H -1.202243 -5.349805 0.151797 0
M  V30 28 H -0.876945 -1.755802 2.240649 0
M  V30 29 H 1.255949 -3.319149 0.793452 0
M  V30 30 H 2.122047 -2.005721 -1.200534 0
M  V30 31 H 0.590244 4.240918 -3.859475 0
M  V30 32 H -0.832196 6.189419 -3.547347 0
M  V30 33 H -2.602750 4.457510 -0.157681 0
M  V30 34 H -1.199092 2.507546 -0.446067 0
M  V30 35 H 1.843940 2.709708 -4.268641 0
M  V30 36 H 2.013580 -4.089709 2.685955 0
M  V30 37 H 3.293672 -4.157376 4.856346 0
M  V30 38 H 2.504474 -2.878768 6.772136 0
M  V30 39 H 0.413802 -1.496451 6.573127 0
M  V30 40 H -0.770497 -1.476536 4.452885 0
M  V30 END ATOM
M  V30 BEGIN BOND
M  V30 1 1 1 2
M  V30 2 2 2 3
M  V30 3 1 2 4
M  V30 4 1 4 5
M  V30 5 1 5 6
M  V30 6 2 6 7
M  V30 7 1 6 8
M  V30 8 1 8 9
M  V30 9 2 9 10
M  V30 10 1 10 11
M  V30 11 1 11 12
M  V30 12 2 12 13
M  V30 13 1 13 14
M  V30 14 2 14 15
M  V30 15 1 15 16
M  V30 16 2 16 17
M  V30 17 2 11 18
M  V30 18 1 18 19
M  V30 19 1 4 20
M  V30 20 2 20 21
M  V30 21 1 21 22
M  V30 22 2 22 23
M  V30 23 1 23 24
M  V30 24 2 24 25
M  V30 25 1 19 9
M  V30 26 1 25 20
M  V30 27 1 17 12
M  V30 28 1 1 26
M  V30 29 1 1 27
M  V30 30 1 4 28 CFG=1
M  V30 31 1 5 29
M  V30 32 1 8 30
M  V30 33 1 13 31
M  V30 34 1 14 32
M  V30 35 1 16 33
M  V30 36 1 17 34
M  V30 37 1 18 35
M  V30 38 1 21 36
M  V30 39 1 22 37
M  V30 40 1 23 38
M  V30 41 1 24 39
M  V30 42 1 25 40
M  V30 END BOND
M  V30 END CTAB
M  END
>  <Dataset>  (144) 
ChEMBL_Kinases

>  <Ligand_Instance>  (144) 
nan

>  <PDB_ID>  (144) 
nan

>  <Standardized_SMILES>  (144) 
NC(=O)[C@H](NC(=O)Nc1nc(-c2ccncc2)cs1)c1ccccc1

>  <Name>  (144) 
nan

>  <Pocket>  (144) 
nan

>  <ATP_Site>  (144) 
nan

>  <Peripheral>  (144) 
nan

>  <Num_H_Atoms_ProtBoundConf>  (144) 
nan

>  <Num_Resolved_Atoms>  (144) 
nan

>  <Num_Not_Resolved_Atoms>  (144) 
nan

$$$$
CHEMBL3218293
     RDKit          3D

  0  0  0  0  0  0  0  0  0  0999 V3000
M  V30 BEGIN CTAB
M  V30 COUNTS 42 44 0 0 0
M  V30 BEGIN ATOM
M  V30 1 C 1.262686 -1.953422 -3.075960 0
M  V30 2 C 0.779807 -2.824181 -1.940649 0 CFG=2
M  V30 3 C -0.604661 -2.465712 -1.602585 0
M  V30 4 C -1.209411 -2.974749 -0.450040 0
M  V30 5 C -2.522065 -2.651246 -0.104778 0
M  V30 6 C -3.187912 -1.800029 -0.966966 0
M  V30 7 C -2.633060 -1.273464 -2.114283 0
M  V30 8 C -1.328875 -1.607899 -2.437663 0
M  V30 9 N 1.612642 -2.731602 -0.756814 0
M  V30 10 C 2.303506 -3.882919 -0.247395 0
M  V30 11 C 1.714248 -1.458786 -0.126922 0
M  V30 12 O 1.088597 -0.480311 -0.612981 0
M  V30 13 N 2.509681 -1.318358 1.023795 0
M  V30 14 C 2.513310 0.055686 1.557564 0
M  V30 15 N 1.776836 0.503027 2.346766 0
M  V30 16 C 1.793747 1.753063 2.821031 0
M  V30 17 C 0.850017 2.261610 3.807069 0
M  V30 18 C -0.159063 1.495597 4.349679 0
M  V30 19 C -1.074250 1.931223 5.283429 0
M  V30 20 N -0.980327 3.199682 5.700650 0
M  V30 21 C -0.017512 4.036067 5.224134 0
M  V30 22 C 0.876954 3.551417 4.288518 0
M  V30 23 C 2.818178 2.588820 2.292875 0
M  V30 24 S 3.679887 1.386792 1.104345 0
M  V30 25 H 0.689369 -2.287746 -3.977930 0
M  V30 26 H 1.086062 -0.875653 -2.917299 0
M  V30 27 H 2.317984 -2.086199 -3.323642 0
M  V30 28 H 0.787633 -3.869011 -2.331941 0
M  V30 29 H -0.683092 -3.640416 0.220641 0
M  V30 30 H -2.967871 -3.055577 0.788750 0
M  V30 31 H -4.204277 -1.547471 -0.702773 0
M  V30 32 H -3.180231 -0.605388 -2.775363 0
M  V30 33 H -0.910807 -1.183436 -3.343970 0
M  V30 34 H 3.350439 -3.882901 -0.598052 0
M  V30 35 H 2.323090 -3.883217 0.877757 0
M  V30 36 H 1.809830 -4.839363 -0.511738 0
M  V30 37 H 3.047731 -2.072164 1.475532 0
M  V30 38 H -0.265867 0.464190 4.035821 0
M  V30 39 H -1.842205 1.273137 5.667030 0
M  V30 40 H 0.046725 5.056129 5.569076 0
M  V30 41 H 1.618080 4.250178 3.943188 0
M  V30 42 H 2.979340 3.652055 2.573808 0
M  V30 END ATOM
M  V30 BEGIN BOND
M  V30 1 1 1 2
M  V30 2 1 2 3
M  V30 3 2 3 4
M  V30 4 1 4 5
M  V30 5 2 5 6
M  V30 6 1 6 7
M  V30 7 2 7 8
M  V30 8 1 2 9
M  V30 9 1 9 10
M  V30 10 1 9 11
M  V30 11 2 11 12
M  V30 12 1 11 13
M  V30 13 1 13 14
M  V30 14 2 14 15
M  V30 15 1 15 16
M  V30 16 1 16 17
M  V30 17 2 17 18
M  V30 18 1 18 19
M  V30 19 2 19 20
M  V30 20 1 20 21
M  V30 21 2 21 22
M  V30 22 2 16 23
M  V30 23 1 23 24
M  V30 24 1 8 3
M  V30 25 1 24 14
M  V30 26 1 22 17
M  V30 27 1 1 25
M  V30 28 1 1 26
M  V30 29 1 1 27
M  V30 30 1 2 28 CFG=3
M  V30 31 1 4 29
M  V30 32 1 5 30
M  V30 33 1 6 31
M  V30 34 1 7 32
M  V30 35 1 8 33
M  V30 36 1 10 34
M  V30 37 1 10 35
M  V30 38 1 10 36
M  V30 39 1 13 37
M  V30 40 1 18 38
M  V30 41 1 19 39
M  V30 42 1 21 40
M  V30 43 1 22 41
M  V30 44 1 23 42
M  V30 END BOND
M  V30 END CTAB
M  END
>  <Dataset>  (145) 
ChEMBL_Kinases

>  <Ligand_Instance>  (145) 
nan

>  <PDB_ID>  (145) 
nan

>  <Standardized_SMILES>  (145) 
C[C@H](c1ccccc1)N(C)C(=O)Nc1nc(-c2ccncc2)cs1

>  <Name>  (145) 
nan

>  <Pocket>  (145) 
nan

>  <ATP_Site>  (145) 
nan

>  <Peripheral>  (145) 
nan

>  <Num_H_Atoms_ProtBoundConf>  (145) 
nan

>  <Num_Resolved_Atoms>  (145) 
nan

>  <Num_Not_Resolved_Atoms>  (145) 
nan

$$$$
CHEMBL3218294
     RDKit          3D

  0  0  0  0  0  0  0  0  0  0999 V3000
M  V30 BEGIN CTAB
M  V30 COUNTS 42 44 0 0 0
M  V30 BEGIN ATOM
M  V30 1 C 0.112760 -3.948465 -0.546201 0
M  V30 2 C 0.869978 -2.952733 -1.379351 0 CFG=1
M  V30 3 C -0.021821 -2.165551 -2.284422 0
M  V30 4 C -0.660109 -0.964350 -2.106320 0
M  V30 5 C -1.473622 -0.324898 -3.003762 0
M  V30 6 C -1.696818 -0.918981 -4.221004 0
M  V30 7 C -1.120252 -2.126489 -4.536752 0
M  V30 8 C -0.321866 -2.679608 -3.561836 0
M  V30 9 N 1.815419 -2.154210 -0.636698 0
M  V30 10 C 3.234590 -2.193158 -1.036480 0
M  V30 11 C 1.580803 -1.282408 0.487632 0
M  V30 12 O 0.557539 -0.979263 1.158380 0
M  V30 13 N 2.630386 -0.536476 1.077968 0
M  V30 14 C 2.229186 0.308793 2.219239 0
M  V30 15 N 1.373345 0.635351 2.868753 0
M  V30 16 C 1.306110 1.458862 3.884022 0
M  V30 17 C 0.087619 1.765775 4.617769 0
M  V30 18 C -1.151426 1.230621 4.339954 0
M  V30 19 C -2.310073 1.515176 5.028859 0
M  V30 20 N -2.231831 2.383918 6.055482 0
M  V30 21 C -1.055772 2.955656 6.396266 0
M  V30 22 C 0.074620 2.636024 5.673381 0
M  V30 23 C 2.538322 2.037703 4.216645 0
M  V30 24 S 3.696927 1.263888 2.936444 0
M  V30 25 H 0.748990 -4.258957 0.302766 0
M  V30 26 H -0.867664 -3.536862 -0.201139 0
M  V30 27 H -0.166532 -4.806140 -1.222057 0
M  V30 28 H 1.479549 -3.570123 -2.139420 0
M  V30 29 H -0.503815 -0.473200 -1.168348 0
M  V30 30 H -1.916835 0.621349 -2.738242 0
M  V30 31 H -2.332157 -0.442487 -4.950793 0
M  V30 32 H -1.282459 -2.602279 -5.477105 0
M  V30 33 H 0.120771 -3.646158 -3.852418 0
M  V30 34 H 3.553394 -1.149040 -1.245430 0
M  V30 35 H 3.831766 -2.652327 -0.224798 0
M  V30 36 H 3.306536 -2.789542 -1.962194 0
M  V30 37 H 3.623560 -0.594833 0.712809 0
M  V30 38 H -1.230338 0.518541 3.502866 0
M  V30 39 H -3.234273 1.037943 4.727295 0
M  V30 40 H -1.030264 3.648150 7.225584 0
M  V30 41 H 0.964743 3.129657 6.004916 0
M  V30 42 H 2.735908 2.808585 5.089456 0
M  V30 END ATOM
M  V30 BEGIN BOND
M  V30 1 1 1 2
M  V30 2 1 2 3
M  V30 3 2 3 4
M  V30 4 1 4 5
M  V30 5 2 5 6
M  V30 6 1 6 7
M  V30 7 2 7 8
M  V30 8 1 2 9
M  V30 9 1 9 10
M  V30 10 1 9 11
M  V30 11 2 11 12
M  V30 12 1 11 13
M  V30 13 1 13 14
M  V30 14 2 14 15
M  V30 15 1 15 16
M  V30 16 1 16 17
M  V30 17 2 17 18
M  V30 18 1 18 19
M  V30 19 2 19 20
M  V30 20 1 20 21
M  V30 21 2 21 22
M  V30 22 2 16 23
M  V30 23 1 23 24
M  V30 24 1 8 3
M  V30 25 1 24 14
M  V30 26 1 22 17
M  V30 27 1 1 25
M  V30 28 1 1 26
M  V30 29 1 1 27
M  V30 30 1 2 28 CFG=3
M  V30 31 1 4 29
M  V30 32 1 5 30
M  V30 33 1 6 31
M  V30 34 1 7 32
M  V30 35 1 8 33
M  V30 36 1 10 34
M  V30 37 1 10 35
M  V30 38 1 10 36
M  V30 39 1 13 37
M  V30 40 1 18 38
M  V30 41 1 19 39
M  V30 42 1 21 40
M  V30 43 1 22 41
M  V30 44 1 23 42
M  V30 END BOND
M  V30 END CTAB
M  END
>  <Dataset>  (146) 
ChEMBL_Kinases

>  <Ligand_Instance>  (146) 
nan

>  <PDB_ID>  (146) 
nan

>  <Standardized_SMILES>  (146) 
C[C@@H](c1ccccc1)N(C)C(=O)Nc1nc(-c2ccncc2)cs1

>  <Name>  (146) 
nan

>  <Pocket>  (146) 
nan

>  <ATP_Site>  (146) 
nan

>  <Peripheral>  (146) 
nan

>  <Num_H_Atoms_ProtBoundConf>  (146) 
nan

>  <Num_Resolved_Atoms>  (146) 
nan

>  <Num_Not_Resolved_Atoms>  (146) 
nan

$$$$
CHEMBL3218295
     RDKit          3D

  0  0  0  0  0  0  0  0  0  0999 V3000
M  V30 BEGIN CTAB
M  V30 COUNTS 40 42 0 0 0
M  V30 BEGIN ATOM
M  V30 1 O 0.307603 -0.869459 0.277906 0
M  V30 2 C -0.002012 -1.194987 1.473723 0
M  V30 3 N 0.850295 -1.744750 2.438406 0
M  V30 4 C 2.236724 -1.908946 1.858204 0
M  V30 5 N 2.728021 -1.700455 0.867414 0
M  V30 6 C 3.980361 -1.897323 0.486256 0
M  V30 7 C 4.510599 -1.587435 -0.833110 0
M  V30 8 C 3.767495 -1.045726 -1.858138 0
M  V30 9 C 4.255422 -0.753776 -3.092268 0
M  V30 10 N 5.547233 -1.000322 -3.357473 0
M  V30 11 C 6.350586 -1.530963 -2.411275 0
M  V30 12 C 5.824939 -1.814412 -1.173236 0
M  V30 13 C 4.800901 -2.455645 1.500622 0
M  V30 14 S 3.564983 -2.618944 2.929626 0
M  V30 15 N -1.343896 -0.989240 1.897327 0
M  V30 16 C -2.353287 -0.423989 1.007617 0
M  V30 17 C -3.386276 -1.476579 0.702103 0
M  V30 18 O -4.363424 -0.958493 -0.148391 0
M  V30 19 C -2.932909 0.820986 1.532167 0
M  V30 20 C -3.165823 1.998094 0.826686 0
M  V30 21 C -3.712493 3.112266 1.402654 0
M  V30 22 C -4.063429 3.104964 2.750543 0
M  V30 23 C -3.842316 1.944306 3.478749 0
M  V30 24 C -3.293010 0.840663 2.878477 0
M  V30 25 H 0.688252 -2.030830 3.404919 0
M  V30 26 H 2.705956 -0.834161 -1.666643 0
M  V30 27 H 3.608990 -0.325621 -3.857099 0
M  V30 28 H 7.390584 -1.728500 -2.627566 0
M  V30 29 H 6.499296 -2.234059 -0.454917 0
M  V30 30 H 5.934445 -2.725062 1.424185 0
M  V30 31 H -1.673113 -1.236020 2.876311 0
M  V30 32 H -1.820459 -0.234560 0.041673 0
M  V30 33 H -2.856759 -2.271370 0.124760 0
M  V30 34 H -3.891359 -1.867449 1.587078 0
M  V30 35 H -4.112277 -0.076258 -0.498283 0
M  V30 36 H -2.875639 1.964702 -0.234497 0
M  V30 37 H -3.877314 4.009238 0.816792 0
M  V30 38 H -4.495346 3.952573 3.249853 0
M  V30 39 H -4.123562 1.952451 4.540044 0
M  V30 40 H -3.164502 -0.013358 3.544632 0
M  V30 END ATOM
M  V30 BEGIN BOND
M  V30 1 2 1 2
M  V30 2 1 2 3
M  V30 3 1 3 4
M  V30 4 2 4 5
M  V30 5 1 5 6
M  V30 6 1 6 7
M  V30 7 2 7 8
M  V30 8 1 8 9
M  V30 9 2 9 10
M  V30 10 1 10 11
M  V30 11 2 11 12
M  V30 12 2 6 13
M  V30 13 1 13 14
M  V30 14 1 2 15
M  V30 15 1 15 16
M  V30 16 1 16 17
M  V30 17 1 17 18
M  V30 18 1 16 19
M  V30 19 2 19 20
M  V30 20 1 20 21
M  V30 21 2 21 22
M  V30 22 1 22 23
M  V30 23 2 23 24
M  V30 24 1 14 4
M  V30 25 1 24 19
M  V30 26 1 12 7
M  V30 27 1 3 25
M  V30 28 1 8 26
M  V30 29 1 9 27
M  V30 30 1 11 28
M  V30 31 1 12 29
M  V30 32 1 13 30
M  V30 33 1 15 31
M  V30 34 1 16 32
M  V30 35 1 17 33
M  V30 36 1 17 34
M  V30 37 1 18 35
M  V30 38 1 20 36
M  V30 39 1 21 37
M  V30 40 1 22 38
M  V30 41 1 23 39
M  V30 42 1 24 40
M  V30 END BOND
M  V30 END CTAB
M  END
>  <Dataset>  (147) 
ChEMBL_Kinases

>  <Ligand_Instance>  (147) 
nan

>  <PDB_ID>  (147) 
nan

>  <Standardized_SMILES>  (147) 
O=C(Nc1nc(-c2ccncc2)cs1)NC(CO)c1ccccc1

>  <Name>  (147) 
nan

>  <Pocket>  (147) 
nan

>  <ATP_Site>  (147) 
nan

>  <Peripheral>  (147) 
nan

>  <Num_H_Atoms_ProtBoundConf>  (147) 
nan

>  <Num_Resolved_Atoms>  (147) 
nan

>  <Num_Not_Resolved_Atoms>  (147) 
nan

$$$$
CHEMBL374269
     RDKit          3D

  0  0  0  0  0  0  0  0  0  0999 V3000
M  V30 BEGIN CTAB
M  V30 COUNTS 48 50 0 0 0
M  V30 BEGIN ATOM
M  V30 1 C 3.860544 -4.901940 2.210990 0
M  V30 2 S 4.579904 -4.411229 0.664841 0
M  V30 3 O 6.023038 -4.094836 0.896132 0
M  V30 4 O 4.474552 -5.599450 -0.255125 0
M  V30 5 C 3.781412 -3.019323 -0.020638 0
M  V30 6 C 2.712669 -3.087574 -0.873632 0
M  V30 7 C 2.072639 -1.998577 -1.423094 0
M  V30 8 C 2.577600 -0.745125 -1.061856 0
M  V30 9 C 1.884733 0.425450 -1.661698 0
M  V30 10 N 0.805250 0.797862 -0.801550 0
M  V30 11 C 0.822217 1.489987 0.420793 0
M  V30 12 O 1.935619 1.861557 0.871316 0
M  V30 13 C -0.395216 1.787392 1.174709 0
M  V30 14 C -0.309095 2.465578 2.371866 0
M  V30 15 C -1.465860 2.722023 3.045291 0
M  V30 16 N -1.370977 3.430229 4.293299 0
M  V30 17 C -2.694197 2.305436 2.528350 0
M  V30 18 C -3.848803 2.627190 3.319292 0
M  V30 19 N -4.773433 2.894752 3.933666 0
M  V30 20 C -2.734151 1.620710 1.311215 0
M  V30 21 O -4.016709 1.286234 0.951022 0
M  V30 22 C -4.307358 0.591921 -0.236767 0
M  V30 23 C -3.626985 -0.750793 -0.256166 0
M  V30 24 C -3.931400 -1.766997 0.814858 0
M  V30 25 C -4.511836 -1.935927 -0.521347 0
M  V30 26 N -1.579551 1.378961 0.664358 0
M  V30 27 C 3.653212 -0.669866 -0.203585 0
M  V30 28 C 4.277208 -1.783269 0.334011 0
M  V30 29 H 3.939404 -4.086676 2.976130 0
M  V30 30 H 4.545282 -5.702909 2.611987 0
M  V30 31 H 2.866392 -5.341828 2.124867 0
M  V30 32 H 2.344677 -4.075019 -1.134988 0
M  V30 33 H 1.231262 -2.143981 -2.090708 0
M  V30 34 H 2.641912 1.223889 -1.801429 0
M  V30 35 H 1.548559 0.156363 -2.682269 0
M  V30 36 H -0.166702 0.515026 -1.122823 0
M  V30 37 H 0.642332 2.777442 2.754064 0
M  V30 38 H -1.568384 4.455187 4.323280 0
M  V30 39 H -1.108532 2.991792 5.224137 0
M  V30 40 H -3.878028 1.160780 -1.108191 0
M  V30 41 H -5.378989 0.459461 -0.407941 0
M  V30 42 H -2.592680 -0.781355 -0.663150 0
M  V30 43 H -4.521036 -1.395146 1.687868 0
M  V30 44 H -3.114233 -2.466344 1.087005 0
M  V30 45 H -5.616662 -1.777184 -0.650006 0
M  V30 46 H -4.117634 -2.709404 -1.190542 0
M  V30 47 H 4.033486 0.304440 0.063785 0
M  V30 48 H 5.118576 -1.652123 1.003100 0
M  V30 END ATOM
M  V30 BEGIN BOND
M  V30 1 1 1 2
M  V30 2 2 2 3
M  V30 3 2 2 4
M  V30 4 1 2 5
M  V30 5 2 5 6
M  V30 6 1 6 7
M  V30 7 2 7 8
M  V30 8 1 8 9
M  V30 9 1 9 10
M  V30 10 1 10 11
M  V30 11 2 11 12
M  V30 12 1 11 13
M  V30 13 2 13 14
M  V30 14 1 14 15
M  V30 15 1 15 16
M  V30 16 2 15 17
M  V30 17 1 17 18
M  V30 18 3 18 19
M  V30 19 1 17 20
M  V30 20 1 20 21
M  V30 21 1 21 22
M  V30 22 1 22 23
M  V30 23 1 23 24
M  V30 24 1 24 25
M  V30 25 2 20 26
M  V30 26 1 8 27
M  V30 27 2 27 28
M  V30 28 1 28 5
M  V30 29 1 26 13
M  V30 30 1 25 23
M  V30 31 1 1 29
M  V30 32 1 1 30
M  V30 33 1 1 31
M  V30 34 1 6 32
M  V30 35 1 7 33
M  V30 36 1 9 34
M  V30 37 1 9 35
M  V30 38 1 10 36
M  V30 39 1 14 37
M  V30 40 1 16 38
M  V30 41 1 16 39
M  V30 42 1 22 40
M  V30 43 1 22 41
M  V30 44 1 23 42
M  V30 45 1 24 43
M  V30 46 1 24 44
M  V30 47 1 25 45
M  V30 48 1 25 46
M  V30 49 1 27 47
M  V30 50 1 28 48
M  V30 END BOND
M  V30 END CTAB
M  END
>  <Dataset>  (148) 
ChEMBL_Kinases

>  <Ligand_Instance>  (148) 
nan

>  <PDB_ID>  (148) 
nan

>  <Standardized_SMILES>  (148) 
CS(=O)(=O)c1ccc(CNC(=O)c2cc(N)c(C#N)c(OCC3CC3)n2)cc1

>  <Name>  (148) 
nan

>  <Pocket>  (148) 
nan

>  <ATP_Site>  (148) 
nan

>  <Peripheral>  (148) 
nan

>  <Num_H_Atoms_ProtBoundConf>  (148) 
nan

>  <Num_Resolved_Atoms>  (148) 
nan

>  <Num_Not_Resolved_Atoms>  (148) 
nan

$$$$
CHEMBL374413
     RDKit          3D

  0  0  0  0  0  0  0  0  0  0999 V3000
M  V30 BEGIN CTAB
M  V30 COUNTS 46 50 0 0 0
M  V30 BEGIN ATOM
M  V30 1 N 2.387721 -9.277151 2.990184 0
M  V30 2 C 1.895487 -8.342445 2.477745 0
M  V30 3 C 1.277205 -7.202413 1.869477 0
M  V30 4 C 1.807293 -5.936425 1.994117 0
M  V30 5 C 1.201696 -4.849338 1.403554 0
M  V30 6 C 0.047657 -4.971282 0.666205 0
M  V30 7 C -0.710019 -4.040173 0.003226 0
M  V30 8 C -0.581215 -2.608494 -0.165324 0
M  V30 9 C 0.291981 -1.635185 0.236759 0
M  V30 10 C -0.064571 -0.382293 -0.219330 0
M  V30 11 C 0.518592 0.859068 -0.055382 0
M  V30 12 C -0.068216 1.961566 -0.636285 0
M  V30 13 C 0.610760 3.266123 -0.420487 0
M  V30 14 N 0.163947 3.968631 0.747722 0
M  V30 15 C 0.822294 5.225766 0.950673 0
M  V30 16 C 1.785330 5.206935 2.118687 0
M  V30 17 O 1.158499 4.907987 3.312707 0
M  V30 18 C 0.008755 4.142711 3.133083 0
M  V30 19 C 0.207576 3.191581 1.947547 0
M  V30 20 C -1.225227 1.771979 -1.363641 0
M  V30 21 C -1.786119 0.520339 -1.511122 0
M  V30 22 C -1.219696 -0.604905 -0.939600 0
M  V30 23 N -1.489187 -1.920776 -0.884078 0
M  V30 24 N -1.695845 -4.786554 -0.513036 0
M  V30 25 N -1.565351 -6.063399 -0.201343 0
M  V30 26 C -0.467500 -6.245503 0.552841 0
M  V30 27 C 0.119665 -7.346107 1.133673 0
M  V30 28 H 2.720163 -5.813485 2.572692 0
M  V30 29 H 1.652370 -3.901582 1.532258 0
M  V30 30 H 1.155705 -1.805711 0.834929 0
M  V30 31 H 1.421012 0.945396 0.522807 0
M  V30 32 H 0.296952 3.895452 -1.301165 0
M  V30 33 H 1.702972 3.101547 -0.444483 0
M  V30 34 H 0.060090 6.003157 1.199584 0
M  V30 35 H 1.396965 5.558239 0.062002 0
M  V30 36 H 2.666580 4.564869 1.910456 0
M  V30 37 H 2.174987 6.251581 2.220450 0
M  V30 38 H -0.799547 4.838936 2.829543 0
M  V30 39 H -0.294466 3.607637 4.030877 0
M  V30 40 H -0.612514 2.440871 1.983020 0
M  V30 41 H 1.209807 2.732641 2.115592 0
M  V30 42 H -1.651717 2.663173 -1.801743 0
M  V30 43 H -2.691188 0.384786 -2.082361 0
M  V30 44 H -2.342589 -2.231520 -1.390341 0
M  V30 45 H -2.250331 -6.779769 -0.525069 0
M  V30 46 H -0.358468 -8.312929 0.990283 0
M  V30 END ATOM
M  V30 BEGIN BOND
M  V30 1 3 1 2
M  V30 2 1 2 3
M  V30 3 2 3 4
M  V30 4 1 4 5
M  V30 5 2 5 6
M  V30 6 1 6 7
M  V30 7 1 7 8
M  V30 8 2 8 9
M  V30 9 1 9 10
M  V30 10 2 10 11
M  V30 11 1 11 12
M  V30 12 1 12 13
M  V30 13 1 13 14
M  V30 14 1 14 15
M  V30 15 1 15 16
M  V30 16 1 16 17
M  V30 17 1 17 18
M  V30 18 1 18 19
M  V30 19 2 12 20
M  V30 20 1 20 21
M  V30 21 2 21 22
M  V30 22 1 22 23
M  V30 23 2 7 24
M  V30 24 1 24 25
M  V30 25 1 25 26
M  V30 26 2 26 27
M  V30 27 1 27 3
M  V30 28 1 26 6
M  V30 29 1 23 8
M  V30 30 1 22 10
M  V30 31 1 19 14
M  V30 32 1 4 28
M  V30 33 1 5 29
M  V30 34 1 9 30
M  V30 35 1 11 31
M  V30 36 1 13 32
M  V30 37 1 13 33
M  V30 38 1 15 34
M  V30 39 1 15 35
M  V30 40 1 16 36
M  V30 41 1 16 37
M  V30 42 1 18 38
M  V30 43 1 18 39
M  V30 44 1 19 40
M  V30 45 1 19 41
M  V30 46 1 20 42
M  V30 47 1 21 43
M  V30 48 1 23 44
M  V30 49 1 25 45
M  V30 50 1 27 46
M  V30 END BOND
M  V30 END CTAB
M  END
>  <Dataset>  (149) 
ChEMBL_Kinases

>  <Ligand_Instance>  (149) 
nan

>  <PDB_ID>  (149) 
nan

>  <Standardized_SMILES>  (149) 
N#Cc1ccc2c(-c3cc4cc(CN5CCOCC5)ccc4[nH]3)n[nH]c2c1

>  <Name>  (149) 
nan

>  <Pocket>  (149) 
nan

>  <ATP_Site>  (149) 
nan

>  <Peripheral>  (149) 
nan

>  <Num_H_Atoms_ProtBoundConf>  (149) 
nan

>  <Num_Resolved_Atoms>  (149) 
nan

>  <Num_Not_Resolved_Atoms>  (149) 
nan

$$$$
CHEMBL374216
     RDKit          3D

  0  0  0  0  0  0  0  0  0  0999 V3000
M  V30 BEGIN CTAB
M  V30 COUNTS 69 72 0 0 0
M  V30 BEGIN ATOM
M  V30 1 C 3.704283 -2.266514 5.453764 0
M  V30 2 O 3.900046 -1.142851 4.637767 0
M  V30 3 C 3.165391 -0.801054 3.532903 0
M  V30 4 C 2.088585 -1.489265 3.012147 0
M  V30 5 C 1.378230 -1.118014 1.895007 0
M  V30 6 C 1.734365 0.024551 1.213207 0
M  V30 7 C 1.102540 0.484316 -0.066727 0
M  V30 8 N 1.122691 -0.551445 -1.016690 0
M  V30 9 C 1.233528 -0.318062 -2.379851 0
M  V30 10 C 0.203952 0.408430 -3.133128 0
M  V30 11 C -1.202026 -0.001934 -3.179556 0
M  V30 12 N -2.023678 0.045735 -2.013493 0
M  V30 13 C -2.270864 -0.399437 -0.684034 0
M  V30 14 C -2.821864 0.443208 0.292820 0
M  V30 15 C -3.063112 -0.102798 1.530167 0
M  V30 16 C -2.757165 -1.421981 1.736286 0
M  V30 17 O -3.019637 -1.813448 2.892330 0
M  V30 18 N -2.233234 -2.236719 0.819002 0
M  V30 19 C -1.945963 -3.608639 0.985703 0
M  V30 20 C -2.336478 -4.386130 -0.115029 0
M  V30 21 C -2.190081 -5.752418 -0.250587 0
M  V30 22 C -1.602891 -6.419511 0.797116 0
M  V30 23 C -1.200253 -5.709999 1.906370 0
M  V30 24 C -1.371997 -4.354323 1.984802 0
M  V30 25 Cl -0.879059 -3.476549 3.387236 0
M  V30 26 N -2.022082 -1.662222 -0.348444 0
M  V30 27 C -3.161489 0.883370 -2.386210 0
M  V30 28 C -4.308334 0.084726 -2.512886 0
M  V30 29 C -5.566058 0.578565 -2.903859 0
M  V30 30 C -5.560706 1.926900 -3.148682 0
M  V30 31 C -4.490238 2.779058 -3.049917 0
M  V30 32 C -3.294674 2.220092 -2.661730 0
M  V30 33 Cl -1.884852 3.208254 -2.477630 0
M  V30 34 C 2.818526 0.736694 1.721139 0
M  V30 35 O 3.274769 1.884680 1.138250 0
M  V30 36 C 4.248682 2.032457 0.155291 0
M  V30 37 C 3.530726 0.353564 2.849793 0
M  V30 38 O 4.619647 1.116661 3.332320 0
M  V30 39 C 4.289962 2.130423 4.296152 0
M  V30 40 H 4.600417 -2.947620 5.370181 0
M  V30 41 H 2.827388 -2.875767 5.207211 0
M  V30 42 H 3.637870 -1.928516 6.515190 0
M  V30 43 H 1.833111 -2.374996 3.547799 0
M  V30 44 H 0.534994 -1.667788 1.499257 0
M  V30 45 H 0.089068 0.818566 0.190872 0
M  V30 46 H 1.668442 1.400132 -0.437114 0
M  V30 47 H 1.191300 -1.524680 -0.673209 0
M  V30 48 H 2.217069 0.262304 -2.533304 0
M  V30 49 H 1.480985 -1.311550 -2.903313 0
M  V30 50 H 0.347747 1.508890 -2.905132 0
M  V30 51 H 0.578425 0.383721 -4.234098 0
M  V30 52 H -1.716033 0.393112 -4.098446 0
M  V30 53 H -1.173505 -1.138446 -3.459781 0
M  V30 54 H -3.016473 1.464572 -0.001595 0
M  V30 55 H -3.485296 0.548098 2.276509 0
M  V30 56 H -2.814448 -3.915778 -0.993324 0
M  V30 57 H -2.524961 -6.262597 -1.142200 0
M  V30 58 H -1.473538 -7.477399 0.719697 0
M  V30 59 H -0.729293 -6.186295 2.760554 0
M  V30 60 H -4.353228 -0.998537 -2.323424 0
M  V30 61 H -6.437252 -0.046553 -2.997631 0
M  V30 62 H -6.487563 2.404240 -3.455756 0
M  V30 63 H -4.473221 3.832734 -3.240967 0
M  V30 64 H 5.022990 2.775920 0.509699 0
M  V30 65 H 3.793087 2.462003 -0.769423 0
M  V30 66 H 4.747599 1.084404 -0.095524 0
M  V30 67 H 3.246523 2.488322 4.155829 0
M  V30 68 H 4.955717 2.992404 4.245672 0
M  V30 69 H 4.311727 1.722949 5.328977 0
M  V30 END ATOM
M  V30 BEGIN BOND
M  V30 1 1 1 2
M  V30 2 1 2 3
M  V30 3 2 3 4
M  V30 4 1 4 5
M  V30 5 2 5 6
M  V30 6 1 6 7
M  V30 7 1 7 8
M  V30 8 1 8 9
M  V30 9 1 9 10
M  V30 10 1 10 11
M  V30 11 1 11 12
M  V30 12 1 12 13
M  V30 13 1 13 14
M  V30 14 2 14 15
M  V30 15 1 15 16
M  V30 16 2 16 17
M  V30 17 1 16 18
M  V30 18 1 18 19
M  V30 19 2 19 20
M  V30 20 1 20 21
M  V30 21 2 21 22
M  V30 22 1 22 23
M  V30 23 2 23 24
M  V30 24 1 24 25
M  V30 25 1 18 26
M  V30 26 1 12 27
M  V30 27 2 27 28
M  V30 28 1 28 29
M  V30 29 2 29 30
M  V30 30 1 30 31
M  V30 31 2 31 32
M  V30 32 1 32 33
M  V30 33 1 6 34
M  V30 34 1 34 35
M  V30 35 1 35 36
M  V30 36 2 34 37
M  V30 37 1 37 38
M  V30 38 1 38 39
M  V30 39 1 37 3
M  V30 40 2 26 13
M  V30 41 1 32 27
M  V30 42 1 24 19
M  V30 43 1 1 40
M  V30 44 1 1 41
M  V30 45 1 1 42
M  V30 46 1 4 43
M  V30 47 1 5 44
M  V30 48 1 7 45
M  V30 49 1 7 46
M  V30 50 1 8 47
M  V30 51 1 9 48
M  V30 52 1 9 49
M  V30 53 1 10 50
M  V30 54 1 10 51
M  V30 55 1 11 52
M  V30 56 1 11 53
M  V30 57 1 14 54
M  V30 58 1 15 55
M  V30 59 1 20 56
M  V30 60 1 21 57
M  V30 61 1 22 58
M  V30 62 1 23 59
M  V30 63 1 28 60
M  V30 64 1 29 61
M  V30 65 1 30 62
M  V30 66 1 31 63
M  V30 67 1 36 64
M  V30 68 1 36 65
M  V30 69 1 36 66
M  V30 70 1 39 67
M  V30 71 1 39 68
M  V30 72 1 39 69
M  V30 END BOND
M  V30 END CTAB
M  END
>  <Dataset>  (150) 
ChEMBL_Kinases

>  <Ligand_Instance>  (150) 
nan

>  <PDB_ID>  (150) 
nan

>  <Standardized_SMILES>  (150) 
COc1ccc(CNCCCN(c2ccc(=O)n(-c3ccccc3Cl)n2)c2ccccc2Cl)c(OC)c1OC

>  <Name>  (150) 
nan

>  <Pocket>  (150) 
nan

>  <ATP_Site>  (150) 
nan

>  <Peripheral>  (150) 
nan

>  <Num_H_Atoms_ProtBoundConf>  (150) 
nan

>  <Num_Resolved_Atoms>  (150) 
nan

>  <Num_Not_Resolved_Atoms>  (150) 
nan

$$$$
CHEMBL3218016
     RDKit          3D

  0  0  0  0  0  0  0  0  0  0999 V3000
M  V30 BEGIN CTAB
M  V30 COUNTS 43 45 0 0 0
M  V30 BEGIN ATOM
M  V30 1 C -0.761450 -5.745672 -0.630491 0
M  V30 2 C -0.774325 -4.502227 -1.423010 0
M  V30 3 O -1.752041 -4.399621 -2.196066 0
M  V30 4 N 0.169323 -3.473997 -1.387246 0
M  V30 5 C 0.233111 -2.264219 -2.102677 0
M  V30 6 C -0.667012 -1.824505 -3.034412 0
M  V30 7 C -0.602848 -0.637503 -3.732092 0
M  V30 8 C 0.464941 0.196711 -3.476511 0
M  V30 9 C 1.414096 -0.209249 -2.530071 0
M  V30 10 C 2.544567 0.707507 -2.281407 0
M  V30 11 N 2.286246 1.693527 -1.251511 0
M  V30 12 C 2.281396 1.509930 0.157138 0
M  V30 13 O 2.537579 0.342014 0.587103 0
M  V30 14 N 2.004907 2.568023 1.063334 0
M  V30 15 C 2.057026 2.127105 2.534448 0
M  V30 16 N 0.995511 1.698107 3.054494 0
M  V30 17 C 0.966118 1.300553 4.315495 0
M  V30 18 C -0.303548 0.798504 4.897962 0
M  V30 19 C -1.477250 0.725130 4.177607 0
M  V30 20 C -2.618923 0.234472 4.822961 0
M  V30 21 N -2.606010 -0.158335 6.095503 0
M  V30 22 C -1.486600 -0.104827 6.835381 0
M  V30 23 C -0.351443 0.378201 6.208825 0
M  V30 24 C 2.150879 1.373668 5.046881 0
M  V30 25 S 3.296263 2.079573 3.700830 0
M  V30 26 C 1.279452 -1.413051 -1.874017 0
M  V30 27 H -0.891227 -6.627313 -1.302876 0
M  V30 28 H 0.157527 -5.877648 -0.041404 0
M  V30 29 H -1.681547 -5.751426 0.015614 0
M  V30 30 H 0.927741 -3.709441 -0.690251 0
M  V30 31 H -1.521921 -2.424020 -3.281686 0
M  V30 32 H -1.345051 -0.339508 -4.459235 0
M  V30 33 H 0.565745 1.140289 -3.994740 0
M  V30 34 H 2.752504 1.254675 -3.226002 0
M  V30 35 H 3.472333 0.161723 -2.000190 0
M  V30 36 H 2.068064 2.697128 -1.531993 0
M  V30 37 H 1.796901 3.515381 0.724252 0
M  V30 38 H -1.483788 1.041149 3.157354 0
M  V30 39 H -3.525567 0.181939 4.252804 0
M  V30 40 H -1.464608 -0.421028 7.869161 0
M  V30 41 H 0.532597 0.403792 6.846747 0
M  V30 42 H 2.297387 1.079885 6.116599 0
M  V30 43 H 2.037909 -1.704780 -1.143813 0
M  V30 END ATOM
M  V30 BEGIN BOND
M  V30 1 1 1 2
M  V30 2 2 2 3
M  V30 3 1 2 4
M  V30 4 1 4 5
M  V30 5 2 5 6
M  V30 6 1 6 7
M  V30 7 2 7 8
M  V30 8 1 8 9
M  V30 9 1 9 10
M  V30 10 1 10 11
M  V30 11 1 11 12
M  V30 12 2 12 13
M  V30 13 1 12 14
M  V30 14 1 14 15
M  V30 15 2 15 16
M  V30 16 1 16 17
M  V30 17 1 17 18
M  V30 18 2 18 19
M  V30 19 1 19 20
M  V30 20 2 20 21
M  V30 21 1 21 22
M  V30 22 2 22 23
M  V30 23 2 17 24
M  V30 24 1 24 25
M  V30 25 2 9 26
M  V30 26 1 26 5
M  V30 27 1 25 15
M  V30 28 1 23 18
M  V30 29 1 1 27
M  V30 30 1 1 28
M  V30 31 1 1 29
M  V30 32 1 4 30
M  V30 33 1 6 31
M  V30 34 1 7 32
M  V30 35 1 8 33
M  V30 36 1 10 34
M  V30 37 1 10 35
M  V30 38 1 11 36
M  V30 39 1 14 37
M  V30 40 1 19 38
M  V30 41 1 20 39
M  V30 42 1 22 40
M  V30 43 1 23 41
M  V30 44 1 24 42
M  V30 45 1 26 43
M  V30 END BOND
M  V30 END CTAB
M  END
>  <Dataset>  (151) 
ChEMBL_Kinases

>  <Ligand_Instance>  (151) 
nan

>  <PDB_ID>  (151) 
nan

>  <Standardized_SMILES>  (151) 
CC(=O)Nc1cccc(CNC(=O)Nc2nc(-c3ccncc3)cs2)c1

>  <Name>  (151) 
nan

>  <Pocket>  (151) 
nan

>  <ATP_Site>  (151) 
nan

>  <Peripheral>  (151) 
nan

>  <Num_H_Atoms_ProtBoundConf>  (151) 
nan

>  <Num_Resolved_Atoms>  (151) 
nan

>  <Num_Not_Resolved_Atoms>  (151) 
nan

$$$$
CHEMBL3218017
     RDKit          3D

  0  0  0  0  0  0  0  0  0  0999 V3000
M  V30 BEGIN CTAB
M  V30 COUNTS 47 49 0 0 0
M  V30 BEGIN ATOM
M  V30 1 C 5.650364 -4.933069 6.389712 0
M  V30 2 O 5.343786 -4.253878 5.222423 0
M  V30 3 C 4.506343 -4.993595 4.393159 0
M  V30 4 C 4.177451 -4.244351 3.120103 0
M  V30 5 O 3.522144 -3.013418 3.354119 0
M  V30 6 C 3.136736 -2.173715 2.301191 0
M  V30 7 C 3.417326 -2.582205 1.002248 0
M  V30 8 C 3.033239 -1.747223 -0.028859 0
M  V30 9 C 2.403301 -0.573783 0.275091 0
M  V30 10 C 2.106461 -0.130257 1.530912 0
M  V30 11 C 1.419585 1.144227 1.858772 0
M  V30 12 N -0.020830 1.010023 1.936763 0
M  V30 13 C -0.919944 0.901480 0.843785 0
M  V30 14 O -0.456235 0.920676 -0.323834 0
M  V30 15 N -2.319360 0.771902 1.001002 0
M  V30 16 C -3.140057 0.665989 -0.228514 0
M  V30 17 N -3.614630 1.495298 -0.833787 0
M  V30 18 C -4.357534 1.406479 -1.946792 0
M  V30 19 C -4.923993 2.554874 -2.650944 0
M  V30 20 C -4.762198 3.865485 -2.254775 0
M  V30 21 C -5.277037 4.962699 -2.889510 0
M  V30 22 N -6.012859 4.760937 -4.006896 0
M  V30 23 C -6.224205 3.522186 -4.468112 0
M  V30 24 C -5.684383 2.436597 -3.794865 0
M  V30 25 C -4.568492 0.110604 -2.414308 0
M  V30 26 S -3.621829 -0.905720 -1.130868 0
M  V30 27 C 2.502167 -0.987164 2.561040 0
M  V30 28 H 6.326072 -4.295225 7.021591 0
M  V30 29 H 4.738539 -5.223750 6.975273 0
M  V30 30 H 6.210075 -5.883471 6.217664 0
M  V30 31 H 5.062883 -5.896338 4.093514 0
M  V30 32 H 3.604656 -5.277706 4.955935 0
M  V30 33 H 5.118236 -4.060968 2.569680 0
M  V30 34 H 3.478519 -4.843938 2.503183 0
M  V30 35 H 3.914223 -3.512991 0.814098 0
M  V30 36 H 3.241633 -2.044928 -1.056764 0
M  V30 37 H 2.127080 0.039305 -0.562385 0
M  V30 38 H 1.774518 1.456714 2.863015 0
M  V30 39 H 1.717945 1.963377 1.172084 0
M  V30 40 H -0.517833 0.983347 2.876816 0
M  V30 41 H -2.740938 0.752547 1.957390 0
M  V30 42 H -4.173149 4.067473 -1.355552 0
M  V30 43 H -5.092912 5.973037 -2.495946 0
M  V30 44 H -6.817121 3.339037 -5.370906 0
M  V30 45 H -5.884558 1.453104 -4.209133 0
M  V30 46 H -5.127397 -0.192543 -3.279684 0
M  V30 47 H 2.314300 -0.731428 3.613466 0
M  V30 END ATOM
M  V30 BEGIN BOND
M  V30 1 1 1 2
M  V30 2 1 2 3
M  V30 3 1 3 4
M  V30 4 1 4 5
M  V30 5 1 5 6
M  V30 6 2 6 7
M  V30 7 1 7 8
M  V30 8 2 8 9
M  V30 9 1 9 10
M  V30 10 1 10 11
M  V30 11 1 11 12
M  V30 12 1 12 13
M  V30 13 2 13 14
M  V30 14 1 13 15
M  V30 15 1 15 16
M  V30 16 2 16 17
M  V30 17 1 17 18
M  V30 18 1 18 19
M  V30 19 2 19 20
M  V30 20 1 20 21
M  V30 21 2 21 22
M  V30 22 1 22 23
M  V30 23 2 23 24
M  V30 24 2 18 25
M  V30 25 1 25 26
M  V30 26 2 10 27
M  V30 27 1 27 6
M  V30 28 1 26 16
M  V30 29 1 24 19
M  V30 30 1 1 28
M  V30 31 1 1 29
M  V30 32 1 1 30
M  V30 33 1 3 31
M  V30 34 1 3 32
M  V30 35 1 4 33
M  V30 36 1 4 34
M  V30 37 1 7 35
M  V30 38 1 8 36
M  V30 39 1 9 37
M  V30 40 1 11 38
M  V30 41 1 11 39
M  V30 42 1 12 40
M  V30 43 1 15 41
M  V30 44 1 20 42
M  V30 45 1 21 43
M  V30 46 1 23 44
M  V30 47 1 24 45
M  V30 48 1 25 46
M  V30 49 1 27 47
M  V30 END BOND
M  V30 END CTAB
M  END
>  <Dataset>  (152) 
ChEMBL_Kinases

>  <Ligand_Instance>  (152) 
nan

>  <PDB_ID>  (152) 
nan

>  <Standardized_SMILES>  (152) 
COCCOc1cccc(CNC(=O)Nc2nc(-c3ccncc3)cs2)c1

>  <Name>  (152) 
nan

>  <Pocket>  (152) 
nan

>  <ATP_Site>  (152) 
nan

>  <Peripheral>  (152) 
nan

>  <Num_H_Atoms_ProtBoundConf>  (152) 
nan

>  <Num_Resolved_Atoms>  (152) 
nan

>  <Num_Not_Resolved_Atoms>  (152) 
nan

$$$$
CHEMBL3218018
     RDKit          3D

  0  0  0  0  0  0  0  0  0  0999 V3000
M  V30 BEGIN CTAB
M  V30 COUNTS 43 45 0 0 0
M  V30 BEGIN ATOM
M  V30 1 C -2.545511 -4.344687 1.428392 0
M  V30 2 C -2.035673 -3.238507 0.531820 0
M  V30 3 O -1.538912 -3.702923 -0.681578 0
M  V30 4 C -1.004305 -2.937660 -1.706241 0
M  V30 5 C -0.545298 -3.539233 -2.868092 0
M  V30 6 C -0.013624 -2.766108 -3.884970 0
M  V30 7 C 0.035215 -1.382259 -3.684627 0
M  V30 8 C -0.425257 -0.761804 -2.515355 0
M  V30 9 C -0.255940 0.709922 -2.572133 0
M  V30 10 N 1.028081 1.135517 -2.055198 0
M  V30 11 C 1.380178 1.215661 -0.690011 0
M  V30 12 O 0.504297 0.888175 0.161525 0
M  V30 13 N 2.687386 1.656284 -0.378325 0
M  V30 14 C 2.909476 1.691390 1.076987 0
M  V30 15 N 2.209771 1.425693 2.028468 0
M  V30 16 C 2.620053 1.532520 3.282546 0
M  V30 17 C 1.727636 1.195482 4.388590 0
M  V30 18 C 0.430998 0.753594 4.235917 0
M  V30 19 C -0.411631 0.435438 5.281156 0
M  V30 20 N 0.052565 0.560955 6.548833 0
M  V30 21 C 1.309781 0.987153 6.784280 0
M  V30 22 C 2.109132 1.291465 5.700938 0
M  V30 23 C 3.934040 1.976961 3.496334 0
M  V30 24 S 4.515731 2.223572 1.752944 0
M  V30 25 C -0.943620 -1.571504 -1.536279 0
M  V30 26 H -3.630729 -4.414202 1.497209 0
M  V30 27 H -2.084691 -5.303917 1.048654 0
M  V30 28 H -2.144244 -4.228609 2.453185 0
M  V30 29 H -2.935195 -2.602308 0.303407 0
M  V30 30 H -1.339528 -2.605552 1.110339 0
M  V30 31 H -0.591812 -4.625334 -3.005350 0
M  V30 32 H 0.330300 -3.251185 -4.763114 0
M  V30 33 H 0.470959 -0.867124 -4.543862 0
M  V30 34 H -1.026122 1.115553 -1.849230 0
M  V30 35 H -0.460988 1.113043 -3.571933 0
M  V30 36 H 1.730862 1.399360 -2.795082 0
M  V30 37 H 3.434778 1.931981 -1.016756 0
M  V30 38 H 0.035772 0.644282 3.221491 0
M  V30 39 H -1.421332 0.093227 5.090292 0
M  V30 40 H 1.648399 1.076427 7.800415 0
M  V30 41 H 3.098496 1.625037 5.966159 0
M  V30 42 H 4.398687 2.109003 4.494714 0
M  V30 43 H -1.273214 -1.024161 -0.677667 0
M  V30 END ATOM
M  V30 BEGIN BOND
M  V30 1 1 1 2
M  V30 2 1 2 3
M  V30 3 1 3 4
M  V30 4 2 4 5
M  V30 5 1 5 6
M  V30 6 2 6 7
M  V30 7 1 7 8
M  V30 8 1 8 9
M  V30 9 1 9 10
M  V30 10 1 10 11
M  V30 11 2 11 12
M  V30 12 1 11 13
M  V30 13 1 13 14
M  V30 14 2 14 15
M  V30 15 1 15 16
M  V30 16 1 16 17
M  V30 17 2 17 18
M  V30 18 1 18 19
M  V30 19 2 19 20
M  V30 20 1 20 21
M  V30 21 2 21 22
M  V30 22 2 16 23
M  V30 23 1 23 24
M  V30 24 2 8 25
M  V30 25 1 25 4
M  V30 26 1 24 14
M  V30 27 1 22 17
M  V30 28 1 1 26
M  V30 29 1 1 27
M  V30 30 1 1 28
M  V30 31 1 2 29
M  V30 32 1 2 30
M  V30 33 1 5 31
M  V30 34 1 6 32
M  V30 35 1 7 33
M  V30 36 1 9 34
M  V30 37 1 9 35
M  V30 38 1 10 36
M  V30 39 1 13 37
M  V30 40 1 18 38
M  V30 41 1 19 39
M  V30 42 1 21 40
M  V30 43 1 22 41
M  V30 44 1 23 42
M  V30 45 1 25 43
M  V30 END BOND
M  V30 END CTAB
M  END
>  <Dataset>  (153) 
ChEMBL_Kinases

>  <Ligand_Instance>  (153) 
nan

>  <PDB_ID>  (153) 
nan

>  <Standardized_SMILES>  (153) 
CCOc1cccc(CNC(=O)Nc2nc(-c3ccncc3)cs2)c1

>  <Name>  (153) 
nan

>  <Pocket>  (153) 
nan

>  <ATP_Site>  (153) 
nan

>  <Peripheral>  (153) 
nan

>  <Num_H_Atoms_ProtBoundConf>  (153) 
nan

>  <Num_Resolved_Atoms>  (153) 
nan

>  <Num_Not_Resolved_Atoms>  (153) 
nan

$$$$
CHEMBL3679629
     RDKit          3D

  0  0  0  0  0  0  0  0  0  0999 V3000
M  V30 BEGIN CTAB
M  V30 COUNTS 55 59 0 0 0
M  V30 BEGIN ATOM
M  V30 1 N -6.267233 -0.813831 1.419314 0
M  V30 2 C -5.794070 -1.349474 0.317918 0
M  V30 3 N -5.635424 -2.759247 0.427925 0
M  V30 4 N -5.496694 -0.547226 -0.817309 0
M  V30 5 C -6.394831 -0.047747 -1.703153 0
M  V30 6 N -7.604405 -0.384093 -1.402857 0
M  V30 7 C -5.959483 0.718200 -2.765414 0
M  V30 8 C -4.616175 0.980437 -2.933981 0
M  V30 9 C -3.698426 0.472705 -2.032674 0
M  V30 10 N -2.392680 0.747446 -2.226160 0
M  V30 11 C -1.444757 0.275833 -1.373699 0
M  V30 12 C -0.003326 0.493726 -1.460586 0
M  V30 13 C 0.595755 1.194818 -0.419446 0
M  V30 14 C 1.951546 1.457104 -0.396320 0
M  V30 15 C 2.760922 1.020643 -1.427363 0
M  V30 16 C 4.206101 1.180379 -1.611925 0
M  V30 17 N 4.856843 -0.013908 -2.176800 0
M  V30 18 C 4.698585 2.383834 -2.341937 0
M  V30 19 C 5.837825 2.487519 -1.329600 0
M  V30 20 C 4.997848 1.620632 -0.404739 0
M  V30 21 C 2.172707 0.313377 -2.483164 0
M  V30 22 C 0.802030 0.052486 -2.498847 0
M  V30 23 C -1.876895 -0.502983 -0.291731 0
M  V30 24 C -0.942185 -1.057810 0.680553 0
M  V30 25 C 0.061382 -1.982860 0.396585 0
M  V30 26 C 0.898538 -2.449015 1.391188 0
M  V30 27 C 0.760552 -2.004402 2.710270 0
M  V30 28 C -0.236163 -1.078717 3.020355 0
M  V30 29 C -1.063816 -0.627747 1.997037 0
M  V30 30 C -3.208887 -0.772867 -0.109873 0
M  V30 31 C -4.183215 -0.298335 -0.971028 0
M  V30 32 H -6.490029 -1.363479 2.250577 0
M  V30 33 H -5.013769 -3.620866 0.379565 0
M  V30 34 H -6.420951 -3.415606 0.669114 0
M  V30 35 H -8.405445 -0.090114 -1.968797 0
M  V30 36 H -6.743741 1.073710 -3.419511 0
M  V30 37 H -4.306958 1.578703 -3.769174 0
M  V30 38 H 0.046039 1.575864 0.429679 0
M  V30 39 H 2.473645 1.984218 0.363078 0
M  V30 40 H 5.129047 0.134928 -3.174023 0
M  V30 41 H 4.201835 -0.826900 -2.168012 0
M  V30 42 H 5.140385 2.162668 -3.357861 0
M  V30 43 H 4.052730 3.272149 -2.386924 0
M  V30 44 H 5.989075 3.536181 -0.956689 0
M  V30 45 H 6.798801 2.042121 -1.649460 0
M  V30 46 H 5.522993 0.799432 0.083984 0
M  V30 47 H 4.493521 2.264885 0.325768 0
M  V30 48 H 2.709835 -0.085085 -3.359432 0
M  V30 49 H 0.312248 -0.489459 -3.294583 0
M  V30 50 H 0.131064 -2.298057 -0.635098 0
M  V30 51 H 1.654561 -3.164699 1.101794 0
M  V30 52 H 1.442206 -2.398116 3.463524 0
M  V30 53 H -0.353808 -0.725280 4.041610 0
M  V30 54 H -1.816212 0.089779 2.306190 0
M  V30 55 H -3.529900 -1.376971 0.731187 0
M  V30 END ATOM
M  V30 BEGIN BOND
M  V30 1 2 1 2 CFG=2
M  V30 2 1 2 3
M  V30 3 1 2 4
M  V30 4 1 4 5
M  V30 5 2 5 6 CFG=2
M  V30 6 1 5 7
M  V30 7 2 7 8
M  V30 8 1 8 9
M  V30 9 2 9 10
M  V30 10 1 10 11
M  V30 11 1 11 12
M  V30 12 2 12 13
M  V30 13 1 13 14
M  V30 14 2 14 15
M  V30 15 1 15 16
M  V30 16 1 16 17
M  V30 17 1 16 18
M  V30 18 1 18 19
M  V30 19 1 19 20
M  V30 20 1 15 21
M  V30 21 2 21 22
M  V30 22 2 11 23
M  V30 23 1 23 24
M  V30 24 2 24 25
M  V30 25 1 25 26
M  V30 26 2 26 27
M  V30 27 1 27 28
M  V30 28 2 28 29
M  V30 29 1 23 30
M  V30 30 2 30 31
M  V30 31 1 31 4
M  V30 32 1 31 9
M  V30 33 1 22 12
M  V30 34 1 29 24
M  V30 35 1 20 16
M  V30 36 1 1 32
M  V30 37 1 3 33
M  V30 38 1 3 34
M  V30 39 1 6 35
M  V30 40 1 7 36
M  V30 41 1 8 37
M  V30 42 1 13 38
M  V30 43 1 14 39
M  V30 44 1 17 40
M  V30 45 1 17 41
M  V30 46 1 18 42
M  V30 47 1 18 43
M  V30 48 1 19 44
M  V30 49 1 19 45
M  V30 50 1 20 46
M  V30 51 1 20 47
M  V30 52 1 21 48
M  V30 53 1 22 49
M  V30 54 1 25 50
M  V30 55 1 26 51
M  V30 56 1 27 52
M  V30 57 1 28 53
M  V30 58 1 29 54
M  V30 59 1 30 55
M  V30 END BOND
M  V30 END CTAB
M  END
>  <Dataset>  (154) 
ChEMBL_Kinases

>  <Ligand_Instance>  (154) 
nan

>  <PDB_ID>  (154) 
nan

>  <Standardized_SMILES>  (154) 
N=C(N)n1c(=N)ccc2nc(-c3ccc(C4(N)CCC4)cc3)c(-c3ccccc3)cc21

>  <Name>  (154) 
nan

>  <Pocket>  (154) 
nan

>  <ATP_Site>  (154) 
nan

>  <Peripheral>  (154) 
nan

>  <Num_H_Atoms_ProtBoundConf>  (154) 
nan

>  <Num_Resolved_Atoms>  (154) 
nan

>  <Num_Not_Resolved_Atoms>  (154) 
nan

$$$$
CHEMBL3218019
     RDKit          3D

  0  0  0  0  0  0  0  0  0  0999 V3000
M  V30 BEGIN CTAB
M  V30 COUNTS 46 48 0 0 0
M  V30 BEGIN ATOM
M  V30 1 C 1.754253 -6.345701 0.731019 0
M  V30 2 C 1.862775 -4.820570 0.768598 0
M  V30 3 C 1.747701 -4.319041 -0.629063 0
M  V30 4 O 1.814971 -2.959168 -0.826643 0
M  V30 5 C 2.804196 -2.053809 -0.569431 0
M  V30 6 C 4.077139 -2.096706 -0.046896 0
M  V30 7 C 4.863759 -0.979572 0.096863 0
M  V30 8 C 4.382176 0.241672 -0.289802 0
M  V30 9 C 3.103100 0.360082 -0.826910 0
M  V30 10 C 2.761478 1.758329 -1.189740 0
M  V30 11 N 2.192413 2.382270 -0.009775 0
M  V30 12 C 0.907791 2.228692 0.517164 0
M  V30 13 O 0.078707 1.472435 -0.047913 0
M  V30 14 N 0.601556 2.947371 1.683391 0
M  V30 15 C -0.791950 2.709675 2.157238 0
M  V30 16 N -1.720333 2.136811 1.897946 0
M  V30 17 C -2.882849 2.102733 2.522925 0
M  V30 18 C -4.018505 1.306006 2.071029 0
M  V30 19 C -4.037519 0.496865 0.955496 0
M  V30 20 C -5.109361 -0.254518 0.529159 0
M  V30 21 N -6.252818 -0.202339 1.263184 0
M  V30 22 C -6.325210 0.550096 2.352711 0
M  V30 23 C -5.224763 1.284029 2.738133 0
M  V30 24 C -2.971456 2.888763 3.666644 0
M  V30 25 S -1.260501 3.645327 3.728539 0
M  V30 26 C 2.325394 -0.795230 -0.961179 0
M  V30 27 H 2.095053 -6.680277 -0.265664 0
M  V30 28 H 2.454547 -6.815268 1.463786 0
M  V30 29 H 0.707160 -6.652776 0.908006 0
M  V30 30 H 1.019519 -4.454154 1.420646 0
M  V30 31 H 2.837076 -4.586030 1.223600 0
M  V30 32 H 2.550776 -4.835909 -1.234663 0
M  V30 33 H 0.791165 -4.705936 -1.096443 0
M  V30 34 H 4.344492 -3.108720 0.212936 0
M  V30 35 H 5.844294 -1.173248 0.524753 0
M  V30 36 H 5.069990 1.074594 -0.141654 0
M  V30 37 H 3.622891 2.286445 -1.594964 0
M  V30 38 H 1.938117 1.772781 -1.959311 0
M  V30 39 H 2.887322 3.026650 0.474434 0
M  V30 40 H 1.255935 3.582902 2.182553 0
M  V30 41 H -3.114045 0.449820 0.355622 0
M  V30 42 H -5.041505 -0.865896 -0.361664 0
M  V30 43 H -7.242895 0.561587 2.899779 0
M  V30 44 H -5.350905 1.884379 3.647358 0
M  V30 45 H -3.822987 3.023694 4.346630 0
M  V30 46 H 1.360154 -0.515610 -1.400528 0
M  V30 END ATOM
M  V30 BEGIN BOND
M  V30 1 1 1 2
M  V30 2 1 2 3
M  V30 3 1 3 4
M  V30 4 1 4 5
M  V30 5 2 5 6
M  V30 6 1 6 7
M  V30 7 2 7 8
M  V30 8 1 8 9
M  V30 9 1 9 10
M  V30 10 1 10 11
M  V30 11 1 11 12
M  V30 12 2 12 13
M  V30 13 1 12 14
M  V30 14 1 14 15
M  V30 15 2 15 16
M  V30 16 1 16 17
M  V30 17 1 17 18
M  V30 18 2 18 19
M  V30 19 1 19 20
M  V30 20 2 20 21
M  V30 21 1 21 22
M  V30 22 2 22 23
M  V30 23 2 17 24
M  V30 24 1 24 25
M  V30 25 2 9 26
M  V30 26 1 26 5
M  V30 27 1 25 15
M  V30 28 1 23 18
M  V30 29 1 1 27
M  V30 30 1 1 28
M  V30 31 1 1 29
M  V30 32 1 2 30
M  V30 33 1 2 31
M  V30 34 1 3 32
M  V30 35 1 3 33
M  V30 36 1 6 34
M  V30 37 1 7 35
M  V30 38 1 8 36
M  V30 39 1 10 37
M  V30 40 1 10 38
M  V30 41 1 11 39
M  V30 42 1 14 40
M  V30 43 1 19 41
M  V30 44 1 20 42
M  V30 45 1 22 43
M  V30 46 1 23 44
M  V30 47 1 24 45
M  V30 48 1 26 46
M  V30 END BOND
M  V30 END CTAB
M  END
>  <Dataset>  (155) 
ChEMBL_Kinases

>  <Ligand_Instance>  (155) 
nan

>  <PDB_ID>  (155) 
nan

>  <Standardized_SMILES>  (155) 
CCCOc1cccc(CNC(=O)Nc2nc(-c3ccncc3)cs2)c1

>  <Name>  (155) 
nan

>  <Pocket>  (155) 
nan

>  <ATP_Site>  (155) 
nan

>  <Peripheral>  (155) 
nan

>  <Num_H_Atoms_ProtBoundConf>  (155) 
nan

>  <Num_Resolved_Atoms>  (155) 
nan

>  <Num_Not_Resolved_Atoms>  (155) 
nan

$$$$
CHEMBL3218021
     RDKit          3D

  0  0  0  0  0  0  0  0  0  0999 V3000
M  V30 BEGIN CTAB
M  V30 COUNTS 36 38 0 0 0
M  V30 BEGIN ATOM
M  V30 1 O 0.972966 -1.686965 1.141314 0
M  V30 2 C 0.165205 -2.016370 2.061102 0
M  V30 3 N 0.095567 -3.419965 2.269015 0
M  V30 4 C 0.803872 -4.503446 1.590975 0
M  V30 5 C 1.708648 -3.940386 0.546975 0
M  V30 6 C 3.010574 -3.601937 0.850695 0
M  V30 7 C 3.846015 -3.083922 -0.105790 0
M  V30 8 C 3.351099 -2.909339 -1.381837 0
M  V30 9 C 2.058946 -3.230298 -1.740513 0
M  V30 10 F 1.581973 -3.053317 -3.003762 0
M  V30 11 C 1.253689 -3.748036 -0.747993 0
M  V30 12 N -0.628924 -1.163136 2.855283 0
M  V30 13 C -0.375774 0.271145 2.442354 0
M  V30 14 N -0.897338 0.903455 1.661392 0
M  V30 15 C -0.744001 2.127356 1.249510 0
M  V30 16 C -1.467332 2.863640 0.230483 0
M  V30 17 C -2.493424 2.276439 -0.472634 0
M  V30 18 C -3.209158 2.934092 -1.448726 0
M  V30 19 N -2.902814 4.208800 -1.739096 0
M  V30 20 C -1.910924 4.817070 -1.077924 0
M  V30 21 C -1.196434 4.168044 -0.106926 0
M  V30 22 C 0.321353 2.757476 1.970335 0
M  V30 23 S 0.909309 1.392906 3.147295 0
M  V30 24 H -0.535449 -3.819059 3.000697 0
M  V30 25 H 0.007403 -5.095794 1.084236 0
M  V30 26 H 1.378676 -5.118306 2.297624 0
M  V30 27 H 3.352582 -3.759719 1.874591 0
M  V30 28 H 4.873057 -2.810838 0.110511 0
M  V30 29 H 4.011521 -2.495153 -2.155876 0
M  V30 30 H 0.224462 -4.027607 -0.942160 0
M  V30 31 H -1.279038 -1.465709 3.599090 0
M  V30 32 H -2.760370 1.240517 -0.253637 0
M  V30 33 H -4.007131 2.412433 -1.965936 0
M  V30 34 H -1.656553 5.841807 -1.303734 0
M  V30 35 H -0.409044 4.694034 0.398306 0
M  V30 36 H 0.760457 3.913216 1.859744 0
M  V30 END ATOM
M  V30 BEGIN BOND
M  V30 1 2 1 2
M  V30 2 1 2 3
M  V30 3 1 3 4
M  V30 4 1 4 5
M  V30 5 2 5 6
M  V30 6 1 6 7
M  V30 7 2 7 8
M  V30 8 1 8 9
M  V30 9 1 9 10
M  V30 10 2 9 11
M  V30 11 1 2 12
M  V30 12 1 12 13
M  V30 13 2 13 14
M  V30 14 1 14 15
M  V30 15 1 15 16
M  V30 16 2 16 17
M  V30 17 1 17 18
M  V30 18 2 18 19
M  V30 19 1 19 20
M  V30 20 2 20 21
M  V30 21 2 15 22
M  V30 22 1 22 23
M  V30 23 1 11 5
M  V30 24 1 23 13
M  V30 25 1 21 16
M  V30 26 1 3 24
M  V30 27 1 4 25
M  V30 28 1 4 26
M  V30 29 1 6 27
M  V30 30 1 7 28
M  V30 31 1 8 29
M  V30 32 1 11 30
M  V30 33 1 12 31
M  V30 34 1 17 32
M  V30 35 1 18 33
M  V30 36 1 20 34
M  V30 37 1 21 35
M  V30 38 1 22 36
M  V30 END BOND
M  V30 END CTAB
M  END
>  <Dataset>  (156) 
ChEMBL_Kinases

>  <Ligand_Instance>  (156) 
nan

>  <PDB_ID>  (156) 
nan

>  <Standardized_SMILES>  (156) 
O=C(NCc1cccc(F)c1)Nc1nc(-c2ccncc2)cs1

>  <Name>  (156) 
nan

>  <Pocket>  (156) 
nan

>  <ATP_Site>  (156) 
nan

>  <Peripheral>  (156) 
nan

>  <Num_H_Atoms_ProtBoundConf>  (156) 
nan

>  <Num_Resolved_Atoms>  (156) 
nan

>  <Num_Not_Resolved_Atoms>  (156) 
nan

$$$$
CHEMBL3735401
     RDKit          3D

  0  0  0  0  0  0  0  0  0  0999 V3000
M  V30 BEGIN CTAB
M  V30 COUNTS 62 66 0 0 0
M  V30 BEGIN ATOM
M  V30 1 C 4.552343 -0.054423 0.941290 0
M  V30 2 C 3.294094 0.743793 1.172876 0
M  V30 3 C 2.093869 -0.101430 1.051512 0
M  V30 4 C 1.548466 -0.536843 2.232564 0
M  V30 5 C 0.445143 -1.334985 2.270160 0
M  V30 6 C -0.167366 -1.736120 1.092385 0
M  V30 7 C 0.396780 -1.287477 -0.074096 0
M  V30 8 C 1.528380 -0.467595 -0.139622 0
M  V30 9 C 2.028839 -0.055621 -1.439890 0
M  V30 10 C 3.154011 0.003938 -2.225014 0
M  V30 11 N 2.860295 0.575373 -3.398909 0
M  V30 12 N 1.585429 0.908196 -3.450939 0
M  V30 13 C 1.009476 1.545616 -4.617240 0
M  V30 14 C 1.122183 3.023349 -4.471076 0
M  V30 15 O 2.042324 3.793043 -4.823732 0
M  V30 16 N 0.051045 3.742322 -3.839546 0
M  V30 17 C 0.320667 5.177730 -3.776391 0
M  V30 18 C -1.207153 3.258369 -3.280637 0
M  V30 19 C 1.058643 0.534461 -2.271300 0
M  V30 20 C -1.365229 -2.597351 0.979621 0
M  V30 21 C -0.916870 -3.847220 0.240140 0
M  V30 22 C -2.475870 -1.937115 0.210952 0
M  V30 23 C -1.877896 -3.011382 2.285950 0
M  V30 24 N -2.949628 -3.791045 2.521155 0
M  V30 25 C -3.097611 -3.942291 3.841233 0
M  V30 26 C -4.020318 -4.631829 4.614707 0
M  V30 27 C -3.920841 -4.605796 5.993547 0
M  V30 28 C -4.875412 -5.318346 6.801631 0
M  V30 29 N -5.625092 -5.895672 7.459060 0
M  V30 30 C -2.921388 -3.909340 6.679565 0
M  V30 31 C -2.017694 -3.233451 5.901363 0
M  V30 32 C -2.117655 -3.259814 4.526210 0
M  V30 33 C -1.361544 -2.681613 3.527631 0
M  V30 34 C -0.180309 -1.828292 3.490059 0
M  V30 35 O 0.347914 -1.485616 4.602329 0
M  V30 36 H 5.236832 0.494042 0.268129 0
M  V30 37 H 4.269623 -1.041539 0.489682 0
M  V30 38 H 5.025194 -0.228187 1.944557 0
M  V30 39 H 3.374661 1.229973 2.165354 0
M  V30 40 H 3.286672 1.562600 0.403488 0
M  V30 41 H 1.956071 -0.276818 3.214935 0
M  V30 42 H -0.047401 -1.574245 -1.040671 0
M  V30 43 H 4.059906 -0.402507 -1.808029 0
M  V30 44 H -0.071319 1.296810 -4.658993 0
M  V30 45 H 1.474307 1.188493 -5.558981 0
M  V30 46 H 1.325108 5.360261 -3.336849 0
M  V30 47 H -0.443533 5.691800 -3.164353 0
M  V30 48 H 0.316347 5.653416 -4.774658 0
M  V30 49 H -1.569735 2.334515 -3.742372 0
M  V30 50 H -1.981541 4.034627 -3.520283 0
M  V30 51 H -1.167071 3.161663 -2.183096 0
M  V30 52 H -0.016160 0.748009 -2.158110 0
M  V30 53 H -1.766361 -4.533706 0.064406 0
M  V30 54 H -0.362220 -3.579876 -0.681912 0
M  V30 55 H -0.194665 -4.365407 0.911071 0
M  V30 56 H -3.387108 -2.570803 0.378706 0
M  V30 57 H -2.709138 -0.945176 0.628798 0
M  V30 58 H -2.228607 -1.795782 -0.852539 0
M  V30 59 H -3.603358 -4.238510 1.826256 0
M  V30 60 H -4.827406 -5.197710 4.165893 0
M  V30 61 H -2.883706 -3.917668 7.742571 0
M  V30 62 H -1.208599 -2.666036 6.333164 0
M  V30 END ATOM
M  V30 BEGIN BOND
M  V30 1 1 1 2
M  V30 2 1 2 3
M  V30 3 2 3 4
M  V30 4 1 4 5
M  V30 5 2 5 6
M  V30 6 1 6 7
M  V30 7 2 7 8
M  V30 8 1 8 9
M  V30 9 1 9 10
M  V30 10 2 10 11
M  V30 11 1 11 12
M  V30 12 1 12 13
M  V30 13 1 13 14
M  V30 14 2 14 15
M  V30 15 1 14 16
M  V30 16 1 16 17
M  V30 17 1 16 18
M  V30 18 1 12 19
M  V30 19 1 6 20
M  V30 20 1 20 21
M  V30 21 1 20 22
M  V30 22 1 20 23
M  V30 23 1 23 24
M  V30 24 1 24 25
M  V30 25 2 25 26
M  V30 26 1 26 27
M  V30 27 1 27 28
M  V30 28 3 28 29
M  V30 29 2 27 30
M  V30 30 1 30 31
M  V30 31 2 31 32
M  V30 32 1 32 33
M  V30 33 1 33 34
M  V30 34 2 34 35
M  V30 35 1 8 3
M  V30 36 2 19 9
M  V30 37 2 33 23
M  V30 38 1 34 5
M  V30 39 1 32 25
M  V30 40 1 1 36
M  V30 41 1 1 37
M  V30 42 1 1 38
M  V30 43 1 2 39
M  V30 44 1 2 40
M  V30 45 1 4 41
M  V30 46 1 7 42
M  V30 47 1 10 43
M  V30 48 1 13 44
M  V30 49 1 13 45
M  V30 50 1 17 46
M  V30 51 1 17 47
M  V30 52 1 17 48
M  V30 53 1 18 49
M  V30 54 1 18 50
M  V30 55 1 18 51
M  V30 56 1 19 52
M  V30 57 1 21 53
M  V30 58 1 21 54
M  V30 59 1 21 55
M  V30 60 1 22 56
M  V30 61 1 22 57
M  V30 62 1 22 58
M  V30 63 1 24 59
M  V30 64 1 26 60
M  V30 65 1 30 61
M  V30 66 1 31 62
M  V30 END BOND
M  V30 END CTAB
M  END
>  <Dataset>  (157) 
ChEMBL_Kinases

>  <Ligand_Instance>  (157) 
nan

>  <PDB_ID>  (157) 
nan

>  <Standardized_SMILES>  (157) 
CCc1cc2c(cc1-c1cnn(CC(=O)N(C)C)c1)C(C)(C)c1[nH]c3cc(C#N)ccc3c1C2=O

>  <Name>  (157) 
nan

>  <Pocket>  (157) 
nan

>  <ATP_Site>  (157) 
nan

>  <Peripheral>  (157) 
nan

>  <Num_H_Atoms_ProtBoundConf>  (157) 
nan

>  <Num_Resolved_Atoms>  (157) 
nan

>  <Num_Not_Resolved_Atoms>  (157) 
nan

$$$$
CHEMBL3218022
     RDKit          3D

  0  0  0  0  0  0  0  0  0  0999 V3000
M  V30 BEGIN CTAB
M  V30 COUNTS 36 38 0 0 0
M  V30 BEGIN ATOM
M  V30 1 O 1.291578 -1.494869 1.791948 0
M  V30 2 C 0.262215 -2.146963 2.108518 0
M  V30 3 N 0.297928 -3.564913 2.054501 0
M  V30 4 C 1.490371 -4.316199 1.643132 0
M  V30 5 C 1.875917 -3.944132 0.256042 0
M  V30 6 C 2.939029 -3.116504 -0.042662 0
M  V30 7 C 3.248282 -2.807715 -1.350897 0
M  V30 8 C 2.429989 -3.377331 -2.330161 0
M  V30 9 C 1.355592 -4.211413 -2.067542 0
M  V30 10 C 1.071900 -4.501529 -0.745193 0
M  V30 11 F 0.025402 -5.315911 -0.453220 0
M  V30 12 N -0.890568 -1.453491 2.505740 0
M  V30 13 C -0.802052 0.061756 2.522634 0
M  V30 14 N -1.014440 0.846336 1.749061 0
M  V30 15 C -0.943594 2.151795 1.747249 0
M  V30 16 C -1.248430 3.077270 0.671255 0
M  V30 17 C -1.679697 2.644255 -0.562256 0
M  V30 18 C -1.974067 3.506562 -1.595354 0
M  V30 19 N -1.842685 4.831511 -1.416408 0
M  V30 20 C -1.425863 5.300613 -0.232934 0
M  V30 21 C -1.133033 4.440857 0.795320 0
M  V30 22 C -0.499035 2.627626 3.015483 0
M  V30 23 S -0.261686 1.026433 3.999720 0
M  V30 24 H -0.595457 -4.047164 2.331620 0
M  V30 25 H 1.229038 -5.373225 1.693604 0
M  V30 26 H 2.269945 -4.061226 2.386510 0
M  V30 27 H 3.533557 -2.707188 0.760666 0
M  V30 28 H 4.068030 -2.166257 -1.641892 0
M  V30 29 H 2.644650 -3.155561 -3.380394 0
M  V30 30 H 0.773709 -4.609144 -2.889495 0
M  V30 31 H -1.731299 -1.991457 2.764262 0
M  V30 32 H -1.801012 1.576240 -0.752433 0
M  V30 33 H -2.311479 3.098072 -2.548873 0
M  V30 34 H -1.323873 6.375067 -0.102329 0
M  V30 35 H -0.801339 4.862822 1.729213 0
M  V30 36 H -0.313857 3.808108 3.380549 0
M  V30 END ATOM
M  V30 BEGIN BOND
M  V30 1 2 1 2
M  V30 2 1 2 3
M  V30 3 1 3 4
M  V30 4 1 4 5
M  V30 5 2 5 6
M  V30 6 1 6 7
M  V30 7 2 7 8
M  V30 8 1 8 9
M  V30 9 2 9 10
M  V30 10 1 10 11
M  V30 11 1 2 12
M  V30 12 1 12 13
M  V30 13 2 13 14
M  V30 14 1 14 15
M  V30 15 1 15 16
M  V30 16 2 16 17
M  V30 17 1 17 18
M  V30 18 2 18 19
M  V30 19 1 19 20
M  V30 20 2 20 21
M  V30 21 2 15 22
M  V30 22 1 22 23
M  V30 23 1 10 5
M  V30 24 1 23 13
M  V30 25 1 21 16
M  V30 26 1 3 24
M  V30 27 1 4 25
M  V30 28 1 4 26
M  V30 29 1 6 27
M  V30 30 1 7 28
M  V30 31 1 8 29
M  V30 32 1 9 30
M  V30 33 1 12 31
M  V30 34 1 17 32
M  V30 35 1 18 33
M  V30 36 1 20 34
M  V30 37 1 21 35
M  V30 38 1 22 36
M  V30 END BOND
M  V30 END CTAB
M  END
>  <Dataset>  (158) 
ChEMBL_Kinases

>  <Ligand_Instance>  (158) 
nan

>  <PDB_ID>  (158) 
nan

>  <Standardized_SMILES>  (158) 
O=C(NCc1ccccc1F)Nc1nc(-c2ccncc2)cs1

>  <Name>  (158) 
nan

>  <Pocket>  (158) 
nan

>  <ATP_Site>  (158) 
nan

>  <Peripheral>  (158) 
nan

>  <Num_H_Atoms_ProtBoundConf>  (158) 
nan

>  <Num_Resolved_Atoms>  (158) 
nan

>  <Num_Not_Resolved_Atoms>  (158) 
nan

$$$$
CHEMBL3218023
     RDKit          3D

  0  0  0  0  0  0  0  0  0  0999 V3000
M  V30 BEGIN CTAB
M  V30 COUNTS 36 38 0 0 0
M  V30 BEGIN ATOM
M  V30 1 O 0.909758 -1.830690 0.720971 0
M  V30 2 C 0.346266 -2.136274 1.792457 0
M  V30 3 N 0.072903 -3.524652 2.010605 0
M  V30 4 C 0.391010 -4.609009 1.099993 0
M  V30 5 C 1.056241 -4.129538 -0.136053 0
M  V30 6 C 2.446942 -4.091702 -0.023084 0
M  V30 7 C 3.226216 -3.668022 -1.085221 0
M  V30 8 C 2.615911 -3.274833 -2.280682 0
M  V30 9 F 3.380256 -2.863157 -3.311598 0
M  V30 10 C 1.240061 -3.320235 -2.370157 0
M  V30 11 C 0.453914 -3.741083 -1.317022 0
M  V30 12 N -0.049503 -1.238250 2.815651 0
M  V30 13 C 0.278757 0.198947 2.497717 0
M  V30 14 N -0.392613 0.961699 1.945971 0
M  V30 15 C -0.160577 2.218500 1.643026 0
M  V30 16 C -1.019432 3.157062 0.949273 0
M  V30 17 C -2.263867 2.767450 0.512079 0
M  V30 18 C -3.141605 3.593172 -0.153585 0
M  V30 19 N -2.745005 4.856415 -0.384064 0
M  V30 20 C -1.541965 5.304031 0.015549 0
M  V30 21 C -0.682787 4.458189 0.679337 0
M  V30 22 C 1.163633 2.645690 2.104145 0
M  V30 23 S 1.826983 1.068129 2.916806 0
M  V30 24 H -0.394773 -3.878996 2.875407 0
M  V30 25 H -0.613712 -4.995170 0.763478 0
M  V30 26 H 0.895424 -5.456380 1.568277 0
M  V30 27 H 2.998627 -4.378630 0.866022 0
M  V30 28 H 4.310879 -3.628371 -1.025465 0
M  V30 29 H 0.739296 -3.022842 -3.280527 0
M  V30 30 H -0.625799 -3.802212 -1.315934 0
M  V30 31 H -0.511116 -1.580971 3.670943 0
M  V30 32 H -2.564683 1.729765 0.712714 0
M  V30 33 H -4.103863 3.179598 -0.455186 0
M  V30 34 H -1.253589 6.325844 -0.185568 0
M  V30 35 H 0.275998 4.841699 0.989121 0
M  V30 36 H 1.649479 3.737953 1.969586 0
M  V30 END ATOM
M  V30 BEGIN BOND
M  V30 1 2 1 2
M  V30 2 1 2 3
M  V30 3 1 3 4
M  V30 4 1 4 5
M  V30 5 2 5 6
M  V30 6 1 6 7
M  V30 7 2 7 8
M  V30 8 1 8 9
M  V30 9 1 8 10
M  V30 10 2 10 11
M  V30 11 1 2 12
M  V30 12 1 12 13
M  V30 13 2 13 14
M  V30 14 1 14 15
M  V30 15 1 15 16
M  V30 16 2 16 17
M  V30 17 1 17 18
M  V30 18 2 18 19
M  V30 19 1 19 20
M  V30 20 2 20 21
M  V30 21 2 15 22
M  V30 22 1 22 23
M  V30 23 1 11 5
M  V30 24 1 23 13
M  V30 25 1 21 16
M  V30 26 1 3 24
M  V30 27 1 4 25
M  V30 28 1 4 26
M  V30 29 1 6 27
M  V30 30 1 7 28
M  V30 31 1 10 29
M  V30 32 1 11 30
M  V30 33 1 12 31
M  V30 34 1 17 32
M  V30 35 1 18 33
M  V30 36 1 20 34
M  V30 37 1 21 35
M  V30 38 1 22 36
M  V30 END BOND
M  V30 END CTAB
M  END
>  <Dataset>  (159) 
ChEMBL_Kinases

>  <Ligand_Instance>  (159) 
nan

>  <PDB_ID>  (159) 
nan

>  <Standardized_SMILES>  (159) 
O=C(NCc1ccc(F)cc1)Nc1nc(-c2ccncc2)cs1

>  <Name>  (159) 
nan

>  <Pocket>  (159) 
nan

>  <ATP_Site>  (159) 
nan

>  <Peripheral>  (159) 
nan

>  <Num_H_Atoms_ProtBoundConf>  (159) 
nan

>  <Num_Resolved_Atoms>  (159) 
nan

>  <Num_Not_Resolved_Atoms>  (159) 
nan

$$$$
CHEMBL373767
     RDKit          3D

  0  0  0  0  0  0  0  0  0  0999 V3000
M  V30 BEGIN CTAB
M  V30 COUNTS 37 39 0 0 0
M  V30 BEGIN ATOM
M  V30 1 C -0.785844 -2.561694 -1.779981 0
M  V30 2 O -0.041085 -1.369960 -1.610687 0
M  V30 3 C 1.336416 -1.425372 -1.642711 0
M  V30 4 C 2.064043 -2.570395 -1.830044 0
M  V30 5 C 3.461032 -2.585550 -1.856247 0
M  V30 6 C 4.029695 -1.345563 -1.676573 0
M  V30 7 C 3.384222 -0.146498 -1.482392 0
M  V30 8 C 1.997903 -0.205986 -1.467776 0
M  V30 9 N 1.267676 1.000496 -1.271073 0
M  V30 10 C 0.354202 1.307784 -0.224463 0
M  V30 11 C -0.249224 2.547765 -0.223882 0
M  V30 12 C -1.131752 2.832547 0.795303 0
M  V30 13 C -1.380748 1.886832 1.766355 0
M  V30 14 O -2.179063 2.053939 2.748566 0
M  V30 15 N -0.773375 0.669292 1.745418 0
M  V30 16 C -1.019625 -0.334173 2.751136 0
M  V30 17 C -0.303700 -0.131807 3.932201 0
M  V30 18 C -0.431057 -1.007428 4.991609 0
M  V30 19 C -1.279817 -2.101655 4.883135 0
M  V30 20 C -1.975494 -2.278302 3.705251 0
M  V30 21 C -1.865394 -1.418325 2.633647 0
M  V30 22 Cl -2.714623 -1.583397 1.119423 0
M  V30 23 N 0.078238 0.428360 0.739368 0
M  V30 24 H -0.367975 -3.154246 -2.616096 0
M  V30 25 H -0.805891 -3.186622 -0.846809 0
M  V30 26 H -1.871309 -2.327768 -1.961300 0
M  V30 27 H 1.540388 -3.512610 -1.965006 0
M  V30 28 H 4.044370 -3.469855 -2.001302 0
M  V30 29 H 5.119188 -1.306990 -1.689304 0
M  V30 30 H 3.954267 0.766154 -1.352738 0
M  V30 31 H 1.490961 1.662924 -2.018137 0
M  V30 32 H -0.061186 3.303675 -0.984989 0
M  V30 33 H -1.659333 3.775090 0.890139 0
M  V30 34 H 0.370237 0.703476 4.069110 0
M  V30 35 H 0.095704 -0.904678 5.930363 0
M  V30 36 H -1.448205 -2.848343 5.662352 0
M  V30 37 H -2.646196 -3.117542 3.581107 0
M  V30 END ATOM
M  V30 BEGIN BOND
M  V30 1 1 1 2
M  V30 2 1 2 3
M  V30 3 2 3 4
M  V30 4 1 4 5
M  V30 5 2 5 6
M  V30 6 1 6 7
M  V30 7 2 7 8
M  V30 8 1 8 9
M  V30 9 1 9 10
M  V30 10 1 10 11
M  V30 11 2 11 12
M  V30 12 1 12 13
M  V30 13 2 13 14
M  V30 14 1 13 15
M  V30 15 1 15 16
M  V30 16 2 16 17
M  V30 17 1 17 18
M  V30 18 2 18 19
M  V30 19 1 19 20
M  V30 20 2 20 21
M  V30 21 1 21 22
M  V30 22 1 15 23
M  V30 23 1 8 3
M  V30 24 2 23 10
M  V30 25 1 21 16
M  V30 26 1 1 24
M  V30 27 1 1 25
M  V30 28 1 1 26
M  V30 29 1 4 27
M  V30 30 1 5 28
M  V30 31 1 6 29
M  V30 32 1 7 30
M  V30 33 1 9 31
M  V30 34 1 11 32
M  V30 35 1 12 33
M  V30 36 1 17 34
M  V30 37 1 18 35
M  V30 38 1 19 36
M  V30 39 1 20 37
M  V30 END BOND
M  V30 END CTAB
M  END
>  <Dataset>  (160) 
ChEMBL_Kinases

>  <Ligand_Instance>  (160) 
nan

>  <PDB_ID>  (160) 
nan

>  <Standardized_SMILES>  (160) 
COc1ccccc1Nc1ccc(=O)n(-c2ccccc2Cl)n1

>  <Name>  (160) 
nan

>  <Pocket>  (160) 
nan

>  <ATP_Site>  (160) 
nan

>  <Peripheral>  (160) 
nan

>  <Num_H_Atoms_ProtBoundConf>  (160) 
nan

>  <Num_Resolved_Atoms>  (160) 
nan

>  <Num_Not_Resolved_Atoms>  (160) 
nan

$$$$
CHEMBL373628
     RDKit          3D

  0  0  0  0  0  0  0  0  0  0999 V3000
M  V30 BEGIN CTAB
M  V30 COUNTS 47 50 0 0 0
M  V30 BEGIN ATOM
M  V30 1 C -0.510951 -4.505199 -0.817752 0
M  V30 2 C -0.393423 -3.927966 0.574171 0 CFG=1
M  V30 3 N 0.485026 -2.758455 0.617333 0
M  V30 4 C 1.663709 -2.577959 1.430909 0
M  V30 5 O 1.955592 -3.543286 2.181723 0
M  V30 6 C 2.367088 -1.287411 1.273743 0
M  V30 7 C 2.046241 -0.227776 0.425330 0
M  V30 8 C 3.021210 0.712870 0.686249 0
M  V30 9 C 3.022352 1.996335 -0.028993 0
M  V30 10 N 4.009012 2.430871 -0.835188 0
M  V30 11 N 3.683522 3.614378 -1.305416 0
M  V30 12 C 2.466657 4.008768 -0.827255 0
M  V30 13 C 2.031520 2.982916 -0.009015 0
M  V30 14 C 0.789032 2.862568 0.766526 0
M  V30 15 C 0.602581 2.749774 2.128382 0
M  V30 16 C -0.684601 2.650387 2.607010 0
M  V30 17 C -1.777125 2.660530 1.772064 0
M  V30 18 C -1.604384 2.774166 0.389757 0
M  V30 19 Cl -3.037626 2.778996 -0.587339 0
M  V30 20 C -0.295692 2.875035 -0.094464 0
M  V30 21 C 3.902199 0.232282 1.663129 0
M  V30 22 N 3.468582 -0.994261 1.997128 0
M  V30 23 C -1.742560 -3.471073 1.002510 0
M  V30 24 C -2.329991 -2.317312 0.543453 0
M  V30 25 C -3.581888 -1.966801 0.993993 0
M  V30 26 C -4.274576 -2.741639 1.899845 0
M  V30 27 C -3.692496 -3.920492 2.378994 0
M  V30 28 C -2.450663 -4.223184 1.901527 0
M  V30 29 H -1.573457 -4.450591 -1.188773 0
M  V30 30 H 0.089629 -3.953590 -1.558462 0
M  V30 31 H -0.248245 -5.597158 -0.858601 0
M  V30 32 H -0.038654 -4.730367 1.240652 0
M  V30 33 H 0.187271 -1.995385 -0.028271 0
M  V30 34 H 1.204498 -0.238922 -0.246151 0
M  V30 35 H 4.907114 1.948201 -1.081775 0
M  V30 36 H 1.910096 4.923685 -1.015993 0
M  V30 37 H 1.536957 2.754284 2.667354 0
M  V30 38 H -0.766374 2.565153 3.676567 0
M  V30 39 H -2.776302 2.579104 2.199407 0
M  V30 40 H -0.302670 2.956821 -1.174303 0
M  V30 41 H 4.718186 0.852714 1.974623 0
M  V30 42 H 3.963980 -1.572482 2.718050 0
M  V30 43 H -1.825271 -1.698019 -0.154404 0
M  V30 44 H -4.073043 -1.052135 0.644172 0
M  V30 45 H -5.248252 -2.429422 2.223616 0
M  V30 46 H -4.214715 -4.540103 3.085883 0
M  V30 47 H -1.999012 -5.133122 2.269650 0
M  V30 END ATOM
M  V30 BEGIN BOND
M  V30 1 1 1 2
M  V30 2 1 2 3
M  V30 3 1 3 4
M  V30 4 2 4 5
M  V30 5 1 4 6
M  V30 6 2 6 7
M  V30 7 1 7 8
M  V30 8 1 8 9
M  V30 9 1 9 10
M  V30 10 1 10 11
M  V30 11 2 11 12
M  V30 12 1 12 13
M  V30 13 1 13 14
M  V30 14 2 14 15
M  V30 15 1 15 16
M  V30 16 2 16 17
M  V30 17 1 17 18
M  V30 18 1 18 19
M  V30 19 2 18 20
M  V30 20 2 8 21
M  V30 21 1 21 22
M  V30 22 1 2 23
M  V30 23 2 23 24
M  V30 24 1 24 25
M  V30 25 2 25 26
M  V30 26 1 26 27
M  V30 27 2 27 28
M  V30 28 1 22 6
M  V30 29 1 28 23
M  V30 30 2 13 9
M  V30 31 1 20 14
M  V30 32 1 1 29
M  V30 33 1 1 30
M  V30 34 1 1 31
M  V30 35 1 2 32 CFG=1
M  V30 36 1 3 33
M  V30 37 1 7 34
M  V30 38 1 10 35
M  V30 39 1 12 36
M  V30 40 1 15 37
M  V30 41 1 16 38
M  V30 42 1 17 39
M  V30 43 1 20 40
M  V30 44 1 21 41
M  V30 45 1 22 42
M  V30 46 1 24 43
M  V30 47 1 25 44
M  V30 48 1 26 45
M  V30 49 1 27 46
M  V30 50 1 28 47
M  V30 END BOND
M  V30 END CTAB
M  END
>  <Dataset>  (161) 
ChEMBL_Kinases

>  <Ligand_Instance>  (161) 
nan

>  <PDB_ID>  (161) 
nan

>  <Standardized_SMILES>  (161) 
C[C@@H](NC(=O)c1cc(-c2[nH]ncc2-c2cccc(Cl)c2)c[nH]1)c1ccccc1

>  <Name>  (161) 
nan

>  <Pocket>  (161) 
nan

>  <ATP_Site>  (161) 
nan

>  <Peripheral>  (161) 
nan

>  <Num_H_Atoms_ProtBoundConf>  (161) 
nan

>  <Num_Resolved_Atoms>  (161) 
nan

>  <Num_Not_Resolved_Atoms>  (161) 
nan

$$$$
CHEMBL3218025
     RDKit          3D

  0  0  0  0  0  0  0  0  0  0999 V3000
M  V30 BEGIN CTAB
M  V30 COUNTS 36 38 0 0 0
M  V30 BEGIN ATOM
M  V30 1 O 1.079370 -1.695289 1.135801 0
M  V30 2 C 0.269719 -2.092063 2.019377 0
M  V30 3 N 0.235266 -3.501680 2.177041 0
M  V30 4 C 1.026526 -4.475173 1.430810 0
M  V30 5 C 1.919225 -3.812019 0.435782 0
M  V30 6 C 3.214428 -3.396697 0.705255 0
M  V30 7 C 3.943820 -2.794466 -0.296994 0
M  V30 8 C 3.447070 -2.579893 -1.571652 0
M  V30 9 Cl 4.425113 -1.805889 -2.810538 0
M  V30 10 C 2.160383 -2.990448 -1.845748 0
M  V30 11 C 1.418025 -3.595920 -0.849056 0
M  V30 12 N -0.589187 -1.345118 2.856026 0
M  V30 13 C -0.401612 0.132862 2.531858 0
M  V30 14 N -0.953698 0.761322 1.773643 0
M  V30 15 C -0.879732 2.012823 1.415874 0
M  V30 16 C -1.661218 2.712577 0.407821 0
M  V30 17 C -2.638130 2.085113 -0.335714 0
M  V30 18 C -3.400542 2.710540 -1.299497 0
M  V30 19 N -3.171332 4.017962 -1.524054 0
M  V30 20 C -2.234444 4.696245 -0.837298 0
M  V30 21 C -1.498950 4.044737 0.109021 0
M  V30 22 C 0.108794 2.684576 2.155482 0
M  V30 23 S 0.784476 1.320706 3.287960 0
M  V30 24 H -0.399421 -3.955221 2.882015 0
M  V30 25 H 0.287559 -5.087691 0.883034 0
M  V30 26 H 1.599546 -5.153899 2.093183 0
M  V30 27 H 3.602536 -3.560303 1.688489 0
M  V30 28 H 4.958192 -2.461244 -0.110832 0
M  V30 29 H 1.742660 -2.835907 -2.836528 0
M  V30 30 H 0.406090 -3.895210 -1.138569 0
M  V30 31 H -1.240958 -1.684623 3.569049 0
M  V30 32 H -2.838893 1.031902 -0.170653 0
M  V30 33 H -4.152214 2.145857 -1.843442 0
M  V30 34 H -2.063414 5.743618 -1.029558 0
M  V30 35 H -0.755332 4.611807 0.644244 0
M  V30 36 H 0.463947 3.879234 2.093351 0
M  V30 END ATOM
M  V30 BEGIN BOND
M  V30 1 2 1 2
M  V30 2 1 2 3
M  V30 3 1 3 4
M  V30 4 1 4 5
M  V30 5 2 5 6
M  V30 6 1 6 7
M  V30 7 2 7 8
M  V30 8 1 8 9
M  V30 9 1 8 10
M  V30 10 2 10 11
M  V30 11 1 2 12
M  V30 12 1 12 13
M  V30 13 2 13 14
M  V30 14 1 14 15
M  V30 15 1 15 16
M  V30 16 2 16 17
M  V30 17 1 17 18
M  V30 18 2 18 19
M  V30 19 1 19 20
M  V30 20 2 20 21
M  V30 21 2 15 22
M  V30 22 1 22 23
M  V30 23 1 11 5
M  V30 24 1 23 13
M  V30 25 1 21 16
M  V30 26 1 3 24
M  V30 27 1 4 25
M  V30 28 1 4 26
M  V30 29 1 6 27
M  V30 30 1 7 28
M  V30 31 1 10 29
M  V30 32 1 11 30
M  V30 33 1 12 31
M  V30 34 1 17 32
M  V30 35 1 18 33
M  V30 36 1 20 34
M  V30 37 1 21 35
M  V30 38 1 22 36
M  V30 END BOND
M  V30 END CTAB
M  END
>  <Dataset>  (162) 
ChEMBL_Kinases

>  <Ligand_Instance>  (162) 
nan

>  <PDB_ID>  (162) 
nan

>  <Standardized_SMILES>  (162) 
O=C(NCc1ccc(Cl)cc1)Nc1nc(-c2ccncc2)cs1

>  <Name>  (162) 
nan

>  <Pocket>  (162) 
nan

>  <ATP_Site>  (162) 
nan

>  <Peripheral>  (162) 
nan

>  <Num_H_Atoms_ProtBoundConf>  (162) 
nan

>  <Num_Resolved_Atoms>  (162) 
nan

>  <Num_Not_Resolved_Atoms>  (162) 
nan

$$$$
CHEMBL373740
     RDKit          3D

  0  0  0  0  0  0  0  0  0  0999 V3000
M  V30 BEGIN CTAB
M  V30 COUNTS 53 54 0 0 0
M  V30 BEGIN ATOM
M  V30 1 C -1.811492 -0.847476 -1.767894 0
M  V30 2 C -1.471712 -2.250283 -2.151236 0
M  V30 3 O -1.384535 -3.124760 -1.029970 0
M  V30 4 C -0.465435 -2.870760 -0.033501 0
M  V30 5 N 0.359752 -1.828396 -0.069449 0
M  V30 6 C 1.271546 -1.537833 0.874822 0
M  V30 7 C 2.102912 -0.358092 0.689397 0
M  V30 8 O 2.959376 -0.075419 1.567462 0
M  V30 9 N 1.995276 0.492895 -0.438077 0
M  V30 10 C 2.760615 1.669152 -0.712664 0
M  V30 11 C 2.386788 2.861507 0.054979 0
M  V30 12 C 2.909893 3.231353 1.277635 0
M  V30 13 C 2.539598 4.360805 1.976956 0
M  V30 14 C 1.578297 5.146849 1.378566 0
M  V30 15 S 1.038005 6.613311 2.194119 0
M  V30 16 C -0.339630 6.212403 3.244467 0
M  V30 17 O 2.158248 7.227364 2.980771 0
M  V30 18 O 0.612855 7.639091 1.182832 0
M  V30 19 C 1.009322 4.836773 0.152440 0
M  V30 20 C 1.419380 3.693193 -0.501397 0
M  V30 21 C 1.409865 -2.338387 1.983105 0
M  V30 22 C 0.559381 -3.438235 2.049319 0
M  V30 23 N 0.621625 -4.337398 3.164019 0
M  V30 24 C -0.366161 -3.709854 1.064170 0
M  V30 25 C -1.256296 -4.836929 1.107284 0
M  V30 26 C -2.013986 -5.783808 1.124224 0
M  V30 27 C -2.918389 -6.925691 1.120918 0
M  V30 28 C -3.084968 -7.497143 -0.060028 0
M  V30 29 C -4.000438 -8.688036 -0.178143 0
M  V30 30 O -5.001189 -8.301809 -1.092809 0
M  V30 31 H -0.944980 -0.196360 -1.997128 0
M  V30 32 H -2.644637 -0.432610 -2.402653 0
M  V30 33 H -2.018094 -0.713836 -0.688350 0
M  V30 34 H -0.481996 -2.303616 -2.642588 0
M  V30 35 H -2.270792 -2.616511 -2.846662 0
M  V30 36 H 1.255644 0.178624 -1.114971 0
M  V30 37 H 3.841064 1.384110 -0.552289 0
M  V30 38 H 2.682490 1.889591 -1.806389 0
M  V30 39 H 3.670718 2.577599 1.715883 0
M  V30 40 H 2.981725 4.606388 2.934764 0
M  V30 41 H -0.695897 5.188553 3.010001 0
M  V30 42 H -1.160195 6.956189 3.145888 0
M  V30 43 H 0.029492 6.169970 4.309349 0
M  V30 44 H 0.263697 5.496035 -0.256071 0
M  V30 45 H 0.932202 3.519836 -1.447807 0
M  V30 46 H 2.136963 -2.131473 2.764573 0
M  V30 47 H -0.201440 -4.211961 3.818075 0
M  V30 48 H 1.258156 -5.102779 3.532755 0
M  V30 49 H -3.410694 -7.268432 2.030210 0
M  V30 50 H -2.596408 -7.158126 -0.966281 0
M  V30 51 H -4.490010 -8.900739 0.774404 0
M  V30 52 H -3.487904 -9.539780 -0.643760 0
M  V30 53 H -4.641541 -7.639042 -1.755666 0
M  V30 END ATOM
M  V30 BEGIN BOND
M  V30 1 1 1 2
M  V30 2 1 2 3
M  V30 3 1 3 4
M  V30 4 2 4 5
M  V30 5 1 5 6
M  V30 6 1 6 7
M  V30 7 2 7 8
M  V30 8 1 7 9
M  V30 9 1 9 10
M  V30 10 1 10 11
M  V30 11 2 11 12
M  V30 12 1 12 13
M  V30 13 2 13 14
M  V30 14 1 14 15
M  V30 15 1 15 16
M  V30 16 2 15 17
M  V30 17 2 15 18
M  V30 18 1 14 19
M  V30 19 2 19 20
M  V30 20 2 6 21
M  V30 21 1 21 22
M  V30 22 1 22 23
M  V30 23 2 22 24
M  V30 24 1 24 25
M  V30 25 3 25 26
M  V30 26 1 26 27
M  V30 27 2 27 28
M  V30 28 1 28 29
M  V30 29 1 29 30
M  V30 30 1 24 4
M  V30 31 1 20 11
M  V30 32 1 1 31
M  V30 33 1 1 32
M  V30 34 1 1 33
M  V30 35 1 2 34
M  V30 36 1 2 35
M  V30 37 1 9 36
M  V30 38 1 10 37
M  V30 39 1 10 38
M  V30 40 1 12 39
M  V30 41 1 13 40
M  V30 42 1 16 41
M  V30 43 1 16 42
M  V30 44 1 16 43
M  V30 45 1 19 44
M  V30 46 1 20 45
M  V30 47 1 21 46
M  V30 48 1 23 47
M  V30 49 1 23 48
M  V30 50 1 27 49
M  V30 51 1 28 50
M  V30 52 1 29 51
M  V30 53 1 29 52
M  V30 54 1 30 53
M  V30 END BOND
M  V30 END CTAB
M  END
>  <Dataset>  (163) 
ChEMBL_Kinases

>  <Ligand_Instance>  (163) 
nan

>  <PDB_ID>  (163) 
nan

>  <Standardized_SMILES>  (163) 
CCOc1nc(C(=O)NCc2ccc(S(C)(=O)=O)cc2)cc(N)c1C#C/C=C/CO

>  <Name>  (163) 
nan

>  <Pocket>  (163) 
nan

>  <ATP_Site>  (163) 
nan

>  <Peripheral>  (163) 
nan

>  <Num_H_Atoms_ProtBoundConf>  (163) 
nan

>  <Num_Resolved_Atoms>  (163) 
nan

>  <Num_Not_Resolved_Atoms>  (163) 
nan

$$$$
CHEMBL3218026
     RDKit          3D

  0  0  0  0  0  0  0  0  0  0999 V3000
M  V30 BEGIN CTAB
M  V30 COUNTS 39 41 0 0 0
M  V30 BEGIN ATOM
M  V30 1 C 1.107580 -5.169887 1.761380 0
M  V30 2 C 1.505437 -4.639562 0.411581 0
M  V30 3 C 2.766147 -4.915143 -0.090916 0
M  V30 4 C 3.145328 -4.433970 -1.337485 0
M  V30 5 C 2.268886 -3.676919 -2.085865 0
M  V30 6 C 0.996147 -3.399335 -1.577196 0
M  V30 7 C 0.157932 -2.587684 -2.470315 0
M  V30 8 N 0.275976 -1.162886 -2.266810 0
M  V30 9 C -0.312684 -0.438877 -1.215509 0
M  V30 10 O -1.020222 -0.970740 -0.321441 0
M  V30 11 N -0.079200 0.973221 -1.185789 0
M  V30 12 C -0.694235 1.768333 -0.093174 0
M  V30 13 N -0.515270 2.145488 0.944557 0
M  V30 14 C -1.282375 2.880549 1.730752 0
M  V30 15 C -0.920612 3.306089 3.076793 0
M  V30 16 C 0.267039 2.997497 3.703637 0
M  V30 17 C 0.646613 3.376234 4.971468 0
M  V30 18 N -0.230782 4.133572 5.691573 0
M  V30 19 C -1.389767 4.460676 5.137176 0
M  V30 20 C -1.752828 4.072469 3.866549 0
M  V30 21 C -2.520461 3.246740 1.174682 0
M  V30 22 S -2.420159 2.435607 -0.519663 0
M  V30 23 C 0.625694 -3.878722 -0.341534 0
M  V30 24 H 0.609426 -6.141590 1.566416 0
M  V30 25 H 2.010685 -5.311164 2.387516 0
M  V30 26 H 0.414450 -4.437321 2.223201 0
M  V30 27 H 3.422051 -5.511079 0.525228 0
M  V30 28 H 4.142254 -4.693211 -1.658067 0
M  V30 29 H 2.620139 -3.331143 -3.047515 0
M  V30 30 H -0.909750 -2.831249 -2.188586 0
M  V30 31 H 0.234570 -2.866427 -3.541069 0
M  V30 32 H 0.864776 -0.672201 -2.997794 0
M  V30 33 H 0.486439 1.478612 -1.877466 0
M  V30 34 H 0.995894 2.386619 3.147713 0
M  V30 35 H 1.590680 3.093640 5.387208 0
M  V30 36 H -2.098320 5.068631 5.709112 0
M  V30 37 H -2.717847 4.385387 3.492954 0
M  V30 38 H -3.336694 3.860238 1.637317 0
M  V30 39 H -0.365969 -3.641294 0.015496 0
M  V30 END ATOM
M  V30 BEGIN BOND
M  V30 1 1 1 2
M  V30 2 2 2 3
M  V30 3 1 3 4
M  V30 4 2 4 5
M  V30 5 1 5 6
M  V30 6 1 6 7
M  V30 7 1 7 8
M  V30 8 1 8 9
M  V30 9 2 9 10
M  V30 10 1 9 11
M  V30 11 1 11 12
M  V30 12 2 12 13
M  V30 13 1 13 14
M  V30 14 1 14 15
M  V30 15 2 15 16
M  V30 16 1 16 17
M  V30 17 2 17 18
M  V30 18 1 18 19
M  V30 19 2 19 20
M  V30 20 2 14 21
M  V30 21 1 21 22
M  V30 22 2 6 23
M  V30 23 1 23 2
M  V30 24 1 22 12
M  V30 25 1 20 15
M  V30 26 1 1 24
M  V30 27 1 1 25
M  V30 28 1 1 26
M  V30 29 1 3 27
M  V30 30 1 4 28
M  V30 31 1 5 29
M  V30 32 1 7 30
M  V30 33 1 7 31
M  V30 34 1 8 32
M  V30 35 1 11 33
M  V30 36 1 16 34
M  V30 37 1 17 35
M  V30 38 1 19 36
M  V30 39 1 20 37
M  V30 40 1 21 38
M  V30 41 1 23 39
M  V30 END BOND
M  V30 END CTAB
M  END
>  <Dataset>  (164) 
ChEMBL_Kinases

>  <Ligand_Instance>  (164) 
nan

>  <PDB_ID>  (164) 
nan

>  <Standardized_SMILES>  (164) 
Cc1cccc(CNC(=O)Nc2nc(-c3ccncc3)cs2)c1

>  <Name>  (164) 
nan

>  <Pocket>  (164) 
nan

>  <ATP_Site>  (164) 
nan

>  <Peripheral>  (164) 
nan

>  <Num_H_Atoms_ProtBoundConf>  (164) 
nan

>  <Num_Resolved_Atoms>  (164) 
nan

>  <Num_Not_Resolved_Atoms>  (164) 
nan

$$$$
CHEMBL3218027
     RDKit          3D

  0  0  0  0  0  0  0  0  0  0999 V3000
M  V30 BEGIN CTAB
M  V30 COUNTS 39 41 0 0 0
M  V30 BEGIN ATOM
M  V30 1 C 0.421839 -3.964898 -1.964575 0
M  V30 2 C 1.517404 -3.422064 -1.142224 0
M  V30 3 C 1.949682 -4.175440 -0.051815 0
M  V30 4 C 2.967214 -3.761670 0.781645 0
M  V30 5 C 3.523625 -2.558083 0.462734 0
M  V30 6 C 3.155529 -1.749970 -0.598047 0
M  V30 7 C 2.122818 -2.210579 -1.411400 0
M  V30 8 C 1.666413 -1.410023 -2.566282 0
M  V30 9 N 0.403952 -0.729682 -2.324843 0
M  V30 10 C 0.183257 0.222461 -1.292215 0
M  V30 11 O 1.218342 0.427342 -0.580964 0
M  V30 12 N -1.081529 0.847425 -1.119811 0
M  V30 13 C -1.021692 1.796130 0.038245 0
M  V30 14 N -1.270272 1.490716 1.141798 0
M  V30 15 C -1.226630 2.309166 2.202674 0
M  V30 16 C -1.542553 1.897198 3.565689 0
M  V30 17 C -1.921869 0.617556 3.898432 0
M  V30 18 C -2.243879 0.089472 5.111263 0
M  V30 19 N -2.175150 0.978706 6.146470 0
M  V30 20 C -1.811567 2.259384 5.916617 0
M  V30 21 C -1.489603 2.752971 4.646914 0
M  V30 22 C -0.840562 3.670013 1.941531 0
M  V30 23 S -0.577937 3.571757 0.083461 0
M  V30 24 H 0.497095 -3.672939 -3.031161 0
M  V30 25 H -0.541701 -3.646940 -1.520743 0
M  V30 26 H 0.463090 -5.067864 -1.921878 0
M  V30 27 H 1.475829 -5.141850 0.173385 0
M  V30 28 H 3.316474 -4.330466 1.631129 0
M  V30 29 H 4.331612 -2.179473 1.084599 0
M  V30 30 H 3.660321 -0.809964 -0.768938 0
M  V30 31 H 1.589839 -1.982543 -3.493492 0
M  V30 32 H 2.409434 -0.590867 -2.788493 0
M  V30 33 H -0.434366 -0.935456 -2.946176 0
M  V30 34 H -1.886913 0.633699 -1.738155 0
M  V30 35 H -1.976338 -0.095571 3.061112 0
M  V30 36 H -2.527587 -0.945201 5.233170 0
M  V30 37 H -1.762793 2.953275 6.759424 0
M  V30 38 H -1.202423 3.787883 4.501736 0
M  V30 39 H -0.751444 4.435587 2.625301 0
M  V30 END ATOM
M  V30 BEGIN BOND
M  V30 1 1 1 2
M  V30 2 2 2 3
M  V30 3 1 3 4
M  V30 4 2 4 5
M  V30 5 1 5 6
M  V30 6 2 6 7
M  V30 7 1 7 8
M  V30 8 1 8 9
M  V30 9 1 9 10
M  V30 10 2 10 11
M  V30 11 1 10 12
M  V30 12 1 12 13
M  V30 13 2 13 14
M  V30 14 1 14 15
M  V30 15 1 15 16
M  V30 16 2 16 17
M  V30 17 1 17 18
M  V30 18 2 18 19
M  V30 19 1 19 20
M  V30 20 2 20 21
M  V30 21 2 15 22
M  V30 22 1 22 23
M  V30 23 1 7 2
M  V30 24 1 23 13
M  V30 25 1 21 16
M  V30 26 1 1 24
M  V30 27 1 1 25
M  V30 28 1 1 26
M  V30 29 1 3 27
M  V30 30 1 4 28
M  V30 31 1 5 29
M  V30 32 1 6 30
M  V30 33 1 8 31
M  V30 34 1 8 32
M  V30 35 1 9 33
M  V30 36 1 12 34
M  V30 37 1 17 35
M  V30 38 1 18 36
M  V30 39 1 20 37
M  V30 40 1 21 38
M  V30 41 1 22 39
M  V30 END BOND
M  V30 END CTAB
M  END
>  <Dataset>  (165) 
ChEMBL_Kinases

>  <Ligand_Instance>  (165) 
nan

>  <PDB_ID>  (165) 
nan

>  <Standardized_SMILES>  (165) 
Cc1ccccc1CNC(=O)Nc1nc(-c2ccncc2)cs1

>  <Name>  (165) 
nan

>  <Pocket>  (165) 
nan

>  <ATP_Site>  (165) 
nan

>  <Peripheral>  (165) 
nan

>  <Num_H_Atoms_ProtBoundConf>  (165) 
nan

>  <Num_Resolved_Atoms>  (165) 
nan

>  <Num_Not_Resolved_Atoms>  (165) 
nan

$$$$
CHEMBL3218028
     RDKit          3D

  0  0  0  0  0  0  0  0  0  0999 V3000
M  V30 BEGIN CTAB
M  V30 COUNTS 39 41 0 0 0
M  V30 BEGIN ATOM
M  V30 1 C 0.388048 -5.842371 3.390393 0
M  V30 2 C 1.084849 -4.857909 2.496405 0
M  V30 3 C 1.517263 -5.345755 1.283318 0
M  V30 4 C 2.165012 -4.429003 0.450145 0
M  V30 5 C 2.358023 -3.096167 0.834648 0
M  V30 6 C 3.062342 -2.310784 -0.199005 0
M  V30 7 N 2.056994 -1.743939 -1.080297 0
M  V30 8 C 1.234142 -0.637065 -0.817112 0
M  V30 9 O 1.291420 0.000763 0.249056 0
M  V30 10 N 0.324323 -0.259910 -1.810686 0
M  V30 11 C -0.542573 0.913623 -1.542027 0
M  V30 12 N -0.675553 1.686056 -0.644630 0
M  V30 13 C -1.516037 2.686357 -0.584242 0
M  V30 14 C -1.619828 3.587205 0.557003 0
M  V30 15 C -2.500571 4.621096 0.597695 0
M  V30 16 C -2.593253 5.466075 1.681404 0
M  V30 17 N -1.793435 5.297812 2.774002 0
M  V30 18 C -0.902648 4.289690 2.787779 0
M  V30 19 C -0.840228 3.467518 1.686905 0
M  V30 20 C -2.343615 2.843897 -1.721946 0
M  V30 21 S -1.739711 1.407036 -2.802793 0
M  V30 22 C 1.892216 -2.694809 2.067705 0
M  V30 23 C 1.253456 -3.545010 2.921632 0
M  V30 24 H -0.070612 -5.290458 4.225883 0
M  V30 25 H 1.064154 -6.646403 3.715650 0
M  V30 26 H -0.418293 -6.327247 2.787473 0
M  V30 27 H 1.366730 -6.375515 0.989745 0
M  V30 28 H 2.492853 -4.853231 -0.501712 0
M  V30 29 H 3.551339 -1.448396 0.334361 0
M  V30 30 H 3.832779 -2.866099 -0.725947 0
M  V30 31 H 1.978675 -2.260430 -2.007140 0
M  V30 32 H 0.254790 -0.766221 -2.695275 0
M  V30 33 H -3.165647 4.805877 -0.244953 0
M  V30 34 H -3.317744 6.273024 1.651063 0
M  V30 35 H -0.273074 4.162299 3.654665 0
M  V30 36 H -0.100199 2.659715 1.741881 0
M  V30 37 H -3.153448 3.644850 -1.918333 0
M  V30 38 H 2.081697 -1.656989 2.287316 0
M  V30 39 H 0.902327 -3.199985 3.876085 0
M  V30 END ATOM
M  V30 BEGIN BOND
M  V30 1 1 1 2
M  V30 2 2 2 3
M  V30 3 1 3 4
M  V30 4 2 4 5
M  V30 5 1 5 6
M  V30 6 1 6 7
M  V30 7 1 7 8
M  V30 8 2 8 9
M  V30 9 1 8 10
M  V30 10 1 10 11
M  V30 11 2 11 12
M  V30 12 1 12 13
M  V30 13 1 13 14
M  V30 14 2 14 15
M  V30 15 1 15 16
M  V30 16 2 16 17
M  V30 17 1 17 18
M  V30 18 2 18 19
M  V30 19 2 13 20
M  V30 20 1 20 21
M  V30 21 1 5 22
M  V30 22 2 22 23
M  V30 23 1 23 2
M  V30 24 1 21 11
M  V30 25 1 19 14
M  V30 26 1 1 24
M  V30 27 1 1 25
M  V30 28 1 1 26
M  V30 29 1 3 27
M  V30 30 1 4 28
M  V30 31 1 6 29
M  V30 32 1 6 30
M  V30 33 1 7 31
M  V30 34 1 10 32
M  V30 35 1 15 33
M  V30 36 1 16 34
M  V30 37 1 18 35
M  V30 38 1 19 36
M  V30 39 1 20 37
M  V30 40 1 22 38
M  V30 41 1 23 39
M  V30 END BOND
M  V30 END CTAB
M  END
>  <Dataset>  (166) 
ChEMBL_Kinases

>  <Ligand_Instance>  (166) 
nan

>  <PDB_ID>  (166) 
nan

>  <Standardized_SMILES>  (166) 
Cc1ccc(CNC(=O)Nc2nc(-c3ccncc3)cs2)cc1

>  <Name>  (166) 
nan

>  <Pocket>  (166) 
nan

>  <ATP_Site>  (166) 
nan

>  <Peripheral>  (166) 
nan

>  <Num_H_Atoms_ProtBoundConf>  (166) 
nan

>  <Num_Resolved_Atoms>  (166) 
nan

>  <Num_Not_Resolved_Atoms>  (166) 
nan

$$$$
CHEMBL3218274
     RDKit          3D

  0  0  0  0  0  0  0  0  0  0999 V3000
M  V30 BEGIN CTAB
M  V30 COUNTS 39 41 0 0 0
M  V30 BEGIN ATOM
M  V30 1 C 3.413145 -2.164794 -0.591045 0
M  V30 2 N 2.451578 -1.134097 -0.932920 0
M  V30 3 C 1.871562 -1.045714 -2.263075 0
M  V30 4 C 0.620488 -1.852617 -2.346824 0
M  V30 5 C -0.617405 -1.335091 -2.059322 0
M  V30 6 C -1.777161 -2.088283 -2.138408 0
M  V30 7 C -1.619392 -3.407685 -2.527823 0
M  V30 8 C -0.391996 -3.966602 -2.825770 0
M  V30 9 C 0.753036 -3.188489 -2.737983 0
M  V30 10 C 2.070463 -0.186060 0.068512 0
M  V30 11 O 1.239321 0.754514 -0.122253 0
M  V30 12 N 2.601535 -0.230432 1.363345 0
M  V30 13 C 1.933777 0.942421 2.089154 0
M  V30 14 N 0.867224 0.781925 2.689368 0
M  V30 15 C 0.245308 1.745589 3.330006 0
M  V30 16 C -1.024493 1.480608 4.024306 0
M  V30 17 C -1.649333 0.250521 4.063649 0
M  V30 18 C -2.827244 0.023299 4.712841 0
M  V30 19 N -3.438927 1.031816 5.359658 0
M  V30 20 C -2.894830 2.260010 5.368578 0
M  V30 21 C -1.699036 2.471057 4.704134 0
M  V30 22 C 0.839442 2.994276 3.314344 0
M  V30 23 S 2.383789 2.600911 2.273219 0
M  V30 24 H 4.320178 -1.774960 -0.091361 0
M  V30 25 H 2.938707 -2.969529 0.017994 0
M  V30 26 H 3.718608 -2.654175 -1.538176 0
M  V30 27 H 2.615208 -1.301563 -3.021148 0
M  V30 28 H 1.540924 0.016668 -2.405634 0
M  V30 29 H -0.722894 -0.306244 -1.757672 0
M  V30 30 H -2.757704 -1.689019 -1.913676 0
M  V30 31 H -2.480621 -4.024626 -2.602768 0
M  V30 32 H -0.256944 -4.981195 -3.126796 0
M  V30 33 H 1.723701 -3.615853 -2.969487 0
M  V30 34 H 3.283598 -0.933568 1.664722 0
M  V30 35 H -1.161249 -0.580360 3.540346 0
M  V30 36 H -3.235387 -0.991888 4.680345 0
M  V30 37 H -3.392330 3.042240 5.884199 0
M  V30 38 H -1.320004 3.461277 4.747362 0
M  V30 39 H 0.422322 3.924911 3.822174 0
M  V30 END ATOM
M  V30 BEGIN BOND
M  V30 1 1 1 2
M  V30 2 1 2 3
M  V30 3 1 3 4
M  V30 4 2 4 5
M  V30 5 1 5 6
M  V30 6 2 6 7
M  V30 7 1 7 8
M  V30 8 2 8 9
M  V30 9 1 2 10
M  V30 10 2 10 11
M  V30 11 1 10 12
M  V30 12 1 12 13
M  V30 13 2 13 14
M  V30 14 1 14 15
M  V30 15 1 15 16
M  V30 16 2 16 17
M  V30 17 1 17 18
M  V30 18 2 18 19
M  V30 19 1 19 20
M  V30 20 2 20 21
M  V30 21 2 15 22
M  V30 22 1 22 23
M  V30 23 1 9 4
M  V30 24 1 23 13
M  V30 25 1 21 16
M  V30 26 1 1 24
M  V30 27 1 1 25
M  V30 28 1 1 26
M  V30 29 1 3 27
M  V30 30 1 3 28
M  V30 31 1 5 29
M  V30 32 1 6 30
M  V30 33 1 7 31
M  V30 34 1 8 32
M  V30 35 1 9 33
M  V30 36 1 12 34
M  V30 37 1 17 35
M  V30 38 1 18 36
M  V30 39 1 20 37
M  V30 40 1 21 38
M  V30 41 1 22 39
M  V30 END BOND
M  V30 END CTAB
M  END
>  <Dataset>  (167) 
ChEMBL_Kinases

>  <Ligand_Instance>  (167) 
nan

>  <PDB_ID>  (167) 
nan

>  <Standardized_SMILES>  (167) 
CN(Cc1ccccc1)C(=O)Nc1nc(-c2ccncc2)cs1

>  <Name>  (167) 
nan

>  <Pocket>  (167) 
nan

>  <ATP_Site>  (167) 
nan

>  <Peripheral>  (167) 
nan

>  <Num_H_Atoms_ProtBoundConf>  (167) 
nan

>  <Num_Resolved_Atoms>  (167) 
nan

>  <Num_Not_Resolved_Atoms>  (167) 
nan

$$$$
CHEMBL3218275
     RDKit          3D

  0  0  0  0  0  0  0  0  0  0999 V3000
M  V30 BEGIN CTAB
M  V30 COUNTS 43 45 0 0 0
M  V30 BEGIN ATOM
M  V30 1 C -0.297719 -6.087954 2.647327 0
M  V30 2 O -0.577908 -4.933666 1.904317 0
M  V30 3 C 0.127710 -4.619337 0.770213 0
M  V30 4 C 1.165527 -5.273036 0.144486 0
M  V30 5 C 1.749766 -4.789748 -1.003243 0
M  V30 6 C 1.335629 -3.621461 -1.601945 0
M  V30 7 C 0.302088 -2.903640 -1.041129 0
M  V30 8 C -0.250716 -1.622239 -1.573562 0
M  V30 9 N 0.390033 -0.465390 -0.987311 0
M  V30 10 C 1.662148 0.091568 -1.292496 0
M  V30 11 O 2.213088 -0.599307 -2.216709 0
M  V30 12 N 2.308827 1.199151 -0.746825 0
M  V30 13 C 3.602765 1.547927 -1.260447 0
M  V30 14 C 1.842536 2.080961 0.303254 0
M  V30 15 N 0.544589 1.944905 0.998208 0
M  V30 16 C 0.484540 2.929297 1.888267 0
M  V30 17 C -0.761591 2.908317 2.655561 0
M  V30 18 C -1.777303 1.990224 2.501682 0
M  V30 19 C -2.963836 1.978642 3.245053 0
M  V30 20 N -3.139700 2.921997 4.177258 0
M  V30 21 C -2.208573 3.849033 4.392785 0
M  V30 22 C -1.054488 3.827264 3.640870 0
M  V30 23 C 1.438111 3.989325 2.208806 0
M  V30 24 S 2.719967 3.482828 0.967637 0
M  V30 25 C -0.259526 -3.436215 0.125936 0
M  V30 26 H -0.145521 -5.838752 3.730263 0
M  V30 27 H 0.550943 -6.688353 2.296589 0
M  V30 28 H -1.196198 -6.775659 2.657147 0
M  V30 29 H 1.487183 -6.184476 0.612982 0
M  V30 30 H 2.560913 -5.368054 -1.430209 0
M  V30 31 H 1.791569 -3.263717 -2.487291 0
M  V30 32 H -0.179616 -1.587539 -2.682898 0
M  V30 33 H -1.319277 -1.592680 -1.281824 0
M  V30 34 H -0.131180 0.064332 -0.221348 0
M  V30 35 H 3.409388 2.168449 -2.183081 0
M  V30 36 H 4.219439 2.139085 -0.587167 0
M  V30 37 H 4.123963 0.639409 -1.657468 0
M  V30 38 H -1.678810 1.222298 1.770779 0
M  V30 39 H -3.705542 1.215904 3.051824 0
M  V30 40 H -2.368337 4.602041 5.150061 0
M  V30 41 H -0.350173 4.624522 3.886087 0
M  V30 42 H 1.382419 4.708269 2.865465 0
M  V30 43 H -1.072160 -2.853907 0.550889 0
M  V30 END ATOM
M  V30 BEGIN BOND
M  V30 1 1 1 2
M  V30 2 1 2 3
M  V30 3 2 3 4
M  V30 4 1 4 5
M  V30 5 2 5 6
M  V30 6 1 6 7
M  V30 7 1 7 8
M  V30 8 1 8 9
M  V30 9 1 9 10
M  V30 10 2 10 11
M  V30 11 1 10 12
M  V30 12 1 12 13
M  V30 13 1 12 14
M  V30 14 2 14 15
M  V30 15 1 15 16
M  V30 16 1 16 17
M  V30 17 2 17 18
M  V30 18 1 18 19
M  V30 19 2 19 20
M  V30 20 1 20 21
M  V30 21 2 21 22
M  V30 22 2 16 23
M  V30 23 1 23 24
M  V30 24 2 7 25
M  V30 25 1 25 3
M  V30 26 1 24 14
M  V30 27 1 22 17
M  V30 28 1 1 26
M  V30 29 1 1 27
M  V30 30 1 1 28
M  V30 31 1 4 29
M  V30 32 1 5 30
M  V30 33 1 6 31
M  V30 34 1 8 32
M  V30 35 1 8 33
M  V30 36 1 9 34
M  V30 37 1 13 35
M  V30 38 1 13 36
M  V30 39 1 13 37
M  V30 40 1 18 38
M  V30 41 1 19 39
M  V30 42 1 21 40
M  V30 43 1 22 41
M  V30 44 1 23 42
M  V30 45 1 25 43
M  V30 END BOND
M  V30 END CTAB
M  END
>  <Dataset>  (168) 
ChEMBL_Kinases

>  <Ligand_Instance>  (168) 
nan

>  <PDB_ID>  (168) 
nan

>  <Standardized_SMILES>  (168) 
COc1cccc(CNC(=O)N(C)c2nc(-c3ccncc3)cs2)c1

>  <Name>  (168) 
nan

>  <Pocket>  (168) 
nan

>  <ATP_Site>  (168) 
nan

>  <Peripheral>  (168) 
nan

>  <Num_H_Atoms_ProtBoundConf>  (168) 
nan

>  <Num_Resolved_Atoms>  (168) 
nan

>  <Num_Not_Resolved_Atoms>  (168) 
nan

$$$$
CHEMBL3218276
     RDKit          3D

  0  0  0  0  0  0  0  0  0  0999 V3000
M  V30 BEGIN CTAB
M  V30 COUNTS 43 45 0 0 0
M  V30 BEGIN ATOM
M  V30 1 C 0.581490 -6.576310 -2.801624 0
M  V30 2 O 0.232244 -5.213379 -2.909103 0
M  V30 3 C -0.081765 -4.418564 -1.827331 0
M  V30 4 C -0.076691 -4.905899 -0.546414 0
M  V30 5 C -0.393727 -4.092891 0.517547 0
M  V30 6 C -0.713916 -2.781089 0.249035 0
M  V30 7 C -0.734740 -2.245813 -0.999582 0
M  V30 8 C -1.063907 -0.855866 -1.377002 0
M  V30 9 N 0.090048 0.023362 -1.407738 0
M  V30 10 C 0.836938 0.163752 -2.618383 0
M  V30 11 C 0.419055 0.717332 -0.185703 0
M  V30 12 O -0.302182 0.528566 0.825952 0
M  V30 13 N 1.539021 1.561772 -0.229462 0
M  V30 14 C 1.718417 2.181389 1.105023 0
M  V30 15 N 1.196860 2.148339 2.124956 0
M  V30 16 C 1.528866 2.804761 3.235598 0
M  V30 17 C 0.762781 2.661120 4.470569 0
M  V30 18 C -0.351273 1.865406 4.641190 0
M  V30 19 C -1.027205 1.776732 5.834822 0
M  V30 20 N -0.635446 2.466383 6.908572 0
M  V30 21 C 0.442186 3.267931 6.831667 0
M  V30 22 C 1.100284 3.337623 5.623484 0
M  V30 23 C 2.641629 3.629055 3.147322 0
M  V30 24 S 3.148691 3.375515 1.364540 0
M  V30 25 C -0.408986 -3.097083 -2.049182 0
M  V30 26 H 0.067746 -7.102786 -1.977602 0
M  V30 27 H 1.677920 -6.719399 -2.682848 0
M  V30 28 H 0.339818 -7.122812 -3.757182 0
M  V30 29 H 0.169298 -5.921661 -0.317748 0
M  V30 30 H -0.398829 -4.447739 1.541761 0
M  V30 31 H -0.966088 -2.124263 1.062088 0
M  V30 32 H -1.555354 -0.785983 -2.361197 0
M  V30 33 H -1.777148 -0.485745 -0.606990 0
M  V30 34 H 1.601899 -0.656848 -2.647239 0
M  V30 35 H 1.277147 1.170226 -2.717787 0
M  V30 36 H 0.128654 -0.043073 -3.473667 0
M  V30 37 H 2.175680 1.774035 -0.995137 0
M  V30 38 H -0.686245 1.290257 3.763218 0
M  V30 39 H -1.905915 1.131055 5.919314 0
M  V30 40 H 0.747026 3.816773 7.700765 0
M  V30 41 H 1.958837 4.001345 5.631746 0
M  V30 42 H 3.076650 4.259155 3.965598 0
M  V30 43 H -0.404801 -2.734059 -3.087055 0
M  V30 END ATOM
M  V30 BEGIN BOND
M  V30 1 1 1 2
M  V30 2 1 2 3
M  V30 3 2 3 4
M  V30 4 1 4 5
M  V30 5 2 5 6
M  V30 6 1 6 7
M  V30 7 1 7 8
M  V30 8 1 8 9
M  V30 9 1 9 10
M  V30 10 1 9 11
M  V30 11 2 11 12
M  V30 12 1 11 13
M  V30 13 1 13 14
M  V30 14 2 14 15
M  V30 15 1 15 16
M  V30 16 1 16 17
M  V30 17 2 17 18
M  V30 18 1 18 19
M  V30 19 2 19 20
M  V30 20 1 20 21
M  V30 21 2 21 22
M  V30 22 2 16 23
M  V30 23 1 23 24
M  V30 24 2 7 25
M  V30 25 1 25 3
M  V30 26 1 24 14
M  V30 27 1 22 17
M  V30 28 1 1 26
M  V30 29 1 1 27
M  V30 30 1 1 28
M  V30 31 1 4 29
M  V30 32 1 5 30
M  V30 33 1 6 31
M  V30 34 1 8 32
M  V30 35 1 8 33
M  V30 36 1 10 34
M  V30 37 1 10 35
M  V30 38 1 10 36
M  V30 39 1 13 37
M  V30 40 1 18 38
M  V30 41 1 19 39
M  V30 42 1 21 40
M  V30 43 1 22 41
M  V30 44 1 23 42
M  V30 45 1 25 43
M  V30 END BOND
M  V30 END CTAB
M  END
>  <Dataset>  (169) 
ChEMBL_Kinases

>  <Ligand_Instance>  (169) 
nan

>  <PDB_ID>  (169) 
nan

>  <Standardized_SMILES>  (169) 
COc1cccc(CN(C)C(=O)Nc2nc(-c3ccncc3)cs2)c1

>  <Name>  (169) 
nan

>  <Pocket>  (169) 
nan

>  <ATP_Site>  (169) 
nan

>  <Peripheral>  (169) 
nan

>  <Num_H_Atoms_ProtBoundConf>  (169) 
nan

>  <Num_Resolved_Atoms>  (169) 
nan

>  <Num_Not_Resolved_Atoms>  (169) 
nan

$$$$
CHEMBL3218024
     RDKit          3D

  0  0  0  0  0  0  0  0  0  0999 V3000
M  V30 BEGIN CTAB
M  V30 COUNTS 36 38 0 0 0
M  V30 BEGIN ATOM
M  V30 1 O 0.708505 -1.304150 0.103948 0
M  V30 2 C 0.113520 -1.863933 1.058606 0
M  V30 3 N 0.331211 -3.216427 1.372696 0
M  V30 4 C 1.223826 -4.115358 0.681846 0
M  V30 5 C 2.654150 -3.892742 1.015767 0
M  V30 6 C 3.244810 -4.559417 2.095334 0
M  V30 7 C 4.576121 -4.348119 2.396098 0
M  V30 8 C 5.378722 -3.486062 1.663445 0
M  V30 9 C 4.809606 -2.810859 0.582288 0
M  V30 10 Cl 5.768713 -1.706629 -0.386216 0
M  V30 11 C 3.478750 -3.044247 0.309033 0
M  V30 12 N -0.781393 -1.057980 1.792326 0
M  V30 13 C -0.958418 0.380495 1.395811 0
M  V30 14 N -1.641128 0.947579 0.690469 0
M  V30 15 C -1.739459 2.215758 0.395290 0
M  V30 16 C -2.655715 2.853880 -0.533103 0
M  V30 17 C -3.579912 2.124775 -1.247887 0
M  V30 18 C -4.420887 2.790087 -2.110318 0
M  V30 19 N -4.402439 4.118375 -2.305568 0
M  V30 20 C -3.508572 4.869749 -1.621502 0
M  V30 21 C -2.668837 4.209878 -0.761209 0
M  V30 22 C -0.785329 2.992786 1.124665 0
M  V30 23 S 0.118745 1.680860 2.150061 0
M  V30 24 H -0.225747 -3.573872 2.196520 0
M  V30 25 H 1.106728 -4.063896 -0.420853 0
M  V30 26 H 0.958533 -5.159946 0.954012 0
M  V30 27 H 2.638935 -5.246962 2.694797 0
M  V30 28 H 5.065446 -4.851488 3.229403 0
M  V30 29 H 6.421902 -3.311202 1.887605 0
M  V30 30 H 3.087404 -2.501485 -0.535001 0
M  V30 31 H -1.315265 -1.421577 2.589452 0
M  V30 32 H -3.600608 1.053874 -1.095836 0
M  V30 33 H -5.136937 2.185562 -2.657487 0
M  V30 34 H -3.480529 5.926968 -1.764836 0
M  V30 35 H -1.976292 4.844582 -0.239095 0
M  V30 36 H -0.594492 4.214271 1.094420 0
M  V30 END ATOM
M  V30 BEGIN BOND
M  V30 1 2 1 2
M  V30 2 1 2 3
M  V30 3 1 3 4
M  V30 4 1 4 5
M  V30 5 2 5 6
M  V30 6 1 6 7
M  V30 7 2 7 8
M  V30 8 1 8 9
M  V30 9 1 9 10
M  V30 10 2 9 11
M  V30 11 1 2 12
M  V30 12 1 12 13
M  V30 13 2 13 14
M  V30 14 1 14 15
M  V30 15 1 15 16
M  V30 16 2 16 17
M  V30 17 1 17 18
M  V30 18 2 18 19
M  V30 19 1 19 20
M  V30 20 2 20 21
M  V30 21 2 15 22
M  V30 22 1 22 23
M  V30 23 1 11 5
M  V30 24 1 23 13
M  V30 25 1 21 16
M  V30 26 1 3 24
M  V30 27 1 4 25
M  V30 28 1 4 26
M  V30 29 1 6 27
M  V30 30 1 7 28
M  V30 31 1 8 29
M  V30 32 1 11 30
M  V30 33 1 12 31
M  V30 34 1 17 32
M  V30 35 1 18 33
M  V30 36 1 20 34
M  V30 37 1 21 35
M  V30 38 1 22 36
M  V30 END BOND
M  V30 END CTAB
M  END
>  <Dataset>  (170) 
ChEMBL_Kinases

>  <Ligand_Instance>  (170) 
nan

>  <PDB_ID>  (170) 
nan

>  <Standardized_SMILES>  (170) 
O=C(NCc1cccc(Cl)c1)Nc1nc(-c2ccncc2)cs1

>  <Name>  (170) 
nan

>  <Pocket>  (170) 
nan

>  <ATP_Site>  (170) 
nan

>  <Peripheral>  (170) 
nan

>  <Num_H_Atoms_ProtBoundConf>  (170) 
nan

>  <Num_Resolved_Atoms>  (170) 
nan

>  <Num_Not_Resolved_Atoms>  (170) 
nan

$$$$
CHEMBL3680461
     RDKit          3D

  0  0  0  0  0  0  0  0  0  0999 V3000
M  V30 BEGIN CTAB
M  V30 COUNTS 35 37 0 0 0
M  V30 BEGIN ATOM
M  V30 1 N 1.863972 -2.069499 4.795119 0
M  V30 2 C 1.999990 -3.066944 3.808328 0
M  V30 3 O 2.310993 -3.918023 4.654940 0
M  V30 4 C 1.805710 -2.953067 2.369769 0
M  V30 5 C 1.997262 -4.067511 1.604534 0
M  V30 6 C 1.792245 -3.879657 0.246055 0
M  V30 7 C 1.422277 -2.642655 -0.260199 0
M  V30 8 C 1.246640 -1.562142 0.569847 0
M  V30 9 C 0.875306 -0.348832 0.005097 0
M  V30 10 N 0.663170 -0.134423 -1.368641 0
M  V30 11 C 0.271395 1.163721 -1.911381 0
M  V30 12 C -1.028995 1.568686 -1.329343 0
M  V30 13 C -1.140473 2.558140 -0.364805 0
M  V30 14 C -2.438077 2.806680 0.054106 0
M  V30 15 C -3.581874 2.172574 -0.395070 0
M  V30 16 C -3.391900 1.204134 -1.350428 0
M  V30 17 F -4.533737 0.583795 -1.787104 0
M  V30 18 C -2.130053 0.905447 -1.812391 0
M  V30 19 F -2.123080 -0.073025 -2.751802 0
M  V30 20 N 0.725665 0.646570 0.873272 0
M  V30 21 C 0.907299 0.537553 2.198819 0
M  V30 22 N 1.271555 -0.647899 2.763514 0
M  V30 23 C 1.440643 -1.697901 1.945091 0
M  V30 24 H 1.350001 -1.223317 5.070709 0
M  V30 25 H 1.369932 -1.215395 5.108034 0
M  V30 26 H 2.281904 -4.982245 2.072757 0
M  V30 27 H 1.932855 -4.741496 -0.409377 0
M  V30 28 H 1.289971 -2.606106 -1.320806 0
M  V30 29 H 0.765443 -0.865514 -2.087923 0
M  V30 30 H 1.035625 1.921497 -1.589016 0
M  V30 31 H 0.260340 1.159159 -3.006733 0
M  V30 32 H -0.289227 3.074745 0.006114 0
M  V30 33 H -2.540013 3.585689 0.815311 0
M  V30 34 H -4.534243 2.492697 0.044546 0
M  V30 35 H 0.745645 1.443109 2.768346 0
M  V30 END ATOM
M  V30 BEGIN BOND
M  V30 1 1 1 2
M  V30 2 2 2 3
M  V30 3 1 2 4
M  V30 4 2 4 5
M  V30 5 1 5 6
M  V30 6 2 6 7
M  V30 7 1 7 8
M  V30 8 2 8 9
M  V30 9 1 9 10
M  V30 10 1 10 11
M  V30 11 1 11 12
M  V30 12 2 12 13
M  V30 13 1 13 14
M  V30 14 2 14 15
M  V30 15 1 15 16
M  V30 16 1 16 17
M  V30 17 2 16 18
M  V30 18 1 18 19
M  V30 19 1 9 20
M  V30 20 2 20 21
M  V30 21 1 21 22
M  V30 22 2 22 23
M  V30 23 1 23 4
M  V30 24 1 23 8
M  V30 25 1 18 12
M  V30 26 1 1 24
M  V30 27 1 1 25
M  V30 28 1 5 26
M  V30 29 1 6 27
M  V30 30 1 7 28
M  V30 31 1 10 29
M  V30 32 1 11 30
M  V30 33 1 11 31
M  V30 34 1 13 32
M  V30 35 1 14 33
M  V30 36 1 15 34
M  V30 37 1 21 35
M  V30 END BOND
M  V30 END CTAB
M  END
>  <Dataset>  (171) 
ChEMBL_Kinases

>  <Ligand_Instance>  (171) 
nan

>  <PDB_ID>  (171) 
nan

>  <Standardized_SMILES>  (171) 
NC(=O)c1cccc2c(NCc3cccc(F)c3F)ncnc12

>  <Name>  (171) 
nan

>  <Pocket>  (171) 
nan

>  <ATP_Site>  (171) 
nan

>  <Peripheral>  (171) 
nan

>  <Num_H_Atoms_ProtBoundConf>  (171) 
nan

>  <Num_Resolved_Atoms>  (171) 
nan

>  <Num_Not_Resolved_Atoms>  (171) 
nan

$$$$
CHEMBL3680459
     RDKit          3D

  0  0  0  0  0  0  0  0  0  0999 V3000
M  V30 BEGIN CTAB
M  V30 COUNTS 56 58 0 0 0
M  V30 BEGIN ATOM
M  V30 1 C 3.770512 -3.206880 3.544968 0
M  V30 2 C 3.640306 -2.594349 2.162689 0
M  V30 3 C 4.592204 -3.300862 1.188457 0
M  V30 4 O 3.887851 -1.227448 2.135487 0
M  V30 5 C 3.005881 -0.257101 1.708710 0
M  V30 6 C 3.574249 1.014453 1.813316 0
M  V30 7 C 2.847328 2.135088 1.432787 0
M  V30 8 C 3.432361 3.479939 1.536963 0
M  V30 9 N 2.696686 4.612576 1.154503 0
M  V30 10 O 4.608569 3.623938 1.974316 0
M  V30 11 C 1.582135 1.978041 0.959929 0
M  V30 12 N 0.832429 3.023996 0.577178 0
M  V30 13 C -0.417738 2.850054 0.111403 0
M  V30 14 N -0.984506 1.645977 0.001137 0
M  V30 15 C -0.287514 0.563324 0.366883 0
M  V30 16 N -0.928714 -0.721106 0.246520 0
M  V30 17 C -2.281543 -0.885326 -0.268730 0
M  V30 18 C -2.306894 -0.493624 -1.689604 0
M  V30 19 N -3.601717 -0.611756 -2.325800 0
M  V30 20 C -4.574183 0.330365 -1.835991 0
M  V30 21 C -3.372476 -0.260199 -3.735431 0
M  V30 22 C -2.756135 -2.219791 0.071273 0
M  V30 23 C -3.388366 -3.167492 -0.673424 0
M  V30 24 C -3.764742 -4.388655 -0.152232 0
M  V30 25 C -3.509196 -4.702372 1.170784 0
M  V30 26 C -2.869994 -3.761618 1.948521 0
M  V30 27 F -2.627617 -4.089607 3.246855 0
M  V30 28 C -2.492846 -2.529669 1.414452 0
M  V30 29 C 0.992621 0.746047 0.843645 0
M  V30 30 C 1.722521 -0.345820 1.222651 0
M  V30 31 H 3.783624 -2.478793 4.356982 0
M  V30 32 H 2.995350 -3.995960 3.665380 0
M  V30 33 H 4.746494 -3.737797 3.584264 0
M  V30 34 H 2.621651 -2.792044 1.791167 0
M  V30 35 H 4.778518 -4.286991 1.618983 0
M  V30 36 H 4.144733 -3.304603 0.193447 0
M  V30 37 H 5.544490 -2.740108 1.162037 0
M  V30 38 H 4.583690 1.236986 2.181470 0
M  V30 39 H 2.141208 5.405787 1.566331 0
M  V30 40 H 2.832067 4.499965 0.133499 0
M  V30 41 H -0.888912 3.790187 -0.154174 0
M  V30 42 H -0.449758 -1.601172 0.522711 0
M  V30 43 H -2.893111 -0.160193 0.344637 0
M  V30 44 H -2.038303 0.576076 -1.774315 0
M  V30 45 H -1.569721 -1.038832 -2.289913 0
M  V30 46 H -4.853199 0.148418 -0.779021 0
M  V30 47 H -5.466325 0.217916 -2.493756 0
M  V30 48 H -4.208110 1.365343 -1.966947 0
M  V30 49 H -3.203518 0.856664 -3.702766 0
M  V30 50 H -2.469248 -0.709447 -4.148752 0
M  V30 51 H -4.286902 -0.429367 -4.314204 0
M  V30 52 H -3.563994 -2.887622 -1.680772 0
M  V30 53 H -4.258800 -5.117471 -0.754434 0
M  V30 54 H -3.793617 -5.641687 1.587889 0
M  V30 55 H -1.994123 -1.879479 2.145885 0
M  V30 56 H 1.367845 -1.341767 1.175003 0
M  V30 END ATOM
M  V30 BEGIN BOND
M  V30 1 1 1 2
M  V30 2 1 2 3
M  V30 3 1 2 4
M  V30 4 1 4 5
M  V30 5 2 5 6
M  V30 6 1 6 7
M  V30 7 1 7 8
M  V30 8 1 8 9
M  V30 9 2 8 10
M  V30 10 2 7 11
M  V30 11 1 11 12
M  V30 12 2 12 13
M  V30 13 1 13 14
M  V30 14 2 14 15
M  V30 15 1 15 16
M  V30 16 1 16 17
M  V30 17 1 17 18
M  V30 18 1 18 19
M  V30 19 1 19 20
M  V30 20 1 19 21
M  V30 21 1 17 22
M  V30 22 2 22 23
M  V30 23 1 23 24
M  V30 24 2 24 25
M  V30 25 1 25 26
M  V30 26 1 26 27
M  V30 27 2 26 28
M  V30 28 1 15 29
M  V30 29 2 29 30
M  V30 30 1 30 5
M  V30 31 1 29 11
M  V30 32 1 28 22
M  V30 33 1 1 31
M  V30 34 1 1 32
M  V30 35 1 1 33
M  V30 36 1 2 34
M  V30 37 1 3 35
M  V30 38 1 3 36
M  V30 39 1 3 37
M  V30 40 1 6 38
M  V30 41 1 9 39
M  V30 42 1 9 40
M  V30 43 1 13 41
M  V30 44 1 16 42
M  V30 45 1 17 43
M  V30 46 1 18 44
M  V30 47 1 18 45
M  V30 48 1 20 46
M  V30 49 1 20 47
M  V30 50 1 20 48
M  V30 51 1 21 49
M  V30 52 1 21 50
M  V30 53 1 21 51
M  V30 54 1 23 52
M  V30 55 1 24 53
M  V30 56 1 25 54
M  V30 57 1 28 55
M  V30 58 1 30 56
M  V30 END BOND
M  V30 END CTAB
M  END
>  <Dataset>  (172) 
ChEMBL_Kinases

>  <Ligand_Instance>  (172) 
nan

>  <PDB_ID>  (172) 
nan

>  <Standardized_SMILES>  (172) 
CC(C)Oc1cc(C(N)=O)c2ncnc(NC(CN(C)C)c3cccc(F)c3)c2c1

>  <Name>  (172) 
nan

>  <Pocket>  (172) 
nan

>  <ATP_Site>  (172) 
nan

>  <Peripheral>  (172) 
nan

>  <Num_H_Atoms_ProtBoundConf>  (172) 
nan

>  <Num_Resolved_Atoms>  (172) 
nan

>  <Num_Not_Resolved_Atoms>  (172) 
nan

$$$$
CHEMBL3680456
     RDKit          3D

  0  0  0  0  0  0  0  0  0  0999 V3000
M  V30 BEGIN CTAB
M  V30 COUNTS 79 82 0 0 0
M  V30 BEGIN ATOM
M  V30 1 C 6.527583 -3.806114 7.207186 0
M  V30 2 O 6.000732 -3.910894 5.919154 0
M  V30 3 C 5.606946 -2.864485 5.107259 0
M  V30 4 C 5.641258 -1.518357 5.369996 0
M  V30 5 C 5.213524 -0.573425 4.462174 0
M  V30 6 C 4.724039 -0.947543 3.229103 0
M  V30 7 C 4.292549 0.110517 2.327183 0
M  V30 8 O 4.393124 1.301312 2.716399 0
M  V30 9 N 3.778463 -0.244491 1.051468 0
M  V30 10 C 3.284604 0.525511 -0.035732 0
M  V30 11 C 4.079999 0.989783 -1.064507 0
M  V30 12 C 3.589998 1.738113 -2.119656 0
M  V30 13 C 2.243036 2.038892 -2.152276 0
M  V30 14 C 1.428757 1.585259 -1.134082 0
M  V30 15 C -0.058322 1.828708 -1.024747 0
M  V30 16 C -0.569177 2.467340 -2.275292 0
M  V30 17 C -1.991578 2.825970 -2.373802 0
M  V30 18 N -2.990221 1.837319 -2.216969 0
M  V30 19 C -3.453162 1.006880 -3.311070 0
M  V30 20 C -3.608057 1.603460 -0.933349 0
M  V30 21 O -3.304130 2.258195 0.099827 0
M  V30 22 O -4.573500 0.675879 -0.676522 0
M  V30 23 C -5.222225 0.403089 0.523898 0
M  V30 24 C -5.982028 1.600730 1.063860 0
M  V30 25 C -4.352180 -0.195864 1.601293 0
M  V30 26 C -6.287716 -0.654282 0.215225 0
M  V30 27 N -0.721003 0.592784 -0.654434 0
M  V30 28 C -0.589797 -0.464910 -1.623791 0
M  V30 29 N 0.056733 -0.341546 -2.766505 0
M  V30 30 C 0.190847 -1.286519 -3.686642 0
M  V30 31 N -0.353330 -2.507498 -3.510492 0
M  V30 32 C -1.038848 -2.743424 -2.372160 0
M  V30 33 C -1.606071 -3.985907 -2.158289 0
M  V30 34 C -1.463644 -5.040044 -3.174984 0
M  V30 35 N -0.749550 -4.783787 -4.368325 0
M  V30 36 O -1.959751 -6.163596 -3.012432 0
M  V30 37 C -2.307558 -4.255198 -1.002200 0
M  V30 38 C -2.424458 -3.250869 -0.071343 0
M  V30 39 C -1.845299 -2.026547 -0.321547 0
M  V30 40 C -1.140809 -1.717797 -1.456389 0
M  V30 41 C 1.920184 0.832226 -0.071792 0
M  V30 42 C 4.683971 -2.294938 2.952516 0
M  V30 43 C 5.111823 -3.249640 3.859169 0
M  V30 44 H 7.546310 -4.225053 7.327949 0
M  V30 45 H 6.543623 -2.771568 7.597482 0
M  V30 46 H 5.896416 -4.402815 7.924844 0
M  V30 47 H 6.026269 -1.254766 6.336818 0
M  V30 48 H 5.289488 0.473271 4.785509 0
M  V30 49 H 3.673916 -1.213356 0.681305 0
M  V30 50 H 5.130648 0.757364 -1.042670 0
M  V30 51 H 4.208257 2.100290 -2.921595 0
M  V30 52 H 1.756456 2.616247 -2.929359 0
M  V30 53 H -0.175167 2.544980 -0.206409 0
M  V30 54 H -0.002444 3.460319 -2.332657 0
M  V30 55 H -0.215195 1.954880 -3.200812 0
M  V30 56 H -2.231940 3.713038 -1.731224 0
M  V30 57 H -2.134997 3.244122 -3.425111 0
M  V30 58 H -3.139502 -0.040163 -3.148613 0
M  V30 59 H -4.572888 0.983205 -3.276833 0
M  V30 60 H -3.186773 1.404138 -4.300878 0
M  V30 61 H -6.681906 1.939379 0.274946 0
M  V30 62 H -5.316378 2.380841 1.436722 0
M  V30 63 H -6.627997 1.212697 1.888260 0
M  V30 64 H -3.353579 0.278095 1.675937 0
M  V30 65 H -4.928558 -0.083982 2.562534 0
M  V30 66 H -4.155982 -1.276678 1.451219 0
M  V30 67 H -5.794262 -1.650498 0.117764 0
M  V30 68 H -7.098617 -0.641387 0.964637 0
M  V30 69 H -6.723600 -0.421414 -0.780532 0
M  V30 70 H -1.226922 0.519831 0.248471 0
M  V30 71 H 0.758229 -0.996847 -4.562226 0
M  V30 72 H -0.881617 -4.537930 -5.367864 0
M  V30 73 H 0.180644 -4.922101 -3.958221 0
M  V30 74 H -2.725093 -5.249182 -0.900241 0
M  V30 75 H -2.981774 -3.507211 0.817441 0
M  V30 76 H -1.975766 -1.303455 0.448401 0
M  V30 77 H 1.308978 0.458836 0.746637 0
M  V30 78 H 4.311158 -2.609391 2.009495 0
M  V30 79 H 5.045265 -4.304308 3.556295 0
M  V30 END ATOM
M  V30 BEGIN BOND
M  V30 1 1 1 2
M  V30 2 1 2 3
M  V30 3 2 3 4
M  V30 4 1 4 5
M  V30 5 2 5 6
M  V30 6 1 6 7
M  V30 7 2 7 8
M  V30 8 1 7 9
M  V30 9 1 9 10
M  V30 10 2 10 11
M  V30 11 1 11 12
M  V30 12 2 12 13
M  V30 13 1 13 14
M  V30 14 1 14 15
M  V30 15 1 15 16
M  V30 16 1 16 17
M  V30 17 1 17 18
M  V30 18 1 18 19
M  V30 19 1 18 20
M  V30 20 2 20 21
M  V30 21 1 20 22
M  V30 22 1 22 23
M  V30 23 1 23 24
M  V30 24 1 23 25
M  V30 25 1 23 26
M  V30 26 1 15 27
M  V30 27 1 27 28
M  V30 28 2 28 29
M  V30 29 1 29 30
M  V30 30 2 30 31
M  V30 31 1 31 32
M  V30 32 2 32 33
M  V30 33 1 33 34
M  V30 34 1 34 35
M  V30 35 2 34 36
M  V30 36 1 33 37
M  V30 37 2 37 38
M  V30 38 1 38 39
M  V30 39 2 39 40
M  V30 40 2 14 41
M  V30 41 1 6 42
M  V30 42 2 42 43
M  V30 43 1 43 3
M  V30 44 1 41 10
M  V30 45 1 40 28
M  V30 46 1 40 32
M  V30 47 1 1 44
M  V30 48 1 1 45
M  V30 49 1 1 46
M  V30 50 1 4 47
M  V30 51 1 5 48
M  V30 52 1 9 49
M  V30 53 1 11 50
M  V30 54 1 12 51
M  V30 55 1 13 52
M  V30 56 1 15 53
M  V30 57 1 16 54
M  V30 58 1 16 55
M  V30 59 1 17 56
M  V30 60 1 17 57
M  V30 61 1 19 58
M  V30 62 1 19 59
M  V30 63 1 19 60
M  V30 64 1 24 61
M  V30 65 1 24 62
M  V30 66 1 24 63
M  V30 67 1 25 64
M  V30 68 1 25 65
M  V30 69 1 25 66
M  V30 70 1 26 67
M  V30 71 1 26 68
M  V30 72 1 26 69
M  V30 73 1 27 70
M  V30 74 1 30 71
M  V30 75 1 35 72
M  V30 76 1 35 73
M  V30 77 1 37 74
M  V30 78 1 38 75
M  V30 79 1 39 76
M  V30 80 1 41 77
M  V30 81 1 42 78
M  V30 82 1 43 79
M  V30 END BOND
M  V30 END CTAB
M  END
>  <Dataset>  (173) 
ChEMBL_Kinases

>  <Ligand_Instance>  (173) 
nan

>  <PDB_ID>  (173) 
nan

>  <Standardized_SMILES>  (173) 
COc1ccc(C(=O)Nc2cccc(C(CCN(C)C(=O)OC(C)(C)C)Nc3ncnc4c(C(N)=O)cccc34)c2)cc1

>  <Name>  (173) 
nan

>  <Pocket>  (173) 
nan

>  <ATP_Site>  (173) 
nan

>  <Peripheral>  (173) 
nan

>  <Num_H_Atoms_ProtBoundConf>  (173) 
nan

>  <Num_Resolved_Atoms>  (173) 
nan

>  <Num_Not_Resolved_Atoms>  (173) 
nan

$$$$
CHEMBL3680454
     RDKit          3D

  0  0  0  0  0  0  0  0  0  0999 V3000
M  V30 BEGIN CTAB
M  V30 COUNTS 70 73 0 0 0
M  V30 BEGIN ATOM
M  V30 1 C 0.175431 -9.271267 0.354586 0
M  V30 2 N -0.010092 -7.812199 0.343565 0
M  V30 3 C -1.317316 -7.609095 -0.257550 0
M  V30 4 C 1.078431 -7.256472 -0.418840 0
M  V30 5 C 1.108554 -5.765092 -0.492032 0
M  V30 6 N -0.067153 -5.251900 -1.118339 0
M  V30 7 C 0.119541 -3.834446 -1.104770 0
M  V30 8 O 1.102976 -3.155362 -0.644574 0
M  V30 9 C -0.731960 -2.709746 -1.601168 0
M  V30 10 C -0.026914 -1.372833 -1.308315 0
M  V30 11 N 0.136978 -1.342277 0.133550 0
M  V30 12 C 1.085438 -0.423457 0.674998 0
M  V30 13 N 1.827126 0.345713 -0.159533 0
M  V30 14 C 2.725157 1.170786 0.391840 0
M  V30 15 N 2.965054 1.311288 1.713860 0
M  V30 16 C 2.218845 0.539049 2.531332 0
M  V30 17 C 2.384739 0.607016 3.884176 0
M  V30 18 C 3.383204 1.528368 4.395157 0
M  V30 19 N 4.170991 2.335562 3.543138 0
M  V30 20 O 3.964288 2.020432 5.384224 0
M  V30 21 C 1.694597 -0.119304 4.827770 0
M  V30 22 C 0.739855 -1.000996 4.308341 0
M  V30 23 C 0.555301 -1.085808 2.938841 0
M  V30 24 C 1.279596 -0.331021 2.060059 0
M  V30 25 C -0.999192 -0.353304 -1.774151 0
M  V30 26 C -1.772892 -0.484762 -2.908196 0
M  V30 27 C -2.702912 0.424338 -3.356633 0
M  V30 28 C -2.912391 1.583877 -2.639909 0
M  V30 29 C -2.173196 1.785293 -1.491668 0
M  V30 30 N -2.415956 2.988045 -0.780940 0
M  V30 31 C -1.776382 4.219316 -0.957887 0
M  V30 32 O -0.883694 4.317561 -1.828057 0
M  V30 33 C -2.088551 5.413967 -0.181142 0
M  V30 34 C -1.383300 6.578788 -0.450339 0
M  V30 35 C -1.650308 7.740530 0.266174 0
M  V30 36 C -2.609903 7.791683 1.259914 0
M  V30 37 Br -2.980065 9.381622 2.245135 0
M  V30 38 C -3.300061 6.614487 1.509025 0
M  V30 39 C -3.049707 5.446749 0.807120 0
M  V30 40 C -1.262769 0.825042 -1.112083 0
M  V30 41 H -0.300306 -9.678266 -0.554204 0
M  V30 42 H -0.329402 -9.686156 1.234542 0
M  V30 43 H 1.265700 -9.493509 0.342700 0
M  V30 44 H -2.003370 -8.472745 0.013839 0
M  V30 45 H -1.847088 -6.724050 0.114936 0
M  V30 46 H -1.285691 -7.651662 -1.365176 0
M  V30 47 H 2.057381 -7.699060 -0.133434 0
M  V30 48 H 0.910455 -7.605634 -1.483588 0
M  V30 49 H 1.252598 -5.377181 0.539795 0
M  V30 50 H 2.038891 -5.481643 -1.033290 0
M  V30 51 H -0.991785 -5.320438 -1.586275 0
M  V30 52 H -0.930816 -2.875759 -2.655870 0
M  V30 53 H -1.669794 -2.693073 -1.019734 0
M  V30 54 H 0.899251 -1.349516 -1.877869 0
M  V30 55 H -0.433598 -1.978059 0.709014 0
M  V30 56 H 3.305804 1.774993 -0.291179 0
M  V30 57 H 4.720361 2.946655 2.920495 0
M  V30 58 H 5.068139 2.475128 3.032579 0
M  V30 59 H 1.936983 0.043467 5.867905 0
M  V30 60 H 0.187463 -1.580704 5.041273 0
M  V30 61 H -0.191973 -1.781676 2.621883 0
M  V30 62 H -1.704799 -1.337164 -3.561745 0
M  V30 63 H -3.297606 0.303464 -4.243895 0
M  V30 64 H -3.633012 2.312391 -2.967322 0
M  V30 65 H -3.164762 2.878413 -0.060308 0
M  V30 66 H -0.609311 6.674031 -1.199539 0
M  V30 67 H -1.129785 8.673193 0.095851 0
M  V30 68 H -4.059336 6.646618 2.291649 0
M  V30 69 H -3.617023 4.536807 1.034281 0
M  V30 70 H -0.763188 1.096641 -0.195490 0
M  V30 END ATOM
M  V30 BEGIN BOND
M  V30 1 1 1 2
M  V30 2 1 2 3
M  V30 3 1 2 4
M  V30 4 1 4 5
M  V30 5 1 5 6
M  V30 6 1 6 7
M  V30 7 2 7 8
M  V30 8 1 7 9
M  V30 9 1 9 10
M  V30 10 1 10 11
M  V30 11 1 11 12
M  V30 12 2 12 13
M  V30 13 1 13 14
M  V30 14 2 14 15
M  V30 15 1 15 16
M  V30 16 2 16 17
M  V30 17 1 17 18
M  V30 18 1 18 19
M  V30 19 2 18 20
M  V30 20 1 17 21
M  V30 21 2 21 22
M  V30 22 1 22 23
M  V30 23 2 23 24
M  V30 24 1 10 25
M  V30 25 2 25 26
M  V30 26 1 26 27
M  V30 27 2 27 28
M  V30 28 1 28 29
M  V30 29 1 29 30
M  V30 30 1 30 31
M  V30 31 2 31 32
M  V30 32 1 31 33
M  V30 33 2 33 34
M  V30 34 1 34 35
M  V30 35 2 35 36
M  V30 36 1 36 37
M  V30 37 1 36 38
M  V30 38 2 38 39
M  V30 39 2 29 40
M  V30 40 1 24 12
M  V30 41 1 40 25
M  V30 42 1 24 16
M  V30 43 1 39 33
M  V30 44 1 1 41
M  V30 45 1 1 42
M  V30 46 1 1 43
M  V30 47 1 3 44
M  V30 48 1 3 45
M  V30 49 1 3 46
M  V30 50 1 4 47
M  V30 51 1 4 48
M  V30 52 1 5 49
M  V30 53 1 5 50
M  V30 54 1 6 51
M  V30 55 1 9 52
M  V30 56 1 9 53
M  V30 57 1 10 54
M  V30 58 1 11 55
M  V30 59 1 14 56
M  V30 60 1 19 57
M  V30 61 1 19 58
M  V30 62 1 21 59
M  V30 63 1 22 60
M  V30 64 1 23 61
M  V30 65 1 26 62
M  V30 66 1 27 63
M  V30 67 1 28 64
M  V30 68 1 30 65
M  V30 69 1 34 66
M  V30 70 1 35 67
M  V30 71 1 38 68
M  V30 72 1 39 69
M  V30 73 1 40 70
M  V30 END BOND
M  V30 END CTAB
M  END
>  <Dataset>  (174) 
ChEMBL_Kinases

>  <Ligand_Instance>  (174) 
nan

>  <PDB_ID>  (174) 
nan

>  <Standardized_SMILES>  (174) 
CN(C)CCNC(=O)CC(Nc1ncnc2c(C(N)=O)cccc12)c1cccc(NC(=O)c2ccc(Br)cc2)c1

>  <Name>  (174) 
nan

>  <Pocket>  (174) 
nan

>  <ATP_Site>  (174) 
nan

>  <Peripheral>  (174) 
nan

>  <Num_H_Atoms_ProtBoundConf>  (174) 
nan

>  <Num_Resolved_Atoms>  (174) 
nan

>  <Num_Not_Resolved_Atoms>  (174) 
nan

$$$$
CHEMBL3125725
     RDKit          3D

  0  0  0  0  0  0  0  0  0  0999 V3000
M  V30 BEGIN CTAB
M  V30 COUNTS 55 58 0 0 0
M  V30 BEGIN ATOM
M  V30 1 C 5.407229 -3.739250 8.131660 0
M  V30 2 O 5.008103 -2.604999 7.377161 0
M  V30 3 C 4.390909 -2.812906 6.150727 0
M  V30 4 C 4.103839 -4.035798 5.546027 0
M  V30 5 C 3.479823 -4.050277 4.312018 0
M  V30 6 C 3.141116 -2.872038 3.678302 0
M  V30 7 C 2.484106 -2.983404 2.376121 0
M  V30 8 N 2.050525 -2.007628 1.549848 0
M  V30 9 C 1.501842 -2.547465 0.448558 0
M  V30 10 C 0.935473 -1.932568 -0.651488 0
M  V30 11 O 0.825150 -0.561131 -0.826474 0
M  V30 12 C -0.296283 0.180942 -0.386783 0
M  V30 13 C -0.048048 1.640093 -0.756949 0
M  V30 14 C -1.176886 2.525599 -0.337885 0
M  V30 15 N -2.449109 2.186092 -0.932190 0
M  V30 16 C -2.558799 2.219530 -2.369410 0
M  V30 17 O -1.539311 2.543141 -3.032374 0
M  V30 18 C -3.876388 1.864717 -2.913791 0
M  V30 19 C -3.944280 1.913282 -4.407037 0
M  V30 20 C -5.445731 2.035387 -4.701162 0
M  V30 21 C -6.115816 2.222486 -3.341609 0
M  V30 22 C -4.965977 2.882162 -2.569559 0
M  V30 23 C 0.424657 -2.724814 -1.685924 0
M  V30 24 Br -0.365072 -1.953141 -3.222565 0
M  V30 25 C 0.551611 -4.089045 -1.477842 0
M  V30 26 N 1.093896 -4.691050 -0.424971 0
M  V30 27 C 1.586113 -3.917678 0.572127 0
M  V30 28 N 2.192319 -4.139760 1.763194 0
M  V30 29 C 3.399863 -1.632187 4.227517 0
M  V30 30 C 4.023563 -1.651857 5.459871 0
M  V30 31 H 4.504481 -4.414289 8.120960 0
M  V30 32 H 6.179047 -4.280980 7.554380 0
M  V30 33 H 5.695498 -3.464276 9.156035 0
M  V30 34 H 4.405858 -4.900699 6.116735 0
M  V30 35 H 3.282448 -5.029054 3.892095 0
M  V30 36 H -0.326218 0.049212 0.714616 0
M  V30 37 H -1.251097 -0.167006 -0.788580 0
M  V30 38 H 0.271433 1.729242 -1.798089 0
M  V30 39 H 0.829922 1.951844 -0.142300 0
M  V30 40 H -0.870707 3.564490 -0.545451 0
M  V30 41 H -1.270247 2.443951 0.756127 0
M  V30 42 H -3.283111 1.918587 -0.327881 0
M  V30 43 H -4.252161 0.880206 -2.577440 0
M  V30 44 H -3.449954 2.837664 -4.790067 0
M  V30 45 H -3.523620 0.995939 -4.857846 0
M  V30 46 H -5.660981 2.951174 -5.287510 0
M  V30 47 H -5.812052 1.114225 -5.198606 0
M  V30 48 H -6.290085 1.228381 -2.927943 0
M  V30 49 H -7.003400 2.875691 -3.386986 0
M  V30 50 H -4.766179 3.834920 -3.068200 0
M  V30 51 H -5.175179 2.947598 -1.497858 0
M  V30 52 H 0.167684 -4.759459 -2.257683 0
M  V30 53 H 2.358365 -5.136856 2.060115 0
M  V30 54 H 3.140803 -0.714775 3.743186 0
M  V30 55 H 4.226094 -0.663095 5.890319 0
M  V30 END ATOM
M  V30 BEGIN BOND
M  V30 1 1 1 2
M  V30 2 1 2 3
M  V30 3 2 3 4
M  V30 4 1 4 5
M  V30 5 2 5 6
M  V30 6 1 6 7
M  V30 7 2 7 8
M  V30 8 1 8 9
M  V30 9 2 9 10
M  V30 10 1 10 11
M  V30 11 1 11 12
M  V30 12 1 12 13
M  V30 13 1 13 14
M  V30 14 1 14 15
M  V30 15 1 15 16
M  V30 16 2 16 17
M  V30 17 1 16 18
M  V30 18 1 18 19
M  V30 19 1 19 20
M  V30 20 1 20 21
M  V30 21 1 21 22
M  V30 22 1 10 23
M  V30 23 1 23 24
M  V30 24 2 23 25
M  V30 25 1 25 26
M  V30 26 2 26 27
M  V30 27 1 27 28
M  V30 28 1 6 29
M  V30 29 2 29 30
M  V30 30 1 30 3
M  V30 31 1 28 7
M  V30 32 1 27 9
M  V30 33 1 22 18
M  V30 34 1 1 31
M  V30 35 1 1 32
M  V30 36 1 1 33
M  V30 37 1 4 34
M  V30 38 1 5 35
M  V30 39 1 12 36
M  V30 40 1 12 37
M  V30 41 1 13 38
M  V30 42 1 13 39
M  V30 43 1 14 40
M  V30 44 1 14 41
M  V30 45 1 15 42
M  V30 46 1 18 43
M  V30 47 1 19 44
M  V30 48 1 19 45
M  V30 49 1 20 46
M  V30 50 1 20 47
M  V30 51 1 21 48
M  V30 52 1 21 49
M  V30 53 1 22 50
M  V30 54 1 22 51
M  V30 55 1 25 52
M  V30 56 1 28 53
M  V30 57 1 29 54
M  V30 58 1 30 55
M  V30 END BOND
M  V30 END CTAB
M  END
>  <Dataset>  (175) 
ChEMBL_Kinases

>  <Ligand_Instance>  (175) 
nan

>  <PDB_ID>  (175) 
nan

>  <Standardized_SMILES>  (175) 
COc1ccc(-c2nc3c(OCCCNC(=O)C4CCCC4)c(Br)cnc3[nH]2)cc1

>  <Name>  (175) 
nan

>  <Pocket>  (175) 
nan

>  <ATP_Site>  (175) 
nan

>  <Peripheral>  (175) 
nan

>  <Num_H_Atoms_ProtBoundConf>  (175) 
nan

>  <Num_Resolved_Atoms>  (175) 
nan

>  <Num_Not_Resolved_Atoms>  (175) 
nan

$$$$
CHEMBL3680448
     RDKit          3D

  0  0  0  0  0  0  0  0  0  0999 V3000
M  V30 BEGIN CTAB
M  V30 COUNTS 39 41 0 0 0
M  V30 BEGIN ATOM
M  V30 1 C 2.817948 -0.717453 2.843991 0
M  V30 2 O 1.881281 -0.401713 1.833779 0
M  V30 3 C 2.081643 -0.691526 0.512290 0
M  V30 4 C 3.253556 -1.320113 0.165843 0
M  V30 5 C 3.509198 -1.636127 -1.145000 0
M  V30 6 C 2.563639 -1.304523 -2.075655 0
M  V30 7 C 2.835317 -1.639825 -3.462558 0
M  V30 8 N 2.057788 -1.413772 -4.626181 0
M  V30 9 O 3.909133 -2.223523 -3.753201 0
M  V30 10 C 1.411255 -0.675520 -1.659160 0
M  V30 11 N 0.534983 -0.386364 -2.622381 0
M  V30 12 C -0.630008 0.214402 -2.419681 0
M  V30 13 N -0.861479 0.513148 -1.151448 0
M  V30 14 C -0.097175 0.293625 -0.089174 0
M  V30 15 N -0.362382 0.633340 1.266680 0
M  V30 16 C -0.624690 0.969335 2.607672 0
M  V30 17 C -1.842231 0.274600 3.143468 0
M  V30 18 C -1.599476 -0.968428 3.740904 0
M  V30 19 C -2.709093 -1.621241 4.236879 0
M  V30 20 C -3.982369 -1.053550 4.135302 0
M  V30 21 C -4.125144 0.175982 3.530156 0
M  V30 22 F -5.372212 0.716994 3.438206 0
M  V30 23 C -3.068117 0.892720 3.009316 0
M  V30 24 C 1.096907 -0.332663 -0.365231 0
M  V30 25 H 2.316310 -0.638207 3.842713 0
M  V30 26 H 3.037988 -1.814517 2.727051 0
M  V30 27 H 3.732573 -0.118852 2.809347 0
M  V30 28 H 3.986049 -1.570490 0.931090 0
M  V30 29 H 4.423484 -2.125048 -1.405361 0
M  V30 30 H 1.373264 -0.634086 -4.840844 0
M  V30 31 H 1.363790 -0.697757 -4.947602 0
M  V30 32 H -1.364323 0.462868 -3.182078 0
M  V30 33 H -1.327809 1.055896 1.085144 0
M  V30 34 H -0.782781 2.079939 2.740094 0
M  V30 35 H 0.230849 0.787872 3.313446 0
M  V30 36 H -0.622343 -1.372261 3.802742 0
M  V30 37 H -2.529087 -2.586370 4.701677 0
M  V30 38 H -4.793622 -1.620351 4.543504 0
M  V30 39 H -3.135649 1.852756 2.530374 0
M  V30 END ATOM
M  V30 BEGIN BOND
M  V30 1 1 1 2
M  V30 2 1 2 3
M  V30 3 2 3 4
M  V30 4 1 4 5
M  V30 5 2 5 6
M  V30 6 1 6 7
M  V30 7 1 7 8
M  V30 8 2 7 9
M  V30 9 1 6 10
M  V30 10 2 10 11
M  V30 11 1 11 12
M  V30 12 2 12 13
M  V30 13 1 13 14
M  V30 14 1 14 15
M  V30 15 1 15 16
M  V30 16 1 16 17
M  V30 17 2 17 18
M  V30 18 1 18 19
M  V30 19 2 19 20
M  V30 20 1 20 21
M  V30 21 1 21 22
M  V30 22 2 21 23
M  V30 23 2 14 24
M  V30 24 1 24 3
M  V30 25 1 24 10
M  V30 26 1 23 17
M  V30 27 1 1 25
M  V30 28 1 1 26
M  V30 29 1 1 27
M  V30 30 1 4 28
M  V30 31 1 5 29
M  V30 32 1 8 30
M  V30 33 1 8 31
M  V30 34 1 12 32
M  V30 35 1 15 33
M  V30 36 1 16 34
M  V30 37 1 16 35
M  V30 38 1 18 36
M  V30 39 1 19 37
M  V30 40 1 20 38
M  V30 41 1 23 39
M  V30 END BOND
M  V30 END CTAB
M  END
>  <Dataset>  (176) 
ChEMBL_Kinases

>  <Ligand_Instance>  (176) 
nan

>  <PDB_ID>  (176) 
nan

>  <Standardized_SMILES>  (176) 
COc1ccc(C(N)=O)c2ncnc(NCc3cccc(F)c3)c12

>  <Name>  (176) 
nan

>  <Pocket>  (176) 
nan

>  <ATP_Site>  (176) 
nan

>  <Peripheral>  (176) 
nan

>  <Num_H_Atoms_ProtBoundConf>  (176) 
nan

>  <Num_Resolved_Atoms>  (176) 
nan

>  <Num_Not_Resolved_Atoms>  (176) 
nan

$$$$
CHEMBL3680445
     RDKit          3D

  0  0  0  0  0  0  0  0  0  0999 V3000
M  V30 BEGIN CTAB
M  V30 COUNTS 44 46 0 0 0
M  V30 BEGIN ATOM
M  V30 1 N 0.321428 -6.039359 0.096838 0
M  V30 2 C 1.719301 -5.781210 0.076390 0
M  V30 3 O 2.499548 -6.752500 0.090371 0
M  V30 4 C 2.222181 -4.414389 0.040027 0
M  V30 5 C 3.582834 -4.193151 0.020700 0
M  V30 6 C 4.031638 -2.889078 -0.013669 0
M  V30 7 C 3.112046 -1.858495 -0.027440 0
M  V30 8 C 1.745967 -2.036950 -0.009027 0
M  V30 9 C 0.906094 -0.944576 -0.025032 0
M  V30 10 N 1.383125 0.408692 -0.060854 0
M  V30 11 C 0.374076 1.460847 -0.074139 0
M  V30 12 C 1.027998 2.807237 -0.111935 0
M  V30 13 C 0.024736 3.940284 -0.127132 0
M  V30 14 O 0.629098 5.195380 -0.162042 0
M  V30 15 C -0.398606 1.328294 1.199644 0
M  V30 16 C 0.212280 1.132243 2.415528 0
M  V30 17 C -0.560255 1.017455 3.558048 0
M  V30 18 C -1.953085 1.097100 3.500220 0
M  V30 19 C -2.573197 1.294916 2.274791 0
M  V30 20 N -3.992976 1.377952 2.202086 0 CHG=1 VAL=4
M  V30 21 O -4.500239 1.557613 1.067572 0
M  V30 22 O -4.804685 1.269934 3.309665 0 CHG=-1 VAL=1
M  V30 23 C -1.768015 1.401734 1.178732 0
M  V30 24 N -0.390459 -1.221282 -0.005107 0
M  V30 25 C -0.844861 -2.483673 0.028373 0
M  V30 26 N -0.005825 -3.557272 0.043958 0
M  V30 27 C 1.343387 -3.351651 0.025097 0
M  V30 28 H -0.446636 -6.225882 0.783555 0
M  V30 29 H -0.406552 -6.123598 -0.651441 0
M  V30 30 H 4.226202 -5.060094 0.033649 0
M  V30 31 H 5.101635 -2.728569 -0.028565 0
M  V30 32 H 3.559261 -0.887240 -0.054225 0
M  V30 33 H 2.367547 0.705757 -0.078007 0
M  V30 34 H -0.312425 1.305634 -0.918295 0
M  V30 35 H 1.658240 2.950608 0.788952 0
M  V30 36 H 1.651924 2.851352 -1.027631 0
M  V30 37 H -0.562448 3.879623 -1.087877 0
M  V30 38 H -0.735432 3.831000 0.666010 0
M  V30 39 H 1.506924 5.179427 0.334654 0
M  V30 40 H 1.292447 1.069728 2.465934 0
M  V30 41 H -0.084930 0.863689 4.513169 0
M  V30 42 H -2.591141 1.012924 4.365316 0
M  V30 43 H -2.239524 1.556076 0.217899 0
M  V30 44 H -1.930738 -2.617350 0.042828 0
M  V30 END ATOM
M  V30 BEGIN BOND
M  V30 1 1 1 2
M  V30 2 2 2 3
M  V30 3 1 2 4
M  V30 4 2 4 5
M  V30 5 1 5 6
M  V30 6 2 6 7
M  V30 7 1 7 8
M  V30 8 2 8 9
M  V30 9 1 9 10
M  V30 10 1 10 11
M  V30 11 1 11 12
M  V30 12 1 12 13
M  V30 13 1 13 14
M  V30 14 1 11 15
M  V30 15 2 15 16
M  V30 16 1 16 17
M  V30 17 2 17 18
M  V30 18 1 18 19
M  V30 19 1 19 20
M  V30 20 2 20 21
M  V30 21 1 20 22
M  V30 22 2 19 23
M  V30 23 1 9 24
M  V30 24 2 24 25
M  V30 25 1 25 26
M  V30 26 2 26 27
M  V30 27 1 27 4
M  V30 28 1 27 8
M  V30 29 1 23 15
M  V30 30 1 1 28
M  V30 31 1 1 29
M  V30 32 1 5 30
M  V30 33 1 6 31
M  V30 34 1 7 32
M  V30 35 1 10 33
M  V30 36 1 11 34
M  V30 37 1 12 35
M  V30 38 1 12 36
M  V30 39 1 13 37
M  V30 40 1 13 38
M  V30 41 1 14 39
M  V30 42 1 16 40
M  V30 43 1 17 41
M  V30 44 1 18 42
M  V30 45 1 23 43
M  V30 46 1 25 44
M  V30 END BOND
M  V30 END CTAB
M  END
>  <Dataset>  (177) 
ChEMBL_Kinases

>  <Ligand_Instance>  (177) 
nan

>  <PDB_ID>  (177) 
nan

>  <Standardized_SMILES>  (177) 
NC(=O)c1cccc2c(NC(CCO)c3cccc([N+](=O)[O-])c3)ncnc12

>  <Name>  (177) 
nan

>  <Pocket>  (177) 
nan

>  <ATP_Site>  (177) 
nan

>  <Peripheral>  (177) 
nan

>  <Num_H_Atoms_ProtBoundConf>  (177) 
nan

>  <Num_Resolved_Atoms>  (177) 
nan

>  <Num_Not_Resolved_Atoms>  (177) 
nan

$$$$
CHEMBL3125728
     RDKit          3D

  0  0  0  0  0  0  0  0  0  0999 V3000
M  V30 BEGIN CTAB
M  V30 COUNTS 54 57 0 0 0
M  V30 BEGIN ATOM
M  V30 1 C -10.628924 -2.684562 -0.524246 0
M  V30 2 O -9.684071 -1.632044 -0.425796 0
M  V30 3 C -8.321917 -1.881047 -0.548779 0
M  V30 4 C -7.775951 -3.131732 -0.770723 0
M  V30 5 C -6.390608 -3.272970 -0.878938 0
M  V30 6 C -5.648961 -2.116997 -0.752085 0
M  V30 7 C -4.190927 -2.258701 -0.863870 0
M  V30 8 N -3.261923 -1.265183 -0.771172 0
M  V30 9 C -2.043799 -1.834289 -0.931537 0
M  V30 10 C -0.782417 -1.234402 -0.917950 0
M  V30 11 C 0.318818 -2.055646 -1.108600 0
M  V30 12 C 1.634694 -1.423494 -1.095025 0
M  V30 13 C 2.734165 -2.216681 -0.606286 0
M  V30 14 S 4.194585 -1.015926 -0.773546 0
M  V30 15 C 3.243807 0.235817 -1.401112 0
M  V30 16 C 3.710767 1.639239 -1.822153 0
M  V30 17 O 2.917310 2.492353 -2.277041 0
M  V30 18 N 5.099854 1.869835 -1.648887 0
M  V30 19 C 5.646539 3.156970 -2.013242 0
M  V30 20 C 5.066129 4.313085 -1.274217 0
M  V30 21 C 5.231076 4.287061 0.211852 0
M  V30 22 C 4.620322 3.119191 0.908701 0
M  V30 23 C 6.650235 4.475276 0.655726 0
M  V30 24 C 1.992777 -0.171037 -1.483005 0
M  V30 25 C 0.127431 -3.384991 -1.297170 0
M  V30 26 N -1.101151 -3.933156 -1.304997 0
M  V30 27 C -2.204805 -3.183521 -1.124928 0
M  V30 28 N -3.534449 -3.413930 -1.078132 0
M  V30 29 C -6.163372 -0.856846 -0.530719 0
M  V30 30 C -7.546568 -0.737646 -0.425946 0
M  V30 31 H -11.635335 -2.305133 -0.792170 0
M  V30 32 H -10.696212 -3.270909 0.422010 0
M  V30 33 H -10.342122 -3.408902 -1.314557 0
M  V30 34 H -8.437345 -3.974406 -0.855544 0
M  V30 35 H -5.942522 -4.240398 -1.052223 0
M  V30 36 H -0.723473 -0.160137 -0.759730 0
M  V30 37 H 2.652076 -3.316775 -0.222947 0
M  V30 38 H 5.741358 1.121236 -1.260459 0
M  V30 39 H 5.378521 3.298675 -3.086683 0
M  V30 40 H 6.756265 3.150712 -2.001357 0
M  V30 41 H 5.600236 5.232277 -1.643275 0
M  V30 42 H 4.014486 4.441254 -1.592214 0
M  V30 43 H 4.674410 5.193788 0.593245 0
M  V30 44 H 4.656748 3.369317 2.011033 0
M  V30 45 H 3.525570 3.034573 0.706934 0
M  V30 46 H 5.170631 2.167936 0.817730 0
M  V30 47 H 7.396448 4.034086 -0.040674 0
M  V30 48 H 6.796082 4.001871 1.653429 0
M  V30 49 H 6.882198 5.563331 0.840658 0
M  V30 50 H 1.180039 0.471737 -1.864626 0
M  V30 51 H 0.983644 -4.049635 -1.449423 0
M  V30 52 H -3.905013 -4.379585 -1.200782 0
M  V30 53 H -5.523152 0.006905 -0.441382 0
M  V30 54 H -7.940714 0.252906 -0.252757 0
M  V30 END ATOM
M  V30 BEGIN BOND
M  V30 1 1 1 2
M  V30 2 1 2 3
M  V30 3 2 3 4
M  V30 4 1 4 5
M  V30 5 2 5 6
M  V30 6 1 6 7
M  V30 7 2 7 8
M  V30 8 1 8 9
M  V30 9 2 9 10
M  V30 10 1 10 11
M  V30 11 1 11 12
M  V30 12 2 12 13
M  V30 13 1 13 14
M  V30 14 1 14 15
M  V30 15 1 15 16
M  V30 16 2 16 17
M  V30 17 1 16 18
M  V30 18 1 18 19
M  V30 19 1 19 20
M  V30 20 1 20 21
M  V30 21 1 21 22
M  V30 22 1 21 23
M  V30 23 2 15 24
M  V30 24 2 11 25
M  V30 25 1 25 26
M  V30 26 2 26 27
M  V30 27 1 27 28
M  V30 28 1 6 29
M  V30 29 2 29 30
M  V30 30 1 30 3
M  V30 31 1 28 7
M  V30 32 1 27 9
M  V30 33 1 24 12
M  V30 34 1 1 31
M  V30 35 1 1 32
M  V30 36 1 1 33
M  V30 37 1 4 34
M  V30 38 1 5 35
M  V30 39 1 10 36
M  V30 40 1 13 37
M  V30 41 1 18 38
M  V30 42 1 19 39
M  V30 43 1 19 40
M  V30 44 1 20 41
M  V30 45 1 20 42
M  V30 46 1 21 43
M  V30 47 1 22 44
M  V30 48 1 22 45
M  V30 49 1 22 46
M  V30 50 1 23 47
M  V30 51 1 23 48
M  V30 52 1 23 49
M  V30 53 1 24 50
M  V30 54 1 25 51
M  V30 55 1 28 52
M  V30 56 1 29 53
M  V30 57 1 30 54
M  V30 END BOND
M  V30 END CTAB
M  END
>  <Dataset>  (178) 
ChEMBL_Kinases

>  <Ligand_Instance>  (178) 
nan

>  <PDB_ID>  (178) 
nan

>  <Standardized_SMILES>  (178) 
COc1ccc(-c2nc3cc(-c4csc(C(=O)NCCC(C)C)c4)cnc3[nH]2)cc1

>  <Name>  (178) 
nan

>  <Pocket>  (178) 
nan

>  <ATP_Site>  (178) 
nan

>  <Peripheral>  (178) 
nan

>  <Num_H_Atoms_ProtBoundConf>  (178) 
nan

>  <Num_Resolved_Atoms>  (178) 
nan

>  <Num_Not_Resolved_Atoms>  (178) 
nan

$$$$
CHEMBL3680443
     RDKit          3D

  0  0  0  0  0  0  0  0  0  0999 V3000
M  V30 BEGIN CTAB
M  V30 COUNTS 67 71 0 0 0
M  V30 BEGIN ATOM
M  V30 1 N 4.590157 -3.723972 4.577689 0
M  V30 2 C 5.025077 -2.397436 4.336127 0
M  V30 3 O 5.926213 -1.862094 5.029033 0
M  V30 4 C 4.401606 -1.633017 3.244928 0
M  V30 5 C 4.827472 -0.342676 3.010568 0
M  V30 6 C 4.212041 0.336896 1.973996 0
M  V30 7 C 3.222799 -0.259954 1.220861 0
M  V30 8 C 2.795043 -1.529563 1.441998 0
M  V30 9 C 1.807719 -2.095271 0.675496 0
M  V30 10 N 1.168149 -1.408621 -0.393949 0
M  V30 11 C 0.161163 -2.113134 -1.104197 0
M  V30 12 C -0.506869 -1.432718 -2.236141 0
M  V30 13 C 0.309862 -0.988164 -3.375558 0
M  V30 14 N 1.328518 -0.038538 -3.194884 0
M  V30 15 C 0.896944 1.298769 -2.881525 0
M  V30 16 C 0.301029 1.861784 -4.155872 0
M  V30 17 C 0.956046 1.087962 -5.257338 0
M  V30 18 C 1.939302 0.192992 -4.516833 0
M  V30 19 C -0.929995 -2.605835 -0.192456 0
M  V30 20 C -1.533201 -3.841021 -0.159880 0
M  V30 21 C -2.523895 -4.060975 0.774615 0
M  V30 22 C -2.922440 -3.089384 1.667063 0
M  V30 23 C -2.322281 -1.839860 1.644891 0
M  V30 24 N -2.715241 -0.797714 2.564543 0
M  V30 25 C -3.750082 0.003390 2.048069 0
M  V30 26 O -4.132618 -0.345848 0.882686 0
M  V30 27 C -4.341170 1.133254 2.767473 0
M  V30 28 C -3.948560 1.525914 4.023067 0
M  V30 29 C -4.517615 2.595428 4.685777 0
M  V30 30 C -5.534264 3.289629 4.026532 0
M  V30 31 F -6.110601 4.350437 4.663880 0
M  V30 32 C -5.946075 2.901941 2.746000 0
M  V30 33 F -6.936397 3.605863 2.145383 0
M  V30 34 C -5.350454 1.824132 2.115455 0
M  V30 35 C -1.316238 -1.611286 0.698351 0
M  V30 36 N 1.491760 -3.355562 1.014585 0
M  V30 37 C 2.083696 -4.010913 2.012460 0
M  V30 38 N 3.053186 -3.466342 2.771008 0
M  V30 39 C 3.413027 -2.192207 2.472231 0
M  V30 40 H 4.631817 -4.726643 4.352678 0
M  V30 41 H 3.877039 -3.960915 5.320214 0
M  V30 42 H 5.593981 0.044541 3.634645 0
M  V30 43 H 4.556950 1.342708 1.805495 0
M  V30 44 H 2.805050 0.347547 0.437900 0
M  V30 45 H 1.376905 -0.442487 -0.691399 0
M  V30 46 H 0.643916 -3.068737 -1.465559 0
M  V30 47 H -1.227719 -0.627130 -1.896218 0
M  V30 48 H -1.229006 -2.201518 -2.656995 0
M  V30 49 H 0.783934 -1.911078 -3.826032 0
M  V30 50 H -0.404510 -0.665788 -4.192398 0
M  V30 51 H 1.816964 1.889887 -2.689482 0
M  V30 52 H 0.272048 1.409272 -1.998207 0
M  V30 53 H -0.816627 1.756720 -4.167612 0
M  V30 54 H 0.508665 2.943360 -4.286878 0
M  V30 55 H 0.225528 0.423299 -5.796912 0
M  V30 56 H 1.439156 1.738152 -5.997851 0
M  V30 57 H 2.027509 -0.737633 -5.103757 0
M  V30 58 H 2.929650 0.650276 -4.416889 0
M  V30 59 H -1.145373 -4.524396 -0.901174 0
M  V30 60 H -2.968908 -5.059650 0.756063 0
M  V30 61 H -3.694003 -3.277632 2.385847 0
M  V30 62 H -2.328182 -0.597514 3.513568 0
M  V30 63 H -3.162787 0.981509 4.520156 0
M  V30 64 H -4.170355 2.866031 5.679482 0
M  V30 65 H -5.708023 1.567906 1.125145 0
M  V30 66 H -0.893183 -0.594977 0.749102 0
M  V30 67 H 1.697512 -5.031610 2.145713 0
M  V30 END ATOM
M  V30 BEGIN BOND
M  V30 1 1 1 2
M  V30 2 2 2 3
M  V30 3 1 2 4
M  V30 4 2 4 5
M  V30 5 1 5 6
M  V30 6 2 6 7
M  V30 7 1 7 8
M  V30 8 2 8 9
M  V30 9 1 9 10
M  V30 10 1 10 11
M  V30 11 1 11 12
M  V30 12 1 12 13
M  V30 13 1 13 14
M  V30 14 1 14 15
M  V30 15 1 15 16
M  V30 16 1 16 17
M  V30 17 1 17 18
M  V30 18 1 11 19
M  V30 19 2 19 20
M  V30 20 1 20 21
M  V30 21 2 21 22
M  V30 22 1 22 23
M  V30 23 1 23 24
M  V30 24 1 24 25
M  V30 25 2 25 26
M  V30 26 1 25 27
M  V30 27 2 27 28
M  V30 28 1 28 29
M  V30 29 2 29 30
M  V30 30 1 30 31
M  V30 31 1 30 32
M  V30 32 1 32 33
M  V30 33 2 32 34
M  V30 34 2 23 35
M  V30 35 1 9 36
M  V30 36 2 36 37
M  V30 37 1 37 38
M  V30 38 2 38 39
M  V30 39 1 39 4
M  V30 40 1 39 8
M  V30 41 1 18 14
M  V30 42 1 35 19
M  V30 43 1 34 27
M  V30 44 1 1 40
M  V30 45 1 1 41
M  V30 46 1 5 42
M  V30 47 1 6 43
M  V30 48 1 7 44
M  V30 49 1 10 45
M  V30 50 1 11 46
M  V30 51 1 12 47
M  V30 52 1 12 48
M  V30 53 1 13 49
M  V30 54 1 13 50
M  V30 55 1 15 51
M  V30 56 1 15 52
M  V30 57 1 16 53
M  V30 58 1 16 54
M  V30 59 1 17 55
M  V30 60 1 17 56
M  V30 61 1 18 57
M  V30 62 1 18 58
M  V30 63 1 20 59
M  V30 64 1 21 60
M  V30 65 1 22 61
M  V30 66 1 24 62
M  V30 67 1 28 63
M  V30 68 1 29 64
M  V30 69 1 34 65
M  V30 70 1 35 66
M  V30 71 1 37 67
M  V30 END BOND
M  V30 END CTAB
M  END
>  <Dataset>  (179) 
ChEMBL_Kinases

>  <Ligand_Instance>  (179) 
nan

>  <PDB_ID>  (179) 
nan

>  <Standardized_SMILES>  (179) 
NC(=O)c1cccc2c(NC(CCN3CCCC3)c3cccc(NC(=O)c4ccc(F)c(F)c4)c3)ncnc12

>  <Name>  (179) 
nan

>  <Pocket>  (179) 
nan

>  <ATP_Site>  (179) 
nan

>  <Peripheral>  (179) 
nan

>  <Num_H_Atoms_ProtBoundConf>  (179) 
nan

>  <Num_Resolved_Atoms>  (179) 
nan

>  <Num_Not_Resolved_Atoms>  (179) 
nan

$$$$
CHEMBL3680397
     RDKit          3D

  0  0  0  0  0  0  0  0  0  0999 V3000
M  V30 BEGIN CTAB
M  V30 COUNTS 49 51 0 0 0
M  V30 BEGIN ATOM
M  V30 1 C 0.984882 -5.190549 0.087488 0
M  V30 2 C 0.569647 -4.024856 -0.759824 0
M  V30 3 N -0.078082 -2.958407 0.033527 0
M  V30 4 C -0.394563 -1.935117 -0.972066 0
M  V30 5 C 0.820587 -2.451758 1.020355 0
M  V30 6 C 0.165011 -1.475582 1.926866 0
M  V30 7 N -0.380555 -0.293861 1.369191 0
M  V30 8 C 0.446962 0.680427 0.719787 0
M  V30 9 N 1.775623 0.434584 0.663603 0
M  V30 10 C 2.654809 1.272548 0.085793 0
M  V30 11 N 2.212707 2.416490 -0.469275 0
M  V30 12 C 0.895674 2.694959 -0.432381 0
M  V30 13 C 0.409067 3.857770 -0.992563 0
M  V30 14 C 1.334324 4.789572 -1.628140 0
M  V30 15 N 2.737438 4.568314 -1.709953 0
M  V30 16 O 0.968813 5.885569 -2.167221 0
M  V30 17 C -0.924490 4.209717 -0.994279 0
M  V30 18 C -1.786502 3.298894 -0.379563 0
M  V30 19 C -1.361923 2.113522 0.201669 0
M  V30 20 C -0.022083 1.850543 0.154365 0
M  V30 21 C -0.807182 -2.230037 2.772916 0
M  V30 22 C -0.447150 -2.736630 4.003598 0
M  V30 23 C -1.239937 -3.441290 4.866928 0
M  V30 24 C -2.533237 -3.648590 4.425512 0
M  V30 25 C -2.962060 -3.173647 3.211976 0
M  V30 26 C -2.118895 -2.465622 2.375127 0
M  V30 27 H 0.776665 -6.127746 -0.490931 0
M  V30 28 H 2.084157 -5.206530 0.280605 0
M  V30 29 H 0.415637 -5.270064 1.041564 0
M  V30 30 H -0.192247 -4.352100 -1.487355 0
M  V30 31 H 1.435536 -3.652959 -1.315313 0
M  V30 32 H -1.196078 -1.307850 -0.591118 0
M  V30 33 H -0.692322 -2.474294 -1.910396 0
M  V30 34 H 0.529286 -1.396748 -1.229894 0
M  V30 35 H 1.274021 -3.267453 1.639047 0
M  V30 36 H 1.668868 -1.926807 0.524916 0
M  V30 37 H 0.982788 -1.123628 2.639575 0
M  V30 38 H -1.408672 -0.213912 1.486522 0
M  V30 39 H 3.694481 0.924004 0.126620 0
M  V30 40 H 3.445389 4.298137 -2.455956 0
M  V30 41 H 3.030257 4.746434 -0.728564 0
M  V30 42 H -1.290925 5.125382 -1.437750 0
M  V30 43 H -2.840185 3.605017 -0.396015 0
M  V30 44 H -2.084188 1.455454 0.659071 0
M  V30 45 H 0.588442 -2.553138 4.322301 0
M  V30 46 H -0.879484 -3.803779 5.814970 0
M  V30 47 H -3.234542 -4.194891 5.037470 0
M  V30 48 H -3.989651 -3.355041 2.893401 0
M  V30 49 H -2.443216 -2.081896 1.409396 0
M  V30 END ATOM
M  V30 BEGIN BOND
M  V30 1 1 1 2
M  V30 2 1 2 3
M  V30 3 1 3 4
M  V30 4 1 3 5
M  V30 5 1 5 6
M  V30 6 1 6 7
M  V30 7 1 7 8
M  V30 8 2 8 9
M  V30 9 1 9 10
M  V30 10 2 10 11
M  V30 11 1 11 12
M  V30 12 2 12 13
M  V30 13 1 13 14
M  V30 14 1 14 15
M  V30 15 2 14 16
M  V30 16 1 13 17
M  V30 17 2 17 18
M  V30 18 1 18 19
M  V30 19 2 19 20
M  V30 20 1 6 21
M  V30 21 2 21 22
M  V30 22 1 22 23
M  V30 23 2 23 24
M  V30 24 1 24 25
M  V30 25 2 25 26
M  V30 26 1 20 8
M  V30 27 1 26 21
M  V30 28 1 20 12
M  V30 29 1 1 27
M  V30 30 1 1 28
M  V30 31 1 1 29
M  V30 32 1 2 30
M  V30 33 1 2 31
M  V30 34 1 4 32
M  V30 35 1 4 33
M  V30 36 1 4 34
M  V30 37 1 5 35
M  V30 38 1 5 36
M  V30 39 1 6 37
M  V30 40 1 7 38
M  V30 41 1 10 39
M  V30 42 1 15 40
M  V30 43 1 15 41
M  V30 44 1 17 42
M  V30 45 1 18 43
M  V30 46 1 19 44
M  V30 47 1 22 45
M  V30 48 1 23 46
M  V30 49 1 24 47
M  V30 50 1 25 48
M  V30 51 1 26 49
M  V30 END BOND
M  V30 END CTAB
M  END
>  <Dataset>  (180) 
ChEMBL_Kinases

>  <Ligand_Instance>  (180) 
nan

>  <PDB_ID>  (180) 
nan

>  <Standardized_SMILES>  (180) 
CCN(C)CC(Nc1ncnc2c(C(N)=O)cccc12)c1ccccc1

>  <Name>  (180) 
nan

>  <Pocket>  (180) 
nan

>  <ATP_Site>  (180) 
nan

>  <Peripheral>  (180) 
nan

>  <Num_H_Atoms_ProtBoundConf>  (180) 
nan

>  <Num_Resolved_Atoms>  (180) 
nan

>  <Num_Not_Resolved_Atoms>  (180) 
nan

$$$$
CHEMBL3680441
     RDKit          3D

  0  0  0  0  0  0  0  0  0  0999 V3000
M  V30 BEGIN CTAB
M  V30 COUNTS 41 44 0 0 0
M  V30 BEGIN ATOM
M  V30 1 N 2.237467 -5.933717 2.594233 0
M  V30 2 C 1.589760 -5.261200 1.509054 0
M  V30 3 O 1.008423 -6.026086 0.701671 0
M  V30 4 C 1.653504 -3.800088 1.429927 0
M  V30 5 C 2.327552 -3.034091 2.380821 0
M  V30 6 C 2.338709 -1.650415 2.229654 0
M  V30 7 C 1.697702 -1.027674 1.160878 0
M  V30 8 C 1.056462 -1.854280 0.268183 0
M  V30 9 C 0.432030 -1.202985 -0.778413 0
M  V30 10 N 0.378310 0.194684 -1.031755 0
M  V30 11 C 1.419118 1.199586 -1.270780 0
M  V30 12 C 1.121195 2.483603 -0.548006 0
M  V30 13 C 0.030548 2.353720 0.461887 0
M  V30 14 C 0.072124 3.082057 1.652105 0
M  V30 15 C -0.941223 2.944031 2.560931 0
M  V30 16 C -2.000315 2.094847 2.313422 0
M  V30 17 N -3.034891 1.979189 3.284147 0 CHG=1 VAL=4
M  V30 18 O -4.007404 1.220708 3.092926 0
M  V30 19 O -2.982508 2.707801 4.462695 0 CHG=-1 VAL=1
M  V30 20 C -2.070993 1.370943 1.163569 0
M  V30 21 C -1.045118 1.515103 0.251028 0
M  V30 22 C -0.960036 0.793301 -1.070964 0
M  V30 23 N -0.229417 -1.940722 -1.713246 0
M  V30 24 C -0.256975 -3.293829 -1.591203 0
M  V30 25 N 0.346310 -3.957203 -0.575896 0
M  V30 26 C 1.003016 -3.229211 0.352780 0
M  V30 27 H 3.234153 -6.285451 2.645605 0
M  V30 28 H 1.420512 -5.939521 3.248944 0
M  V30 29 H 2.817506 -3.541551 3.201581 0
M  V30 30 H 2.869158 -1.095411 2.983789 0
M  V30 31 H 1.718613 0.032569 1.064191 0
M  V30 32 H 2.431717 0.798943 -1.095454 0
M  V30 33 H 1.293699 1.436863 -2.368310 0
M  V30 34 H 2.075481 2.793675 -0.029841 0
M  V30 35 H 0.907927 3.344166 -1.229346 0
M  V30 36 H 0.925125 3.748543 1.821813 0
M  V30 37 H -0.893534 3.518610 3.483084 0
M  V30 38 H -2.862127 0.694434 0.907053 0
M  V30 39 H -1.036833 1.545043 -1.880781 0
M  V30 40 H -1.750065 0.036974 -1.157863 0
M  V30 41 H -0.781844 -3.912005 -2.329032 0
M  V30 END ATOM
M  V30 BEGIN BOND
M  V30 1 1 1 2
M  V30 2 2 2 3
M  V30 3 1 2 4
M  V30 4 2 4 5
M  V30 5 1 5 6
M  V30 6 2 6 7
M  V30 7 1 7 8
M  V30 8 2 8 9
M  V30 9 1 9 10
M  V30 10 1 10 11
M  V30 11 1 11 12
M  V30 12 1 12 13
M  V30 13 2 13 14
M  V30 14 1 14 15
M  V30 15 2 15 16
M  V30 16 1 16 17
M  V30 17 2 17 18
M  V30 18 1 17 19
M  V30 19 1 16 20
M  V30 20 2 20 21
M  V30 21 1 21 22
M  V30 22 1 9 23
M  V30 23 2 23 24
M  V30 24 1 24 25
M  V30 25 2 25 26
M  V30 26 1 26 4
M  V30 27 1 26 8
M  V30 28 1 22 10
M  V30 29 1 21 13
M  V30 30 1 1 27
M  V30 31 1 1 28
M  V30 32 1 5 29
M  V30 33 1 6 30
M  V30 34 1 7 31
M  V30 35 1 11 32
M  V30 36 1 11 33
M  V30 37 1 12 34
M  V30 38 1 12 35
M  V30 39 1 14 36
M  V30 40 1 15 37
M  V30 41 1 20 38
M  V30 42 1 22 39
M  V30 43 1 22 40
M  V30 44 1 24 41
M  V30 END BOND
M  V30 END CTAB
M  END
>  <Dataset>  (181) 
ChEMBL_Kinases

>  <Ligand_Instance>  (181) 
nan

>  <PDB_ID>  (181) 
nan

>  <Standardized_SMILES>  (181) 
NC(=O)c1cccc2c(N3CCc4ccc([N+](=O)[O-])cc4C3)ncnc12

>  <Name>  (181) 
nan

>  <Pocket>  (181) 
nan

>  <ATP_Site>  (181) 
nan

>  <Peripheral>  (181) 
nan

>  <Num_H_Atoms_ProtBoundConf>  (181) 
nan

>  <Num_Resolved_Atoms>  (181) 
nan

>  <Num_Not_Resolved_Atoms>  (181) 
nan

$$$$
CHEMBL3125733
     RDKit          3D

  0  0  0  0  0  0  0  0  0  0999 V3000
M  V30 BEGIN CTAB
M  V30 COUNTS 42 45 0 0 0
M  V30 BEGIN ATOM
M  V30 1 C 2.467884 -7.917272 0.611221 0
M  V30 2 N 2.271616 -6.625520 -0.062183 0
M  V30 3 C 2.788934 -6.465733 -1.349182 0
M  V30 4 O 3.414109 -7.275761 -2.042435 0
M  V30 5 C 2.502523 -5.106570 -1.881191 0
M  V30 6 C 1.868415 -4.001900 -1.421781 0
M  V30 7 C 1.818773 -2.910703 -2.250152 0
M  V30 8 C 1.143890 -1.664191 -1.821086 0
M  V30 9 C 0.536109 -0.866106 -2.768981 0
M  V30 10 N -0.090796 0.281816 -2.412494 0
M  V30 11 C -0.153053 0.699344 -1.130213 0
M  V30 12 N -0.693415 1.764184 -0.510169 0
M  V30 13 C -0.439496 1.655775 0.811277 0
M  V30 14 C -0.830076 2.576831 1.891359 0
M  V30 15 C -0.478533 2.299948 3.195969 0
M  V30 16 C -0.859088 3.180689 4.188964 0
M  V30 17 C -1.577469 4.315840 3.879718 0
M  V30 18 O -2.031198 5.292701 4.760882 0
M  V30 19 C -1.781737 5.207745 6.151246 0
M  V30 20 C -1.945720 4.618343 2.563206 0
M  V30 21 C -1.549308 3.711183 1.571741 0
M  V30 22 N 0.259451 0.514315 0.980006 0
M  V30 23 C 0.461666 -0.114942 -0.201387 0
M  V30 24 C 1.118970 -1.297376 -0.487990 0
M  V30 25 C 2.422396 -3.013794 -3.503358 0
M  V30 26 S 3.105241 -4.647587 -3.616030 0
M  V30 27 H 2.925338 -7.679702 1.593580 0
M  V30 28 H 3.112407 -8.598416 0.020138 0
M  V30 29 H 1.464240 -8.370163 0.842904 0
M  V30 30 H 1.752077 -5.918684 0.485311 0
M  V30 31 H 1.451246 -4.075195 -0.431356 0
M  V30 32 H 0.580741 -1.197080 -3.818220 0
M  V30 33 H -1.222347 2.549619 -0.959873 0
M  V30 34 H 0.084383 1.414874 3.457419 0
M  V30 35 H -0.629088 3.045701 5.233037 0
M  V30 36 H -0.805615 5.684150 6.421394 0
M  V30 37 H -1.789756 4.153238 6.487346 0
M  V30 38 H -2.544562 5.764001 6.740542 0
M  V30 39 H -2.506059 5.485435 2.246512 0
M  V30 40 H -1.799809 3.882380 0.534197 0
M  V30 41 H 1.586061 -1.902491 0.273292 0
M  V30 42 H 2.455549 -2.241469 -4.241467 0
M  V30 END ATOM
M  V30 BEGIN BOND
M  V30 1 1 1 2
M  V30 2 1 2 3
M  V30 3 2 3 4
M  V30 4 1 3 5
M  V30 5 2 5 6
M  V30 6 1 6 7
M  V30 7 1 7 8
M  V30 8 2 8 9
M  V30 9 1 9 10
M  V30 10 2 10 11
M  V30 11 1 11 12
M  V30 12 1 12 13
M  V30 13 1 13 14
M  V30 14 2 14 15
M  V30 15 1 15 16
M  V30 16 2 16 17
M  V30 17 1 17 18
M  V30 18 1 18 19
M  V30 19 1 17 20
M  V30 20 2 20 21
M  V30 21 2 13 22
M  V30 22 1 22 23
M  V30 23 2 23 24
M  V30 24 2 7 25
M  V30 25 1 25 26
M  V30 26 1 26 5
M  V30 27 1 24 8
M  V30 28 1 23 11
M  V30 29 1 21 14
M  V30 30 1 1 27
M  V30 31 1 1 28
M  V30 32 1 1 29
M  V30 33 1 2 30
M  V30 34 1 6 31
M  V30 35 1 9 32
M  V30 36 1 12 33
M  V30 37 1 15 34
M  V30 38 1 16 35
M  V30 39 1 19 36
M  V30 40 1 19 37
M  V30 41 1 19 38
M  V30 42 1 20 39
M  V30 43 1 21 40
M  V30 44 1 24 41
M  V30 45 1 25 42
M  V30 END BOND
M  V30 END CTAB
M  END
>  <Dataset>  (182) 
ChEMBL_Kinases

>  <Ligand_Instance>  (182) 
nan

>  <PDB_ID>  (182) 
nan

>  <Standardized_SMILES>  (182) 
CNC(=O)c1cc(-c2cnc3[nH]c(-c4ccc(OC)cc4)nc3c2)cs1

>  <Name>  (182) 
nan

>  <Pocket>  (182) 
nan

>  <ATP_Site>  (182) 
nan

>  <Peripheral>  (182) 
nan

>  <Num_H_Atoms_ProtBoundConf>  (182) 
nan

>  <Num_Resolved_Atoms>  (182) 
nan

>  <Num_Not_Resolved_Atoms>  (182) 
nan

$$$$
CHEMBL3125734
     RDKit          3D

  0  0  0  0  0  0  0  0  0  0999 V3000
M  V30 BEGIN CTAB
M  V30 COUNTS 40 43 0 0 0
M  V30 BEGIN ATOM
M  V30 1 C -0.372527 -7.933663 3.949226 0
M  V30 2 O 0.543047 -7.204810 3.146802 0
M  V30 3 C 0.279294 -5.906180 2.724468 0
M  V30 4 C 1.297695 -5.347118 1.941526 0
M  V30 5 C 1.053118 -4.047209 1.508269 0
M  V30 6 C -0.092512 -3.338258 1.809495 0
M  V30 7 C -0.324723 -1.972589 1.340909 0
M  V30 8 N 0.501581 -1.215841 0.575961 0
M  V30 9 C -0.043955 -0.007506 0.340956 0
M  V30 10 C 0.269631 1.156602 -0.329897 0
M  V30 11 C -0.611506 2.219206 -0.324922 0
M  V30 12 C -0.279779 3.450720 -1.030312 0
M  V30 13 C -1.291037 4.281605 -1.624989 0
M  V30 14 S -0.279120 5.676774 -2.356136 0
M  V30 15 C 1.314192 5.045751 -1.822777 0
M  V30 16 C 2.481747 5.772468 -2.139218 0
M  V30 17 C 3.827908 5.300029 -1.724000 0
M  V30 18 O 2.383089 6.842668 -2.786189 0
M  V30 19 C 1.012554 3.885405 -1.161539 0
M  V30 20 C -1.817520 2.158649 0.339159 0
M  V30 21 N -2.135551 1.024630 0.999338 0
M  V30 22 C -1.266983 -0.006913 0.987452 0
M  V30 23 N -1.409061 -1.198065 1.578863 0
M  V30 24 C -1.071540 -3.930095 2.585888 0
M  V30 25 C -0.874326 -5.219431 3.039742 0
M  V30 26 H 0.104210 -8.875849 4.261277 0
M  V30 27 H -0.621738 -7.274699 4.812714 0
M  V30 28 H -1.318615 -8.135068 3.412069 0
M  V30 29 H 2.202115 -5.857706 1.682941 0
M  V30 30 H 1.804607 -3.561455 0.898542 0
M  V30 31 H 1.221029 1.177712 -0.842393 0
M  V30 32 H -2.335393 4.047724 -1.589118 0
M  V30 33 H 3.888227 4.197638 -1.828946 0
M  V30 34 H 4.640543 5.810756 -2.299715 0
M  V30 35 H 3.986211 5.484185 -0.620634 0
M  V30 36 H 1.885037 3.384231 -0.776632 0
M  V30 37 H -2.511872 2.988928 0.346241 0
M  V30 38 H -2.215384 -1.542585 2.154226 0
M  V30 39 H -2.002954 -3.465273 2.879102 0
M  V30 40 H -1.616259 -5.713812 3.648077 0
M  V30 END ATOM
M  V30 BEGIN BOND
M  V30 1 1 1 2
M  V30 2 1 2 3
M  V30 3 2 3 4
M  V30 4 1 4 5
M  V30 5 2 5 6
M  V30 6 1 6 7
M  V30 7 2 7 8
M  V30 8 1 8 9
M  V30 9 2 9 10
M  V30 10 1 10 11
M  V30 11 1 11 12
M  V30 12 2 12 13
M  V30 13 1 13 14
M  V30 14 1 14 15
M  V30 15 1 15 16
M  V30 16 1 16 17
M  V30 17 2 16 18
M  V30 18 2 15 19
M  V30 19 2 11 20
M  V30 20 1 20 21
M  V30 21 2 21 22
M  V30 22 1 22 23
M  V30 23 1 6 24
M  V30 24 2 24 25
M  V30 25 1 25 3
M  V30 26 1 23 7
M  V30 27 1 22 9
M  V30 28 1 19 12
M  V30 29 1 1 26
M  V30 30 1 1 27
M  V30 31 1 1 28
M  V30 32 1 4 29
M  V30 33 1 5 30
M  V30 34 1 10 31
M  V30 35 1 13 32
M  V30 36 1 17 33
M  V30 37 1 17 34
M  V30 38 1 17 35
M  V30 39 1 19 36
M  V30 40 1 20 37
M  V30 41 1 23 38
M  V30 42 1 24 39
M  V30 43 1 25 40
M  V30 END BOND
M  V30 END CTAB
M  END
>  <Dataset>  (183) 
ChEMBL_Kinases

>  <Ligand_Instance>  (183) 
nan

>  <PDB_ID>  (183) 
nan

>  <Standardized_SMILES>  (183) 
COc1ccc(-c2nc3cc(-c4csc(C(C)=O)c4)cnc3[nH]2)cc1

>  <Name>  (183) 
nan

>  <Pocket>  (183) 
nan

>  <ATP_Site>  (183) 
nan

>  <Peripheral>  (183) 
nan

>  <Num_H_Atoms_ProtBoundConf>  (183) 
nan

>  <Num_Resolved_Atoms>  (183) 
nan

>  <Num_Not_Resolved_Atoms>  (183) 
nan

$$$$
CHEMBL3125737
     RDKit          3D

  0  0  0  0  0  0  0  0  0  0999 V3000
M  V30 BEGIN CTAB
M  V30 COUNTS 43 46 0 0 0
M  V30 BEGIN ATOM
M  V30 1 C 1.802754 1.100905 1.699480 0
M  V30 2 N 2.200952 0.796607 0.342980 0
M  V30 3 C 1.493926 -0.154604 -0.414720 0
M  V30 4 C 1.759519 -0.537049 -1.704021 0
M  V30 5 C 2.841690 0.027749 -2.442767 0
M  V30 6 C 3.181414 -0.274356 -3.693839 0
M  V30 7 C 4.209868 0.275249 -4.368671 0
M  V30 8 C 4.926175 1.220031 -3.643997 0
M  V30 9 C 6.111743 2.112185 -3.872254 0
M  V30 10 O 6.458201 2.850720 -2.923036 0
M  V30 11 O 6.759784 2.087007 -5.087428 0
M  V30 12 S 4.084614 1.256763 -2.057658 0
M  V30 13 C 0.972681 -1.485142 -2.310106 0
M  V30 14 N -0.058376 -2.052365 -1.668545 0
M  V30 15 C -0.388796 -1.736497 -0.404636 0
M  V30 16 N -1.348044 -2.148339 0.439071 0
M  V30 17 C -1.185001 -1.470530 1.588600 0
M  V30 18 C -2.016676 -1.607335 2.788626 0
M  V30 19 C -3.064956 -2.504624 2.759594 0
M  V30 20 C -3.831388 -2.610224 3.908894 0
M  V30 21 C -3.562843 -1.847253 5.050000 0
M  V30 22 O -4.465767 -2.130581 6.066027 0
M  V30 23 C -4.414551 -1.494205 7.327529 0
M  V30 24 C -2.504530 -0.960898 5.037793 0
M  V30 25 C -1.731188 -0.843419 3.901372 0
M  V30 26 N -0.129062 -0.661116 1.417257 0
M  V30 27 C 0.410060 -0.785026 0.187095 0
M  V30 28 H 2.397303 1.893962 2.187555 0
M  V30 29 H 0.748500 1.509768 1.713430 0
M  V30 30 H 1.867954 0.187318 2.352485 0
M  V30 31 H 3.021006 1.371138 0.100645 0
M  V30 32 H 2.666314 -1.010970 -4.336599 0
M  V30 33 H 4.662521 0.200202 -5.339456 0
M  V30 34 H 7.565760 2.703112 -5.287640 0
M  V30 35 H 1.120818 -1.834334 -3.318190 0
M  V30 36 H -2.060600 -2.866680 0.188515 0
M  V30 37 H -3.236040 -3.070484 1.862942 0
M  V30 38 H -4.644474 -3.342401 3.809408 0
M  V30 39 H -4.762982 -2.197864 8.136436 0
M  V30 40 H -3.409635 -1.119656 7.598143 0
M  V30 41 H -5.152776 -0.651899 7.383394 0
M  V30 42 H -2.394197 -0.430038 5.968901 0
M  V30 43 H -0.926706 -0.144207 3.946180 0
M  V30 END ATOM
M  V30 BEGIN BOND
M  V30 1 1 1 2
M  V30 2 1 2 3
M  V30 3 2 3 4
M  V30 4 1 4 5
M  V30 5 2 5 6
M  V30 6 1 6 7
M  V30 7 2 7 8
M  V30 8 1 8 9
M  V30 9 2 9 10
M  V30 10 1 9 11
M  V30 11 1 8 12
M  V30 12 1 4 13
M  V30 13 2 13 14
M  V30 14 1 14 15
M  V30 15 1 15 16
M  V30 16 1 16 17
M  V30 17 1 17 18
M  V30 18 2 18 19
M  V30 19 1 19 20
M  V30 20 2 20 21
M  V30 21 1 21 22
M  V30 22 1 22 23
M  V30 23 1 21 24
M  V30 24 2 24 25
M  V30 25 2 17 26
M  V30 26 1 26 27
M  V30 27 1 27 3
M  V30 28 1 12 5
M  V30 29 2 27 15
M  V30 30 1 25 18
M  V30 31 1 1 28
M  V30 32 1 1 29
M  V30 33 1 1 30
M  V30 34 1 2 31
M  V30 35 1 6 32
M  V30 36 1 7 33
M  V30 37 1 11 34
M  V30 38 1 13 35
M  V30 39 1 16 36
M  V30 40 1 19 37
M  V30 41 1 20 38
M  V30 42 1 23 39
M  V30 43 1 23 40
M  V30 44 1 23 41
M  V30 45 1 24 42
M  V30 46 1 25 43
M  V30 END BOND
M  V30 END CTAB
M  END
>  <Dataset>  (184) 
ChEMBL_Kinases

>  <Ligand_Instance>  (184) 
nan

>  <PDB_ID>  (184) 
nan

>  <Standardized_SMILES>  (184) 
CNc1c(-c2ccc(C(=O)O)s2)cnc2[nH]c(-c3ccc(OC)cc3)nc12

>  <Name>  (184) 
nan

>  <Pocket>  (184) 
nan

>  <ATP_Site>  (184) 
nan

>  <Peripheral>  (184) 
nan

>  <Num_H_Atoms_ProtBoundConf>  (184) 
nan

>  <Num_Resolved_Atoms>  (184) 
nan

>  <Num_Not_Resolved_Atoms>  (184) 
nan

$$$$
CHEMBL3680438
     RDKit          3D

  0  0  0  0  0  0  0  0  0  0999 V3000
M  V30 BEGIN CTAB
M  V30 COUNTS 53 56 0 0 0
M  V30 BEGIN ATOM
M  V30 1 C 8.049266 0.636282 0.043554 0
M  V30 2 C 6.563525 0.615784 -0.014369 0
M  V30 3 C 5.898599 1.152726 1.069149 0
M  V30 4 N 4.553519 1.177761 1.105303 0
M  V30 5 C 3.835927 0.672599 0.071232 0
M  V30 6 C 2.381904 0.633785 -0.023465 0
M  V30 7 O 1.710664 0.168705 -0.975621 0
M  V30 8 N 1.710690 1.190431 1.100095 0
M  V30 9 C 0.359068 1.393537 1.498009 0
M  V30 10 C -0.165871 2.607284 1.096222 0
M  V30 11 C -1.459703 2.991599 1.384055 0
M  V30 12 C -2.243811 2.101321 2.109104 0
M  V30 13 C -1.747004 0.897022 2.516613 0
M  V30 14 C -2.482847 -0.135428 3.293594 0 CFG=1
M  V30 15 C -3.967407 0.092028 3.278270 0
M  V30 16 N -2.210461 -1.422118 2.672919 0
M  V30 17 C -2.575135 -1.616757 1.331554 0
M  V30 18 N -3.161176 -0.651433 0.624012 0
M  V30 19 C -3.528440 -0.793738 -0.666057 0
M  V30 20 N -3.335760 -1.940528 -1.373169 0
M  V30 21 C -2.740860 -2.954053 -0.693012 0
M  V30 22 C -2.530889 -4.135773 -1.386531 0
M  V30 23 C -2.945407 -4.240486 -2.779226 0
M  V30 24 N -3.559812 -3.163019 -3.446828 0
M  V30 25 O -2.768751 -5.296959 -3.433296 0
M  V30 26 C -1.935467 -5.185189 -0.745418 0
M  V30 27 C -1.560740 -5.037695 0.573464 0
M  V30 28 C -1.779444 -3.853067 1.243445 0
M  V30 29 C -2.374302 -2.784354 0.625926 0
M  V30 30 C -0.451062 0.536781 2.216202 0
M  V30 31 C 4.488414 0.130032 -1.023853 0
M  V30 32 N 5.834166 0.119471 -1.030593 0
M  V30 33 H 8.325375 1.681731 0.370635 0
M  V30 34 H 8.373602 -0.106920 0.803039 0
M  V30 35 H 8.515135 0.479121 -0.928734 0
M  V30 36 H 6.364029 1.590052 1.962652 0
M  V30 37 H 2.196726 1.603707 1.944967 0
M  V30 38 H 0.398827 3.348268 0.525127 0
M  V30 39 H -1.865057 3.944661 1.066042 0
M  V30 40 H -3.262187 2.329197 2.372233 0
M  V30 41 H -2.144641 -0.054476 4.329488 0
M  V30 42 H -4.326054 0.626073 4.185117 0
M  V30 43 H -4.344572 0.599728 2.383971 0
M  V30 44 H -4.455735 -0.905727 3.311856 0
M  V30 45 H -1.751825 -2.104952 3.309042 0
M  V30 46 H -4.007129 0.057773 -1.172589 0
M  V30 47 H -3.400287 -2.390532 -4.130370 0
M  V30 48 H -4.563504 -3.146343 -3.117649 0
M  V30 49 H -1.794459 -6.090328 -1.337561 0
M  V30 50 H -1.083525 -5.901937 1.061048 0
M  V30 51 H -1.471280 -3.794407 2.257081 0
M  V30 52 H 0.042193 -0.396053 2.491939 0
M  V30 53 H 3.979044 -0.289168 -1.881015 0
M  V30 END ATOM
M  V30 BEGIN BOND
M  V30 1 1 1 2
M  V30 2 2 2 3
M  V30 3 1 3 4
M  V30 4 2 4 5
M  V30 5 1 5 6
M  V30 6 2 6 7
M  V30 7 1 6 8
M  V30 8 1 8 9
M  V30 9 2 9 10
M  V30 10 1 10 11
M  V30 11 2 11 12
M  V30 12 1 12 13
M  V30 13 1 13 14
M  V30 14 1 14 15
M  V30 15 1 14 16
M  V30 16 1 16 17
M  V30 17 2 17 18
M  V30 18 1 18 19
M  V30 19 2 19 20
M  V30 20 1 20 21
M  V30 21 2 21 22
M  V30 22 1 22 23
M  V30 23 1 23 24
M  V30 24 2 23 25
M  V30 25 1 22 26
M  V30 26 2 26 27
M  V30 27 1 27 28
M  V30 28 2 28 29
M  V30 29 2 13 30
M  V30 30 1 5 31
M  V30 31 2 31 32
M  V30 32 1 32 2
M  V30 33 1 30 9
M  V30 34 1 29 17
M  V30 35 1 29 21
M  V30 36 1 1 33
M  V30 37 1 1 34
M  V30 38 1 1 35
M  V30 39 1 3 36
M  V30 40 1 8 37
M  V30 41 1 10 38
M  V30 42 1 11 39
M  V30 43 1 12 40
M  V30 44 1 14 41 CFG=1
M  V30 45 1 15 42
M  V30 46 1 15 43
M  V30 47 1 15 44
M  V30 48 1 16 45
M  V30 49 1 19 46
M  V30 50 1 24 47
M  V30 51 1 24 48
M  V30 52 1 26 49
M  V30 53 1 27 50
M  V30 54 1 28 51
M  V30 55 1 30 52
M  V30 56 1 31 53
M  V30 END BOND
M  V30 END CTAB
M  END
>  <Dataset>  (185) 
ChEMBL_Kinases

>  <Ligand_Instance>  (185) 
nan

>  <PDB_ID>  (185) 
nan

>  <Standardized_SMILES>  (185) 
Cc1cnc(C(=O)Nc2cccc([C@@H](C)Nc3ncnc4c(C(N)=O)cccc34)c2)cn1

>  <Name>  (185) 
nan

>  <Pocket>  (185) 
nan

>  <ATP_Site>  (185) 
nan

>  <Peripheral>  (185) 
nan

>  <Num_H_Atoms_ProtBoundConf>  (185) 
nan

>  <Num_Resolved_Atoms>  (185) 
nan

>  <Num_Not_Resolved_Atoms>  (185) 
nan

$$$$
CHEMBL3125738
     RDKit          3D

  0  0  0  0  0  0  0  0  0  0999 V3000
M  V30 BEGIN CTAB
M  V30 COUNTS 38 41 0 0 0
M  V30 BEGIN ATOM
M  V30 1 C 1.999787 -8.253687 2.558961 0
M  V30 2 O 1.694946 -7.038567 3.171984 0
M  V30 3 C 1.427150 -5.842497 2.524228 0
M  V30 4 C 1.142625 -4.733618 3.329438 0
M  V30 5 C 0.863117 -3.500093 2.790350 0
M  V30 6 C 0.852749 -3.308286 1.423090 0
M  V30 7 C 0.565669 -2.031282 0.776055 0
M  V30 8 N 0.274063 -0.876788 1.436284 0
M  V30 9 C 0.062667 0.107906 0.549844 0
M  V30 10 C -0.258379 1.448171 0.636475 0
M  V30 11 C -0.386701 2.116976 -0.558996 0
M  V30 12 C -0.726954 3.539844 -0.490339 0
M  V30 13 C -0.917208 4.441548 -1.437531 0
M  V30 14 C -1.234271 5.742089 -1.139706 0
M  V30 15 C -1.334029 6.014614 0.222486 0
M  V30 16 C -1.646716 7.248104 0.973490 0
M  V30 17 O -1.671047 7.216211 2.221123 0
M  V30 18 O -1.894040 8.370442 0.203504 0
M  V30 19 S -0.977087 4.428273 1.021436 0
M  V30 20 C -0.228021 1.585744 -1.814243 0
M  V30 21 N 0.086434 0.266013 -1.834548 0
M  V30 22 C 0.226317 -0.444737 -0.700688 0
M  V30 23 N 0.533689 -1.753547 -0.547605 0
M  V30 24 C 1.133850 -4.402689 0.617141 0
M  V30 25 C 1.414519 -5.641022 1.155684 0
M  V30 26 H 1.398177 -9.068222 3.039058 0
M  V30 27 H 3.081522 -8.474312 2.716808 0
M  V30 28 H 1.799440 -8.304867 1.475440 0
M  V30 29 H 1.142433 -4.849370 4.404592 0
M  V30 30 H 0.639479 -2.624122 3.382984 0
M  V30 31 H -0.395471 1.920741 1.594941 0
M  V30 32 H -0.817494 4.135987 -2.491501 0
M  V30 33 H -1.410417 6.556474 -1.826767 0
M  V30 34 H -2.115033 9.274232 0.653908 0
M  V30 35 H -0.342597 2.165034 -2.716356 0
M  V30 36 H 0.715512 -2.435114 -1.312886 0
M  V30 37 H 1.141933 -4.319242 -0.466198 0
M  V30 38 H 1.634109 -6.497476 0.540241 0
M  V30 END ATOM
M  V30 BEGIN BOND
M  V30 1 1 1 2
M  V30 2 1 2 3
M  V30 3 2 3 4
M  V30 4 1 4 5
M  V30 5 2 5 6
M  V30 6 1 6 7
M  V30 7 2 7 8
M  V30 8 1 8 9
M  V30 9 2 9 10
M  V30 10 1 10 11
M  V30 11 1 11 12
M  V30 12 2 12 13
M  V30 13 1 13 14
M  V30 14 2 14 15
M  V30 15 1 15 16
M  V30 16 2 16 17
M  V30 17 1 16 18
M  V30 18 1 15 19
M  V30 19 2 11 20
M  V30 20 1 20 21
M  V30 21 2 21 22
M  V30 22 1 22 23
M  V30 23 1 6 24
M  V30 24 2 24 25
M  V30 25 1 25 3
M  V30 26 1 23 7
M  V30 27 1 22 9
M  V30 28 1 19 12
M  V30 29 1 1 26
M  V30 30 1 1 27
M  V30 31 1 1 28
M  V30 32 1 4 29
M  V30 33 1 5 30
M  V30 34 1 10 31
M  V30 35 1 13 32
M  V30 36 1 14 33
M  V30 37 1 18 34
M  V30 38 1 20 35
M  V30 39 1 23 36
M  V30 40 1 24 37
M  V30 41 1 25 38
M  V30 END BOND
M  V30 END CTAB
M  END
>  <Dataset>  (186) 
ChEMBL_Kinases

>  <Ligand_Instance>  (186) 
nan

>  <PDB_ID>  (186) 
nan

>  <Standardized_SMILES>  (186) 
COc1ccc(-c2nc3cc(-c4ccc(C(=O)O)s4)cnc3[nH]2)cc1

>  <Name>  (186) 
nan

>  <Pocket>  (186) 
nan

>  <ATP_Site>  (186) 
nan

>  <Peripheral>  (186) 
nan

>  <Num_H_Atoms_ProtBoundConf>  (186) 
nan

>  <Num_Resolved_Atoms>  (186) 
nan

>  <Num_Not_Resolved_Atoms>  (186) 
nan

$$$$
CHEMBL3125739
     RDKit          3D

  0  0  0  0  0  0  0  0  0  0999 V3000
M  V30 BEGIN CTAB
M  V30 COUNTS 38 41 0 0 0
M  V30 BEGIN ATOM
M  V30 1 C 0.553145 -7.440034 4.621671 0
M  V30 2 O 1.601303 -6.535274 4.376831 0
M  V30 3 C 1.433001 -5.346389 3.677938 0
M  V30 4 C 0.208448 -4.959915 3.165283 0
M  V30 5 C 0.168341 -3.757367 2.490112 0
M  V30 6 C 1.263676 -2.934291 2.301976 0
M  V30 7 C 1.141386 -1.671445 1.573370 0
M  V30 8 N -0.003856 -1.207273 1.037042 0
M  V30 9 C 0.213069 -0.022746 0.434546 0
M  V30 10 C -0.678479 0.818325 -0.248423 0
M  V30 11 C -0.100807 1.970281 -0.744855 0
M  V30 12 C -1.007385 2.928244 -1.496165 0
M  V30 13 C -0.712375 4.088773 -2.066295 0
M  V30 14 C -1.737669 4.758202 -2.686918 0
M  V30 15 C -1.504353 6.062519 -3.351774 0
M  V30 16 O -0.376085 6.616200 -3.383053 0
M  V30 17 O -2.494833 6.753459 -3.975631 0
M  V30 18 C -3.021332 4.187078 -2.684192 0
M  V30 19 S -2.658869 2.602365 -1.718902 0
M  V30 20 C 1.228433 2.276396 -0.589843 0
M  V30 21 N 2.032772 1.415302 0.082919 0
M  V30 22 C 1.555236 0.252836 0.609606 0
M  V30 23 N 2.105822 -0.767123 1.308346 0
M  V30 24 C 2.483012 -3.326918 2.816763 0
M  V30 25 C 2.544056 -4.541231 3.503552 0
M  V30 26 H -0.169683 -7.070318 5.389194 0
M  V30 27 H 0.991425 -8.390783 4.994694 0
M  V30 28 H -0.064071 -7.633102 3.712650 0
M  V30 29 H -0.665070 -5.578776 3.294547 0
M  V30 30 H -0.800287 -3.473548 2.096708 0
M  V30 31 H -1.721392 0.553157 -0.356222 0
M  V30 32 H 0.310420 4.429057 -2.004958 0
M  V30 33 H -2.426271 7.728639 -4.182649 0
M  V30 34 H -3.883081 4.582770 -3.113447 0
M  V30 35 H 1.661101 3.195105 -0.992596 0
M  V30 36 H 3.118357 -0.829266 1.589834 0
M  V30 37 H 3.366021 -2.713801 2.692988 0
M  V30 38 H 3.521594 -4.840241 3.907534 0
M  V30 END ATOM
M  V30 BEGIN BOND
M  V30 1 1 1 2
M  V30 2 1 2 3
M  V30 3 2 3 4
M  V30 4 1 4 5
M  V30 5 2 5 6
M  V30 6 1 6 7
M  V30 7 2 7 8
M  V30 8 1 8 9
M  V30 9 2 9 10
M  V30 10 1 10 11
M  V30 11 1 11 12
M  V30 12 2 12 13
M  V30 13 1 13 14
M  V30 14 1 14 15
M  V30 15 2 15 16
M  V30 16 1 15 17
M  V30 17 2 14 18
M  V30 18 1 18 19
M  V30 19 2 11 20
M  V30 20 1 20 21
M  V30 21 2 21 22
M  V30 22 1 22 23
M  V30 23 1 6 24
M  V30 24 2 24 25
M  V30 25 1 25 3
M  V30 26 1 23 7
M  V30 27 1 22 9
M  V30 28 1 19 12
M  V30 29 1 1 26
M  V30 30 1 1 27
M  V30 31 1 1 28
M  V30 32 1 4 29
M  V30 33 1 5 30
M  V30 34 1 10 31
M  V30 35 1 13 32
M  V30 36 1 17 33
M  V30 37 1 18 34
M  V30 38 1 20 35
M  V30 39 1 23 36
M  V30 40 1 24 37
M  V30 41 1 25 38
M  V30 END BOND
M  V30 END CTAB
M  END
>  <Dataset>  (187) 
ChEMBL_Kinases

>  <Ligand_Instance>  (187) 
nan

>  <PDB_ID>  (187) 
nan

>  <Standardized_SMILES>  (187) 
COc1ccc(-c2nc3cc(-c4cc(C(=O)O)cs4)cnc3[nH]2)cc1

>  <Name>  (187) 
nan

>  <Pocket>  (187) 
nan

>  <ATP_Site>  (187) 
nan

>  <Peripheral>  (187) 
nan

>  <Num_H_Atoms_ProtBoundConf>  (187) 
nan

>  <Num_Resolved_Atoms>  (187) 
nan

>  <Num_Not_Resolved_Atoms>  (187) 
nan

$$$$
CHEMBL3125741
     RDKit          3D

  0  0  0  0  0  0  0  0  0  0999 V3000
M  V30 BEGIN CTAB
M  V30 COUNTS 38 41 0 0 0
M  V30 BEGIN ATOM
M  V30 1 C 0.520202 -7.164783 4.394843 0
M  V30 2 O 1.596983 -6.439481 3.861502 0
M  V30 3 C 1.491234 -5.225232 3.232410 0
M  V30 4 C 0.302571 -4.526383 3.026387 0
M  V30 5 C 0.202116 -3.317449 2.399423 0
M  V30 6 C 1.380064 -2.754237 1.937801 0
M  V30 7 C 1.333373 -1.463135 1.259711 0
M  V30 8 N 0.254206 -0.724775 1.015342 0
M  V30 9 C 0.588102 0.414453 0.364938 0
M  V30 10 C -0.237059 1.435818 -0.064634 0
M  V30 11 C 0.324380 2.514217 -0.714080 0
M  V30 12 C -0.415377 3.660925 -1.227398 0
M  V30 13 C 0.143972 4.928941 -1.277539 0
M  V30 14 S -1.200386 5.972142 -2.004073 0
M  V30 15 C -2.380855 4.629952 -2.174413 0
M  V30 16 C -3.729376 4.739626 -2.708924 0
M  V30 17 O -4.047755 5.873673 -3.064704 0
M  V30 18 O -4.513289 3.628299 -2.776210 0
M  V30 19 C -1.689754 3.419602 -1.661260 0
M  V30 20 C 1.691305 2.474897 -0.880018 0
M  V30 21 N 2.453515 1.460151 -0.445329 0
M  V30 22 C 1.956980 0.385807 0.193026 0
M  V30 23 N 2.365742 -0.767675 0.749450 0
M  V30 24 C 2.576324 -3.414319 2.122352 0
M  V30 25 C 2.658972 -4.650362 2.766139 0
M  V30 26 H 0.820465 -7.737670 5.319659 0
M  V30 27 H -0.336739 -6.528425 4.702687 0
M  V30 28 H 0.106726 -7.904815 3.667268 0
M  V30 29 H -0.620756 -4.988239 3.398620 0
M  V30 30 H -0.765763 -2.830333 2.274916 0
M  V30 31 H -1.302597 1.436438 0.080606 0
M  V30 32 H 1.080989 5.211281 -0.980178 0
M  V30 33 H -5.514525 3.709117 -3.004276 0
M  V30 34 H -2.286401 2.528600 -1.703146 0
M  V30 35 H 2.167032 3.322186 -1.395155 0
M  V30 36 H 3.376532 -1.026552 0.748738 0
M  V30 37 H 3.492779 -2.968937 1.759505 0
M  V30 38 H 3.630789 -5.134459 2.888193 0
M  V30 END ATOM
M  V30 BEGIN BOND
M  V30 1 1 1 2
M  V30 2 1 2 3
M  V30 3 2 3 4
M  V30 4 1 4 5
M  V30 5 2 5 6
M  V30 6 1 6 7
M  V30 7 2 7 8
M  V30 8 1 8 9
M  V30 9 2 9 10
M  V30 10 1 10 11
M  V30 11 1 11 12
M  V30 12 2 12 13
M  V30 13 1 13 14
M  V30 14 1 14 15
M  V30 15 1 15 16
M  V30 16 2 16 17
M  V30 17 1 16 18
M  V30 18 2 15 19
M  V30 19 2 11 20
M  V30 20 1 20 21
M  V30 21 2 21 22
M  V30 22 1 22 23
M  V30 23 1 6 24
M  V30 24 2 24 25
M  V30 25 1 25 3
M  V30 26 1 23 7
M  V30 27 1 22 9
M  V30 28 1 19 12
M  V30 29 1 1 26
M  V30 30 1 1 27
M  V30 31 1 1 28
M  V30 32 1 4 29
M  V30 33 1 5 30
M  V30 34 1 10 31
M  V30 35 1 13 32
M  V30 36 1 18 33
M  V30 37 1 19 34
M  V30 38 1 20 35
M  V30 39 1 23 36
M  V30 40 1 24 37
M  V30 41 1 25 38
M  V30 END BOND
M  V30 END CTAB
M  END
>  <Dataset>  (188) 
ChEMBL_Kinases

>  <Ligand_Instance>  (188) 
nan

>  <PDB_ID>  (188) 
nan

>  <Standardized_SMILES>  (188) 
COc1ccc(-c2nc3cc(-c4csc(C(=O)O)c4)cnc3[nH]2)cc1

>  <Name>  (188) 
nan

>  <Pocket>  (188) 
nan

>  <ATP_Site>  (188) 
nan

>  <Peripheral>  (188) 
nan

>  <Num_H_Atoms_ProtBoundConf>  (188) 
nan

>  <Num_Resolved_Atoms>  (188) 
nan

>  <Num_Not_Resolved_Atoms>  (188) 
nan

$$$$
CHEMBL3680437
     RDKit          3D

  0  0  0  0  0  0  0  0  0  0999 V3000
M  V30 BEGIN CTAB
M  V30 COUNTS 52 55 0 0 0
M  V30 BEGIN ATOM
M  V30 1 C 7.090676 -5.826754 3.338444 0
M  V30 2 O 6.598261 -4.540679 2.965468 0
M  V30 3 C 5.523277 -4.554510 2.063668 0
M  V30 4 C 5.074337 -3.291888 1.726413 0
M  V30 5 C 4.017964 -3.198557 0.843539 0
M  V30 6 C 3.385071 -1.955122 0.351419 0
M  V30 7 O 2.407845 -1.885975 -0.465965 0
M  V30 8 N 3.808262 -0.645451 0.747020 0
M  V30 9 C 2.952260 0.295558 0.058371 0
M  V30 10 C 3.338954 0.756020 -1.186614 0
M  V30 11 C 2.527533 1.654077 -1.850006 0
M  V30 12 C 1.343337 2.061041 -1.230273 0
M  V30 13 C 0.967047 1.586151 0.028339 0
M  V30 14 C -0.319658 2.123703 0.534266 0
M  V30 15 N -1.464104 1.309227 0.146879 0
M  V30 16 C -2.754363 1.722542 0.572777 0
M  V30 17 N -2.920793 2.831076 1.311346 0
M  V30 18 C -4.128791 3.251340 1.731673 0
M  V30 19 N -5.263143 2.588157 1.441054 0
M  V30 20 C -5.162812 1.472180 0.705765 0
M  V30 21 C -6.310706 0.772757 0.393328 0
M  V30 22 C -7.608108 1.257018 0.866067 0
M  V30 23 N -8.786738 0.528993 0.538814 0
M  V30 24 O -7.627566 2.318567 1.556225 0
M  V30 25 C -6.229832 -0.378459 -0.362408 0
M  V30 26 C -4.980332 -0.815338 -0.798584 0
M  V30 27 C -3.865875 -0.096440 -0.469431 0
M  V30 28 C -3.919953 1.050735 0.280403 0
M  V30 29 C 1.784093 0.691112 0.680080 0
M  V30 30 C 3.428476 -4.349905 0.313527 0
M  V30 31 C 3.940811 -5.568681 0.705300 0
M  V30 32 N 4.969544 -5.682622 1.564356 0
M  V30 33 H 6.245477 -6.555046 3.403852 0
M  V30 34 H 7.749091 -6.153808 2.498563 0
M  V30 35 H 7.670512 -5.821365 4.270588 0
M  V30 36 H 5.454279 -2.361626 2.073864 0
M  V30 37 H 4.618686 -0.572283 1.428947 0
M  V30 38 H 4.269645 0.410056 -1.627772 0
M  V30 39 H 2.796098 2.042939 -2.836034 0
M  V30 40 H 0.729883 2.771474 -1.787137 0
M  V30 41 H -0.265033 2.074043 1.660316 0
M  V30 42 H -0.464691 3.178097 0.221308 0
M  V30 43 H -1.230576 0.484617 -0.415959 0
M  V30 44 H -4.126411 4.168652 2.325667 0
M  V30 45 H -8.899300 0.012393 -0.354129 0
M  V30 46 H -9.516863 0.580402 1.304419 0
M  V30 47 H -7.120013 -0.951242 -0.624389 0
M  V30 48 H -4.964973 -1.735959 -1.396901 0
M  V30 49 H -2.945397 -0.479023 -0.830102 0
M  V30 50 H 1.456981 0.350413 1.647464 0
M  V30 51 H 2.597213 -4.348571 -0.383439 0
M  V30 52 H 3.494761 -6.470579 0.303300 0
M  V30 END ATOM
M  V30 BEGIN BOND
M  V30 1 1 1 2
M  V30 2 1 2 3
M  V30 3 2 3 4
M  V30 4 1 4 5
M  V30 5 1 5 6
M  V30 6 2 6 7
M  V30 7 1 6 8
M  V30 8 1 8 9
M  V30 9 2 9 10
M  V30 10 1 10 11
M  V30 11 2 11 12
M  V30 12 1 12 13
M  V30 13 1 13 14
M  V30 14 1 14 15
M  V30 15 1 15 16
M  V30 16 2 16 17
M  V30 17 1 17 18
M  V30 18 2 18 19
M  V30 19 1 19 20
M  V30 20 2 20 21
M  V30 21 1 21 22
M  V30 22 1 22 23
M  V30 23 2 22 24
M  V30 24 1 21 25
M  V30 25 2 25 26
M  V30 26 1 26 27
M  V30 27 2 27 28
M  V30 28 2 13 29
M  V30 29 2 5 30
M  V30 30 1 30 31
M  V30 31 2 31 32
M  V30 32 1 32 3
M  V30 33 1 29 9
M  V30 34 1 28 16
M  V30 35 1 28 20
M  V30 36 1 1 33
M  V30 37 1 1 34
M  V30 38 1 1 35
M  V30 39 1 4 36
M  V30 40 1 8 37
M  V30 41 1 10 38
M  V30 42 1 11 39
M  V30 43 1 12 40
M  V30 44 1 14 41
M  V30 45 1 14 42
M  V30 46 1 15 43
M  V30 47 1 18 44
M  V30 48 1 23 45
M  V30 49 1 23 46
M  V30 50 1 25 47
M  V30 51 1 26 48
M  V30 52 1 27 49
M  V30 53 1 29 50
M  V30 54 1 30 51
M  V30 55 1 31 52
M  V30 END BOND
M  V30 END CTAB
M  END
>  <Dataset>  (189) 
ChEMBL_Kinases

>  <Ligand_Instance>  (189) 
nan

>  <PDB_ID>  (189) 
nan

>  <Standardized_SMILES>  (189) 
COc1cc(C(=O)Nc2cccc(CNc3ncnc4c(C(N)=O)cccc34)c2)ccn1

>  <Name>  (189) 
nan

>  <Pocket>  (189) 
nan

>  <ATP_Site>  (189) 
nan

>  <Peripheral>  (189) 
nan

>  <Num_H_Atoms_ProtBoundConf>  (189) 
nan

>  <Num_Resolved_Atoms>  (189) 
nan

>  <Num_Not_Resolved_Atoms>  (189) 
nan

$$$$
CHEMBL3680442
     RDKit          3D

  0  0  0  0  0  0  0  0  0  0999 V3000
M  V30 BEGIN CTAB
M  V30 COUNTS 53 56 0 0 0
M  V30 BEGIN ATOM
M  V30 1 C -1.937239 2.674988 1.703473 0
M  V30 2 C -1.544695 1.216329 1.648566 0
M  V30 3 N -0.243153 1.130380 1.023016 0
M  V30 4 C 0.907075 1.713013 1.613844 0
M  V30 5 N 0.858346 2.363751 2.785206 0
M  V30 6 C 1.927873 2.920256 3.374547 0
M  V30 7 N 3.163301 2.870993 2.828713 0
M  V30 8 C 3.267184 2.229040 1.652357 0
M  V30 9 C 4.506750 2.152354 1.055114 0
M  V30 10 C 5.682351 2.733006 1.648121 0
M  V30 11 N 5.778430 3.443453 2.876484 0
M  V30 12 O 6.836124 2.698654 1.154930 0
M  V30 13 C 4.691200 1.511497 -0.150615 0
M  V30 14 C 3.588744 0.935850 -0.761723 0
M  V30 15 C 2.361902 1.029164 -0.139558 0
M  V30 16 C 2.165313 1.659923 1.052710 0
M  V30 17 C -2.586068 0.414939 1.009061 0
M  V30 18 C -3.828405 0.972302 0.792274 0
M  V30 19 C -4.791719 0.196515 0.187593 0
M  V30 20 C -4.524338 -1.099308 -0.190700 0
M  V30 21 C -3.297974 -1.696747 0.006310 0
M  V30 22 N -3.101505 -3.031185 -0.409406 0
M  V30 23 C -1.974015 -3.862291 -0.328008 0
M  V30 24 O -0.940199 -3.390035 0.192598 0
M  V30 25 C -1.954050 -5.234841 -0.817117 0
M  V30 26 C -2.986636 -5.925989 -1.417776 0
M  V30 27 C -2.594911 -7.197983 -1.743664 0
M  V30 28 C -1.267904 -7.266447 -1.317062 0
M  V30 29 N -0.914774 -6.085484 -0.770693 0
M  V30 30 C 0.387603 -5.730363 -0.199363 0
M  V30 31 C -2.380794 -0.885153 0.608353 0
M  V30 32 H -2.379876 2.968552 0.710256 0
M  V30 33 H -1.129172 3.349590 2.003146 0
M  V30 34 H -2.773178 2.765423 2.439356 0
M  V30 35 H -1.457428 0.867449 2.702316 0
M  V30 36 H -0.267671 0.615554 0.137703 0
M  V30 37 H 1.763783 3.413594 4.309714 0
M  V30 38 H 5.750915 3.110610 3.885695 0
M  V30 39 H 5.899125 4.464211 3.071099 0
M  V30 40 H 5.680234 1.450825 -0.626442 0
M  V30 41 H 3.728475 0.432408 -1.707068 0
M  V30 42 H 1.562059 0.568643 -0.659126 0
M  V30 43 H -4.121879 1.975508 1.056715 0
M  V30 44 H -5.775707 0.590479 -0.001407 0
M  V30 45 H -5.336397 -1.668871 -0.670024 0
M  V30 46 H -3.923126 -3.527049 -0.866933 0
M  V30 47 H -3.988639 -5.571520 -1.630645 0
M  V30 48 H -3.062576 -8.051489 -2.210764 0
M  V30 49 H -0.592011 -8.119469 -1.395131 0
M  V30 50 H 0.324490 -5.303683 0.799981 0
M  V30 51 H 1.034119 -6.614349 -0.180879 0
M  V30 52 H 0.789973 -4.933603 -0.873900 0
M  V30 53 H -1.393260 -1.257376 0.806354 0
M  V30 END ATOM
M  V30 BEGIN BOND
M  V30 1 1 1 2
M  V30 2 1 2 3
M  V30 3 1 3 4
M  V30 4 2 4 5
M  V30 5 1 5 6
M  V30 6 2 6 7
M  V30 7 1 7 8
M  V30 8 2 8 9
M  V30 9 1 9 10
M  V30 10 1 10 11
M  V30 11 2 10 12
M  V30 12 1 9 13
M  V30 13 2 13 14
M  V30 14 1 14 15
M  V30 15 2 15 16
M  V30 16 1 2 17
M  V30 17 2 17 18
M  V30 18 1 18 19
M  V30 19 2 19 20
M  V30 20 1 20 21
M  V30 21 1 21 22
M  V30 22 1 22 23
M  V30 23 2 23 24
M  V30 24 1 23 25
M  V30 25 2 25 26
M  V30 26 1 26 27
M  V30 27 2 27 28
M  V30 28 1 28 29
M  V30 29 1 29 30
M  V30 30 2 21 31
M  V30 31 1 16 4
M  V30 32 1 31 17
M  V30 33 1 16 8
M  V30 34 1 29 25
M  V30 35 1 1 32
M  V30 36 1 1 33
M  V30 37 1 1 34
M  V30 38 1 2 35
M  V30 39 1 3 36
M  V30 40 1 6 37
M  V30 41 1 11 38
M  V30 42 1 11 39
M  V30 43 1 13 40
M  V30 44 1 14 41
M  V30 45 1 15 42
M  V30 46 1 18 43
M  V30 47 1 19 44
M  V30 48 1 20 45
M  V30 49 1 22 46
M  V30 50 1 26 47
M  V30 51 1 27 48
M  V30 52 1 28 49
M  V30 53 1 30 50
M  V30 54 1 30 51
M  V30 55 1 30 52
M  V30 56 1 31 53
M  V30 END BOND
M  V30 END CTAB
M  END
>  <Dataset>  (190) 
ChEMBL_Kinases

>  <Ligand_Instance>  (190) 
nan

>  <PDB_ID>  (190) 
nan

>  <Standardized_SMILES>  (190) 
CC(Nc1ncnc2c(C(N)=O)cccc12)c1cccc(NC(=O)c2cccn2C)c1

>  <Name>  (190) 
nan

>  <Pocket>  (190) 
nan

>  <ATP_Site>  (190) 
nan

>  <Peripheral>  (190) 
nan

>  <Num_H_Atoms_ProtBoundConf>  (190) 
nan

>  <Num_Resolved_Atoms>  (190) 
nan

>  <Num_Not_Resolved_Atoms>  (190) 
nan

$$$$
CHEMBL3680478
     RDKit          3D

  0  0  0  0  0  0  0  0  0  0999 V3000
M  V30 BEGIN CTAB
M  V30 COUNTS 54 57 0 0 0
M  V30 BEGIN ATOM
M  V30 1 C -1.625240 1.267815 3.774584 0
M  V30 2 C -0.895691 1.465270 2.457789 0
M  V30 3 N 0.396129 0.918045 2.358466 0
M  V30 4 C 1.692856 0.362947 2.259204 0
M  V30 5 N 2.066160 -0.912423 2.316035 0
M  V30 6 C 3.342574 -1.298837 2.214867 0
M  V30 7 N 4.259890 -0.356934 2.050827 0
M  V30 8 C 4.003138 0.943746 1.980110 0
M  V30 9 C 4.984580 1.885886 1.813824 0
M  V30 10 C 6.324919 1.367246 1.718006 0
M  V30 11 N 6.708871 0.002218 1.697568 0
M  V30 12 O 7.568784 1.463567 1.626474 0
M  V30 13 C 4.760274 3.231682 1.739428 0
M  V30 14 C 3.443899 3.631705 1.842458 0
M  V30 15 C 2.467493 2.676579 2.009784 0
M  V30 16 C 2.687638 1.321275 2.085916 0
M  V30 17 C -1.852807 1.138073 1.360078 0
M  V30 18 C -2.640540 2.105596 0.754646 0
M  V30 19 C -3.544552 1.828538 -0.254411 0
M  V30 20 C -3.672181 0.508293 -0.687183 0
M  V30 21 C -2.891304 -0.461704 -0.089809 0
M  V30 22 N -3.049059 -1.795642 -0.550926 0
M  V30 23 C -2.346543 -2.342340 -1.626337 0
M  V30 24 O -1.501281 -1.703175 -2.295919 0
M  V30 25 C -2.624528 -3.725323 -1.970210 0
M  V30 26 C -2.049561 -4.384858 -2.956156 0
M  V30 27 N -2.087406 -5.667181 -3.530679 0 CHG=1 VAL=4
M  V30 28 O -2.418894 -5.493715 -4.853592 0 CHG=-1 VAL=1
M  V30 29 C -3.034239 -6.520469 -2.860872 0
M  V30 30 C -3.667057 -5.769385 -1.758652 0
M  V30 31 C -3.585490 -4.552086 -1.259132 0
M  V30 32 C -1.998376 -0.180282 0.908354 0
M  V30 33 H -2.007733 0.247975 3.812500 0
M  V30 34 H -0.989598 1.549841 4.634240 0
M  V30 35 H -2.476511 1.977478 3.765412 0
M  V30 36 H -0.772829 2.602994 2.409647 0
M  V30 37 H -0.160476 0.011175 2.488599 0
M  V30 38 H 3.454255 -2.369194 2.282760 0
M  V30 39 H 6.458287 -0.991120 1.421128 0
M  V30 40 H 6.508260 -0.988355 1.446896 0
M  V30 41 H 5.622455 3.858135 1.606471 0
M  V30 42 H 3.239025 4.687442 1.785557 0
M  V30 43 H 1.474830 3.078024 2.080242 0
M  V30 44 H -2.545898 3.138438 1.086414 0
M  V30 45 H -4.139288 2.627547 -0.696423 0
M  V30 46 H -4.365074 0.241491 -1.472152 0
M  V30 47 H -3.759218 -2.270721 0.048963 0
M  V30 48 H -1.308809 -3.799070 -3.531602 0
M  V30 49 H -1.167013 -6.166405 -3.477816 0
M  V30 50 H -3.848498 -6.748533 -3.612424 0
M  V30 51 H -2.590874 -7.481777 -2.529401 0
M  V30 52 H -4.367518 -6.484195 -1.299156 0
M  V30 53 H -4.150692 -4.194039 -0.425728 0
M  V30 54 H -1.438582 -1.004712 1.310028 0
M  V30 END ATOM
M  V30 BEGIN BOND
M  V30 1 1 1 2
M  V30 2 1 2 3
M  V30 3 1 3 4
M  V30 4 2 4 5
M  V30 5 1 5 6
M  V30 6 2 6 7
M  V30 7 1 7 8
M  V30 8 2 8 9
M  V30 9 1 9 10
M  V30 10 1 10 11
M  V30 11 2 10 12
M  V30 12 1 9 13
M  V30 13 2 13 14
M  V30 14 1 14 15
M  V30 15 2 15 16
M  V30 16 1 2 17
M  V30 17 2 17 18
M  V30 18 1 18 19
M  V30 19 2 19 20
M  V30 20 1 20 21
M  V30 21 1 21 22
M  V30 22 1 22 23
M  V30 23 2 23 24
M  V30 24 1 23 25
M  V30 25 2 25 26
M  V30 26 1 26 27
M  V30 27 1 27 28
M  V30 28 1 27 29
M  V30 29 1 29 30
M  V30 30 2 30 31
M  V30 31 2 21 32
M  V30 32 1 16 4
M  V30 33 1 32 17
M  V30 34 1 16 8
M  V30 35 1 31 25
M  V30 36 1 1 33
M  V30 37 1 1 34
M  V30 38 1 1 35
M  V30 39 1 2 36
M  V30 40 1 3 37
M  V30 41 1 6 38
M  V30 42 1 11 39
M  V30 43 1 11 40
M  V30 44 1 13 41
M  V30 45 1 14 42
M  V30 46 1 15 43
M  V30 47 1 18 44
M  V30 48 1 19 45
M  V30 49 1 20 46
M  V30 50 1 22 47
M  V30 51 1 26 48
M  V30 52 1 27 49
M  V30 53 1 29 50
M  V30 54 1 29 51
M  V30 55 1 30 52
M  V30 56 1 31 53
M  V30 57 1 32 54
M  V30 END BOND
M  V30 END CTAB
M  END
>  <Dataset>  (191) 
ChEMBL_Kinases

>  <Ligand_Instance>  (191) 
nan

>  <PDB_ID>  (191) 
nan

>  <Standardized_SMILES>  (191) 
CC(Nc1ncnc2c(C(N)=O)cccc12)c1cccc(NC(=O)C2=C[NH+]([O-])CC=C2)c1

>  <Name>  (191) 
nan

>  <Pocket>  (191) 
nan

>  <ATP_Site>  (191) 
nan

>  <Peripheral>  (191) 
nan

>  <Num_H_Atoms_ProtBoundConf>  (191) 
nan

>  <Num_Resolved_Atoms>  (191) 
nan

>  <Num_Not_Resolved_Atoms>  (191) 
nan

$$$$
CHEMBL3680477
     RDKit          3D

  0  0  0  0  0  0  0  0  0  0999 V3000
M  V30 BEGIN CTAB
M  V30 COUNTS 63 66 0 0 0
M  V30 BEGIN ATOM
M  V30 1 C 7.208496 0.751758 4.957158 0
M  V30 2 O 6.606220 0.696369 3.701661 0
M  V30 3 C 7.464154 0.082717 2.820223 0
M  V30 4 C 6.876046 -0.019535 1.419719 0
M  V30 5 N 5.634208 -0.801094 1.453971 0
M  V30 6 C 5.781680 -2.196354 1.748970 0
M  V30 7 C 4.329746 -0.284238 1.223837 0
M  V30 8 C 3.218782 -1.114331 1.281028 0
M  V30 9 C 1.955553 -0.604978 1.062079 0
M  V30 10 C 1.837952 0.740563 0.787765 0
M  V30 11 C 0.476209 1.251836 0.565026 0
M  V30 12 O -0.484235 0.406821 0.662977 0
M  V30 13 N 0.026592 2.550728 0.252307 0
M  V30 14 C -1.408562 2.398343 0.166364 0
M  V30 15 C -2.018195 2.606637 1.383266 0
M  V30 16 C -3.385427 2.506490 1.517040 0
M  V30 17 C -4.086685 2.190405 0.375167 0
M  V30 18 C -3.508795 1.975991 -0.853819 0
M  V30 19 C -4.179837 1.614300 -2.123887 0
M  V30 20 N -4.174237 0.190911 -2.381203 0
M  V30 21 C -4.765386 -0.779154 -1.537855 0
M  V30 22 N -5.389715 -0.484228 -0.401851 0
M  V30 23 C -5.962488 -1.361944 0.438710 0
M  V30 24 N -5.945444 -2.680259 0.177899 0
M  V30 25 C -5.320676 -3.061306 -0.974374 0
M  V30 26 C -5.284095 -4.405356 -1.274452 0
M  V30 27 C -5.911043 -5.286846 -0.335740 0
M  V30 28 N -5.966020 -6.690929 -0.488858 0
M  V30 29 O -6.481325 -4.941558 0.722811 0
M  V30 30 C -4.677566 -4.885136 -2.412995 0
M  V30 31 C -4.105445 -3.955684 -3.243604 0
M  V30 32 C -4.132820 -2.605447 -2.958370 0
M  V30 33 C -4.740325 -2.128478 -1.818372 0
M  V30 34 C -2.138909 2.080688 -0.971355 0
M  V30 35 C 2.935990 1.574473 0.728124 0
M  V30 36 N 4.142084 1.016293 0.951599 0
M  V30 37 H 7.428476 -0.297506 5.302062 0
M  V30 38 H 6.524204 1.163918 5.727970 0
M  V30 39 H 8.180973 1.273176 4.948544 0
M  V30 40 H 8.382474 0.696379 2.729468 0
M  V30 41 H 7.785240 -0.928773 3.152769 0
M  V30 42 H 7.657229 -0.502528 0.802515 0
M  V30 43 H 6.620941 1.007567 1.085838 0
M  V30 44 H 5.193453 -2.379729 2.694178 0
M  V30 45 H 5.362012 -2.877470 0.998643 0
M  V30 46 H 6.816174 -2.512470 1.965799 0
M  V30 47 H 3.411908 -2.134964 1.499318 0
M  V30 48 H 1.164341 -1.327453 1.127862 0
M  V30 49 H 0.809445 3.243513 0.168479 0
M  V30 50 H -1.493155 2.860674 2.314454 0
M  V30 51 H -3.911529 2.659192 2.449338 0
M  V30 52 H -5.150021 2.113171 0.431755 0
M  V30 53 H -5.244374 1.918989 -1.992184 0
M  V30 54 H -3.790569 2.233245 -2.930334 0
M  V30 55 H -3.678398 -0.029377 -3.267595 0
M  V30 56 H -6.414654 -0.866186 1.311815 0
M  V30 57 H -6.021805 -7.704517 -0.596196 0
M  V30 58 H -5.079913 -7.218219 -0.727183 0
M  V30 59 H -4.651830 -5.938867 -2.641988 0
M  V30 60 H -3.629070 -4.357942 -4.141418 0
M  V30 61 H -3.656818 -1.954108 -3.672521 0
M  V30 62 H -1.500910 1.949142 -1.851941 0
M  V30 63 H 2.804230 2.630109 0.509878 0
M  V30 END ATOM
M  V30 BEGIN BOND
M  V30 1 1 1 2
M  V30 2 1 2 3
M  V30 3 1 3 4
M  V30 4 1 4 5
M  V30 5 1 5 6
M  V30 6 1 5 7
M  V30 7 2 7 8
M  V30 8 1 8 9
M  V30 9 2 9 10
M  V30 10 1 10 11
M  V30 11 2 11 12
M  V30 12 1 11 13
M  V30 13 1 13 14
M  V30 14 2 14 15
M  V30 15 1 15 16
M  V30 16 2 16 17
M  V30 17 1 17 18
M  V30 18 1 18 19
M  V30 19 1 19 20
M  V30 20 1 20 21
M  V30 21 2 21 22
M  V30 22 1 22 23
M  V30 23 2 23 24
M  V30 24 1 24 25
M  V30 25 2 25 26
M  V30 26 1 26 27
M  V30 27 1 27 28
M  V30 28 2 27 29
M  V30 29 1 26 30
M  V30 30 2 30 31
M  V30 31 1 31 32
M  V30 32 2 32 33
M  V30 33 2 18 34
M  V30 34 1 10 35
M  V30 35 2 35 36
M  V30 36 1 36 7
M  V30 37 1 34 14
M  V30 38 1 33 21
M  V30 39 1 33 25
M  V30 40 1 1 37
M  V30 41 1 1 38
M  V30 42 1 1 39
M  V30 43 1 3 40
M  V30 44 1 3 41
M  V30 45 1 4 42
M  V30 46 1 4 43
M  V30 47 1 6 44
M  V30 48 1 6 45
M  V30 49 1 6 46
M  V30 50 1 8 47
M  V30 51 1 9 48
M  V30 52 1 13 49
M  V30 53 1 15 50
M  V30 54 1 16 51
M  V30 55 1 17 52
M  V30 56 1 19 53
M  V30 57 1 19 54
M  V30 58 1 20 55
M  V30 59 1 23 56
M  V30 60 1 28 57
M  V30 61 1 28 58
M  V30 62 1 30 59
M  V30 63 1 31 60
M  V30 64 1 32 61
M  V30 65 1 34 62
M  V30 66 1 35 63
M  V30 END BOND
M  V30 END CTAB
M  END
>  <Dataset>  (192) 
ChEMBL_Kinases

>  <Ligand_Instance>  (192) 
nan

>  <PDB_ID>  (192) 
nan

>  <Standardized_SMILES>  (192) 
COCCN(C)c1ccc(C(=O)Nc2cccc(CNc3ncnc4c(C(N)=O)cccc34)c2)cn1

>  <Name>  (192) 
nan

>  <Pocket>  (192) 
nan

>  <ATP_Site>  (192) 
nan

>  <Peripheral>  (192) 
nan

>  <Num_H_Atoms_ProtBoundConf>  (192) 
nan

>  <Num_Resolved_Atoms>  (192) 
nan

>  <Num_Not_Resolved_Atoms>  (192) 
nan

$$$$
CHEMBL3120960
     RDKit          3D

  0  0  0  0  0  0  0  0  0  0999 V3000
M  V30 BEGIN CTAB
M  V30 COUNTS 37 40 0 0 0
M  V30 BEGIN ATOM
M  V30 1 C 0.740714 -2.724434 2.509671 0
M  V30 2 N 0.294929 -1.462424 1.996900 0
M  V30 3 C -0.335694 -0.465928 2.649825 0
M  V30 4 C -0.696760 -0.490492 4.071653 0
M  V30 5 C 0.232344 -0.870977 5.030640 0
M  V30 6 N -0.338781 -0.811146 6.248601 0
M  V30 7 N -1.599526 -0.401733 6.055742 0
M  V30 8 N -1.818976 -0.209406 4.764924 0
M  V30 9 N -0.560107 0.532066 1.750286 0
M  V30 10 C -0.074411 0.171172 0.531710 0
M  V30 11 C -0.202725 1.084762 -0.595768 0
M  V30 12 C -1.549729 1.257902 -0.939279 0
M  V30 13 C -1.951646 2.073473 -1.974661 0
M  V30 14 C -1.002194 2.754117 -2.712725 0
M  V30 15 F -1.283825 3.580566 -3.751398 0
M  V30 16 C 0.315550 2.578426 -2.368640 0
M  V30 17 C 0.736357 1.768388 -1.338112 0
M  V30 18 C 0.453093 -1.087854 0.734301 0
M  V30 19 C 1.079830 -1.814207 -0.364542 0
M  V30 20 C 2.256608 -1.419051 -0.967469 0
M  V30 21 C 2.870183 -2.079777 -2.008280 0
M  V30 22 N 2.305230 -3.199680 -2.498612 0
M  V30 23 C 1.142887 -3.640997 -1.946301 0
M  V30 24 C 0.528713 -2.979801 -0.904106 0
M  V30 25 H 0.038457 -3.060543 3.325283 0
M  V30 26 H 0.597003 -3.514488 1.717020 0
M  V30 27 H 1.789911 -2.757642 2.803070 0
M  V30 28 H 1.251648 -1.179087 4.941972 0
M  V30 29 H 0.046450 -1.022668 7.216755 0
M  V30 30 H -2.406738 0.787339 -0.449026 0
M  V30 31 H -2.976526 2.233277 -2.271368 0
M  V30 32 H 1.147047 3.061836 -2.876222 0
M  V30 33 H 1.729249 1.573232 -0.999281 0
M  V30 34 H 2.764381 -0.538585 -0.627475 0
M  V30 35 H 3.777135 -1.784976 -2.482483 0
M  V30 36 H 0.696335 -4.533850 -2.340100 0
M  V30 37 H -0.398764 -3.363236 -0.489532 0
M  V30 END ATOM
M  V30 BEGIN BOND
M  V30 1 1 1 2
M  V30 2 1 2 3
M  V30 3 1 3 4
M  V30 4 2 4 5
M  V30 5 1 5 6
M  V30 6 1 6 7
M  V30 7 2 7 8
M  V30 8 2 3 9
M  V30 9 1 9 10
M  V30 10 1 10 11
M  V30 11 2 11 12
M  V30 12 1 12 13
M  V30 13 2 13 14
M  V30 14 1 14 15
M  V30 15 1 14 16
M  V30 16 2 16 17
M  V30 17 2 10 18
M  V30 18 1 18 19
M  V30 19 2 19 20
M  V30 20 1 20 21
M  V30 21 2 21 22
M  V30 22 1 22 23
M  V30 23 2 23 24
M  V30 24 1 18 2
M  V30 25 1 24 19
M  V30 26 1 8 4
M  V30 27 1 17 11
M  V30 28 1 1 25
M  V30 29 1 1 26
M  V30 30 1 1 27
M  V30 31 1 5 28
M  V30 32 1 6 29
M  V30 33 1 12 30
M  V30 34 1 13 31
M  V30 35 1 16 32
M  V30 36 1 17 33
M  V30 37 1 20 34
M  V30 38 1 21 35
M  V30 39 1 23 36
M  V30 40 1 24 37
M  V30 END BOND
M  V30 END CTAB
M  END
>  <Dataset>  (193) 
ChEMBL_Kinases

>  <Ligand_Instance>  (193) 
nan

>  <PDB_ID>  (193) 
nan

>  <Standardized_SMILES>  (193) 
Cn1c(-c2c[nH]nn2)nc(-c2ccc(F)cc2)c1-c1ccncc1

>  <Name>  (193) 
nan

>  <Pocket>  (193) 
nan

>  <ATP_Site>  (193) 
nan

>  <Peripheral>  (193) 
nan

>  <Num_H_Atoms_ProtBoundConf>  (193) 
nan

>  <Num_Resolved_Atoms>  (193) 
nan

>  <Num_Not_Resolved_Atoms>  (193) 
nan

$$$$
CHEMBL425949
     RDKit          3D

  0  0  0  0  0  0  0  0  0  0999 V3000
M  V30 BEGIN CTAB
M  V30 COUNTS 46 49 0 0 0
M  V30 BEGIN ATOM
M  V30 1 C 1.759433 0.745478 6.973339 0
M  V30 2 N 1.390443 0.605413 5.576989 0
M  V30 3 C -0.046120 0.651427 5.397102 0
M  V30 4 C 2.033435 -0.501066 4.941237 0
M  V30 5 C 1.595602 -0.561110 3.523217 0
M  V30 6 C 2.288331 0.126029 2.518493 0
M  V30 7 C 1.808660 0.006476 1.233753 0
M  V30 8 N 0.736492 -0.708617 0.850104 0
M  V30 9 C 0.189642 -0.885660 -0.387187 0
M  V30 10 C 0.719427 -0.277353 -1.601572 0
M  V30 11 C 1.188030 -1.017679 -2.633717 0
M  V30 12 C 1.653237 -0.266010 -3.704421 0
M  V30 13 N 1.643681 1.096425 -3.724965 0
M  V30 14 C 1.155469 1.779231 -2.647400 0
M  V30 15 N 1.199274 3.192294 -2.786217 0
M  V30 16 N 0.685253 1.087046 -1.567222 0
M  V30 17 C -0.899039 -1.727291 -0.133087 0
M  V30 18 C -1.775897 -2.172389 -1.237940 0
M  V30 19 C -2.430973 -1.163652 -1.910871 0
M  V30 20 C -3.258009 -1.601766 -2.951429 0
M  V30 21 C -3.419052 -2.939453 -3.293780 0
M  V30 22 F -4.222388 -3.315218 -4.298938 0
M  V30 23 C -2.697285 -3.830965 -2.527810 0
M  V30 24 C -1.855071 -3.525163 -1.483890 0
M  V30 25 N -0.956202 -2.005637 1.181347 0
M  V30 26 C 0.057435 -1.377036 1.805671 0
M  V30 27 C 0.502549 -1.285894 3.108879 0
M  V30 28 H 1.578216 -0.152382 7.578219 0
M  V30 29 H 1.115815 1.571791 7.390154 0
M  V30 30 H 2.791676 1.132210 7.027801 0
M  V30 31 H -0.490571 1.365850 6.143039 0
M  V30 32 H -0.245725 1.024963 4.373051 0
M  V30 33 H -0.538557 -0.310909 5.600647 0
M  V30 34 H 1.907625 -1.473491 5.461242 0
M  V30 35 H 3.129671 -0.229450 4.895002 0
M  V30 36 H 3.152200 0.714170 2.761200 0
M  V30 37 H 2.390171 0.564677 0.493384 0
M  V30 38 H 1.198941 -2.085887 -2.624798 0
M  V30 39 H 2.052192 -0.753022 -4.587580 0
M  V30 40 H 0.223135 3.610858 -2.832910 0
M  V30 41 H 1.989236 3.868795 -2.848405 0
M  V30 42 H -2.316403 -0.125351 -1.658688 0
M  V30 43 H -3.816775 -0.878391 -3.540317 0
M  V30 44 H -2.847486 -4.880859 -2.824375 0
M  V30 45 H -1.344616 -4.291992 -0.957888 0
M  V30 46 H -0.086806 -1.845908 3.819434 0
M  V30 END ATOM
M  V30 BEGIN BOND
M  V30 1 1 1 2
M  V30 2 1 2 3
M  V30 3 1 2 4
M  V30 4 1 4 5
M  V30 5 1 5 6
M  V30 6 2 6 7
M  V30 7 1 7 8
M  V30 8 1 8 9
M  V30 9 1 9 10
M  V30 10 2 10 11
M  V30 11 1 11 12
M  V30 12 2 12 13
M  V30 13 1 13 14
M  V30 14 1 14 15
M  V30 15 2 14 16
M  V30 16 2 9 17
M  V30 17 1 17 18
M  V30 18 2 18 19
M  V30 19 1 19 20
M  V30 20 2 20 21
M  V30 21 1 21 22
M  V30 22 1 21 23
M  V30 23 2 23 24
M  V30 24 1 17 25
M  V30 25 2 25 26
M  V30 26 1 26 27
M  V30 27 2 27 5
M  V30 28 1 26 8
M  V30 29 1 16 10
M  V30 30 1 24 18
M  V30 31 1 1 28
M  V30 32 1 1 29
M  V30 33 1 1 30
M  V30 34 1 3 31
M  V30 35 1 3 32
M  V30 36 1 3 33
M  V30 37 1 4 34
M  V30 38 1 4 35
M  V30 39 1 6 36
M  V30 40 1 7 37
M  V30 41 1 11 38
M  V30 42 1 12 39
M  V30 43 1 15 40
M  V30 44 1 15 41
M  V30 45 1 19 42
M  V30 46 1 20 43
M  V30 47 1 23 44
M  V30 48 1 24 45
M  V30 49 1 27 46
M  V30 END BOND
M  V30 END CTAB
M  END
>  <Dataset>  (194) 
ChEMBL_Kinases

>  <Ligand_Instance>  (194) 
nan

>  <PDB_ID>  (194) 
nan

>  <Standardized_SMILES>  (194) 
CN(C)Cc1ccn2c(-c3ccnc(N)n3)c(-c3ccc(F)cc3)nc2c1

>  <Name>  (194) 
nan

>  <Pocket>  (194) 
nan

>  <ATP_Site>  (194) 
nan

>  <Peripheral>  (194) 
nan

>  <Num_H_Atoms_ProtBoundConf>  (194) 
nan

>  <Num_Resolved_Atoms>  (194) 
nan

>  <Num_Not_Resolved_Atoms>  (194) 
nan

$$$$
CHEMBL3120963
     RDKit          3D

  0  0  0  0  0  0  0  0  0  0999 V3000
M  V30 BEGIN CTAB
M  V30 COUNTS 44 47 0 0 0
M  V30 BEGIN ATOM
M  V30 1 C 1.322279 -2.854291 0.166541 0
M  V30 2 N 0.895081 -1.603673 0.723093 0
M  V30 3 C 1.552997 -0.432929 0.752402 0
M  V30 4 C 2.881639 -0.160274 0.212341 0
M  V30 5 C 2.873069 0.152182 -1.153884 0
M  V30 6 N 4.158877 0.381456 -1.525667 0
M  V30 7 C 4.711086 0.738808 -2.813500 0
M  V30 8 C 4.765814 2.239948 -2.981500 0
M  V30 9 O 5.562987 2.808773 -1.992116 0
M  V30 10 N 4.923512 0.221660 -0.456129 0
M  V30 11 N 4.173805 -0.100620 0.582741 0
M  V30 12 N 0.760119 0.443183 1.371886 0
M  V30 13 C -0.399124 -0.137895 1.744347 0
M  V30 14 C -1.446367 0.600355 2.442097 0
M  V30 15 C -1.369785 1.217839 3.672355 0
M  V30 16 C -2.464482 1.864494 4.162487 0
M  V30 17 C -3.640102 1.895325 3.422928 0
M  V30 18 F -4.715588 2.556259 3.954386 0
M  V30 19 C -3.749475 1.286623 2.186954 0
M  V30 20 C -2.625436 0.626467 1.690865 0
M  V30 21 C -0.292258 -1.444888 1.320521 0
M  V30 22 C -1.374543 -2.395628 1.551063 0
M  V30 23 C -1.647442 -2.629157 2.893362 0
M  V30 24 C -2.643600 -3.503368 3.258174 0
M  V30 25 N -3.361081 -4.138667 2.307079 0
M  V30 26 C -3.123618 -3.936034 0.990474 0
M  V30 27 C -2.128354 -3.062809 0.609203 0
M  V30 28 H 2.241564 -2.791958 -0.422776 0
M  V30 29 H 1.487671 -3.629240 0.952794 0
M  V30 30 H 0.527652 -3.302959 -0.492093 0
M  V30 31 H 2.113774 0.245733 -1.931483 0
M  V30 32 H 4.041246 0.363273 -3.642017 0
M  V30 33 H 5.698619 0.268789 -2.937478 0
M  V30 34 H 5.193929 2.469003 -3.976353 0
M  V30 35 H 3.732116 2.639357 -2.968681 0
M  V30 36 H 6.506940 2.578917 -2.188954 0
M  V30 37 H -0.404060 1.117321 4.136297 0
M  V30 38 H -2.362355 2.341052 5.140355 0
M  V30 39 H -4.683829 1.327534 1.629728 0
M  V30 40 H -2.780328 0.175536 0.725507 0
M  V30 41 H -1.110361 -2.152812 3.694476 0
M  V30 42 H -2.892815 -3.717608 4.297565 0
M  V30 43 H -3.662751 -4.413952 0.188223 0
M  V30 44 H -1.849137 -2.821944 -0.420023 0
M  V30 END ATOM
M  V30 BEGIN BOND
M  V30 1 1 1 2
M  V30 2 1 2 3
M  V30 3 1 3 4
M  V30 4 2 4 5
M  V30 5 1 5 6
M  V30 6 1 6 7
M  V30 7 1 7 8
M  V30 8 1 8 9
M  V30 9 1 6 10
M  V30 10 2 10 11
M  V30 11 2 3 12
M  V30 12 1 12 13
M  V30 13 1 13 14
M  V30 14 2 14 15
M  V30 15 1 15 16
M  V30 16 2 16 17
M  V30 17 1 17 18
M  V30 18 1 17 19
M  V30 19 2 19 20
M  V30 20 2 13 21
M  V30 21 1 21 22
M  V30 22 2 22 23
M  V30 23 1 23 24
M  V30 24 2 24 25
M  V30 25 1 25 26
M  V30 26 2 26 27
M  V30 27 1 21 2
M  V30 28 1 27 22
M  V30 29 1 11 4
M  V30 30 1 20 14
M  V30 31 1 1 28
M  V30 32 1 1 29
M  V30 33 1 1 30
M  V30 34 1 5 31
M  V30 35 1 7 32
M  V30 36 1 7 33
M  V30 37 1 8 34
M  V30 38 1 8 35
M  V30 39 1 9 36
M  V30 40 1 15 37
M  V30 41 1 16 38
M  V30 42 1 19 39
M  V30 43 1 20 40
M  V30 44 1 23 41
M  V30 45 1 24 42
M  V30 46 1 26 43
M  V30 47 1 27 44
M  V30 END BOND
M  V30 END CTAB
M  END
>  <Dataset>  (195) 
ChEMBL_Kinases

>  <Ligand_Instance>  (195) 
nan

>  <PDB_ID>  (195) 
nan

>  <Standardized_SMILES>  (195) 
Cn1c(-c2cn(CCO)nn2)nc(-c2ccc(F)cc2)c1-c1ccncc1

>  <Name>  (195) 
nan

>  <Pocket>  (195) 
nan

>  <ATP_Site>  (195) 
nan

>  <Peripheral>  (195) 
nan

>  <Num_H_Atoms_ProtBoundConf>  (195) 
nan

>  <Num_Resolved_Atoms>  (195) 
nan

>  <Num_Not_Resolved_Atoms>  (195) 
nan

$$$$
CHEMBL3680471
     RDKit          3D

  0  0  0  0  0  0  0  0  0  0999 V3000
M  V30 BEGIN CTAB
M  V30 COUNTS 52 55 0 0 0
M  V30 BEGIN ATOM
M  V30 1 C -2.658526 3.092231 2.067600 0
M  V30 2 C -1.871993 2.456265 0.963030 0
M  V30 3 N -0.465624 2.272519 1.273964 0
M  V30 4 C 0.380899 1.681093 0.297503 0
M  V30 5 N -0.100285 1.303454 -0.877773 0
M  V30 6 C 0.669885 0.744708 -1.817997 0
M  V30 7 N 1.999904 0.516379 -1.655040 0
M  V30 8 C 2.541869 0.883143 -0.473315 0
M  V30 9 C 3.878327 0.691357 -0.217346 0
M  V30 10 C 4.749144 0.086911 -1.214573 0
M  V30 11 N 4.323514 -0.346437 -2.500793 0
M  V30 12 O 5.977468 -0.113280 -1.033603 0
M  V30 13 C 4.456390 1.054572 0.976090 0
M  V30 14 C 3.660870 1.634991 1.955232 0
M  V30 15 C 2.320313 1.817219 1.673863 0
M  V30 16 C 1.727832 1.459062 0.484903 0
M  V30 17 C -2.508683 1.200201 0.510885 0
M  V30 18 C -3.358794 1.106597 -0.580977 0
M  V30 19 C -3.947197 -0.068227 -0.995235 0
M  V30 20 C -3.678234 -1.235057 -0.281715 0
M  V30 21 C -2.834231 -1.168833 0.810529 0
M  V30 22 N -2.580848 -2.399511 1.522096 0
M  V30 23 C -1.439883 -3.003132 0.919512 0
M  V30 24 O -0.990899 -2.297825 -0.044413 0
M  V30 25 C -0.850975 -4.285498 1.356774 0
M  V30 26 C -1.323060 -5.060083 2.395037 0
M  V30 27 C -0.675782 -6.239464 2.698645 0
M  V30 28 N 0.407969 -6.644769 1.997720 0 CHG=1 VAL=4
M  V30 29 O 1.070380 -7.821118 2.284781 0 CHG=-1 VAL=1
M  V30 30 C 0.858634 -5.878519 0.985902 0
M  V30 31 C 0.253477 -4.688358 0.634590 0
M  V30 32 C -2.258514 0.028893 1.201043 0
M  V30 33 H -3.055789 2.360916 2.809723 0
M  V30 34 H -3.464296 3.733021 1.620994 0
M  V30 35 H -2.016741 3.795797 2.674077 0
M  V30 36 H -1.889548 3.147862 0.086406 0
M  V30 37 H -0.203106 2.605794 2.220890 0
M  V30 38 H 0.276741 0.435589 -2.779762 0
M  V30 39 H 4.409175 0.290841 -3.340855 0
M  V30 40 H 3.916089 -1.304364 -2.646440 0
M  V30 41 H 5.507961 0.899141 1.166585 0
M  V30 42 H 4.120467 1.920070 2.895414 0
M  V30 43 H 1.760119 2.265502 2.459390 0
M  V30 44 H -3.515609 2.068219 -1.083561 0
M  V30 45 H -4.602266 -0.059936 -1.861355 0
M  V30 46 H -4.124850 -2.174069 -0.581492 0
M  V30 47 H -3.027067 -2.915152 2.337207 0
M  V30 48 H -2.191087 -4.691925 2.922821 0
M  V30 49 H -1.053239 -6.841283 3.515205 0
M  V30 50 H 1.735571 -6.162975 0.385216 0
M  V30 51 H 0.651934 -4.099615 -0.191567 0
M  V30 52 H -1.603468 0.050541 2.057872 0
M  V30 END ATOM
M  V30 BEGIN BOND
M  V30 1 1 1 2
M  V30 2 1 2 3
M  V30 3 1 3 4
M  V30 4 2 4 5
M  V30 5 1 5 6
M  V30 6 2 6 7
M  V30 7 1 7 8
M  V30 8 2 8 9
M  V30 9 1 9 10
M  V30 10 1 10 11
M  V30 11 2 10 12
M  V30 12 1 9 13
M  V30 13 2 13 14
M  V30 14 1 14 15
M  V30 15 2 15 16
M  V30 16 1 2 17
M  V30 17 2 17 18
M  V30 18 1 18 19
M  V30 19 2 19 20
M  V30 20 1 20 21
M  V30 21 1 21 22
M  V30 22 1 22 23
M  V30 23 2 23 24
M  V30 24 1 23 25
M  V30 25 2 25 26
M  V30 26 1 26 27
M  V30 27 2 27 28
M  V30 28 1 28 29
M  V30 29 1 28 30
M  V30 30 2 30 31
M  V30 31 2 21 32
M  V30 32 1 16 4
M  V30 33 1 32 17
M  V30 34 1 16 8
M  V30 35 1 31 25
M  V30 36 1 1 33
M  V30 37 1 1 34
M  V30 38 1 1 35
M  V30 39 1 2 36
M  V30 40 1 3 37
M  V30 41 1 6 38
M  V30 42 1 11 39
M  V30 43 1 11 40
M  V30 44 1 13 41
M  V30 45 1 14 42
M  V30 46 1 15 43
M  V30 47 1 18 44
M  V30 48 1 19 45
M  V30 49 1 20 46
M  V30 50 1 22 47
M  V30 51 1 26 48
M  V30 52 1 27 49
M  V30 53 1 30 50
M  V30 54 1 31 51
M  V30 55 1 32 52
M  V30 END BOND
M  V30 END CTAB
M  END
>  <Dataset>  (196) 
ChEMBL_Kinases

>  <Ligand_Instance>  (196) 
nan

>  <PDB_ID>  (196) 
nan

>  <Standardized_SMILES>  (196) 
CC(Nc1ncnc2c(C(N)=O)cccc12)c1cccc(NC(=O)c2cc[n+]([O-])cc2)c1

>  <Name>  (196) 
nan

>  <Pocket>  (196) 
nan

>  <ATP_Site>  (196) 
nan

>  <Peripheral>  (196) 
nan

>  <Num_H_Atoms_ProtBoundConf>  (196) 
nan

>  <Num_Resolved_Atoms>  (196) 
nan

>  <Num_Not_Resolved_Atoms>  (196) 
nan

$$$$
CHEMBL3680469
     RDKit          3D

  0  0  0  0  0  0  0  0  0  0999 V3000
M  V30 BEGIN CTAB
M  V30 COUNTS 35 37 0 0 0
M  V30 BEGIN ATOM
M  V30 1 N 1.191515 -3.546711 4.939346 0
M  V30 2 C 1.114801 -4.303197 3.745553 0
M  V30 3 O 1.137282 -5.528433 3.942975 0
M  V30 4 C 1.022136 -3.627754 2.469233 0
M  V30 5 C 0.951345 -4.380514 1.319830 0
M  V30 6 C 0.861383 -3.704529 0.109202 0
M  V30 7 C 0.847120 -2.342999 0.107959 0
M  V30 8 C 0.915780 -1.536391 1.231545 0
M  V30 9 C 0.899462 -0.153548 1.223659 0
M  V30 10 N 0.805786 0.372810 -0.063910 0
M  V30 11 C 0.711681 0.901695 -1.357355 0
M  V30 12 C -0.488964 1.758453 -1.647203 0
M  V30 13 C -0.268447 3.105355 -1.378577 0
M  V30 14 C -1.298999 3.998022 -1.606235 0
M  V30 15 F -1.097365 5.328619 -1.346469 0
M  V30 16 C -2.542810 3.642605 -2.085388 0
M  V30 17 C -2.699653 2.293124 -2.332325 0
M  V30 18 Cl -4.249277 1.711897 -2.948205 0
M  V30 19 C -1.723163 1.354076 -2.130201 0
M  V30 20 N 0.975544 0.416571 2.435043 0
M  V30 21 C 1.061509 -0.241310 3.586970 0
M  V30 22 N 1.072155 -1.555190 3.528596 0
M  V30 23 C 1.003479 -2.256011 2.402788 0
M  V30 24 H 0.154054 -3.365516 5.006563 0
M  V30 25 H 1.328440 -3.013804 5.797609 0
M  V30 26 H 0.973593 -5.448276 1.470929 0
M  V30 27 H 0.808499 -4.308148 -0.779772 0
M  V30 28 H 0.777627 -1.913682 -0.857479 0
M  V30 29 H 0.823255 1.407413 0.229932 0
M  V30 30 H 1.608283 1.420824 -1.767227 0
M  V30 31 H 0.576898 0.044846 -2.103978 0
M  V30 32 H 0.659176 3.502480 -1.002204 0
M  V30 33 H -3.337086 4.366341 -2.256252 0
M  V30 34 H -1.792671 0.308159 -2.304273 0
M  V30 35 H 1.111795 0.421270 4.448611 0
M  V30 END ATOM
M  V30 BEGIN BOND
M  V30 1 1 1 2
M  V30 2 2 2 3
M  V30 3 1 2 4
M  V30 4 2 4 5
M  V30 5 1 5 6
M  V30 6 2 6 7
M  V30 7 1 7 8
M  V30 8 2 8 9
M  V30 9 1 9 10
M  V30 10 1 10 11
M  V30 11 1 11 12
M  V30 12 2 12 13
M  V30 13 1 13 14
M  V30 14 1 14 15
M  V30 15 2 14 16
M  V30 16 1 16 17
M  V30 17 1 17 18
M  V30 18 2 17 19
M  V30 19 1 9 20
M  V30 20 2 20 21
M  V30 21 1 21 22
M  V30 22 2 22 23
M  V30 23 1 23 4
M  V30 24 1 23 8
M  V30 25 1 19 12
M  V30 26 1 1 24
M  V30 27 1 1 25
M  V30 28 1 5 26
M  V30 29 1 6 27
M  V30 30 1 7 28
M  V30 31 1 10 29
M  V30 32 1 11 30
M  V30 33 1 11 31
M  V30 34 1 13 32
M  V30 35 1 16 33
M  V30 36 1 19 34
M  V30 37 1 21 35
M  V30 END BOND
M  V30 END CTAB
M  END
>  <Dataset>  (197) 
ChEMBL_Kinases

>  <Ligand_Instance>  (197) 
nan

>  <PDB_ID>  (197) 
nan

>  <Standardized_SMILES>  (197) 
NC(=O)c1cccc2c(NCc3cc(F)cc(Cl)c3)ncnc12

>  <Name>  (197) 
nan

>  <Pocket>  (197) 
nan

>  <ATP_Site>  (197) 
nan

>  <Peripheral>  (197) 
nan

>  <Num_H_Atoms_ProtBoundConf>  (197) 
nan

>  <Num_Resolved_Atoms>  (197) 
nan

>  <Num_Not_Resolved_Atoms>  (197) 
nan

$$$$
CHEMBL3120969
     RDKit          3D

  0  0  0  0  0  0  0  0  0  0999 V3000
M  V30 BEGIN CTAB
M  V30 COUNTS 60 63 0 0 0
M  V30 BEGIN ATOM
M  V30 1 C 4.770676 -3.010460 3.427488 0
M  V30 2 C 4.302865 -2.537604 2.069370 0
M  V30 3 O 5.376461 -2.363315 1.197194 0
M  V30 4 P 4.775632 -1.797332 -0.307455 0
M  V30 5 O 3.458460 -2.518607 -0.473419 0
M  V30 6 C 4.637501 -0.030496 -0.185885 0
M  V30 7 C 3.656305 0.630208 -1.102207 0
M  V30 8 N 2.297281 0.227156 -0.976468 0
M  V30 9 C 1.257311 0.658252 -0.234903 0
M  V30 10 C 0.142838 -0.109419 -0.514157 0
M  V30 11 C -1.198454 0.004083 0.054851 0
M  V30 12 N -1.598657 0.861580 1.003194 0
M  V30 13 C -2.921841 0.661502 1.268968 0
M  V30 14 C -3.743370 1.368936 2.220138 0
M  V30 15 C -3.386965 1.211528 3.566094 0
M  V30 16 C -4.085659 1.832528 4.574595 0
M  V30 17 C -5.177464 2.643853 4.294270 0
M  V30 18 F -5.948965 3.310388 5.183490 0
M  V30 19 C -5.553384 2.818416 2.975119 0
M  V30 20 C -4.831875 2.182187 1.991918 0
M  V30 21 C -3.294751 -0.362787 0.429027 0
M  V30 22 C -4.599656 -0.995658 0.276770 0
M  V30 23 C -4.591488 -2.330747 0.704422 0
M  V30 24 C -5.731307 -3.106128 0.638990 0
M  V30 25 N -6.889854 -2.600193 0.160206 0
M  V30 26 C -6.897356 -1.321260 -0.249400 0
M  V30 27 C -5.792912 -0.500687 -0.208241 0
M  V30 28 N -2.249652 -0.769649 -0.315097 0
M  V30 29 C -2.175533 -1.804568 -1.320314 0
M  V30 30 N 0.559819 -0.996982 -1.435796 0
M  V30 31 N 1.838063 -0.797950 -1.710730 0
M  V30 32 O 5.798098 -2.339840 -1.524797 0
M  V30 33 C 5.257953 -2.194555 -2.797336 0
M  V30 34 C 6.201244 -2.910663 -3.771968 0
M  V30 35 H 5.101747 -2.167085 4.056487 0
M  V30 36 H 5.638936 -3.685125 3.218386 0
M  V30 37 H 3.981653 -3.567349 3.971947 0
M  V30 38 H 3.724029 -1.604141 2.179547 0
M  V30 39 H 3.585420 -3.305256 1.701906 0
M  V30 40 H 4.517244 0.263692 0.872671 0
M  V30 41 H 5.647388 0.391444 -0.469758 0
M  V30 42 H 3.981855 0.599461 -2.140318 0
M  V30 43 H 3.687368 1.727580 -0.823898 0
M  V30 44 H 1.334379 1.475163 0.451293 0
M  V30 45 H -2.578855 0.626037 3.961893 0
M  V30 46 H -3.873980 1.761354 5.628165 0
M  V30 47 H -6.401326 3.437858 2.647015 0
M  V30 48 H -5.093083 2.295957 0.950965 0
M  V30 49 H -3.730047 -2.877183 1.114266 0
M  V30 50 H -5.782582 -4.143262 0.955162 0
M  V30 51 H -7.767173 -0.821717 -0.646462 0
M  V30 52 H -5.712919 0.518875 -0.514021 0
M  V30 53 H -1.324541 -2.492048 -1.170375 0
M  V30 54 H -3.103548 -2.406918 -1.248164 0
M  V30 55 H -2.177567 -1.388696 -2.351306 0
M  V30 56 H 5.330847 -1.119855 -3.086617 0
M  V30 57 H 4.223546 -2.583402 -2.880554 0
M  V30 58 H 7.233958 -2.636391 -3.557527 0
M  V30 59 H 5.836086 -2.638342 -4.785945 0
M  V30 60 H 6.016473 -4.017331 -3.677817 0
M  V30 END ATOM
M  V30 BEGIN BOND
M  V30 1 1 1 2
M  V30 2 1 2 3
M  V30 3 1 3 4
M  V30 4 2 4 5
M  V30 5 1 4 6
M  V30 6 1 6 7
M  V30 7 1 7 8
M  V30 8 1 8 9
M  V30 9 2 9 10
M  V30 10 1 10 11
M  V30 11 2 11 12
M  V30 12 1 12 13
M  V30 13 1 13 14
M  V30 14 2 14 15
M  V30 15 1 15 16
M  V30 16 2 16 17
M  V30 17 1 17 18
M  V30 18 1 17 19
M  V30 19 2 19 20
M  V30 20 2 13 21
M  V30 21 1 21 22
M  V30 22 2 22 23
M  V30 23 1 23 24
M  V30 24 2 24 25
M  V30 25 1 25 26
M  V30 26 2 26 27
M  V30 27 1 21 28
M  V30 28 1 28 29
M  V30 29 1 10 30
M  V30 30 2 30 31
M  V30 31 1 4 32
M  V30 32 1 32 33
M  V30 33 1 33 34
M  V30 34 1 31 8
M  V30 35 1 28 11
M  V30 36 1 20 14
M  V30 37 1 27 22
M  V30 38 1 1 35
M  V30 39 1 1 36
M  V30 40 1 1 37
M  V30 41 1 2 38
M  V30 42 1 2 39
M  V30 43 1 6 40
M  V30 44 1 6 41
M  V30 45 1 7 42
M  V30 46 1 7 43
M  V30 47 1 9 44
M  V30 48 1 15 45
M  V30 49 1 16 46
M  V30 50 1 19 47
M  V30 51 1 20 48
M  V30 52 1 23 49
M  V30 53 1 24 50
M  V30 54 1 26 51
M  V30 55 1 27 52
M  V30 56 1 29 53
M  V30 57 1 29 54
M  V30 58 1 29 55
M  V30 59 1 33 56
M  V30 60 1 33 57
M  V30 61 1 34 58
M  V30 62 1 34 59
M  V30 63 1 34 60
M  V30 END BOND
M  V30 END CTAB
M  END
>  <Dataset>  (198) 
ChEMBL_Kinases

>  <Ligand_Instance>  (198) 
nan

>  <PDB_ID>  (198) 
nan

>  <Standardized_SMILES>  (198) 
CCOP(=O)(CCn1cc(-c2nc(-c3ccc(F)cc3)c(-c3ccncc3)n2C)nn1)OCC

>  <Name>  (198) 
nan

>  <Pocket>  (198) 
nan

>  <ATP_Site>  (198) 
nan

>  <Peripheral>  (198) 
nan

>  <Num_H_Atoms_ProtBoundConf>  (198) 
nan

>  <Num_Resolved_Atoms>  (198) 
nan

>  <Num_Not_Resolved_Atoms>  (198) 
nan

$$$$
CHEMBL3680468
     RDKit          3D

  0  0  0  0  0  0  0  0  0  0999 V3000
M  V30 BEGIN CTAB
M  V30 COUNTS 61 65 0 0 0
M  V30 BEGIN ATOM
M  V30 1 N 3.676489 2.584433 7.138087 0
M  V30 2 C 4.622446 1.834242 6.394612 0
M  V30 3 O 5.582635 1.312206 7.007562 0
M  V30 4 C 4.521654 1.645957 4.942391 0
M  V30 5 C 5.510328 0.890238 4.341684 0
M  V30 6 C 5.426895 0.704636 2.969921 0
M  V30 7 O 6.418914 -0.050928 2.382120 0
M  V30 8 C 4.379845 1.273342 2.285276 0
M  V30 9 C 3.384388 2.028745 2.859006 0
M  V30 10 C 2.362196 2.571002 2.116132 0
M  V30 11 N 2.266408 2.392180 0.717394 0
M  V30 12 C 1.220619 2.929722 -0.131980 0
M  V30 13 C -0.120107 2.412974 0.223088 0
M  V30 14 C -1.100441 2.914900 1.049784 0
M  V30 15 C -2.283481 2.239049 1.237748 0
M  V30 16 C -2.558217 1.030121 0.616184 0
M  V30 17 C -1.593304 0.522718 -0.206476 0
M  V30 18 N -1.908733 -0.718630 -0.827551 0
M  V30 19 C -1.540982 -1.904006 -0.127078 0
M  V30 20 O -0.972452 -1.740560 0.973133 0
M  V30 21 C -1.786123 -3.264096 -0.612353 0
M  V30 22 C -1.352063 -4.278680 0.216109 0
M  V30 23 C -1.545769 -5.610464 -0.168579 0
M  V30 24 N -2.161292 -5.865623 -1.357603 0
M  V30 25 C -2.572564 -4.853146 -2.142192 0
M  V30 26 N -3.211824 -5.165541 -3.376626 0
M  V30 27 C -3.493230 -6.484272 -3.912433 0
M  V30 28 C -4.902169 -6.357192 -4.498176 0
M  V30 29 C -4.942190 -4.914281 -4.962189 0
M  V30 30 C -3.724173 -4.244858 -4.374431 0
M  V30 31 C -2.401442 -3.527062 -1.801103 0
M  V30 32 C -0.403107 1.192769 -0.401497 0
M  V30 33 N 1.498796 3.268123 2.852201 0
M  V30 34 C 1.532024 3.475274 4.158097 0
M  V30 35 N 2.548471 2.927011 4.844980 0
M  V30 36 C 3.490413 2.197884 4.221256 0
M  V30 37 H 3.082681 1.911150 7.705524 0
M  V30 38 H 3.500455 3.627623 7.196835 0
M  V30 39 H 6.320865 0.454525 4.897639 0
M  V30 40 H 6.511873 -0.162169 1.375543 0
M  V30 41 H 4.405844 1.071294 1.230572 0
M  V30 42 H 2.957512 1.844335 0.168656 0
M  V30 43 H 1.183933 4.035762 0.112584 0
M  V30 44 H 1.406019 2.781292 -1.209777 0
M  V30 45 H -0.825941 3.859695 1.495069 0
M  V30 46 H -2.998402 2.710761 1.907952 0
M  V30 47 H -3.499485 0.538861 0.795108 0
M  V30 48 H -2.392608 -0.834328 -1.764213 0
M  V30 49 H -0.858334 -4.127336 1.169811 0
M  V30 50 H -1.221270 -6.432180 0.449948 0
M  V30 51 H -3.494031 -7.260557 -3.107684 0
M  V30 52 H -2.800338 -6.711325 -4.734640 0
M  V30 53 H -5.687460 -6.541537 -3.752152 0
M  V30 54 H -5.070462 -7.063195 -5.336176 0
M  V30 55 H -5.885872 -4.410311 -4.658708 0
M  V30 56 H -4.901515 -4.918398 -6.063247 0
M  V30 57 H -2.960829 -4.174831 -5.186982 0
M  V30 58 H -3.954543 -3.239934 -3.982298 0
M  V30 59 H -2.731168 -2.731682 -2.430495 0
M  V30 60 H 0.277958 0.669487 -1.086804 0
M  V30 61 H 0.738443 4.074191 4.596865 0
M  V30 END ATOM
M  V30 BEGIN BOND
M  V30 1 1 1 2
M  V30 2 2 2 3
M  V30 3 1 2 4
M  V30 4 2 4 5
M  V30 5 1 5 6
M  V30 6 1 6 7
M  V30 7 2 6 8
M  V30 8 1 8 9
M  V30 9 2 9 10
M  V30 10 1 10 11
M  V30 11 1 11 12
M  V30 12 1 12 13
M  V30 13 2 13 14
M  V30 14 1 14 15
M  V30 15 2 15 16
M  V30 16 1 16 17
M  V30 17 1 17 18
M  V30 18 1 18 19
M  V30 19 2 19 20
M  V30 20 1 19 21
M  V30 21 2 21 22
M  V30 22 1 22 23
M  V30 23 2 23 24
M  V30 24 1 24 25
M  V30 25 1 25 26
M  V30 26 1 26 27
M  V30 27 1 27 28
M  V30 28 1 28 29
M  V30 29 1 29 30
M  V30 30 2 25 31
M  V30 31 2 17 32
M  V30 32 1 10 33
M  V30 33 2 33 34
M  V30 34 1 34 35
M  V30 35 2 35 36
M  V30 36 1 36 4
M  V30 37 1 36 9
M  V30 38 1 32 13
M  V30 39 1 31 21
M  V30 40 1 30 26
M  V30 41 1 1 37
M  V30 42 1 1 38
M  V30 43 1 5 39
M  V30 44 1 7 40
M  V30 45 1 8 41
M  V30 46 1 11 42
M  V30 47 1 12 43
M  V30 48 1 12 44
M  V30 49 1 14 45
M  V30 50 1 15 46
M  V30 51 1 16 47
M  V30 52 1 18 48
M  V30 53 1 22 49
M  V30 54 1 23 50
M  V30 55 1 27 51
M  V30 56 1 27 52
M  V30 57 1 28 53
M  V30 58 1 28 54
M  V30 59 1 29 55
M  V30 60 1 29 56
M  V30 61 1 30 57
M  V30 62 1 30 58
M  V30 63 1 31 59
M  V30 64 1 32 60
M  V30 65 1 34 61
M  V30 END BOND
M  V30 END CTAB
M  END
>  <Dataset>  (199) 
ChEMBL_Kinases

>  <Ligand_Instance>  (199) 
nan

>  <PDB_ID>  (199) 
nan

>  <Standardized_SMILES>  (199) 
NC(=O)c1cc(O)cc2c(NCc3cccc(NC(=O)c4ccnc(N5CCCC5)c4)c3)ncnc12

>  <Name>  (199) 
nan

>  <Pocket>  (199) 
nan

>  <ATP_Site>  (199) 
nan

>  <Peripheral>  (199) 
nan

>  <Num_H_Atoms_ProtBoundConf>  (199) 
nan

>  <Num_Resolved_Atoms>  (199) 
nan

>  <Num_Not_Resolved_Atoms>  (199) 
nan

$$$$
CHEMBL3680462
     RDKit          3D

  0  0  0  0  0  0  0  0  0  0999 V3000
M  V30 BEGIN CTAB
M  V30 COUNTS 49 52 0 0 0
M  V30 BEGIN ATOM
M  V30 1 C -2.081393 1.369196 3.521526 0
M  V30 2 C -1.020959 0.736678 2.666078 0
M  V30 3 N -0.111168 1.677421 2.059878 0
M  V30 4 C 0.928159 1.201549 1.234615 0
M  V30 5 N 1.073084 -0.115381 1.009893 0
M  V30 6 C 2.031597 -0.641115 0.239854 0
M  V30 7 N 2.921971 0.176218 -0.361144 0
M  V30 8 C 2.871609 1.507196 -0.206528 0
M  V30 9 C 3.751488 2.387064 -0.793719 0
M  V30 10 C 4.814525 1.861156 -1.642644 0
M  V30 11 N 5.769887 2.692715 -2.289832 0
M  V30 12 O 4.984890 0.635519 -1.880159 0
M  V30 13 C 3.698096 3.755932 -0.633122 0
M  V30 14 C 2.676767 4.244156 0.181019 0
M  V30 15 C 1.798955 3.355034 0.765812 0
M  V30 16 C 1.855469 2.006611 0.604700 0
M  V30 17 C -1.657939 -0.170883 1.694145 0
M  V30 18 C -2.146518 0.425261 0.526149 0
M  V30 19 C -2.763153 -0.370178 -0.442513 0
M  V30 20 C -2.893112 -1.732725 -0.256482 0
M  V30 21 C -2.401269 -2.317997 0.914589 0
M  V30 22 N -2.548840 -3.728145 1.080544 0
M  V30 23 C -1.542621 -4.627593 0.622120 0
M  V30 24 O -0.523664 -4.132176 0.067796 0
M  V30 25 C -1.840131 -6.034227 0.864897 0
M  V30 26 C -2.886953 -6.724785 1.443612 0
M  V30 27 C -2.599102 -8.079308 1.384789 0
M  V30 28 O -1.425948 -8.172677 0.792607 0
M  V30 29 C -0.942441 -7.016354 0.470964 0
M  V30 30 C -1.788597 -1.539362 1.880778 0
M  V30 31 H -2.843340 0.592646 3.728707 0
M  V30 32 H -2.620049 2.188555 3.009547 0
M  V30 33 H -1.601124 1.709312 4.469097 0
M  V30 34 H -0.408221 0.105549 3.364570 0
M  V30 35 H -0.317365 2.668030 2.300530 0
M  V30 36 H 2.118987 -1.708097 0.080514 0
M  V30 37 H 5.210542 3.438086 -2.801484 0
M  V30 38 H 5.385411 3.505586 -2.858853 0
M  V30 39 H 4.408258 4.415670 -1.111528 0
M  V30 40 H 2.652729 5.316605 0.293323 0
M  V30 41 H 1.041327 3.817104 1.378623 0
M  V30 42 H -2.068616 1.484169 0.335589 0
M  V30 43 H -3.157677 0.057053 -1.368322 0
M  V30 44 H -3.382466 -2.314496 -1.041547 0
M  V30 45 H -3.432765 -4.037805 1.553815 0
M  V30 46 H -3.732280 -6.180339 1.839169 0
M  V30 47 H -3.276579 -8.824394 1.778662 0
M  V30 48 H 0.015457 -6.991944 -0.019103 0
M  V30 49 H -1.402018 -1.977542 2.794069 0
M  V30 END ATOM
M  V30 BEGIN BOND
M  V30 1 1 1 2
M  V30 2 1 2 3
M  V30 3 1 3 4
M  V30 4 2 4 5
M  V30 5 1 5 6
M  V30 6 2 6 7
M  V30 7 1 7 8
M  V30 8 2 8 9
M  V30 9 1 9 10
M  V30 10 1 10 11
M  V30 11 2 10 12
M  V30 12 1 9 13
M  V30 13 2 13 14
M  V30 14 1 14 15
M  V30 15 2 15 16
M  V30 16 1 2 17
M  V30 17 2 17 18
M  V30 18 1 18 19
M  V30 19 2 19 20
M  V30 20 1 20 21
M  V30 21 1 21 22
M  V30 22 1 22 23
M  V30 23 2 23 24
M  V30 24 1 23 25
M  V30 25 1 25 26
M  V30 26 2 26 27
M  V30 27 1 27 28
M  V30 28 1 28 29
M  V30 29 2 21 30
M  V30 30 1 16 4
M  V30 31 1 30 17
M  V30 32 1 16 8
M  V30 33 2 29 25
M  V30 34 1 1 31
M  V30 35 1 1 32
M  V30 36 1 1 33
M  V30 37 1 2 34
M  V30 38 1 3 35
M  V30 39 1 6 36
M  V30 40 1 11 37
M  V30 41 1 11 38
M  V30 42 1 13 39
M  V30 43 1 14 40
M  V30 44 1 15 41
M  V30 45 1 18 42
M  V30 46 1 19 43
M  V30 47 1 20 44
M  V30 48 1 22 45
M  V30 49 1 26 46
M  V30 50 1 27 47
M  V30 51 1 29 48
M  V30 52 1 30 49
M  V30 END BOND
M  V30 END CTAB
M  END
>  <Dataset>  (200) 
ChEMBL_Kinases

>  <Ligand_Instance>  (200) 
nan

>  <PDB_ID>  (200) 
nan

>  <Standardized_SMILES>  (200) 
CC(Nc1ncnc2c(C(N)=O)cccc12)c1cccc(NC(=O)c2ccoc2)c1

>  <Name>  (200) 
nan

>  <Pocket>  (200) 
nan

>  <ATP_Site>  (200) 
nan

>  <Peripheral>  (200) 
nan

>  <Num_H_Atoms_ProtBoundConf>  (200) 
nan

>  <Num_Resolved_Atoms>  (200) 
nan

>  <Num_Not_Resolved_Atoms>  (200) 
nan

$$$$
CHEMBL425413
     RDKit          3D

  0  0  0  0  0  0  0  0  0  0999 V3000
M  V30 BEGIN CTAB
M  V30 COUNTS 43 44 0 0 0
M  V30 BEGIN ATOM
M  V30 1 C -0.773380 -5.023840 -0.289218 0
M  V30 2 C -0.233575 -5.589954 0.997917 0
M  V30 3 O -0.922225 -5.016086 2.075314 0
M  V30 4 C -0.879154 -3.646899 2.275259 0
M  V30 5 N -0.212735 -2.759779 1.514217 0
M  V30 6 C -0.223414 -1.444619 1.779408 0
M  V30 7 N 0.475533 -0.498128 0.993792 0
M  V30 8 C 1.281727 -0.745897 -0.143369 0
M  V30 9 O 1.404715 -1.969562 -0.508969 0
M  V30 10 C 2.061681 0.058549 -1.072390 0
M  V30 11 N 2.074332 1.459323 -0.903293 0
M  V30 12 C 0.892237 2.187370 -1.178889 0
M  V30 13 C 1.195624 3.646869 -1.462271 0
M  V30 14 C 2.053839 4.269831 -0.389102 0
M  V30 15 C 2.256817 3.241802 0.696221 0
M  V30 16 C 2.922664 2.002979 0.094236 0
M  V30 17 C -0.928335 -0.970667 2.852633 0
M  V30 18 C -1.611529 -1.866803 3.635180 0
M  V30 19 N -2.345705 -1.377298 4.748674 0
M  V30 20 C -1.608016 -3.226954 3.371792 0
M  V30 21 C -2.343210 -4.116390 4.226186 0
M  V30 22 N -2.938062 -4.826977 4.908177 0
M  V30 23 H -0.597907 -5.805147 -1.077135 0
M  V30 24 H -0.269072 -4.120658 -0.627948 0
M  V30 25 H -1.878678 -4.921830 -0.214262 0
M  V30 26 H -0.386483 -6.686728 0.985653 0
M  V30 27 H 0.841165 -5.318034 1.042343 0
M  V30 28 H 0.460511 0.518338 1.203982 0
M  V30 29 H 3.125979 -0.307601 -1.119829 0
M  V30 30 H 1.680248 -0.131017 -2.122510 0
M  V30 31 H 0.065394 2.105279 -0.462802 0
M  V30 32 H 0.491518 1.793416 -2.161672 0
M  V30 33 H 1.664027 3.833769 -2.428521 0
M  V30 34 H 0.210580 4.190210 -1.403274 0
M  V30 35 H 3.042884 4.577516 -0.791956 0
M  V30 36 H 1.588744 5.147843 0.099365 0
M  V30 37 H 2.932215 3.611393 1.482597 0
M  V30 38 H 1.279082 2.931898 1.098898 0
M  V30 39 H 3.882317 2.298022 -0.426072 0
M  V30 40 H 3.213023 1.342652 0.907913 0
M  V30 41 H -0.957562 0.070761 3.091441 0
M  V30 42 H -2.981062 -0.580223 4.477031 0
M  V30 43 H -3.031786 -0.716106 5.114045 0
M  V30 END ATOM
M  V30 BEGIN BOND
M  V30 1 1 1 2
M  V30 2 1 2 3
M  V30 3 1 3 4
M  V30 4 2 4 5
M  V30 5 1 5 6
M  V30 6 1 6 7
M  V30 7 1 7 8
M  V30 8 2 8 9
M  V30 9 1 8 10
M  V30 10 1 10 11
M  V30 11 1 11 12
M  V30 12 1 12 13
M  V30 13 1 13 14
M  V30 14 1 14 15
M  V30 15 1 15 16
M  V30 16 2 6 17
M  V30 17 1 17 18
M  V30 18 1 18 19
M  V30 19 2 18 20
M  V30 20 1 20 21
M  V30 21 3 21 22
M  V30 22 1 20 4
M  V30 23 1 16 11
M  V30 24 1 1 23
M  V30 25 1 1 24
M  V30 26 1 1 25
M  V30 27 1 2 26
M  V30 28 1 2 27
M  V30 29 1 7 28
M  V30 30 1 10 29
M  V30 31 1 10 30
M  V30 32 1 12 31
M  V30 33 1 12 32
M  V30 34 1 13 33
M  V30 35 1 13 34
M  V30 36 1 14 35
M  V30 37 1 14 36
M  V30 38 1 15 37
M  V30 39 1 15 38
M  V30 40 1 16 39
M  V30 41 1 16 40
M  V30 42 1 17 41
M  V30 43 1 19 42
M  V30 44 1 19 43
M  V30 END BOND
M  V30 END CTAB
M  END
>  <Dataset>  (201) 
ChEMBL_Kinases

>  <Ligand_Instance>  (201) 
nan

>  <PDB_ID>  (201) 
nan

>  <Standardized_SMILES>  (201) 
CCOc1nc(NC(=O)CN2CCCCC2)cc(N)c1C#N

>  <Name>  (201) 
nan

>  <Pocket>  (201) 
nan

>  <ATP_Site>  (201) 
nan

>  <Peripheral>  (201) 
nan

>  <Num_H_Atoms_ProtBoundConf>  (201) 
nan

>  <Num_Resolved_Atoms>  (201) 
nan

>  <Num_Not_Resolved_Atoms>  (201) 
nan

$$$$
CHEMBL425290
     RDKit          3D

  0  0  0  0  0  0  0  0  0  0999 V3000
M  V30 BEGIN CTAB
M  V30 COUNTS 53 58 0 0 0
M  V30 BEGIN ATOM
M  V30 1 C 0.936402 -10.186681 1.563449 0
M  V30 2 C 0.993756 -9.654554 2.841845 0
M  V30 3 N 0.847294 -8.341099 2.693444 0
M  V30 4 N 0.702775 -8.005928 1.426384 0
M  V30 5 C 0.521715 -6.719789 0.847008 0
M  V30 6 C 0.913246 -5.557441 1.512263 0
M  V30 7 C 0.721487 -4.335678 0.919193 0
M  V30 8 C 0.158727 -4.173566 -0.310497 0
M  V30 9 C -0.110568 -3.054698 -1.054298 0
M  V30 10 C 0.098338 -1.642347 -0.817769 0
M  V30 11 C 0.618821 -0.875216 0.182803 0
M  V30 12 C 0.582019 0.475793 -0.097577 0
M  V30 13 C 0.993772 1.581037 0.620252 0
M  V30 14 C 0.826436 2.838912 0.074859 0
M  V30 15 C 1.238310 4.083376 0.775270 0
M  V30 16 N 0.257311 4.675800 1.593033 0
M  V30 17 C -0.266294 3.949293 2.660327 0
M  V30 18 C -1.595562 3.356884 2.297890 0
M  V30 19 C -2.430084 4.174061 1.391262 0
M  V30 20 C -1.984675 5.583182 1.148718 0
M  V30 21 C -0.499210 5.760777 1.087422 0
M  V30 22 C 0.248624 2.921557 -1.175410 0
M  V30 23 C -0.155479 1.802108 -1.874790 0
M  V30 24 C 0.002748 0.533157 -1.347101 0
M  V30 25 N -0.265104 -0.725767 -1.733132 0
M  V30 26 N -0.665965 -3.565150 -2.167808 0
M  V30 27 N -0.738627 -4.878486 -2.127492 0
M  V30 28 C -0.229410 -5.333640 -0.968810 0
M  V30 29 C -0.050632 -6.579412 -0.399947 0
M  V30 30 N 0.757332 -9.128375 0.743401 0
M  V30 31 H 1.016703 -11.217421 1.282402 0
M  V30 32 H 1.130132 -10.211098 3.756973 0
M  V30 33 H 1.356457 -5.723732 2.486372 0
M  V30 34 H 1.037376 -3.493750 1.470233 0
M  V30 35 H 1.020817 -1.259189 1.101469 0
M  V30 36 H 1.435867 1.462058 1.584308 0
M  V30 37 H 2.083472 3.756983 1.450632 0
M  V30 38 H 1.676510 4.758460 0.044784 0
M  V30 39 H 0.435432 3.155342 2.955659 0
M  V30 40 H -0.444891 4.619975 3.552392 0
M  V30 41 H -2.152965 3.195576 3.270108 0
M  V30 42 H -1.501809 2.330838 1.887167 0
M  V30 43 H -2.456712 3.672558 0.379275 0
M  V30 44 H -3.486925 4.136208 1.727238 0
M  V30 45 H -2.449754 5.959831 0.213567 0
M  V30 46 H -2.398776 6.202943 1.972361 0
M  V30 47 H -0.181809 5.949801 0.039999 0
M  V30 48 H -0.208410 6.673618 1.660609 0
M  V30 49 H 0.089351 3.886408 -1.659916 0
M  V30 50 H -0.606669 1.886055 -2.854013 0
M  V30 51 H -0.712007 -0.834640 -2.674314 0
M  V30 52 H -1.137351 -5.450022 -2.896365 0
M  V30 53 H -0.385476 -7.448895 -0.987527 0
M  V30 END ATOM
M  V30 BEGIN BOND
M  V30 1 1 1 2
M  V30 2 2 2 3
M  V30 3 1 3 4
M  V30 4 1 4 5
M  V30 5 2 5 6
M  V30 6 1 6 7
M  V30 7 2 7 8
M  V30 8 1 8 9
M  V30 9 1 9 10
M  V30 10 2 10 11
M  V30 11 1 11 12
M  V30 12 2 12 13
M  V30 13 1 13 14
M  V30 14 1 14 15
M  V30 15 1 15 16
M  V30 16 1 16 17
M  V30 17 1 17 18
M  V30 18 1 18 19
M  V30 19 1 19 20
M  V30 20 1 20 21
M  V30 21 2 14 22
M  V30 22 1 22 23
M  V30 23 2 23 24
M  V30 24 1 24 25
M  V30 25 2 9 26
M  V30 26 1 26 27
M  V30 27 1 27 28
M  V30 28 2 28 29
M  V30 29 1 4 30
M  V30 30 2 30 1
M  V30 31 1 29 5
M  V30 32 1 28 8
M  V30 33 1 25 10
M  V30 34 1 24 12
M  V30 35 1 21 16
M  V30 36 1 1 31
M  V30 37 1 2 32
M  V30 38 1 6 33
M  V30 39 1 7 34
M  V30 40 1 11 35
M  V30 41 1 13 36
M  V30 42 1 15 37
M  V30 43 1 15 38
M  V30 44 1 17 39
M  V30 45 1 17 40
M  V30 46 1 18 41
M  V30 47 1 18 42
M  V30 48 1 19 43
M  V30 49 1 19 44
M  V30 50 1 20 45
M  V30 51 1 20 46
M  V30 52 1 21 47
M  V30 53 1 21 48
M  V30 54 1 22 49
M  V30 55 1 23 50
M  V30 56 1 25 51
M  V30 57 1 27 52
M  V30 58 1 29 53
M  V30 END BOND
M  V30 END CTAB
M  END
>  <Dataset>  (202) 
ChEMBL_Kinases

>  <Ligand_Instance>  (202) 
nan

>  <PDB_ID>  (202) 
nan

>  <Standardized_SMILES>  (202) 
c1cnn(-c2ccc3c(-c4cc5cc(CN6CCCCC6)ccc5[nH]4)n[nH]c3c2)n1

>  <Name>  (202) 
nan

>  <Pocket>  (202) 
nan

>  <ATP_Site>  (202) 
nan

>  <Peripheral>  (202) 
nan

>  <Num_H_Atoms_ProtBoundConf>  (202) 
nan

>  <Num_Resolved_Atoms>  (202) 
nan

>  <Num_Not_Resolved_Atoms>  (202) 
nan

$$$$
CHEMBL3120983
     RDKit          3D

  0  0  0  0  0  0  0  0  0  0999 V3000
M  V30 BEGIN CTAB
M  V30 COUNTS 50 54 0 0 0
M  V30 BEGIN ATOM
M  V30 1 C 1.336369 -1.337217 -1.275383 0
M  V30 2 N 0.273008 -1.721319 -0.395112 0
M  V30 3 C 0.270954 -1.497418 0.942909 0
M  V30 4 C 1.310093 -0.842548 1.744106 0
M  V30 5 C 1.415532 0.555091 1.787995 0
M  V30 6 N 2.467134 0.843100 2.608811 0
M  V30 7 C 2.835729 2.200574 2.862088 0
M  V30 8 C 1.908538 3.090169 3.416355 0
M  V30 9 C 2.321491 4.384798 3.636927 0
M  V30 10 C 3.602024 4.865755 3.344093 0
M  V30 11 C 4.476031 3.950094 2.800373 0
M  V30 12 C 5.801446 4.430453 2.492170 0
M  V30 13 O 6.092514 5.637509 2.728869 0
M  V30 14 O 6.881551 3.773128 1.951337 0
M  V30 15 C 4.108658 2.642253 2.560925 0
M  V30 16 N 2.985454 -0.311489 3.049794 0
M  V30 17 N 2.293466 -1.321037 2.532653 0
M  V30 18 N -0.877421 -1.983491 1.465443 0
M  V30 19 C -1.629803 -2.527370 0.466761 0
M  V30 20 C -2.932820 -3.136907 0.713447 0
M  V30 21 C -3.833490 -2.179414 1.176018 0
M  V30 22 C -5.144426 -2.504939 1.486886 0
M  V30 23 C -5.578989 -3.817293 1.336027 0
M  V30 24 F -6.840737 -4.206491 1.618999 0
M  V30 25 C -4.666931 -4.750144 0.875469 0
M  V30 26 C -3.374459 -4.434067 0.568013 0
M  V30 27 C -0.876521 -2.342199 -0.670822 0
M  V30 28 C -1.305752 -2.779408 -1.994617 0
M  V30 29 C -1.523525 -4.040523 -2.510556 0
M  V30 30 C -1.937097 -4.164746 -3.819506 0
M  V30 31 N -2.147837 -3.127687 -4.646178 0
M  V30 32 C -1.935900 -1.897909 -4.144877 0
M  V30 33 C -1.515376 -1.671016 -2.828289 0
M  V30 34 H 1.612353 -0.266754 -1.182249 0
M  V30 35 H 2.264924 -1.926019 -1.098782 0
M  V30 36 H 1.053068 -1.570039 -2.332076 0
M  V30 37 H 0.777455 1.264906 1.265382 0
M  V30 38 H 0.904051 2.772444 3.662603 0
M  V30 39 H 1.570450 5.047485 4.070114 0
M  V30 40 H 3.860243 5.890008 3.541454 0
M  V30 41 H 7.796825 3.860371 2.409290 0
M  V30 42 H 4.790890 1.938388 2.139434 0
M  V30 43 H -3.640907 -1.118572 1.344041 0
M  V30 44 H -5.884177 -1.803288 1.848762 0
M  V30 45 H -4.952652 -5.770230 0.743084 0
M  V30 46 H -2.596741 -5.078919 0.208842 0
M  V30 47 H -1.332649 -4.799645 -1.794684 0
M  V30 48 H -2.090944 -5.199345 -4.164046 0
M  V30 49 H -2.104802 -1.041355 -4.811028 0
M  V30 50 H -1.384775 -0.619165 -2.562000 0
M  V30 END ATOM
M  V30 BEGIN BOND
M  V30 1 1 1 2
M  V30 2 1 2 3
M  V30 3 1 3 4
M  V30 4 2 4 5
M  V30 5 1 5 6
M  V30 6 1 6 7
M  V30 7 2 7 8
M  V30 8 1 8 9
M  V30 9 2 9 10
M  V30 10 1 10 11
M  V30 11 1 11 12
M  V30 12 2 12 13
M  V30 13 1 12 14
M  V30 14 2 11 15
M  V30 15 1 6 16
M  V30 16 2 16 17
M  V30 17 2 3 18
M  V30 18 1 18 19
M  V30 19 1 19 20
M  V30 20 2 20 21
M  V30 21 1 21 22
M  V30 22 2 22 23
M  V30 23 1 23 24
M  V30 24 1 23 25
M  V30 25 2 25 26
M  V30 26 2 19 27
M  V30 27 1 27 28
M  V30 28 2 28 29
M  V30 29 1 29 30
M  V30 30 2 30 31
M  V30 31 1 31 32
M  V30 32 2 32 33
M  V30 33 1 27 2
M  V30 34 1 33 28
M  V30 35 1 17 4
M  V30 36 1 26 20
M  V30 37 1 15 7
M  V30 38 1 1 34
M  V30 39 1 1 35
M  V30 40 1 1 36
M  V30 41 1 5 37
M  V30 42 1 8 38
M  V30 43 1 9 39
M  V30 44 1 10 40
M  V30 45 1 14 41
M  V30 46 1 15 42
M  V30 47 1 21 43
M  V30 48 1 22 44
M  V30 49 1 25 45
M  V30 50 1 26 46
M  V30 51 1 29 47
M  V30 52 1 30 48
M  V30 53 1 32 49
M  V30 54 1 33 50
M  V30 END BOND
M  V30 END CTAB
M  END
>  <Dataset>  (203) 
ChEMBL_Kinases

>  <Ligand_Instance>  (203) 
nan

>  <PDB_ID>  (203) 
nan

>  <Standardized_SMILES>  (203) 
Cn1c(-c2cn(-c3cccc(C(=O)O)c3)nn2)nc(-c2ccc(F)cc2)c1-c1ccncc1

>  <Name>  (203) 
nan

>  <Pocket>  (203) 
nan

>  <ATP_Site>  (203) 
nan

>  <Peripheral>  (203) 
nan

>  <Num_H_Atoms_ProtBoundConf>  (203) 
nan

>  <Num_Resolved_Atoms>  (203) 
nan

>  <Num_Not_Resolved_Atoms>  (203) 
nan

$$$$
CHEMBL3120985
     RDKit          3D

  0  0  0  0  0  0  0  0  0  0999 V3000
M  V30 BEGIN CTAB
M  V30 COUNTS 48 51 0 0 0
M  V30 BEGIN ATOM
M  V30 1 C -1.190654 -0.306143 3.286559 0
M  V30 2 N -0.972579 -0.605678 1.894008 0
M  V30 3 C -0.121009 0.034606 1.075312 0
M  V30 4 C 0.773371 1.153351 1.353718 0
M  V30 5 C 1.992777 1.079085 2.017797 0
M  V30 6 N 2.490694 2.328416 2.059752 0
M  V30 7 C 3.749920 2.728450 2.659743 0
M  V30 8 C 4.874318 2.647093 1.620217 0
M  V30 9 P 4.485419 3.755463 0.239050 0
M  V30 10 O 3.356604 3.205262 -0.597768 0
M  V30 11 O 5.849081 3.866717 -0.756418 0
M  V30 12 O 4.105173 5.264118 0.849214 0
M  V30 13 N 1.631601 3.151982 1.453841 0
M  V30 14 N 0.589861 2.465000 1.020952 0
M  V30 15 N -0.236396 -0.570760 -0.137288 0
M  V30 16 C -1.147561 -1.561345 -0.041278 0
M  V30 17 C -1.408974 -2.330079 -1.252499 0
M  V30 18 C -1.087317 -3.668694 -1.106686 0
M  V30 19 C -1.268223 -4.551211 -2.156395 0
M  V30 20 C -1.773339 -4.074463 -3.346412 0
M  V30 21 F -1.969718 -4.896548 -4.406225 0
M  V30 22 C -2.092303 -2.740861 -3.486816 0
M  V30 23 C -1.914651 -1.856017 -2.445954 0
M  V30 24 C -1.609720 -1.583333 1.234160 0
M  V30 25 C -2.614876 -2.550863 1.657200 0
M  V30 26 C -2.449268 -3.529241 2.637603 0
M  V30 27 C -3.494984 -4.359490 2.915905 0
M  V30 28 N -4.697118 -4.318325 2.316810 0
M  V30 29 C -4.871554 -3.381087 1.370102 0
M  V30 30 C -3.843466 -2.502449 1.038971 0
M  V30 31 H -2.238358 -0.451777 3.602712 0
M  V30 32 H -0.462017 -0.864042 3.920394 0
M  V30 33 H -0.943206 0.782992 3.438665 0
M  V30 34 H 2.448997 0.188994 2.420799 0
M  V30 35 H 3.752185 3.782234 2.997883 0
M  V30 36 H 4.072750 2.080436 3.485183 0
M  V30 37 H 4.838364 1.616849 1.211785 0
M  V30 38 H 5.845333 2.850561 2.065869 0
M  V30 39 H 5.700941 3.419417 -1.632467 0
M  V30 40 H 3.647892 5.841366 0.195186 0
M  V30 41 H -0.687809 -4.122711 -0.209509 0
M  V30 42 H -1.020655 -5.613968 -2.066557 0
M  V30 43 H -2.488279 -2.354557 -4.412923 0
M  V30 44 H -2.136972 -0.796521 -2.466465 0
M  V30 45 H -1.480227 -3.557568 3.115691 0
M  V30 46 H -3.283273 -5.088974 3.688548 0
M  V30 47 H -5.843151 -3.362661 0.899276 0
M  V30 48 H -4.113598 -1.810239 0.273480 0
M  V30 END ATOM
M  V30 BEGIN BOND
M  V30 1 1 1 2
M  V30 2 1 2 3
M  V30 3 1 3 4
M  V30 4 2 4 5
M  V30 5 1 5 6
M  V30 6 1 6 7
M  V30 7 1 7 8
M  V30 8 1 8 9
M  V30 9 2 9 10
M  V30 10 1 9 11
M  V30 11 1 9 12
M  V30 12 1 6 13
M  V30 13 2 13 14
M  V30 14 2 3 15
M  V30 15 1 15 16
M  V30 16 1 16 17
M  V30 17 2 17 18
M  V30 18 1 18 19
M  V30 19 2 19 20
M  V30 20 1 20 21
M  V30 21 1 20 22
M  V30 22 2 22 23
M  V30 23 2 16 24
M  V30 24 1 24 25
M  V30 25 2 25 26
M  V30 26 1 26 27
M  V30 27 2 27 28
M  V30 28 1 28 29
M  V30 29 2 29 30
M  V30 30 1 24 2
M  V30 31 1 30 25
M  V30 32 1 14 4
M  V30 33 1 23 17
M  V30 34 1 1 31
M  V30 35 1 1 32
M  V30 36 1 1 33
M  V30 37 1 5 34
M  V30 38 1 7 35
M  V30 39 1 7 36
M  V30 40 1 8 37
M  V30 41 1 8 38
M  V30 42 1 11 39
M  V30 43 1 12 40
M  V30 44 1 18 41
M  V30 45 1 19 42
M  V30 46 1 22 43
M  V30 47 1 23 44
M  V30 48 1 26 45
M  V30 49 1 27 46
M  V30 50 1 29 47
M  V30 51 1 30 48
M  V30 END BOND
M  V30 END CTAB
M  END
>  <Dataset>  (204) 
ChEMBL_Kinases

>  <Ligand_Instance>  (204) 
nan

>  <PDB_ID>  (204) 
nan

>  <Standardized_SMILES>  (204) 
Cn1c(-c2cn(CCP(=O)(O)O)nn2)nc(-c2ccc(F)cc2)c1-c1ccncc1

>  <Name>  (204) 
nan

>  <Pocket>  (204) 
nan

>  <ATP_Site>  (204) 
nan

>  <Peripheral>  (204) 
nan

>  <Num_H_Atoms_ProtBoundConf>  (204) 
nan

>  <Num_Resolved_Atoms>  (204) 
nan

>  <Num_Not_Resolved_Atoms>  (204) 
nan

$$$$
CHEMBL3120986
     RDKit          3D

  0  0  0  0  0  0  0  0  0  0999 V3000
M  V30 BEGIN CTAB
M  V30 COUNTS 52 56 0 0 0
M  V30 BEGIN ATOM
M  V30 1 C 0.606357 -0.920413 -0.689415 0
M  V30 2 N -0.622526 -0.900462 0.117186 0
M  V30 3 C -0.848934 -0.007820 1.125412 0
M  V30 4 C 0.097249 1.031354 1.523726 0
M  V30 5 C 1.474427 0.985863 1.595135 0
M  V30 6 N 1.951746 2.173536 2.012543 0
M  V30 7 C 3.365442 2.526683 2.216144 0 CFG=1
M  V30 8 C 4.201260 1.287976 2.331982 0
M  V30 9 C 4.702430 0.763113 1.020126 0
M  V30 10 N 4.273664 1.557638 -0.111286 0
M  V30 11 C 4.763886 2.900046 0.147202 0
M  V30 12 C 3.822140 3.492974 1.172653 0 CFG=2
M  V30 13 F 4.334124 4.647719 1.731864 0
M  V30 14 N 0.883273 2.921705 2.189725 0
M  V30 15 N -0.220177 2.263503 1.905878 0
M  V30 16 N -2.067454 -0.308461 1.615658 0
M  V30 17 C -2.584184 -1.360618 0.929481 0
M  V30 18 C -3.860941 -1.975481 1.153489 0
M  V30 19 C -3.910678 -2.564430 2.423681 0
M  V30 20 C -5.059560 -3.226518 2.872361 0
M  V30 21 C -6.168207 -3.305515 2.055555 0
M  V30 22 F -7.332772 -3.917429 2.378344 0
M  V30 23 C -6.116638 -2.725661 0.807400 0
M  V30 24 C -4.990374 -2.076471 0.367350 0
M  V30 25 C -1.688866 -1.744459 -0.015504 0
M  V30 26 C -1.703325 -2.795141 -1.023859 0
M  V30 27 C -0.687744 -3.724326 -0.752478 0
M  V30 28 C -0.493638 -4.831481 -1.581787 0
M  V30 29 N -1.297717 -4.987182 -2.641643 0
M  V30 30 C -2.271323 -4.096032 -2.901610 0
M  V30 31 C -2.499985 -2.985299 -2.108159 0
M  V30 32 H 0.360274 -1.240623 -1.721592 0
M  V30 33 H 1.012262 0.107458 -0.789561 0
M  V30 34 H 1.359670 -1.538204 -0.204210 0
M  V30 35 H 2.087001 0.134541 1.355839 0
M  V30 36 H 3.396372 3.047372 3.196229 0
M  V30 37 H 3.542559 0.503006 2.760233 0
M  V30 38 H 5.027816 1.435081 3.057846 0
M  V30 39 H 5.814522 0.800117 1.023150 0
M  V30 40 H 4.429430 -0.293603 0.823362 0
M  V30 41 H 4.719648 1.133851 -0.954749 0
M  V30 42 H 4.731972 3.548764 -0.754769 0
M  V30 43 H 5.812058 2.818502 0.546602 0
M  V30 44 H 2.926070 3.817610 0.578247 0
M  V30 45 H -3.105503 -2.577884 3.175423 0
M  V30 46 H -5.122155 -3.688290 3.847335 0
M  V30 47 H -6.936000 -2.731151 0.085865 0
M  V30 48 H -4.850190 -1.590194 -0.588216 0
M  V30 49 H 0.031522 -3.708064 0.078994 0
M  V30 50 H 0.269849 -5.572005 -1.417510 0
M  V30 51 H -2.960685 -4.173268 -3.756763 0
M  V30 52 H -3.233109 -2.228466 -2.225220 0
M  V30 END ATOM
M  V30 BEGIN BOND
M  V30 1 1 1 2
M  V30 2 1 2 3
M  V30 3 1 3 4
M  V30 4 2 4 5
M  V30 5 1 5 6
M  V30 6 1 6 7
M  V30 7 1 7 8
M  V30 8 1 8 9
M  V30 9 1 9 10
M  V30 10 1 10 11
M  V30 11 1 11 12
M  V30 12 1 12 13
M  V30 13 1 6 14
M  V30 14 2 14 15
M  V30 15 2 3 16
M  V30 16 1 16 17
M  V30 17 1 17 18
M  V30 18 2 18 19
M  V30 19 1 19 20
M  V30 20 2 20 21
M  V30 21 1 21 22
M  V30 22 1 21 23
M  V30 23 2 23 24
M  V30 24 2 17 25
M  V30 25 1 25 26
M  V30 26 2 26 27
M  V30 27 1 27 28
M  V30 28 2 28 29
M  V30 29 1 29 30
M  V30 30 2 30 31
M  V30 31 1 25 2
M  V30 32 1 31 26
M  V30 33 1 15 4
M  V30 34 1 24 18
M  V30 35 1 12 7
M  V30 36 1 1 32
M  V30 37 1 1 33
M  V30 38 1 1 34
M  V30 39 1 5 35
M  V30 40 1 7 36 CFG=1
M  V30 41 1 8 37
M  V30 42 1 8 38
M  V30 43 1 9 39
M  V30 44 1 9 40
M  V30 45 1 10 41
M  V30 46 1 11 42
M  V30 47 1 11 43
M  V30 48 1 12 44 CFG=3
M  V30 49 1 19 45
M  V30 50 1 20 46
M  V30 51 1 23 47
M  V30 52 1 24 48
M  V30 53 1 27 49
M  V30 54 1 28 50
M  V30 55 1 30 51
M  V30 56 1 31 52
M  V30 END BOND
M  V30 END CTAB
M  END
>  <Dataset>  (205) 
ChEMBL_Kinases

>  <Ligand_Instance>  (205) 
nan

>  <PDB_ID>  (205) 
nan

>  <Standardized_SMILES>  (205) 
Cn1c(-c2cn([C@H]3CCNC[C@@H]3F)nn2)nc(-c2ccc(F)cc2)c1-c1ccncc1

>  <Name>  (205) 
nan

>  <Pocket>  (205) 
nan

>  <ATP_Site>  (205) 
nan

>  <Peripheral>  (205) 
nan

>  <Num_H_Atoms_ProtBoundConf>  (205) 
nan

>  <Num_Resolved_Atoms>  (205) 
nan

>  <Num_Not_Resolved_Atoms>  (205) 
nan

$$$$
CHEMBL3680466
     RDKit          3D

  0  0  0  0  0  0  0  0  0  0999 V3000
M  V30 BEGIN CTAB
M  V30 COUNTS 67 71 0 0 0
M  V30 BEGIN ATOM
M  V30 1 C 1.905297 -1.067943 6.497393 0
M  V30 2 C 2.106283 -1.290392 5.027087 0
M  V30 3 N 2.071267 -0.070948 4.261456 0
M  V30 4 C 0.931868 0.740910 4.249954 0
M  V30 5 N 0.145857 0.817905 5.291558 0
M  V30 6 C -0.972962 1.709577 5.086009 0
M  V30 7 N -1.317695 2.416671 4.091957 0
M  V30 8 C -0.545228 2.434563 2.870760 0
M  V30 9 C -0.155571 3.759350 2.399856 0
M  V30 10 C -0.509813 5.042820 2.999763 0
M  V30 11 N -0.023365 6.234190 2.381513 0
M  V30 12 O -1.196708 5.322468 4.009285 0
M  V30 13 C 0.609931 3.708410 1.295010 0
M  V30 14 C 0.851629 2.314199 0.852576 0
M  V30 15 C 1.361484 1.447469 1.953982 0
M  V30 16 C 0.605237 1.513780 3.054916 0
M  V30 17 C 1.127376 -2.281994 4.513578 0
M  V30 18 C 0.360995 -3.131924 5.275984 0
M  V30 19 C -0.553898 -4.056687 4.832925 0
M  V30 20 C -0.729571 -4.148055 3.467261 0
M  V30 21 C -0.001946 -3.329780 2.589246 0
M  V30 22 N -0.076274 -3.327892 1.186476 0
M  V30 23 C 0.494785 -3.832409 -0.006782 0
M  V30 24 O 1.476287 -4.602412 0.154764 0
M  V30 25 C -0.096051 -3.416228 -1.273896 0
M  V30 26 C -1.245301 -2.701024 -1.522368 0
M  V30 27 C -1.634732 -2.391725 -2.808126 0
M  V30 28 C -0.917868 -2.767470 -3.905539 0
M  V30 29 N -1.353836 -2.447741 -5.200401 0
M  V30 30 C -2.663738 -1.934348 -5.535787 0
M  V30 31 C -2.471308 -0.738364 -6.442507 0
M  V30 32 O -1.190087 -0.254195 -6.351650 0
M  V30 33 C -0.202632 -1.121587 -6.784876 0
M  V30 34 C -0.594357 -2.563517 -6.430401 0
M  V30 35 C 0.243897 -3.488172 -3.691777 0
M  V30 36 C 0.651448 -3.809972 -2.385841 0
M  V30 37 C 0.898250 -2.428470 3.148073 0
M  V30 38 H 0.852745 -1.147019 6.832299 0
M  V30 39 H 2.466674 -1.857979 7.034134 0
M  V30 40 H 2.378848 -0.116996 6.795546 0
M  V30 41 H 3.103356 -1.753570 4.886721 0
M  V30 42 H 2.911260 0.235953 3.688815 0
M  V30 43 H -1.652437 1.790596 5.947554 0
M  V30 44 H -1.202915 1.908861 2.114437 0
M  V30 45 H -0.351499 7.110687 1.907773 0
M  V30 46 H 1.031563 6.288634 2.379623 0
M  V30 47 H 0.979683 4.631999 0.825108 0
M  V30 48 H -0.078565 1.863089 0.420879 0
M  V30 49 H 1.573579 2.313975 0.000133 0
M  V30 50 H 2.234386 0.826479 1.897877 0
M  V30 51 H 0.484605 -3.076922 6.363365 0
M  V30 52 H -1.116097 -4.688850 5.501207 0
M  V30 53 H -1.421216 -4.836973 2.996179 0
M  V30 54 H -0.896888 -2.673925 1.164777 0
M  V30 55 H -1.783382 -2.425198 -0.626254 0
M  V30 56 H -2.540161 -1.838629 -2.821090 0
M  V30 57 H -3.187316 -2.726733 -6.121794 0
M  V30 58 H -3.257368 -1.578201 -4.685256 0
M  V30 59 H -3.159299 0.100990 -6.181208 0
M  V30 60 H -2.707260 -0.984322 -7.500475 0
M  V30 61 H 0.078199 -0.996661 -7.831717 0
M  V30 62 H 0.735447 -0.928634 -6.182528 0
M  V30 63 H -1.155245 -3.058167 -7.247742 0
M  V30 64 H 0.339856 -3.160512 -6.318476 0
M  V30 65 H 0.876664 -3.829010 -4.499106 0
M  V30 66 H 1.589979 -4.388100 -2.288617 0
M  V30 67 H 1.494617 -1.764143 2.501181 0
M  V30 END ATOM
M  V30 BEGIN BOND
M  V30 1 1 1 2
M  V30 2 1 2 3
M  V30 3 1 3 4
M  V30 4 2 4 5
M  V30 5 1 5 6
M  V30 6 2 6 7
M  V30 7 1 7 8
M  V30 8 1 8 9
M  V30 9 1 9 10
M  V30 10 1 10 11
M  V30 11 2 10 12
M  V30 12 2 9 13
M  V30 13 1 13 14
M  V30 14 1 14 15
M  V30 15 2 15 16
M  V30 16 1 2 17
M  V30 17 2 17 18
M  V30 18 1 18 19
M  V30 19 2 19 20
M  V30 20 1 20 21
M  V30 21 1 21 22
M  V30 22 1 22 23
M  V30 23 2 23 24
M  V30 24 1 23 25
M  V30 25 2 25 26
M  V30 26 1 26 27
M  V30 27 2 27 28
M  V30 28 1 28 29
M  V30 29 1 29 30
M  V30 30 1 30 31
M  V30 31 1 31 32
M  V30 32 1 32 33
M  V30 33 1 33 34
M  V30 34 1 28 35
M  V30 35 2 35 36
M  V30 36 2 21 37
M  V30 37 1 16 4
M  V30 38 1 37 17
M  V30 39 1 16 8
M  V30 40 1 36 25
M  V30 41 1 34 29
M  V30 42 1 1 38
M  V30 43 1 1 39
M  V30 44 1 1 40
M  V30 45 1 2 41
M  V30 46 1 3 42
M  V30 47 1 6 43
M  V30 48 1 8 44
M  V30 49 1 11 45
M  V30 50 1 11 46
M  V30 51 1 13 47
M  V30 52 1 14 48
M  V30 53 1 14 49
M  V30 54 1 15 50
M  V30 55 1 18 51
M  V30 56 1 19 52
M  V30 57 1 20 53
M  V30 58 1 22 54
M  V30 59 1 26 55
M  V30 60 1 27 56
M  V30 61 1 30 57
M  V30 62 1 30 58
M  V30 63 1 31 59
M  V30 64 1 31 60
M  V30 65 1 33 61
M  V30 66 1 33 62
M  V30 67 1 34 63
M  V30 68 1 34 64
M  V30 69 1 35 65
M  V30 70 1 36 66
M  V30 71 1 37 67
M  V30 END BOND
M  V30 END CTAB
M  END
>  <Dataset>  (206) 
ChEMBL_Kinases

>  <Ligand_Instance>  (206) 
nan

>  <PDB_ID>  (206) 
nan

>  <Standardized_SMILES>  (206) 
CC(NC1=NC=NC2C(C(N)=O)=CCC=C12)c1cccc(NC(=O)c2ccc(N3CCOCC3)cc2)c1

>  <Name>  (206) 
nan

>  <Pocket>  (206) 
nan

>  <ATP_Site>  (206) 
nan

>  <Peripheral>  (206) 
nan

>  <Num_H_Atoms_ProtBoundConf>  (206) 
nan

>  <Num_Resolved_Atoms>  (206) 
nan

>  <Num_Not_Resolved_Atoms>  (206) 
nan

$$$$
CHEMBL3120995
     RDKit          3D

  0  0  0  0  0  0  0  0  0  0999 V3000
M  V30 BEGIN CTAB
M  V30 COUNTS 50 54 0 0 0
M  V30 BEGIN ATOM
M  V30 1 C 1.673432 -2.843441 -0.314654 0
M  V30 2 N 0.378208 -2.486297 0.189163 0
M  V30 3 C 0.349241 -1.490947 1.093920 0
M  V30 4 C 1.267693 -0.582024 1.789539 0
M  V30 5 C 1.713237 0.690554 1.474700 0
M  V30 6 N 2.563997 1.098133 2.459913 0
M  V30 7 C 3.103480 2.405112 2.263303 0
M  V30 8 C 2.416144 3.480427 2.790829 0
M  V30 9 C 2.902388 4.760822 2.623754 0
M  V30 10 C 4.080744 4.907074 1.920352 0
M  V30 11 C 4.732497 6.189432 1.652330 0
M  V30 12 O 5.773913 6.468344 1.045317 0
M  V30 13 O 4.328305 7.463467 2.027424 0
M  V30 14 C 4.781206 3.829625 1.384618 0
M  V30 15 C 4.281857 2.553258 1.560024 0
M  V30 16 N 2.640550 0.111240 3.351660 0
M  V30 17 N 1.869690 -0.897210 2.960137 0
M  V30 18 N -0.939637 -1.280929 1.462742 0
M  V30 19 C -1.732388 -2.157429 0.779753 0
M  V30 20 C -3.180696 -2.322525 0.832769 0
M  V30 21 C -3.800004 -1.174356 0.333257 0
M  V30 22 C -5.194432 -1.076773 0.277116 0
M  V30 23 C -5.959925 -2.136613 0.724567 0
M  V30 24 F -7.317272 -2.090242 0.690327 0
M  V30 25 C -5.332995 -3.259544 1.213426 0
M  V30 26 C -3.960658 -3.366175 1.273304 0
M  V30 27 C -0.890042 -2.904549 -0.013226 0
M  V30 28 C -1.150827 -3.989191 -0.956936 0
M  V30 29 C -1.642553 -5.256118 -0.743361 0
M  V30 30 C -1.804741 -6.110964 -1.813593 0
M  V30 31 N -1.500684 -5.754696 -3.060702 0
M  V30 32 C -1.019280 -4.523484 -3.292916 0
M  V30 33 C -0.836461 -3.632655 -2.276576 0
M  V30 34 H 2.289051 -1.966134 -0.594620 0
M  V30 35 H 2.264155 -3.513418 0.328945 0
M  V30 36 H 1.520724 -3.405460 -1.282578 0
M  V30 37 H 1.336316 1.125335 0.555341 0
M  V30 38 H 1.491063 3.415272 3.347975 0
M  V30 39 H 2.480270 5.698084 2.975754 0
M  V30 40 H 4.017888 8.182320 1.357531 0
M  V30 41 H 5.691325 3.903691 0.837338 0
M  V30 42 H 4.803665 1.683136 1.154133 0
M  V30 43 H -3.329399 -0.268881 -0.051079 0
M  V30 44 H -5.729188 -0.224191 -0.094432 0
M  V30 45 H -5.873774 -4.133357 1.583201 0
M  V30 46 H -3.357622 -4.185425 1.634076 0
M  V30 47 H -1.854826 -5.451363 0.283169 0
M  V30 48 H -2.200638 -7.099834 -1.561061 0
M  V30 49 H -0.804645 -4.340806 -4.352732 0
M  V30 50 H -0.436828 -2.681734 -2.653979 0
M  V30 END ATOM
M  V30 BEGIN BOND
M  V30 1 1 1 2
M  V30 2 1 2 3
M  V30 3 1 3 4
M  V30 4 2 4 5
M  V30 5 1 5 6
M  V30 6 1 6 7
M  V30 7 2 7 8
M  V30 8 1 8 9
M  V30 9 2 9 10
M  V30 10 1 10 11
M  V30 11 2 11 12
M  V30 12 1 11 13
M  V30 13 1 10 14
M  V30 14 2 14 15
M  V30 15 1 6 16
M  V30 16 2 16 17
M  V30 17 2 3 18
M  V30 18 1 18 19
M  V30 19 1 19 20
M  V30 20 2 20 21
M  V30 21 1 21 22
M  V30 22 2 22 23
M  V30 23 1 23 24
M  V30 24 1 23 25
M  V30 25 2 25 26
M  V30 26 2 19 27
M  V30 27 1 27 28
M  V30 28 2 28 29
M  V30 29 1 29 30
M  V30 30 2 30 31
M  V30 31 1 31 32
M  V30 32 2 32 33
M  V30 33 1 27 2
M  V30 34 1 33 28
M  V30 35 1 17 4
M  V30 36 1 26 20
M  V30 37 1 15 7
M  V30 38 1 1 34
M  V30 39 1 1 35
M  V30 40 1 1 36
M  V30 41 1 5 37
M  V30 42 1 8 38
M  V30 43 1 9 39
M  V30 44 1 13 40
M  V30 45 1 14 41
M  V30 46 1 15 42
M  V30 47 1 21 43
M  V30 48 1 22 44
M  V30 49 1 25 45
M  V30 50 1 26 46
M  V30 51 1 29 47
M  V30 52 1 30 48
M  V30 53 1 32 49
M  V30 54 1 33 50
M  V30 END BOND
M  V30 END CTAB
M  END
>  <Dataset>  (207) 
ChEMBL_Kinases

>  <Ligand_Instance>  (207) 
nan

>  <PDB_ID>  (207) 
nan

>  <Standardized_SMILES>  (207) 
Cn1c(-c2cn(-c3ccc(C(=O)O)cc3)nn2)nc(-c2ccc(F)cc2)c1-c1ccncc1

>  <Name>  (207) 
nan

>  <Pocket>  (207) 
nan

>  <ATP_Site>  (207) 
nan

>  <Peripheral>  (207) 
nan

>  <Num_H_Atoms_ProtBoundConf>  (207) 
nan

>  <Num_Resolved_Atoms>  (207) 
nan

>  <Num_Not_Resolved_Atoms>  (207) 
nan

$$$$
CHEMBL424899
     RDKit          3D

  0  0  0  0  0  0  0  0  0  0999 V3000
M  V30 BEGIN CTAB
M  V30 COUNTS 72 76 0 0 0
M  V30 BEGIN ATOM
M  V30 1 C -1.835520 -4.138232 -0.935529 0
M  V30 2 O -1.882952 -3.078091 -0.009162 0
M  V30 3 C -0.736793 -2.368187 0.319017 0
M  V30 4 C 0.419705 -2.801809 -0.342032 0
M  V30 5 C 1.637867 -2.194112 -0.119928 0
M  V30 6 C 2.823552 -2.554494 -0.723389 0
M  V30 7 N 2.715281 -3.655163 -1.646105 0
M  V30 8 C 2.443343 -3.322250 -3.012653 0
M  V30 9 C 2.288481 -2.034352 -3.480116 0
M  V30 10 C 2.038707 -2.157953 -4.852119 0
M  V30 11 C 1.814956 -0.975949 -5.716830 0
M  V30 12 C 0.350097 -0.622201 -5.752680 0
M  V30 13 O -0.248870 -1.473455 -5.010936 0
M  V30 14 N -0.142098 0.474690 -6.507379 0
M  V30 15 C -1.552554 0.556653 -6.344888 0
M  V30 16 C -1.877620 1.365336 -5.249737 0
M  V30 17 C -3.196829 1.595016 -4.892400 0
M  V30 18 C -4.185336 0.990563 -5.664420 0
M  V30 19 C -3.873487 0.193656 -6.743258 0
M  V30 20 F -4.805071 -0.413592 -7.521488 0
M  V30 21 C -2.547453 -0.031113 -7.094355 0
M  V30 22 N 2.058575 -3.474928 -5.116134 0
M  V30 23 N 2.298672 -4.192353 -4.031981 0
M  V30 24 N 3.981613 -1.910932 -0.454495 0
M  V30 25 C 3.991860 -0.878527 0.433143 0
M  V30 26 N 2.833579 -0.495460 1.049464 0
M  V30 27 C 1.699644 -1.146164 0.768431 0
M  V30 28 C 0.552377 -0.738065 1.404709 0
M  V30 29 C -0.689670 -1.300057 1.228918 0
M  V30 30 O -1.931209 -1.073832 1.736652 0
M  V30 31 C -2.272220 -0.120792 2.683751 0
M  V30 32 C -1.613001 -0.324294 4.010451 0
M  V30 33 C -2.007279 0.737083 5.020524 0
M  V30 34 N -1.341508 0.451754 6.228530 0
M  V30 35 C -1.655508 1.349986 7.319606 0
M  V30 36 C -0.915256 0.580549 8.425543 0
M  V30 37 C 0.381244 0.272299 7.717042 0
M  V30 38 C 0.075960 0.307251 6.208848 0 CFG=2
M  V30 39 C 0.846635 1.440400 5.621857 0
M  V30 40 O 2.210888 1.149658 5.672171 0
M  V30 41 H -1.084803 -4.861257 -0.525159 0
M  V30 42 H -1.619182 -3.815765 -1.962446 0
M  V30 43 H -2.853076 -4.617325 -0.975572 0
M  V30 44 H 0.441866 -3.615443 -1.049735 0
M  V30 45 H 2.826535 -4.650291 -1.350138 0
M  V30 46 H 2.343133 -1.087869 -2.921468 0
M  V30 47 H 2.158365 -1.161101 -6.775710 0
M  V30 48 H 2.436294 -0.137688 -5.349035 0
M  V30 49 H 0.590406 1.015427 -7.035037 0
M  V30 50 H -1.178622 1.873513 -4.595515 0
M  V30 51 H -3.491717 2.214222 -4.051827 0
M  V30 52 H -5.229398 1.155344 -5.404457 0
M  V30 53 H -2.173647 -0.634434 -7.916583 0
M  V30 54 H 1.891646 -3.815615 -6.106442 0
M  V30 55 H 4.915437 -0.360288 0.651916 0
M  V30 56 H 0.572391 0.074792 2.079099 0
M  V30 57 H -1.947787 0.869934 2.276916 0
M  V30 58 H -3.376017 -0.065994 2.803614 0
M  V30 59 H -2.045778 -1.279393 4.438295 0
M  V30 60 H -0.536526 -0.418590 4.020415 0
M  V30 61 H -1.784827 1.757670 4.607559 0
M  V30 62 H -3.110871 0.716410 5.118849 0
M  V30 63 H -2.738812 1.355616 7.493682 0
M  V30 64 H -1.204033 2.337888 7.253586 0
M  V30 65 H -0.809046 1.149317 9.346510 0
M  V30 66 H -1.536205 -0.355403 8.545693 0
M  V30 67 H 0.774594 -0.731759 7.980650 0
M  V30 68 H 1.082380 1.082301 7.994971 0
M  V30 69 H 0.349923 -0.662656 5.779712 0
M  V30 70 H 0.725011 2.392022 6.176719 0
M  V30 71 H 0.575484 1.612838 4.570867 0
M  V30 72 H 2.766349 1.756904 5.124065 0
M  V30 END ATOM
M  V30 BEGIN BOND
M  V30 1 1 1 2
M  V30 2 1 2 3
M  V30 3 2 3 4
M  V30 4 1 4 5
M  V30 5 2 5 6
M  V30 6 1 6 7
M  V30 7 1 7 8
M  V30 8 1 8 9
M  V30 9 2 9 10
M  V30 10 1 10 11
M  V30 11 1 11 12
M  V30 12 2 12 13
M  V30 13 1 12 14
M  V30 14 1 14 15
M  V30 15 2 15 16
M  V30 16 1 16 17
M  V30 17 2 17 18
M  V30 18 1 18 19
M  V30 19 1 19 20
M  V30 20 2 19 21
M  V30 21 1 10 22
M  V30 22 1 22 23
M  V30 23 1 6 24
M  V30 24 2 24 25
M  V30 25 1 25 26
M  V30 26 2 26 27
M  V30 27 1 27 28
M  V30 28 2 28 29
M  V30 29 1 29 30
M  V30 30 1 30 31
M  V30 31 1 31 32
M  V30 32 1 32 33
M  V30 33 1 33 34
M  V30 34 1 34 35
M  V30 35 1 35 36
M  V30 36 1 36 37
M  V30 37 1 37 38
M  V30 38 1 38 39
M  V30 39 1 39 40
M  V30 40 1 29 3
M  V30 41 1 38 34
M  V30 42 1 27 5
M  V30 43 2 23 8
M  V30 44 1 21 15
M  V30 45 1 1 41
M  V30 46 1 1 42
M  V30 47 1 1 43
M  V30 48 1 4 44
M  V30 49 1 7 45
M  V30 50 1 9 46
M  V30 51 1 11 47
M  V30 52 1 11 48
M  V30 53 1 14 49
M  V30 54 1 16 50
M  V30 55 1 17 51
M  V30 56 1 18 52
M  V30 57 1 21 53
M  V30 58 1 22 54
M  V30 59 1 25 55
M  V30 60 1 28 56
M  V30 61 1 31 57
M  V30 62 1 31 58
M  V30 63 1 32 59
M  V30 64 1 32 60
M  V30 65 1 33 61
M  V30 66 1 33 62
M  V30 67 1 35 63
M  V30 68 1 35 64
M  V30 69 1 36 65
M  V30 70 1 36 66
M  V30 71 1 37 67
M  V30 72 1 37 68
M  V30 73 1 38 69 CFG=3
M  V30 74 1 39 70
M  V30 75 1 39 71
M  V30 76 1 40 72
M  V30 END BOND
M  V30 END CTAB
M  END
>  <Dataset>  (208) 
ChEMBL_Kinases

>  <Ligand_Instance>  (208) 
nan

>  <PDB_ID>  (208) 
nan

>  <Standardized_SMILES>  (208) 
COc1cc2c(Nc3cc(CC(=O)Nc4cccc(F)c4)[nH]n3)ncnc2cc1OCCCN1CCC[C@@H]1CO

>  <Name>  (208) 
nan

>  <Pocket>  (208) 
nan

>  <ATP_Site>  (208) 
nan

>  <Peripheral>  (208) 
nan

>  <Num_H_Atoms_ProtBoundConf>  (208) 
nan

>  <Num_Resolved_Atoms>  (208) 
nan

>  <Num_Not_Resolved_Atoms>  (208) 
nan

$$$$
CHEMBL3122113
     RDKit          3D

  0  0  0  0  0  0  0  0  0  0999 V3000
M  V30 BEGIN CTAB
M  V30 COUNTS 40 41 0 0 0
M  V30 BEGIN ATOM
M  V30 1 C -3.006950 -5.266050 2.078152 0
M  V30 2 N -2.027723 -4.480004 1.390163 0
M  V30 3 C -1.024314 -3.467048 1.350412 0
M  V30 4 N -0.331117 -2.554950 2.091175 0
M  V30 5 C 0.598821 -1.759359 1.568171 0
M  V30 6 N 1.225234 -0.873112 2.472936 0
M  V30 7 C 1.409249 0.434096 1.938078 0
M  V30 8 C 1.013365 0.985372 0.733192 0
M  V30 9 N 1.342810 2.274338 0.588756 0
M  V30 10 C 1.092071 3.175791 -0.505761 0
M  V30 11 C -0.064421 2.639531 -1.325748 0
M  V30 12 C 2.265203 3.347937 -1.429807 0
M  V30 13 C 0.730598 4.502686 0.018234 0
M  V30 14 N 0.425862 5.543718 0.430875 0
M  V30 15 N 1.958880 2.565957 1.704054 0
M  V30 16 C 2.033258 1.532741 2.540184 0
M  V30 17 C 2.672625 1.555572 3.879366 0
M  V30 18 N 0.870500 -1.851497 0.270830 0
M  V30 19 C 0.281782 -2.690044 -0.581466 0
M  V30 20 C -0.702061 -3.530347 -0.030105 0
M  V30 21 C -1.329992 -4.400223 -1.095072 0
M  V30 22 F -2.684546 -4.030168 -1.170842 0
M  V30 23 F -0.803103 -4.213499 -2.313876 0
M  V30 24 F -1.364159 -5.696859 -0.630974 0
M  V30 25 H -3.301834 -5.085910 3.111811 0
M  V30 26 H -3.971655 -5.292446 1.460200 0
M  V30 27 H -2.720882 -6.369006 2.062362 0
M  V30 28 H -1.998723 -4.163459 2.365372 0
M  V30 29 H 1.568121 -1.027758 3.446552 0
M  V30 30 H 0.475539 0.450457 -0.053123 0
M  V30 31 H -0.907385 2.270428 -0.716307 0
M  V30 32 H -0.435368 3.453661 -2.000172 0
M  V30 33 H 0.311954 1.805177 -1.944056 0
M  V30 34 H 3.098107 3.850762 -0.922772 0
M  V30 35 H 1.896858 3.946475 -2.298931 0
M  V30 36 H 2.555984 2.378031 -1.835256 0
M  V30 37 H 1.903077 1.980051 4.580707 0
M  V30 38 H 2.925400 0.534405 4.224406 0
M  V30 39 H 3.541825 2.242925 3.819529 0
M  V30 40 H 0.680588 -2.566819 -1.565420 0
M  V30 END ATOM
M  V30 BEGIN BOND
M  V30 1 1 1 2
M  V30 2 1 2 3
M  V30 3 2 3 4
M  V30 4 1 4 5
M  V30 5 1 5 6
M  V30 6 1 6 7
M  V30 7 2 7 8
M  V30 8 1 8 9
M  V30 9 1 9 10
M  V30 10 1 10 11
M  V30 11 1 10 12
M  V30 12 1 10 13
M  V30 13 3 13 14
M  V30 14 1 9 15
M  V30 15 2 15 16
M  V30 16 1 16 17
M  V30 17 2 5 18
M  V30 18 1 18 19
M  V30 19 2 19 20
M  V30 20 1 20 21
M  V30 21 1 21 22
M  V30 22 1 21 23
M  V30 23 1 21 24
M  V30 24 1 20 3
M  V30 25 1 16 7
M  V30 26 1 1 25
M  V30 27 1 1 26
M  V30 28 1 1 27
M  V30 29 1 2 28
M  V30 30 1 6 29
M  V30 31 1 8 30
M  V30 32 1 11 31
M  V30 33 1 11 32
M  V30 34 1 11 33
M  V30 35 1 12 34
M  V30 36 1 12 35
M  V30 37 1 12 36
M  V30 38 1 17 37
M  V30 39 1 17 38
M  V30 40 1 17 39
M  V30 41 1 19 40
M  V30 END BOND
M  V30 END CTAB
M  END
>  <Dataset>  (209) 
ChEMBL_Kinases

>  <Ligand_Instance>  (209) 
nan

>  <PDB_ID>  (209) 
nan

>  <Standardized_SMILES>  (209) 
CNc1nc(Nc2cn(C(C)(C)C#N)nc2C)ncc1C(F)(F)F

>  <Name>  (209) 
nan

>  <Pocket>  (209) 
nan

>  <ATP_Site>  (209) 
nan

>  <Peripheral>  (209) 
nan

>  <Num_H_Atoms_ProtBoundConf>  (209) 
nan

>  <Num_Resolved_Atoms>  (209) 
nan

>  <Num_Not_Resolved_Atoms>  (209) 
nan

$$$$
CHEMBL425650
     RDKit          3D

  0  0  0  0  0  0  0  0  0  0999 V3000
M  V30 BEGIN CTAB
M  V30 COUNTS 67 71 0 0 0
M  V30 BEGIN ATOM
M  V30 1 N -1.694756 4.666594 5.804360 0
M  V30 2 C -0.794089 4.904997 4.723222 0
M  V30 3 O 0.467228 4.887145 4.720931 0
M  V30 4 N -1.317990 5.211794 3.439802 0
M  V30 5 C -0.450282 5.456145 2.341033 0
M  V30 6 C -0.011104 6.740854 2.073415 0
M  V30 7 C 0.833778 7.008069 1.010704 0
M  V30 8 C 1.258928 5.978222 0.185680 0
M  V30 9 C 0.850899 4.682469 0.408417 0
M  V30 10 C -0.000949 4.473549 1.495789 0
M  V30 11 C 1.382861 3.717909 -0.544651 0
M  V30 12 C 1.221967 2.423961 -0.700270 0
M  V30 13 C 1.883832 1.667278 -1.751352 0
M  V30 14 C 1.062059 0.849588 -2.519920 0
M  V30 15 C 1.922134 0.166278 -3.390928 0
M  V30 16 C 1.703130 -0.867208 -4.433293 0
M  V30 17 C 2.429902 -1.049893 -5.607542 0
M  V30 18 C 2.050000 -2.099201 -6.393442 0
M  V30 19 C 1.024200 -2.976009 -6.123683 0
M  V30 20 C 0.297247 -2.786967 -4.942650 0
M  V30 21 C -0.771172 -3.742295 -4.670041 0
M  V30 22 O -0.930050 -4.693680 -5.448570 0
M  V30 23 N -1.653933 -3.661627 -3.560843 0
M  V30 24 C -2.717083 -4.562041 -3.219749 0
M  V30 25 C -3.413881 -4.087303 -1.959985 0
M  V30 26 N -2.504189 -3.999155 -0.844858 0
M  V30 27 C -2.007490 -5.242647 -0.360420 0
M  V30 28 C -2.248522 -5.434258 1.124496 0
M  V30 29 C -1.711680 -4.329295 1.971929 0
M  V30 30 C -1.899016 -3.017501 1.255547 0
M  V30 31 C -3.014724 -3.211910 0.230708 0
M  V30 32 C 0.648037 -1.729802 -4.109716 0
M  V30 33 C 3.225780 0.566460 -3.150587 0
M  V30 34 N 3.125173 1.477360 -2.143039 0
M  V30 35 C 2.192672 4.570246 -1.416026 0
M  V30 36 O 2.892491 4.301486 -2.422276 0
M  V30 37 N 2.116351 5.934107 -0.972738 0
M  V30 38 H -2.057531 5.052308 6.714788 0
M  V30 39 H -2.152473 3.745840 5.562666 0
M  V30 40 H -2.371314 5.256684 3.314586 0
M  V30 41 H -0.310256 7.594579 2.683953 0
M  V30 42 H 1.193202 8.016681 0.781601 0
M  V30 43 H -0.341913 3.463820 1.699687 0
M  V30 44 H 0.553358 1.956774 0.020485 0
M  V30 45 H 0.016158 0.622125 -2.611503 0
M  V30 46 H 3.215223 -0.325226 -5.748778 0
M  V30 47 H 2.638230 -2.214068 -7.304005 0
M  V30 48 H 0.854771 -3.756184 -6.854824 0
M  V30 49 H -1.488670 -2.830195 -2.928150 0
M  V30 50 H -3.471995 -4.581565 -4.030480 0
M  V30 51 H -2.372981 -5.605783 -3.076577 0
M  V30 52 H -4.269321 -4.731004 -1.704276 0
M  V30 53 H -3.834128 -3.070517 -2.105077 0
M  V30 54 H -2.446934 -6.109367 -0.881637 0
M  V30 55 H -0.906538 -5.247456 -0.517311 0
M  V30 56 H -3.344713 -5.594990 1.321483 0
M  V30 57 H -1.760183 -6.387654 1.400434 0
M  V30 58 H -2.357651 -4.276801 2.885852 0
M  V30 59 H -0.674313 -4.466647 2.322799 0
M  V30 60 H -0.960632 -2.705668 0.748265 0
M  V30 61 H -2.218479 -2.234533 1.943865 0
M  V30 62 H -3.282143 -2.169483 -0.083327 0
M  V30 63 H -3.863726 -3.679216 0.754638 0
M  V30 64 H 0.073682 -1.615294 -3.221440 0
M  V30 65 H 4.160938 0.274478 -3.610099 0
M  V30 66 H 3.940699 1.954439 -1.728581 0
M  V30 67 H 2.558747 6.803727 -1.345787 0
M  V30 END ATOM
M  V30 BEGIN BOND
M  V30 1 1 1 2
M  V30 2 2 2 3
M  V30 3 1 2 4
M  V30 4 1 4 5
M  V30 5 2 5 6
M  V30 6 1 6 7
M  V30 7 2 7 8
M  V30 8 1 8 9
M  V30 9 2 9 10
M  V30 10 1 9 11
M  V30 11 2 11 12
M  V30 12 1 12 13
M  V30 13 2 13 14
M  V30 14 1 14 15
M  V30 15 1 15 16
M  V30 16 2 16 17
M  V30 17 1 17 18
M  V30 18 2 18 19
M  V30 19 1 19 20
M  V30 20 1 20 21
M  V30 21 2 21 22
M  V30 22 1 21 23
M  V30 23 1 23 24
M  V30 24 1 24 25
M  V30 25 1 25 26
M  V30 26 1 26 27
M  V30 27 1 27 28
M  V30 28 1 28 29
M  V30 29 1 29 30
M  V30 30 1 30 31
M  V30 31 2 20 32
M  V30 32 2 15 33
M  V30 33 1 33 34
M  V30 34 1 11 35
M  V30 35 2 35 36
M  V30 36 1 35 37
M  V30 37 1 10 5
M  V30 38 1 34 13
M  V30 39 1 37 8
M  V30 40 1 32 16
M  V30 41 1 31 26
M  V30 42 1 1 38
M  V30 43 1 1 39
M  V30 44 1 4 40
M  V30 45 1 6 41
M  V30 46 1 7 42
M  V30 47 1 10 43
M  V30 48 1 12 44
M  V30 49 1 14 45
M  V30 50 1 17 46
M  V30 51 1 18 47
M  V30 52 1 19 48
M  V30 53 1 23 49
M  V30 54 1 24 50
M  V30 55 1 24 51
M  V30 56 1 25 52
M  V30 57 1 25 53
M  V30 58 1 27 54
M  V30 59 1 27 55
M  V30 60 1 28 56
M  V30 61 1 28 57
M  V30 62 1 29 58
M  V30 63 1 29 59
M  V30 64 1 30 60
M  V30 65 1 30 61
M  V30 66 1 31 62
M  V30 67 1 31 63
M  V30 68 1 32 64
M  V30 69 1 33 65
M  V30 70 1 34 66
M  V30 71 1 37 67
M  V30 END BOND
M  V30 END CTAB
M  END
>  <Dataset>  (210) 
ChEMBL_Kinases

>  <Ligand_Instance>  (210) 
nan

>  <PDB_ID>  (210) 
nan

>  <Standardized_SMILES>  (210) 
NC(=O)Nc1ccc2c(c1)/C(=C/c1cc(-c3cccc(C(=O)NCCN4CCCCC4)c3)c[nH]1)C(=O)N2

>  <Name>  (210) 
nan

>  <Pocket>  (210) 
nan

>  <ATP_Site>  (210) 
nan

>  <Peripheral>  (210) 
nan

>  <Num_H_Atoms_ProtBoundConf>  (210) 
nan

>  <Num_Resolved_Atoms>  (210) 
nan

>  <Num_Not_Resolved_Atoms>  (210) 
nan

$$$$
CHEMBL3680413
     RDKit          3D

  0  0  0  0  0  0  0  0  0  0999 V3000
M  V30 BEGIN CTAB
M  V30 COUNTS 64 67 0 0 0
M  V30 BEGIN ATOM
M  V30 1 C 5.266392 -3.646128 4.614252 0
M  V30 2 N 5.915251 -3.204987 3.405709 0
M  V30 3 C 6.510581 -4.269033 2.650173 0
M  V30 4 C 4.953614 -2.553727 2.528197 0
M  V30 5 C 4.525040 -1.260612 3.168345 0
M  V30 6 O 3.605417 -0.616722 2.355259 0
M  V30 7 C 3.706181 -0.111457 1.099432 0
M  V30 8 C 4.695825 -0.005009 0.152607 0
M  V30 9 C 4.557886 0.562414 -1.091084 0
M  V30 10 C 3.321438 1.072489 -1.425366 0
M  V30 11 C 2.263758 1.014237 -0.542665 0
M  V30 12 C 0.976675 1.559689 -0.934987 0
M  V30 13 O 0.000259 1.537552 -0.139450 0
M  V30 14 N 0.720201 2.138401 -2.193246 0
M  V30 15 C -0.626416 2.587200 -2.299452 0
M  V30 16 C -1.076995 3.850002 -1.970129 0
M  V30 17 C -2.426154 4.136878 -2.126447 0
M  V30 18 C -3.269840 3.155654 -2.603285 0
M  V30 19 C -2.807564 1.877069 -2.935393 0
M  V30 20 C -3.933178 1.036308 -3.427599 0
M  V30 21 N -4.604342 0.417495 -2.303641 0
M  V30 22 C -4.046859 -0.492059 -1.377719 0
M  V30 23 N -2.785513 -0.926111 -1.412214 0
M  V30 24 C -2.234805 -1.789116 -0.548658 0
M  V30 25 N -2.952288 -2.302541 0.463394 0
M  V30 26 C -4.234074 -1.910625 0.563015 0
M  V30 27 C -4.988656 -2.424060 1.593584 0
M  V30 28 C -4.368151 -3.361521 2.521566 0
M  V30 29 N -5.086582 -3.929500 3.608922 0
M  V30 30 O -3.188390 -3.736987 2.446586 0
M  V30 31 C -6.309033 -2.089764 1.787412 0
M  V30 32 C -6.855446 -1.204471 0.892328 0
M  V30 33 C -6.095605 -0.695488 -0.134978 0
M  V30 34 C -4.774080 -1.022753 -0.338489 0
M  V30 35 C -1.477525 1.613149 -2.775610 0
M  V30 36 C 2.469455 0.426552 0.700270 0
M  V30 37 H 4.148619 -3.742283 4.508557 0
M  V30 38 H 5.676654 -4.626093 4.939373 0
M  V30 39 H 5.422969 -2.870222 5.395025 0
M  V30 40 H 5.770955 -4.646117 1.901782 0
M  V30 41 H 7.370406 -3.835801 2.087514 0
M  V30 42 H 6.881373 -5.107902 3.273892 0
M  V30 43 H 5.469314 -2.417057 1.569691 0
M  V30 44 H 4.024762 -3.167869 2.428230 0
M  V30 45 H 5.410151 -0.623443 3.414297 0
M  V30 46 H 3.991618 -1.557773 4.118570 0
M  V30 47 H 5.638756 -0.406622 0.478571 0
M  V30 48 H 5.445315 0.559452 -1.707877 0
M  V30 49 H 3.287564 1.501773 -2.416311 0
M  V30 50 H 1.466276 2.202330 -2.919470 0
M  V30 51 H -0.322274 4.532902 -1.606809 0
M  V30 52 H -2.728561 5.137674 -1.855420 0
M  V30 53 H -4.303766 3.523776 -2.674676 0
M  V30 54 H -3.515197 0.164522 -4.020194 0
M  V30 55 H -4.584362 1.567987 -4.120596 0
M  V30 56 H -5.586362 0.734843 -2.255193 0
M  V30 57 H -1.199014 -2.110334 -0.623647 0
M  V30 58 H -5.407324 -3.618406 4.553731 0
M  V30 59 H -5.474266 -3.791217 4.556704 0
M  V30 60 H -6.844120 -2.529903 2.618298 0
M  V30 61 H -7.897019 -0.936172 1.039058 0
M  V30 62 H -6.618706 -0.015335 -0.773539 0
M  V30 63 H -1.212054 0.618666 -3.060132 0
M  V30 64 H 1.552279 0.440825 1.313650 0
M  V30 END ATOM
M  V30 BEGIN BOND
M  V30 1 1 1 2
M  V30 2 1 2 3
M  V30 3 1 2 4
M  V30 4 1 4 5
M  V30 5 1 5 6
M  V30 6 1 6 7
M  V30 7 2 7 8
M  V30 8 1 8 9
M  V30 9 2 9 10
M  V30 10 1 10 11
M  V30 11 1 11 12
M  V30 12 2 12 13
M  V30 13 1 12 14
M  V30 14 1 14 15
M  V30 15 2 15 16
M  V30 16 1 16 17
M  V30 17 2 17 18
M  V30 18 1 18 19
M  V30 19 1 19 20
M  V30 20 1 20 21
M  V30 21 1 21 22
M  V30 22 2 22 23
M  V30 23 1 23 24
M  V30 24 2 24 25
M  V30 25 1 25 26
M  V30 26 2 26 27
M  V30 27 1 27 28
M  V30 28 1 28 29
M  V30 29 2 28 30
M  V30 30 1 27 31
M  V30 31 2 31 32
M  V30 32 1 32 33
M  V30 33 2 33 34
M  V30 34 2 19 35
M  V30 35 2 11 36
M  V30 36 1 36 7
M  V30 37 1 35 15
M  V30 38 1 34 22
M  V30 39 1 34 26
M  V30 40 1 1 37
M  V30 41 1 1 38
M  V30 42 1 1 39
M  V30 43 1 3 40
M  V30 44 1 3 41
M  V30 45 1 3 42
M  V30 46 1 4 43
M  V30 47 1 4 44
M  V30 48 1 5 45
M  V30 49 1 5 46
M  V30 50 1 8 47
M  V30 51 1 9 48
M  V30 52 1 10 49
M  V30 53 1 14 50
M  V30 54 1 16 51
M  V30 55 1 17 52
M  V30 56 1 18 53
M  V30 57 1 20 54
M  V30 58 1 20 55
M  V30 59 1 21 56
M  V30 60 1 24 57
M  V30 61 1 29 58
M  V30 62 1 29 59
M  V30 63 1 31 60
M  V30 64 1 32 61
M  V30 65 1 33 62
M  V30 66 1 35 63
M  V30 67 1 36 64
M  V30 END BOND
M  V30 END CTAB
M  END
>  <Dataset>  (211) 
ChEMBL_Kinases

>  <Ligand_Instance>  (211) 
nan

>  <PDB_ID>  (211) 
nan

>  <Standardized_SMILES>  (211) 
CN(C)CCOc1cccc(C(=O)Nc2cccc(CNc3ncnc4c(C(N)=O)cccc34)c2)c1

>  <Name>  (211) 
nan

>  <Pocket>  (211) 
nan

>  <ATP_Site>  (211) 
nan

>  <Peripheral>  (211) 
nan

>  <Num_H_Atoms_ProtBoundConf>  (211) 
nan

>  <Num_Resolved_Atoms>  (211) 
nan

>  <Num_Not_Resolved_Atoms>  (211) 
nan

$$$$
CHEMBL3680412
     RDKit          3D

  0  0  0  0  0  0  0  0  0  0999 V3000
M  V30 BEGIN CTAB
M  V30 COUNTS 60 63 0 0 0
M  V30 BEGIN ATOM
M  V30 1 C 4.110219 -1.559054 4.900055 0
M  V30 2 N 3.730592 -0.280998 4.276392 0
M  V30 3 C 2.390632 0.079189 4.710667 0
M  V30 4 C 3.738186 -0.524854 2.859685 0
M  V30 5 C 3.374689 0.660608 2.039998 0
M  V30 6 C 4.286433 1.565105 1.559155 0
M  V30 7 C 3.996168 2.676801 0.793728 0
M  V30 8 C 2.652373 2.916949 0.469032 0
M  V30 9 C 1.718444 2.017676 0.942687 0
M  V30 10 C 0.264133 2.101675 0.676378 0
M  V30 11 O -0.621882 1.345678 1.203381 0
M  V30 12 N -0.336366 3.050572 -0.218581 0
M  V30 13 C -1.752418 2.761911 -0.167880 0
M  V30 14 C -2.732821 3.342273 0.612566 0
M  V30 15 C -4.018453 2.866566 0.485453 0
M  V30 16 C -4.361094 1.849326 -0.374781 0
M  V30 17 C -3.401794 1.250380 -1.165740 0
M  V30 18 C -3.651688 0.113929 -2.115908 0
M  V30 19 N -3.490675 -1.165108 -1.519060 0
M  V30 20 C -3.337334 -2.431097 -0.922458 0
M  V30 21 N -4.006755 -3.014710 0.079488 0
M  V30 22 C -3.660729 -4.236816 0.481547 0
M  V30 23 N -2.658581 -4.900499 -0.092220 0
M  V30 24 C -1.922102 -4.422332 -1.096803 0
M  V30 25 C -0.891818 -5.110768 -1.689097 0
M  V30 26 C -0.720251 -6.405656 -1.060225 0
M  V30 27 N 0.315981 -7.169544 -1.722900 0
M  V30 28 O -0.686256 -7.451273 -0.437947 0
M  V30 29 C -0.147564 -4.618345 -2.716596 0
M  V30 30 C -0.482822 -3.363287 -3.148316 0
M  V30 31 C -1.512945 -2.683700 -2.550387 0
M  V30 32 C -2.294960 -3.139240 -1.508229 0
M  V30 33 C -2.083622 1.722356 -1.051968 0
M  V30 34 C 2.068250 0.908151 1.714857 0
M  V30 35 H 3.659730 -1.611342 5.888799 0
M  V30 36 H 3.888245 -2.418538 4.233801 0
M  V30 37 H 5.210577 -1.534174 5.005252 0
M  V30 38 H 1.653583 -0.661321 4.352669 0
M  V30 39 H 2.447127 0.108799 5.826457 0
M  V30 40 H 2.107251 1.085971 4.379764 0
M  V30 41 H 3.029133 -1.356232 2.569481 0
M  V30 42 H 4.744900 -0.914198 2.556341 0
M  V30 43 H 5.327757 1.360207 1.821071 0
M  V30 44 H 4.726282 3.380012 0.423338 0
M  V30 45 H 2.291159 3.745079 -0.117550 0
M  V30 46 H 0.289319 3.724018 -0.707373 0
M  V30 47 H -2.357648 4.126418 1.247131 0
M  V30 48 H -4.757658 3.343733 1.108769 0
M  V30 49 H -5.372097 1.489094 -0.455945 0
M  V30 50 H -4.630812 0.276163 -2.594272 0
M  V30 51 H -2.920208 0.272294 -2.967416 0
M  V30 52 H -4.310779 -0.859784 -0.906019 0
M  V30 53 H -4.271147 -4.611532 1.298181 0
M  V30 54 H 1.269133 -6.890654 -2.112012 0
M  V30 55 H 1.043887 -7.711332 -2.189611 0
M  V30 56 H 0.630300 -5.216184 -3.115332 0
M  V30 57 H 0.094792 -2.940099 -3.966455 0
M  V30 58 H -1.691415 -1.709411 -2.961878 0
M  V30 59 H -1.358026 1.229625 -1.688462 0
M  V30 60 H 1.340120 0.196561 2.090169 0
M  V30 END ATOM
M  V30 BEGIN BOND
M  V30 1 1 1 2
M  V30 2 1 2 3
M  V30 3 1 2 4
M  V30 4 1 4 5
M  V30 5 2 5 6
M  V30 6 1 6 7
M  V30 7 2 7 8
M  V30 8 1 8 9
M  V30 9 1 9 10
M  V30 10 2 10 11
M  V30 11 1 10 12
M  V30 12 1 12 13
M  V30 13 2 13 14
M  V30 14 1 14 15
M  V30 15 2 15 16
M  V30 16 1 16 17
M  V30 17 1 17 18
M  V30 18 1 18 19
M  V30 19 1 19 20
M  V30 20 2 20 21
M  V30 21 1 21 22
M  V30 22 2 22 23
M  V30 23 1 23 24
M  V30 24 2 24 25
M  V30 25 1 25 26
M  V30 26 1 26 27
M  V30 27 2 26 28
M  V30 28 1 25 29
M  V30 29 2 29 30
M  V30 30 1 30 31
M  V30 31 2 31 32
M  V30 32 2 17 33
M  V30 33 2 9 34
M  V30 34 1 34 5
M  V30 35 1 33 13
M  V30 36 1 32 20
M  V30 37 1 32 24
M  V30 38 1 1 35
M  V30 39 1 1 36
M  V30 40 1 1 37
M  V30 41 1 3 38
M  V30 42 1 3 39
M  V30 43 1 3 40
M  V30 44 1 4 41
M  V30 45 1 4 42
M  V30 46 1 6 43
M  V30 47 1 7 44
M  V30 48 1 8 45
M  V30 49 1 12 46
M  V30 50 1 14 47
M  V30 51 1 15 48
M  V30 52 1 16 49
M  V30 53 1 18 50
M  V30 54 1 18 51
M  V30 55 1 19 52
M  V30 56 1 22 53
M  V30 57 1 27 54
M  V30 58 1 27 55
M  V30 59 1 29 56
M  V30 60 1 30 57
M  V30 61 1 31 58
M  V30 62 1 33 59
M  V30 63 1 34 60
M  V30 END BOND
M  V30 END CTAB
M  END
>  <Dataset>  (212) 
ChEMBL_Kinases

>  <Ligand_Instance>  (212) 
nan

>  <PDB_ID>  (212) 
nan

>  <Standardized_SMILES>  (212) 
CN(C)Cc1cccc(C(=O)Nc2cccc(CNc3ncnc4c(C(N)=O)cccc34)c2)c1

>  <Name>  (212) 
nan

>  <Pocket>  (212) 
nan

>  <ATP_Site>  (212) 
nan

>  <Peripheral>  (212) 
nan

>  <Num_H_Atoms_ProtBoundConf>  (212) 
nan

>  <Num_Resolved_Atoms>  (212) 
nan

>  <Num_Not_Resolved_Atoms>  (212) 
nan

$$$$
CHEMBL3680407
     RDKit          3D

  0  0  0  0  0  0  0  0  0  0999 V3000
M  V30 BEGIN CTAB
M  V30 COUNTS 51 53 0 0 0
M  V30 BEGIN ATOM
M  V30 1 C -0.740946 -3.303475 5.017399 0
M  V30 2 N -0.438718 -2.252622 4.067137 0
M  V30 3 C -0.575761 -0.984152 4.756560 0
M  V30 4 C 0.937322 -2.348855 3.590641 0
M  V30 5 C 1.249022 -1.269780 2.613644 0
M  V30 6 C 0.425093 -1.233629 1.380097 0
M  V30 7 N 0.678788 -0.178616 0.456336 0
M  V30 8 C 0.926929 0.852788 -0.446799 0
M  V30 9 N 2.012162 1.187058 -1.119462 0
M  V30 10 C 2.133408 2.206879 -1.971520 0
M  V30 11 N 1.029663 2.936388 -2.132717 0
M  V30 12 C -0.122587 2.697418 -1.509966 0
M  V30 13 C -1.200046 3.512411 -1.747995 0
M  V30 14 C -1.216272 4.647929 -2.639402 0
M  V30 15 N 0.077644 4.836576 -3.262192 0
M  V30 16 O -1.371770 5.631623 -3.359814 0
M  V30 17 C -2.421561 3.320886 -1.136105 0
M  V30 18 C -2.547500 2.249396 -0.241734 0
M  V30 19 C -1.433199 1.490248 -0.061709 0
M  V30 20 C -0.208717 1.642009 -0.643145 0
M  V30 21 C 0.362711 -2.499090 0.596961 0
M  V30 22 C -0.707093 -2.532946 -0.311891 0
M  V30 23 C -0.948370 -3.580146 -1.159627 0
M  V30 24 C -0.113722 -4.675287 -1.144198 0
M  V30 25 C 0.927287 -4.660449 -0.271509 0
M  V30 26 N 1.831189 -5.747834 -0.194280 0 CHG=1 VAL=4
M  V30 27 O 2.797955 -5.780162 0.589912 0
M  V30 28 O 1.657416 -6.830932 -1.011051 0 CHG=-1 VAL=1
M  V30 29 C 1.149623 -3.596736 0.570235 0
M  V30 30 H 0.102766 -3.397020 5.759498 0
M  V30 31 H -1.606579 -2.937064 5.608802 0
M  V30 32 H -0.954053 -4.269686 4.535070 0
M  V30 33 H -1.317049 -1.124839 5.566079 0
M  V30 34 H 0.389004 -0.604485 5.132826 0
M  V30 35 H -1.041948 -0.242859 4.057743 0
M  V30 36 H 1.639484 -2.174832 4.465846 0
M  V30 37 H 1.090075 -3.374881 3.303127 0
M  V30 38 H 1.047826 -0.294565 3.150173 0
M  V30 39 H 2.343771 -1.238228 2.425388 0
M  V30 40 H -0.654378 -1.149231 1.788875 0
M  V30 41 H 1.665161 -0.607728 0.445986 0
M  V30 42 H 3.103871 2.327888 -2.433055 0
M  V30 43 H 1.007201 4.972343 -3.715303 0
M  V30 44 H 1.107355 4.969339 -3.362168 0
M  V30 45 H -3.263921 3.969369 -1.329874 0
M  V30 46 H -3.478803 2.048105 0.268830 0
M  V30 47 H -1.558967 0.676896 0.627967 0
M  V30 48 H -1.430776 -1.717487 -0.408196 0
M  V30 49 H -1.773554 -3.597594 -1.855949 0
M  V30 50 H -0.297194 -5.502823 -1.807695 0
M  V30 51 H 1.978462 -3.594223 1.226886 0
M  V30 END ATOM
M  V30 BEGIN BOND
M  V30 1 1 1 2
M  V30 2 1 2 3
M  V30 3 1 2 4
M  V30 4 1 4 5
M  V30 5 1 5 6
M  V30 6 1 6 7
M  V30 7 1 7 8
M  V30 8 2 8 9
M  V30 9 1 9 10
M  V30 10 2 10 11
M  V30 11 1 11 12
M  V30 12 2 12 13
M  V30 13 1 13 14
M  V30 14 1 14 15
M  V30 15 2 14 16
M  V30 16 1 13 17
M  V30 17 2 17 18
M  V30 18 1 18 19
M  V30 19 2 19 20
M  V30 20 1 6 21
M  V30 21 2 21 22
M  V30 22 1 22 23
M  V30 23 2 23 24
M  V30 24 1 24 25
M  V30 25 1 25 26
M  V30 26 2 26 27
M  V30 27 1 26 28
M  V30 28 2 25 29
M  V30 29 1 20 8
M  V30 30 1 29 21
M  V30 31 1 20 12
M  V30 32 1 1 30
M  V30 33 1 1 31
M  V30 34 1 1 32
M  V30 35 1 3 33
M  V30 36 1 3 34
M  V30 37 1 3 35
M  V30 38 1 4 36
M  V30 39 1 4 37
M  V30 40 1 5 38
M  V30 41 1 5 39
M  V30 42 1 6 40
M  V30 43 1 7 41
M  V30 44 1 10 42
M  V30 45 1 15 43
M  V30 46 1 15 44
M  V30 47 1 17 45
M  V30 48 1 18 46
M  V30 49 1 19 47
M  V30 50 1 22 48
M  V30 51 1 23 49
M  V30 52 1 24 50
M  V30 53 1 29 51
M  V30 END BOND
M  V30 END CTAB
M  END
>  <Dataset>  (213) 
ChEMBL_Kinases

>  <Ligand_Instance>  (213) 
nan

>  <PDB_ID>  (213) 
nan

>  <Standardized_SMILES>  (213) 
CN(C)CCC(Nc1ncnc2c(C(N)=O)cccc12)c1cccc([N+](=O)[O-])c1

>  <Name>  (213) 
nan

>  <Pocket>  (213) 
nan

>  <ATP_Site>  (213) 
nan

>  <Peripheral>  (213) 
nan

>  <Num_H_Atoms_ProtBoundConf>  (213) 
nan

>  <Num_Resolved_Atoms>  (213) 
nan

>  <Num_Not_Resolved_Atoms>  (213) 
nan

$$$$
CHEMBL3680406
     RDKit          3D

  0  0  0  0  0  0  0  0  0  0999 V3000
M  V30 BEGIN CTAB
M  V30 COUNTS 61 64 0 0 0
M  V30 BEGIN ATOM
M  V30 1 C 3.813123 -2.069412 4.756428 0
M  V30 2 O 3.798289 -1.693570 3.417895 0
M  V30 3 C 3.050122 -2.613585 2.689367 0
M  V30 4 C 3.007192 -2.238716 1.214545 0
M  V30 5 C 2.383598 -0.891146 1.076908 0
M  V30 6 N 2.293992 -0.432647 -0.317512 0
M  V30 7 C 1.718010 0.833481 -0.605960 0
M  V30 8 N 1.260006 1.595211 0.400833 0
M  V30 9 C 0.699839 2.803231 0.218336 0
M  V30 10 N 0.573397 3.309301 -1.017655 0
M  V30 11 C 1.014633 2.590866 -2.067125 0
M  V30 12 C 0.873312 3.136474 -3.339941 0
M  V30 13 C 0.280482 4.426701 -3.612609 0
M  V30 14 N -0.175456 5.151027 -2.479169 0
M  V30 15 O 0.160525 4.906809 -4.767410 0
M  V30 16 C 1.343700 2.354603 -4.371958 0
M  V30 17 C 1.922965 1.110728 -4.210882 0
M  V30 18 C 2.039646 0.618607 -2.946991 0
M  V30 19 C 1.588766 1.351467 -1.873627 0
M  V30 20 C 1.057819 -0.779946 1.696860 0
M  V30 21 C 0.722531 0.049833 2.669376 0
M  V30 22 C -0.478513 0.364214 3.448150 0
M  V30 23 C -1.625911 -0.481092 3.027322 0
M  V30 24 C -1.228432 -1.401605 1.939986 0
M  V30 25 N -2.349929 -2.192334 1.569615 0
M  V30 26 C -2.580652 -3.219661 0.631408 0
M  V30 27 O -1.549881 -3.522883 -0.054326 0
M  V30 28 C -3.777488 -3.973384 0.325799 0
M  V30 29 C -3.720255 -4.928341 -0.664144 0
M  V30 30 C -4.784205 -5.706423 -1.046446 0
M  V30 31 C -5.989366 -5.531119 -0.408298 0
M  V30 32 C -6.138872 -4.598935 0.593866 0
M  V30 33 C -5.018746 -3.867365 0.907521 0
M  V30 34 F -5.212026 -2.966703 1.894470 0
M  V30 35 C -0.084699 -1.594889 1.305978 0
M  V30 36 H 2.822383 -2.119853 5.227040 0
M  V30 37 H 4.267392 -3.072416 4.896178 0
M  V30 38 H 4.409690 -1.343216 5.340929 0
M  V30 39 H 2.039465 -2.652149 3.142693 0
M  V30 40 H 3.523488 -3.635358 2.727347 0
M  V30 41 H 4.075118 -2.175788 0.901404 0
M  V30 42 H 2.555654 -3.020193 0.601171 0
M  V30 43 H 3.093834 -0.164104 1.550368 0
M  V30 44 H 2.680452 -1.111801 -0.997330 0
M  V30 45 H 0.388143 3.270938 1.159302 0
M  V30 46 H -0.041047 5.792095 -1.673704 0
M  V30 47 H -1.157277 4.833443 -2.539022 0
M  V30 48 H 1.237945 2.770399 -5.358244 0
M  V30 49 H 2.265773 0.561957 -5.071048 0
M  V30 50 H 2.487321 -0.341096 -2.835701 0
M  V30 51 H 1.512002 0.722135 3.052816 0
M  V30 52 H -0.246036 0.049170 4.518189 0
M  V30 53 H -0.720077 1.457207 3.436976 0
M  V30 54 H -2.091935 -1.042495 3.879225 0
M  V30 55 H -2.395090 0.198084 2.558593 0
M  V30 56 H -3.288742 -2.066565 2.042400 0
M  V30 57 H -2.811520 -5.146852 -1.232732 0
M  V30 58 H -4.730907 -6.441537 -1.811953 0
M  V30 59 H -6.835601 -6.136334 -0.698677 0
M  V30 60 H -7.087194 -4.465494 1.091682 0
M  V30 61 H 0.131430 -2.279594 0.526920 0
M  V30 END ATOM
M  V30 BEGIN BOND
M  V30 1 1 1 2
M  V30 2 1 2 3
M  V30 3 1 3 4
M  V30 4 1 4 5
M  V30 5 1 5 6
M  V30 6 1 6 7
M  V30 7 2 7 8
M  V30 8 1 8 9
M  V30 9 2 9 10
M  V30 10 1 10 11
M  V30 11 2 11 12
M  V30 12 1 12 13
M  V30 13 1 13 14
M  V30 14 2 13 15
M  V30 15 1 12 16
M  V30 16 2 16 17
M  V30 17 1 17 18
M  V30 18 2 18 19
M  V30 19 1 5 20
M  V30 20 2 20 21
M  V30 21 1 21 22
M  V30 22 1 22 23
M  V30 23 1 23 24
M  V30 24 1 24 25
M  V30 25 1 25 26
M  V30 26 2 26 27
M  V30 27 1 26 28
M  V30 28 2 28 29
M  V30 29 1 29 30
M  V30 30 2 30 31
M  V30 31 1 31 32
M  V30 32 2 32 33
M  V30 33 1 33 34
M  V30 34 2 24 35
M  V30 35 1 19 7
M  V30 36 1 35 20
M  V30 37 1 19 11
M  V30 38 1 33 28
M  V30 39 1 1 36
M  V30 40 1 1 37
M  V30 41 1 1 38
M  V30 42 1 3 39
M  V30 43 1 3 40
M  V30 44 1 4 41
M  V30 45 1 4 42
M  V30 46 1 5 43
M  V30 47 1 6 44
M  V30 48 1 9 45
M  V30 49 1 14 46
M  V30 50 1 14 47
M  V30 51 1 16 48
M  V30 52 1 17 49
M  V30 53 1 18 50
M  V30 54 1 21 51
M  V30 55 1 22 52
M  V30 56 1 22 53
M  V30 57 1 23 54
M  V30 58 1 23 55
M  V30 59 1 25 56
M  V30 60 1 29 57
M  V30 61 1 30 58
M  V30 62 1 31 59
M  V30 63 1 32 60
M  V30 64 1 35 61
M  V30 END BOND
M  V30 END CTAB
M  END
>  <Dataset>  (214) 
ChEMBL_Kinases

>  <Ligand_Instance>  (214) 
nan

>  <PDB_ID>  (214) 
nan

>  <Standardized_SMILES>  (214) 
COCCC(Nc1ncnc2c(C(N)=O)cccc12)C1=CCCC(NC(=O)c2ccccc2F)=C1

>  <Name>  (214) 
nan

>  <Pocket>  (214) 
nan

>  <ATP_Site>  (214) 
nan

>  <Peripheral>  (214) 
nan

>  <Num_H_Atoms_ProtBoundConf>  (214) 
nan

>  <Num_Resolved_Atoms>  (214) 
nan

>  <Num_Not_Resolved_Atoms>  (214) 
nan

$$$$
CHEMBL3680405
     RDKit          3D

  0  0  0  0  0  0  0  0  0  0999 V3000
M  V30 BEGIN CTAB
M  V30 COUNTS 37 39 0 0 0
M  V30 BEGIN ATOM
M  V30 1 N -1.631379 -3.449994 3.968788 0
M  V30 2 C -0.729213 -4.340130 3.280594 0
M  V30 3 O -0.410105 -5.469223 3.689712 0
M  V30 4 C -0.159382 -3.870655 2.019085 0
M  V30 5 C 0.714395 -4.733070 1.353022 0
M  V30 6 C 1.269199 -4.303608 0.146915 0
M  V30 7 C 0.944122 -3.061818 -0.343497 0
M  V30 8 C 0.089080 -2.204984 0.297935 0
M  V30 9 C -0.174431 -0.977886 -0.276384 0
M  V30 10 N 0.366818 -0.509270 -1.492775 0
M  V30 11 C -0.010951 0.807313 -1.961417 0
M  V30 12 C 0.424614 1.772658 -0.891527 0
M  V30 13 C -0.497059 2.499955 -0.332096 0
M  V30 14 C -0.061185 3.418169 0.689786 0
M  V30 15 Cl -1.188345 4.453630 1.522807 0
M  V30 16 C 1.235694 3.411950 0.939305 0
M  V30 17 C 2.329710 2.625551 0.353581 0
M  V30 18 C 1.892087 1.665806 -0.710505 0
M  V30 19 N -1.023684 -0.219672 0.435064 0
M  V30 20 C -1.566252 -0.621703 1.600173 0
M  V30 21 N -1.307273 -1.819824 2.158306 0
M  V30 22 C -0.458993 -2.631292 1.491057 0
M  V30 23 H -2.593011 -3.201601 3.695128 0
M  V30 24 H -1.064449 -3.135206 4.793375 0
M  V30 25 H 0.967698 -5.709883 1.742529 0
M  V30 26 H 1.949024 -4.967599 -0.376909 0
M  V30 27 H 1.408174 -2.802425 -1.272301 0
M  V30 28 H 1.029204 -1.025535 -2.108243 0
M  V30 29 H 0.538476 1.104987 -2.869819 0
M  V30 30 H -1.078936 0.892738 -2.185300 0
M  V30 31 H -1.527089 2.402375 -0.634796 0
M  V30 32 H 1.636074 4.078507 1.697695 0
M  V30 33 H 2.855673 2.068652 1.159843 0
M  V30 34 H 3.064503 3.334307 -0.101131 0
M  V30 35 H 2.417559 1.832545 -1.679792 0
M  V30 36 H 2.179962 0.631550 -0.413519 0
M  V30 37 H -2.232681 0.098262 2.058280 0
M  V30 END ATOM
M  V30 BEGIN BOND
M  V30 1 1 1 2
M  V30 2 2 2 3
M  V30 3 1 2 4
M  V30 4 2 4 5
M  V30 5 1 5 6
M  V30 6 2 6 7
M  V30 7 1 7 8
M  V30 8 2 8 9
M  V30 9 1 9 10
M  V30 10 1 10 11
M  V30 11 1 11 12
M  V30 12 2 12 13
M  V30 13 1 13 14
M  V30 14 1 14 15
M  V30 15 2 14 16
M  V30 16 1 16 17
M  V30 17 1 17 18
M  V30 18 1 9 19
M  V30 19 2 19 20
M  V30 20 1 20 21
M  V30 21 2 21 22
M  V30 22 1 22 4
M  V30 23 1 22 8
M  V30 24 1 18 12
M  V30 25 1 1 23
M  V30 26 1 1 24
M  V30 27 1 5 25
M  V30 28 1 6 26
M  V30 29 1 7 27
M  V30 30 1 10 28
M  V30 31 1 11 29
M  V30 32 1 11 30
M  V30 33 1 13 31
M  V30 34 1 16 32
M  V30 35 1 17 33
M  V30 36 1 17 34
M  V30 37 1 18 35
M  V30 38 1 18 36
M  V30 39 1 20 37
M  V30 END BOND
M  V30 END CTAB
M  END
>  <Dataset>  (215) 
ChEMBL_Kinases

>  <Ligand_Instance>  (215) 
nan

>  <PDB_ID>  (215) 
nan

>  <Standardized_SMILES>  (215) 
NC(=O)c1cccc2c(NCC3=CC(Cl)=CCC3)ncnc12

>  <Name>  (215) 
nan

>  <Pocket>  (215) 
nan

>  <ATP_Site>  (215) 
nan

>  <Peripheral>  (215) 
nan

>  <Num_H_Atoms_ProtBoundConf>  (215) 
nan

>  <Num_Resolved_Atoms>  (215) 
nan

>  <Num_Not_Resolved_Atoms>  (215) 
nan

$$$$
CHEMBL3187723
     RDKit          3D

  0  0  0  0  0  0  0  0  0  0999 V3000
M  V30 BEGIN CTAB
M  V30 COUNTS 42 44 0 0 0
M  V30 BEGIN ATOM
M  V30 1 C -1.826974 -5.202839 0.138669 0
M  V30 2 N -1.266678 -4.327514 -0.897822 0
M  V30 3 C -1.152713 -4.671015 -2.190371 0
M  V30 4 N -0.602914 -3.634235 -2.841736 0
M  V30 5 C -0.356373 -2.618166 -1.992925 0
M  V30 6 C 0.180549 -1.326594 -2.051559 0
M  V30 7 F 0.539979 -1.035681 -3.344032 0
M  V30 8 C 0.284010 -0.522960 -0.911841 0
M  V30 9 N 0.857551 0.714594 -1.192340 0
M  V30 10 C 2.042249 1.460483 -1.172517 0
M  V30 11 C 2.122687 2.658726 -0.452821 0
M  V30 12 C 3.290270 3.384857 -0.423543 0
M  V30 13 C 4.373865 2.925621 -1.104198 0
M  V30 14 Br 5.974745 3.962253 -1.036392 0
M  V30 15 C 4.364942 1.756457 -1.831701 0
M  V30 16 C 3.166729 1.034895 -1.847267 0
M  V30 17 F 3.229333 -0.090476 -2.568155 0
M  V30 18 C -0.163643 -1.048190 0.275790 0
M  V30 19 C -0.050937 -0.184870 1.442830 0
M  V30 20 O 0.362616 0.982365 1.626315 0
M  V30 21 N -0.464065 -0.639942 2.719428 0
M  V30 22 O -0.254178 0.354535 3.634910 0
M  V30 23 C -0.647459 -0.104234 4.891016 0
M  V30 24 C -0.460868 0.955416 5.955129 0
M  V30 25 O -0.844789 0.524215 7.224255 0
M  V30 26 C -0.698997 -2.303840 0.400355 0
M  V30 27 C -0.780937 -3.061463 -0.749142 0
M  V30 28 H -1.255460 -5.105771 1.098688 0
M  V30 29 H -2.877652 -4.965247 0.376907 0
M  V30 30 H -1.711829 -6.256989 -0.193957 0
M  V30 31 H -1.452223 -5.616212 -2.622848 0
M  V30 32 H 0.098118 1.334612 -1.568711 0
M  V30 33 H 1.286915 3.059304 0.098808 0
M  V30 34 H 3.330540 4.313975 0.141971 0
M  V30 35 H 5.260404 1.443436 -2.352708 0
M  V30 36 H -0.865318 -1.584650 2.934378 0
M  V30 37 H -0.142199 -1.048400 5.172342 0
M  V30 38 H -1.737023 -0.321412 4.871560 0
M  V30 39 H -1.040431 1.865951 5.747695 0
M  V30 40 H 0.622650 1.173285 6.000980 0
M  V30 41 H -1.814146 0.706714 7.305898 0
M  V30 42 H -1.055451 -2.733540 1.320377 0
M  V30 END ATOM
M  V30 BEGIN BOND
M  V30 1 1 1 2
M  V30 2 1 2 3
M  V30 3 2 3 4
M  V30 4 1 4 5
M  V30 5 2 5 6
M  V30 6 1 6 7
M  V30 7 1 6 8
M  V30 8 1 8 9
M  V30 9 1 9 10
M  V30 10 2 10 11
M  V30 11 1 11 12
M  V30 12 2 12 13
M  V30 13 1 13 14
M  V30 14 1 13 15
M  V30 15 2 15 16
M  V30 16 1 16 17
M  V30 17 2 8 18
M  V30 18 1 18 19
M  V30 19 2 19 20
M  V30 20 1 19 21
M  V30 21 1 21 22
M  V30 22 1 22 23
M  V30 23 1 23 24
M  V30 24 1 24 25
M  V30 25 1 18 26
M  V30 26 2 26 27
M  V30 27 1 27 2
M  V30 28 1 27 5
M  V30 29 1 16 10
M  V30 30 1 1 28
M  V30 31 1 1 29
M  V30 32 1 1 30
M  V30 33 1 3 31
M  V30 34 1 9 32
M  V30 35 1 11 33
M  V30 36 1 12 34
M  V30 37 1 15 35
M  V30 38 1 21 36
M  V30 39 1 23 37
M  V30 40 1 23 38
M  V30 41 1 24 39
M  V30 42 1 24 40
M  V30 43 1 25 41
M  V30 44 1 26 42
M  V30 END BOND
M  V30 END CTAB
M  END
>  <Dataset>  (216) 
ChEMBL_Kinases

>  <Ligand_Instance>  (216) 
nan

>  <PDB_ID>  (216) 
nan

>  <Standardized_SMILES>  (216) 
Cn1cnc2c(F)c(Nc3ccc(Br)cc3F)c(C(=O)NOCCO)cc21

>  <Name>  (216) 
BINIMETINIB

>  <Pocket>  (216) 
nan

>  <ATP_Site>  (216) 
nan

>  <Peripheral>  (216) 
nan

>  <Num_H_Atoms_ProtBoundConf>  (216) 
nan

>  <Num_Resolved_Atoms>  (216) 
nan

>  <Num_Not_Resolved_Atoms>  (216) 
nan

$$$$
CHEMBL3680404
     RDKit          3D

  0  0  0  0  0  0  0  0  0  0999 V3000
M  V30 BEGIN CTAB
M  V30 COUNTS 61 65 0 0 0
M  V30 BEGIN ATOM
M  V30 1 N 5.967228 4.360573 5.049252 0
M  V30 2 C 6.512344 4.022226 3.798388 0
M  V30 3 O 7.775165 4.020511 3.769950 0
M  V30 4 C 5.742079 3.694097 2.608098 0
M  V30 5 C 6.418000 3.385617 1.461763 0
M  V30 6 C 5.666597 3.078960 0.351195 0
M  V30 7 C 4.289892 3.091986 0.427633 0
M  V30 8 C 3.589817 3.399164 1.570137 0
M  V30 9 C 2.214805 3.400440 1.604094 0
M  V30 10 N 1.428850 3.091030 0.464619 0
M  V30 11 C -0.015771 3.053903 0.372843 0
M  V30 12 C -0.501494 1.998762 1.301200 0
M  V30 13 C -0.954421 2.123405 2.598089 0
M  V30 14 C -1.351303 1.017846 3.319085 0
M  V30 15 C -1.324051 -0.261880 2.804815 0
M  V30 16 C -0.878519 -0.434647 1.510673 0
M  V30 17 N -0.821969 -1.722772 0.913353 0
M  V30 18 C -1.868036 -2.319277 0.190155 0
M  V30 19 O -2.936956 -1.658916 0.063946 0
M  V30 20 C -1.754549 -3.647389 -0.403281 0
M  V30 21 C -0.617697 -4.422400 -0.309076 0
M  V30 22 C -0.588532 -5.650529 -0.888965 0
M  V30 23 N -1.647815 -6.118443 -1.550267 0
M  V30 24 C -2.799078 -5.431438 -1.692803 0
M  V30 25 N -3.898453 -5.979750 -2.409752 0
M  V30 26 C -3.682838 -7.308243 -2.972589 0
M  V30 27 C -4.795978 -7.530728 -3.973897 0
M  V30 28 O -5.986770 -7.409892 -3.220027 0
M  V30 29 C -6.276706 -6.067654 -3.002055 0
M  V30 30 C -5.118399 -5.245934 -2.546633 0
M  V30 31 C -2.804964 -4.184215 -1.094273 0
M  V30 32 C -0.487797 0.696464 0.815894 0
M  V30 33 N 1.677109 3.718373 2.783542 0
M  V30 34 C 2.408628 4.013298 3.850977 0
M  V30 35 N 3.743895 4.011313 3.815358 0
M  V30 36 C 4.376285 3.698387 2.652356 0
M  V30 37 H 5.508804 3.608181 5.638283 0
M  V30 38 H 5.831625 5.175626 5.687129 0
M  V30 39 H 7.501704 3.392947 1.468035 0
M  V30 40 H 6.218645 2.833651 -0.560355 0
M  V30 41 H 3.817641 2.836886 -0.498938 0
M  V30 42 H 1.907970 2.864409 -0.407675 0
M  V30 43 H -0.307777 2.769234 -0.637495 0
M  V30 44 H -0.468886 4.020696 0.698237 0
M  V30 45 H -0.983295 3.120286 2.987445 0
M  V30 46 H -1.695886 1.213886 4.343640 0
M  V30 47 H -1.640235 -1.091466 3.395760 0
M  V30 48 H 0.091113 -2.206355 1.060237 0
M  V30 49 H 0.245575 -4.053609 0.223351 0
M  V30 50 H 0.325224 -6.241230 -0.798341 0
M  V30 51 H -2.676606 -7.408841 -3.425287 0
M  V30 52 H -3.850996 -8.064453 -2.151747 0
M  V30 53 H -4.767668 -6.718514 -4.750111 0
M  V30 54 H -4.741022 -8.541575 -4.391070 0
M  V30 55 H -6.802932 -5.638017 -3.892143 0
M  V30 56 H -7.047105 -6.056555 -2.199962 0
M  V30 57 H -5.015838 -4.390339 -3.268938 0
M  V30 58 H -5.318910 -4.763124 -1.553558 0
M  V30 59 H -3.701952 -3.579485 -1.172201 0
M  V30 60 H -0.144289 0.502764 -0.205463 0
M  V30 61 H 1.988683 4.272135 4.812802 0
M  V30 END ATOM
M  V30 BEGIN BOND
M  V30 1 1 1 2
M  V30 2 2 2 3
M  V30 3 1 2 4
M  V30 4 2 4 5
M  V30 5 1 5 6
M  V30 6 2 6 7
M  V30 7 1 7 8
M  V30 8 2 8 9
M  V30 9 1 9 10
M  V30 10 1 10 11
M  V30 11 1 11 12
M  V30 12 2 12 13
M  V30 13 1 13 14
M  V30 14 2 14 15
M  V30 15 1 15 16
M  V30 16 1 16 17
M  V30 17 1 17 18
M  V30 18 2 18 19
M  V30 19 1 18 20
M  V30 20 2 20 21
M  V30 21 1 21 22
M  V30 22 2 22 23
M  V30 23 1 23 24
M  V30 24 1 24 25
M  V30 25 1 25 26
M  V30 26 1 26 27
M  V30 27 1 27 28
M  V30 28 1 28 29
M  V30 29 1 29 30
M  V30 30 2 24 31
M  V30 31 2 16 32
M  V30 32 1 9 33
M  V30 33 2 33 34
M  V30 34 1 34 35
M  V30 35 2 35 36
M  V30 36 1 36 4
M  V30 37 1 36 8
M  V30 38 1 32 12
M  V30 39 1 31 20
M  V30 40 1 30 25
M  V30 41 1 1 37
M  V30 42 1 1 38
M  V30 43 1 5 39
M  V30 44 1 6 40
M  V30 45 1 7 41
M  V30 46 1 10 42
M  V30 47 1 11 43
M  V30 48 1 11 44
M  V30 49 1 13 45
M  V30 50 1 14 46
M  V30 51 1 15 47
M  V30 52 1 17 48
M  V30 53 1 21 49
M  V30 54 1 22 50
M  V30 55 1 26 51
M  V30 56 1 26 52
M  V30 57 1 27 53
M  V30 58 1 27 54
M  V30 59 1 29 55
M  V30 60 1 29 56
M  V30 61 1 30 57
M  V30 62 1 30 58
M  V30 63 1 31 59
M  V30 64 1 32 60
M  V30 65 1 34 61
M  V30 END BOND
M  V30 END CTAB
M  END
>  <Dataset>  (217) 
ChEMBL_Kinases

>  <Ligand_Instance>  (217) 
nan

>  <PDB_ID>  (217) 
nan

>  <Standardized_SMILES>  (217) 
NC(=O)c1cccc2c(NCc3cccc(NC(=O)c4ccnc(N5CCOCC5)c4)c3)ncnc12

>  <Name>  (217) 
nan

>  <Pocket>  (217) 
nan

>  <ATP_Site>  (217) 
nan

>  <Peripheral>  (217) 
nan

>  <Num_H_Atoms_ProtBoundConf>  (217) 
nan

>  <Num_Resolved_Atoms>  (217) 
nan

>  <Num_Not_Resolved_Atoms>  (217) 
nan

$$$$
CHEMBL3187788
     RDKit          3D

  0  0  0  0  0  0  0  0  0  0999 V3000
M  V30 BEGIN CTAB
M  V30 COUNTS 43 46 0 0 0
M  V30 BEGIN ATOM
M  V30 1 C 2.044207 -4.495443 0.677375 0
M  V30 2 C 1.494551 -4.169182 -0.670063 0
M  V30 3 O 2.451196 -4.199604 -1.673170 0
M  V30 4 C 0.946971 -2.793409 -0.676041 0
M  V30 5 C 0.507055 -1.669079 -0.661081 0
M  V30 6 C -0.033035 -0.334095 -0.637189 0
M  V30 7 C -0.733321 0.221234 -1.688392 0
M  V30 8 C -1.220394 1.526540 -1.573554 0
M  V30 9 C -0.980145 2.230353 -0.389685 0
M  V30 10 C -0.277782 1.650460 0.643543 0
M  V30 11 C 0.201409 0.377991 0.541345 0
M  V30 12 N -0.185305 2.589633 1.714372 0
M  V30 13 C 0.420259 2.405415 2.988597 0
M  V30 14 N 1.747970 2.109037 2.932831 0
M  V30 15 C 2.498260 1.899501 4.015842 0
M  V30 16 N 3.886179 1.590079 3.946859 0
M  V30 17 N 1.911280 1.985907 5.223120 0
M  V30 18 C 0.623129 2.270261 5.361847 0
M  V30 19 C -0.168631 2.490408 4.244686 0
M  V30 20 Cl -1.858128 2.870553 4.236244 0
M  V30 21 C -0.817139 3.828608 1.333080 0
M  V30 22 C -1.394968 3.626460 -0.030060 0
M  V30 23 C 0.403977 -5.178047 -0.924634 0
M  V30 24 N -0.105843 -6.097823 -0.389077 0
M  V30 25 C -1.091395 -6.829549 -0.882071 0
M  V30 26 C -1.579300 -6.447940 -2.212635 0
M  V30 27 S -0.437617 -4.973236 -2.557437 0
M  V30 28 H 2.360168 -5.541758 0.713894 0
M  V30 29 H 2.857551 -3.762869 0.900122 0
M  V30 30 H 1.235671 -4.262760 1.426183 0
M  V30 31 H 3.339216 -4.184984 -1.221902 0
M  V30 32 H -0.887042 -0.377970 -2.582914 0
M  V30 33 H -1.771947 1.961489 -2.403755 0
M  V30 34 H 0.750648 -0.043708 1.378563 0
M  V30 35 H 4.252001 1.066830 3.101045 0
M  V30 36 H 4.568656 1.847521 4.680433 0
M  V30 37 H 0.085674 2.355231 6.312274 0
M  V30 38 H -1.612851 4.124184 2.029262 0
M  V30 39 H -0.084896 4.678549 1.258267 0
M  V30 40 H -1.009197 4.365967 -0.774484 0
M  V30 41 H -2.503616 3.710123 -0.070077 0
M  V30 42 H -1.410881 -7.626633 -0.224084 0
M  V30 43 H -2.447629 -7.173626 -2.528688 0
M  V30 END ATOM
M  V30 BEGIN BOND
M  V30 1 1 1 2
M  V30 2 1 2 3
M  V30 3 1 2 4
M  V30 4 3 4 5
M  V30 5 1 5 6
M  V30 6 2 6 7
M  V30 7 1 7 8
M  V30 8 2 8 9
M  V30 9 1 9 10
M  V30 10 2 10 11
M  V30 11 1 10 12
M  V30 12 1 12 13
M  V30 13 2 13 14
M  V30 14 1 14 15
M  V30 15 1 15 16
M  V30 16 2 15 17
M  V30 17 1 17 18
M  V30 18 2 18 19
M  V30 19 1 19 20
M  V30 20 1 12 21
M  V30 21 1 21 22
M  V30 22 1 2 23
M  V30 23 2 23 24
M  V30 24 1 24 25
M  V30 25 2 25 26
M  V30 26 1 26 27
M  V30 27 1 11 6
M  V30 28 1 19 13
M  V30 29 1 27 23
M  V30 30 1 22 9
M  V30 31 1 1 28
M  V30 32 1 1 29
M  V30 33 1 1 30
M  V30 34 1 3 31
M  V30 35 1 7 32
M  V30 36 1 8 33
M  V30 37 1 11 34
M  V30 38 1 16 35
M  V30 39 1 16 36
M  V30 40 1 18 37
M  V30 41 1 21 38
M  V30 42 1 21 39
M  V30 43 1 22 40
M  V30 44 1 22 41
M  V30 45 1 25 42
M  V30 46 1 26 43
M  V30 END BOND
M  V30 END CTAB
M  END
>  <Dataset>  (218) 
ChEMBL_Kinases

>  <Ligand_Instance>  (218) 
nan

>  <PDB_ID>  (218) 
nan

>  <Standardized_SMILES>  (218) 
CC(O)(C#Cc1ccc2c(c1)N(c1nc(N)ncc1Cl)CC2)c1nccs1

>  <Name>  (218) 
nan

>  <Pocket>  (218) 
nan

>  <ATP_Site>  (218) 
nan

>  <Peripheral>  (218) 
nan

>  <Num_H_Atoms_ProtBoundConf>  (218) 
nan

>  <Num_Resolved_Atoms>  (218) 
nan

>  <Num_Not_Resolved_Atoms>  (218) 
nan

$$$$
CHEMBL4229130
     RDKit          3D

  0  0  0  0  0  0  0  0  0  0999 V3000
M  V30 BEGIN CTAB
M  V30 COUNTS 47 49 0 0 0
M  V30 BEGIN ATOM
M  V30 1 C 0.546639 -5.116527 1.851446 0
M  V30 2 C 0.826274 -3.678342 1.467321 0
M  V30 3 C -0.478860 -2.950843 1.330820 0
M  V30 4 N 1.587553 -3.644822 0.231974 0
M  V30 5 C 2.058642 -2.490633 -0.453328 0
M  V30 6 C 2.787266 -2.528539 -1.647238 0
M  V30 7 C 3.190206 -1.342965 -2.216191 0
M  V30 8 C 2.925135 -0.096466 -1.688571 0
M  V30 9 C 3.245514 1.175813 -2.116029 0
M  V30 10 N 2.703575 1.973560 -1.169759 0
M  V30 11 N 2.098654 1.255696 -0.235216 0
M  V30 12 C 1.432330 1.806756 0.895695 0
M  V30 13 C 2.100688 2.256477 2.019111 0
M  V30 14 N 1.477082 2.779700 3.094282 0
M  V30 15 C 0.131753 2.864198 3.061971 0
M  V30 16 C -0.579733 2.419020 1.941654 0
M  V30 17 N -1.988385 2.576080 2.062157 0
M  V30 18 C -2.720742 1.467254 2.642870 0
M  V30 19 C -2.501316 0.244869 1.776561 0
M  V30 20 C -3.003480 0.502031 0.357427 0
M  V30 21 N -4.439637 0.808285 0.421454 0
M  V30 22 N 0.090763 1.904888 0.894720 0
M  V30 23 C 2.202471 -0.058198 -0.504342 0
M  V30 24 C 1.796941 -1.228576 0.070029 0
M  V30 25 H 0.088626 -5.088440 2.849814 0
M  V30 26 H -0.223346 -5.574564 1.181252 0
M  V30 27 H 1.463531 -5.735313 1.856393 0
M  V30 28 H 1.421911 -3.223421 2.277658 0
M  V30 29 H -1.324299 -3.663455 1.419398 0
M  V30 30 H -0.569918 -2.156658 2.114361 0
M  V30 31 H -0.576185 -2.473790 0.319365 0
M  V30 32 H 1.841735 -4.560897 -0.245245 0
M  V30 33 H 3.001343 -3.499535 -2.070652 0
M  V30 34 H 3.751828 -1.421784 -3.140207 0
M  V30 35 H 3.798795 1.455933 -2.999288 0
M  V30 36 H 3.182240 2.175418 2.015514 0
M  V30 37 H -0.281064 3.298078 3.970807 0
M  V30 38 H -2.403713 3.489391 1.720396 0
M  V30 39 H -2.294378 1.246822 3.639182 0
M  V30 40 H -3.787119 1.763133 2.683963 0
M  V30 41 H -1.428192 0.058040 1.770989 0
M  V30 42 H -3.012742 -0.648262 2.175483 0
M  V30 43 H -2.914068 -0.438314 -0.214411 0
M  V30 44 H -2.467350 1.351792 -0.097604 0
M  V30 45 H -4.557575 1.786598 0.771593 0
M  V30 46 H -4.852989 0.081884 1.045657 0
M  V30 47 H 1.243682 -1.065638 0.988358 0
M  V30 END ATOM
M  V30 BEGIN BOND
M  V30 1 1 1 2
M  V30 2 1 2 3
M  V30 3 1 2 4
M  V30 4 1 4 5
M  V30 5 2 5 6
M  V30 6 1 6 7
M  V30 7 2 7 8
M  V30 8 1 8 9
M  V30 9 2 9 10
M  V30 10 1 10 11
M  V30 11 1 11 12
M  V30 12 2 12 13
M  V30 13 1 13 14
M  V30 14 2 14 15
M  V30 15 1 15 16
M  V30 16 1 16 17
M  V30 17 1 17 18
M  V30 18 1 18 19
M  V30 19 1 19 20
M  V30 20 1 20 21
M  V30 21 2 16 22
M  V30 22 1 11 23
M  V30 23 2 23 24
M  V30 24 1 24 5
M  V30 25 1 23 8
M  V30 26 1 22 12
M  V30 27 1 1 25
M  V30 28 1 1 26
M  V30 29 1 1 27
M  V30 30 1 2 28
M  V30 31 1 3 29
M  V30 32 1 3 30
M  V30 33 1 3 31
M  V30 34 1 4 32
M  V30 35 1 6 33
M  V30 36 1 7 34
M  V30 37 1 9 35
M  V30 38 1 13 36
M  V30 39 1 15 37
M  V30 40 1 17 38
M  V30 41 1 18 39
M  V30 42 1 18 40
M  V30 43 1 19 41
M  V30 44 1 19 42
M  V30 45 1 20 43
M  V30 46 1 20 44
M  V30 47 1 21 45
M  V30 48 1 21 46
M  V30 49 1 24 47
M  V30 END BOND
M  V30 END CTAB
M  END
>  <Dataset>  (219) 
ChEMBL_Kinases

>  <Ligand_Instance>  (219) 
nan

>  <PDB_ID>  (219) 
nan

>  <Standardized_SMILES>  (219) 
CC(C)Nc1ccc2cnn(-c3cncc(NCCCN)n3)c2c1

>  <Name>  (219) 
nan

>  <Pocket>  (219) 
nan

>  <ATP_Site>  (219) 
nan

>  <Peripheral>  (219) 
nan

>  <Num_H_Atoms_ProtBoundConf>  (219) 
nan

>  <Num_Resolved_Atoms>  (219) 
nan

>  <Num_Not_Resolved_Atoms>  (219) 
nan

$$$$
CHEMBL3680435
     RDKit          3D

  0  0  0  0  0  0  0  0  0  0999 V3000
M  V30 BEGIN CTAB
M  V30 COUNTS 46 48 0 0 0
M  V30 BEGIN ATOM
M  V30 1 C 2.369334 -5.314158 1.573758 0
M  V30 2 N 1.781046 -4.476172 0.818787 0 CHG=1 VAL=4
M  V30 3 O 0.609838 -4.828002 0.191963 0 CHG=-1 VAL=1
M  V30 4 C 2.306790 -3.183586 0.608012 0
M  V30 5 C 3.481677 -2.817479 1.231597 0
M  V30 6 C 4.006276 -1.557952 1.034512 0
M  V30 7 C 3.390130 -0.630330 0.221746 0
M  V30 8 C 2.214620 -0.960299 -0.418007 0
M  V30 9 C 1.354117 -0.161220 -1.340011 0
M  V30 10 C 1.928467 1.208249 -1.448729 0
M  V30 11 O 1.834718 1.955346 -0.280439 0
M  V30 12 C 2.382458 3.227345 -0.424837 0
M  V30 13 N -0.034455 -0.251130 -1.019992 0
M  V30 14 C -0.526588 0.058426 0.273638 0
M  V30 15 N 0.323998 0.433164 1.240415 0
M  V30 16 C -0.188811 0.706406 2.450650 0
M  V30 17 N -1.487432 0.641792 2.797693 0
M  V30 18 C -2.381438 0.264681 1.841785 0
M  V30 19 C -3.728055 0.176862 2.126540 0
M  V30 20 C -4.202749 0.491653 3.469067 0
M  V30 21 N -3.342868 0.893003 4.528903 0
M  V30 22 O -5.423266 0.423333 3.766583 0
M  V30 23 C -4.628813 -0.198862 1.178216 0
M  V30 24 C -4.165575 -0.499558 -0.108586 0
M  V30 25 C -2.808929 -0.394758 -0.336830 0
M  V30 26 C -1.866969 -0.019158 0.592749 0
M  V30 27 C 1.701014 -2.245568 -0.202403 0
M  V30 28 H 3.258550 -5.326709 2.170961 0
M  V30 29 H 1.966350 -6.306745 1.736225 0
M  V30 30 H 4.046657 -3.461406 1.887188 0
M  V30 31 H 4.924984 -1.224888 1.501818 0
M  V30 32 H 3.708964 0.377180 -0.001493 0
M  V30 33 H 1.564728 -0.645935 -2.351157 0
M  V30 34 H 1.472183 1.819618 -2.257001 0
M  V30 35 H 3.015060 1.186840 -1.720573 0
M  V30 36 H 3.469551 3.180750 -0.696719 0
M  V30 37 H 2.271433 3.746326 0.549555 0
M  V30 38 H 1.872435 3.762920 -1.236695 0
M  V30 39 H -0.640415 -0.558319 -1.810362 0
M  V30 40 H 0.513877 1.012206 3.235789 0
M  V30 41 H -2.534203 0.494279 5.057918 0
M  V30 42 H -2.582544 0.271398 4.877580 0
M  V30 43 H -5.678554 -0.259160 1.429526 0
M  V30 44 H -4.885748 -0.792391 -0.839679 0
M  V30 45 H -2.544299 -0.644407 -1.352312 0
M  V30 46 H 0.770754 -2.620055 -0.659448 0
M  V30 END ATOM
M  V30 BEGIN BOND
M  V30 1 2 1 2
M  V30 2 1 2 3
M  V30 3 1 2 4
M  V30 4 2 4 5
M  V30 5 1 5 6
M  V30 6 2 6 7
M  V30 7 1 7 8
M  V30 8 1 8 9
M  V30 9 1 9 10
M  V30 10 1 10 11
M  V30 11 1 11 12
M  V30 12 1 9 13
M  V30 13 1 13 14
M  V30 14 2 14 15
M  V30 15 1 15 16
M  V30 16 2 16 17
M  V30 17 1 17 18
M  V30 18 2 18 19
M  V30 19 1 19 20
M  V30 20 1 20 21
M  V30 21 2 20 22
M  V30 22 1 19 23
M  V30 23 2 23 24
M  V30 24 1 24 25
M  V30 25 2 25 26
M  V30 26 2 8 27
M  V30 27 1 27 4
M  V30 28 1 26 14
M  V30 29 1 26 18
M  V30 30 1 1 28
M  V30 31 1 1 29
M  V30 32 1 5 30
M  V30 33 1 6 31
M  V30 34 1 7 32
M  V30 35 1 9 33
M  V30 36 1 10 34
M  V30 37 1 10 35
M  V30 38 1 12 36
M  V30 39 1 12 37
M  V30 40 1 12 38
M  V30 41 1 13 39
M  V30 42 1 16 40
M  V30 43 1 21 41
M  V30 44 1 21 42
M  V30 45 1 23 43
M  V30 46 1 24 44
M  V30 47 1 25 45
M  V30 48 1 27 46
M  V30 END BOND
M  V30 END CTAB
M  END
>  <Dataset>  (220) 
ChEMBL_Kinases

>  <Ligand_Instance>  (220) 
nan

>  <PDB_ID>  (220) 
nan

>  <Standardized_SMILES>  (220) 
C=[N+]([O-])c1cccc(C(COC)Nc2ncnc3c(C(N)=O)cccc23)c1

>  <Name>  (220) 
nan

>  <Pocket>  (220) 
nan

>  <ATP_Site>  (220) 
nan

>  <Peripheral>  (220) 
nan

>  <Num_H_Atoms_ProtBoundConf>  (220) 
nan

>  <Num_Resolved_Atoms>  (220) 
nan

>  <Num_Not_Resolved_Atoms>  (220) 
nan

$$$$
CHEMBL4229039
     RDKit          3D

  0  0  0  0  0  0  0  0  0  0999 V3000
M  V30 BEGIN CTAB
M  V30 COUNTS 67 71 0 0 0
M  V30 BEGIN ATOM
M  V30 1 C 3.701139 0.318142 2.338582 0
M  V30 2 C 3.008074 -0.906014 2.794021 0
M  V30 3 C 1.739454 -0.900034 3.172317 0
M  V30 4 C 1.054507 0.412967 3.120967 0
M  V30 5 O 1.549817 1.514716 2.751825 0
M  V30 6 N -0.323999 0.615308 3.503609 0
M  V30 7 C -0.779653 1.947171 3.380525 0
M  V30 8 C -0.697329 2.883652 4.400495 0
M  V30 9 C -1.169338 4.156025 4.181975 0
M  V30 10 C -1.729653 4.573350 2.995758 0
M  V30 11 N -2.254772 5.717957 2.522490 0
M  V30 12 N -2.661502 5.561715 1.272088 0
M  V30 13 C -2.398964 4.291039 0.916151 0
M  V30 14 C -1.803754 3.621413 1.985079 0
M  V30 15 C -1.338437 2.315406 2.156951 0
M  V30 16 C 0.889579 -2.032903 3.592646 0
M  V30 17 C -0.106896 -2.315214 2.524153 0
M  V30 18 C -0.765137 -3.509538 2.854901 0
M  V30 19 C -1.759289 -4.045864 2.029075 0
M  V30 20 C -2.112975 -3.404104 0.864593 0
M  V30 21 F -3.071627 -3.896352 0.044805 0
M  V30 22 C -1.451290 -2.232430 0.561588 0
M  V30 23 C -1.754371 -1.459590 -0.670111 0
M  V30 24 C -1.179201 -2.059653 -1.874204 0
M  V30 25 O -0.687286 -2.993303 -1.175017 0
M  V30 26 N -0.729046 -2.444955 -3.162774 0
M  V30 27 C 0.055131 -3.651431 -3.225878 0
M  V30 28 C -0.813223 -4.870004 -3.440930 0
M  V30 29 O -1.741197 -5.059427 -2.433890 0
M  V30 30 C -1.110599 -1.574448 -4.280779 0
M  V30 31 C -0.048055 -0.531667 -4.457054 0
M  V30 32 C -0.086247 0.681546 -3.806931 0
M  V30 33 C 1.046404 1.323567 -4.236938 0
M  V30 34 C 1.740322 0.506228 -5.123471 0
M  V30 35 O 1.029164 -0.607214 -5.219178 0
M  V30 36 C -0.470419 -1.684553 1.356158 0
M  V30 37 N 1.752876 -3.180002 3.806544 0
M  V30 38 C 3.115084 -3.332569 3.425386 0
M  V30 39 O 3.693287 -4.443019 3.548195 0
M  V30 40 N 3.732195 -2.150671 2.912661 0
M  V30 41 H 3.290848 0.751273 1.405281 0
M  V30 42 H 3.792229 1.036055 3.177060 0
M  V30 43 H 4.745626 0.039318 2.091454 0
M  V30 44 H -0.864468 -0.240545 3.838737 0
M  V30 45 H -0.256638 2.559002 5.337504 0
M  V30 46 H -1.097571 4.862740 4.979846 0
M  V30 47 H -2.282463 6.550466 3.151654 0
M  V30 48 H -2.624306 3.867715 -0.062280 0
M  V30 49 H -1.443926 1.639546 1.296197 0
M  V30 50 H 0.359871 -1.826126 4.536492 0
M  V30 51 H -0.624252 -4.159742 3.731210 0
M  V30 52 H -2.299828 -4.956540 2.226976 0
M  V30 53 H -2.879437 -1.494199 -0.779222 0
M  V30 54 H -1.530422 -0.383673 -0.561641 0
M  V30 55 H 0.709899 -3.726412 -2.338496 0
M  V30 56 H 0.720398 -3.553578 -4.103345 0
M  V30 57 H -1.387141 -4.673405 -4.373831 0
M  V30 58 H -0.174678 -5.750046 -3.510031 0
M  V30 59 H -1.478075 -5.815255 -1.875554 0
M  V30 60 H -1.132658 -2.163759 -5.215261 0
M  V30 61 H -2.085473 -1.116482 -4.044121 0
M  V30 62 H -0.781848 1.130742 -3.108354 0
M  V30 63 H 1.472063 2.291554 -4.024584 0
M  V30 64 H 2.636799 0.521968 -5.717170 0
M  V30 65 H 0.098269 -0.802349 1.205458 0
M  V30 66 H 1.325921 -4.009092 4.306863 0
M  V30 67 H 4.739248 -2.234636 2.627549 0
M  V30 END ATOM
M  V30 BEGIN BOND
M  V30 1 1 1 2
M  V30 2 2 2 3
M  V30 3 1 3 4
M  V30 4 2 4 5
M  V30 5 1 4 6
M  V30 6 1 6 7
M  V30 7 2 7 8
M  V30 8 1 8 9
M  V30 9 2 9 10
M  V30 10 1 10 11
M  V30 11 1 11 12
M  V30 12 2 12 13
M  V30 13 1 13 14
M  V30 14 2 14 15
M  V30 15 1 3 16
M  V30 16 1 16 17
M  V30 17 2 17 18
M  V30 18 1 18 19
M  V30 19 2 19 20
M  V30 20 1 20 21
M  V30 21 1 20 22
M  V30 22 1 22 23
M  V30 23 1 23 24
M  V30 24 2 24 25
M  V30 25 1 24 26
M  V30 26 1 26 27
M  V30 27 1 27 28
M  V30 28 1 28 29
M  V30 29 1 26 30
M  V30 30 1 30 31
M  V30 31 2 31 32
M  V30 32 1 32 33
M  V30 33 2 33 34
M  V30 34 1 34 35
M  V30 35 2 22 36
M  V30 36 1 16 37
M  V30 37 1 37 38
M  V30 38 2 38 39
M  V30 39 1 38 40
M  V30 40 1 40 2
M  V30 41 1 15 7
M  V30 42 1 36 17
M  V30 43 1 14 10
M  V30 44 1 35 31
M  V30 45 1 1 41
M  V30 46 1 1 42
M  V30 47 1 1 43
M  V30 48 1 6 44
M  V30 49 1 8 45
M  V30 50 1 9 46
M  V30 51 1 11 47
M  V30 52 1 13 48
M  V30 53 1 15 49
M  V30 54 1 16 50
M  V30 55 1 18 51
M  V30 56 1 19 52
M  V30 57 1 23 53
M  V30 58 1 23 54
M  V30 59 1 27 55
M  V30 60 1 27 56
M  V30 61 1 28 57
M  V30 62 1 28 58
M  V30 63 1 29 59
M  V30 64 1 30 60
M  V30 65 1 30 61
M  V30 66 1 32 62
M  V30 67 1 33 63
M  V30 68 1 34 64
M  V30 69 1 36 65
M  V30 70 1 37 66
M  V30 71 1 40 67
M  V30 END BOND
M  V30 END CTAB
M  END
>  <Dataset>  (221) 
ChEMBL_Kinases

>  <Ligand_Instance>  (221) 
nan

>  <PDB_ID>  (221) 
nan

>  <Standardized_SMILES>  (221) 
CC1=C(C(=O)Nc2ccc3[nH]ncc3c2)C(c2ccc(F)c(CC(=O)N(CCO)Cc3ccco3)c2)NC(=O)N1

>  <Name>  (221) 
nan

>  <Pocket>  (221) 
nan

>  <ATP_Site>  (221) 
nan

>  <Peripheral>  (221) 
nan

>  <Num_H_Atoms_ProtBoundConf>  (221) 
nan

>  <Num_Resolved_Atoms>  (221) 
nan

>  <Num_Not_Resolved_Atoms>  (221) 
nan

$$$$
CHEMBL4228945
     RDKit          3D

  0  0  0  0  0  0  0  0  0  0999 V3000
M  V30 BEGIN CTAB
M  V30 COUNTS 65 69 0 0 0
M  V30 BEGIN ATOM
M  V30 1 C 4.868419 -4.307450 1.771344 0
M  V30 2 C 4.090114 -3.807402 1.003121 0
M  V30 3 C 3.148608 -3.173714 0.069641 0
M  V30 4 N 3.236971 -1.721312 0.160635 0
M  V30 5 C 4.172966 -1.018652 -0.700204 0
M  V30 6 C 3.466722 -0.671611 -1.980513 0
M  V30 7 C 2.782428 0.515420 -2.156901 0
M  V30 8 C 2.277177 0.458074 -3.455180 0
M  V30 9 C 2.695319 -0.751504 -3.953148 0
M  V30 10 O 3.395964 -1.402855 -3.066865 0
M  V30 11 C 2.345144 -1.199822 1.125003 0
M  V30 12 O 1.731134 -2.183253 1.616272 0
M  V30 13 C 2.075650 0.209221 1.577698 0
M  V30 14 C 1.027690 0.197530 2.623902 0
M  V30 15 C -0.237684 0.587808 2.294975 0
M  V30 16 C -1.269013 0.601586 3.202686 0
M  V30 17 C -2.717385 0.980028 2.991275 0
M  V30 18 N -2.958881 2.050643 3.919935 0
M  V30 19 C -3.307149 3.415611 3.752968 0
M  V30 20 O -3.436351 4.219844 4.678792 0
M  V30 21 N -3.479553 3.700679 2.373969 0
M  V30 22 C -3.305883 2.717157 1.366546 0
M  V30 23 C -3.504942 3.042918 -0.066479 0
M  V30 24 C -2.964127 1.468238 1.613178 0
M  V30 25 C -2.777017 0.331736 0.729842 0
M  V30 26 O -2.445796 -0.854348 1.080728 0
M  V30 27 N -2.855465 0.057647 -0.638695 0
M  V30 28 C -2.584025 -1.248087 -1.129463 0
M  V30 29 C -3.626024 -2.174947 -1.243879 0
M  V30 30 C -3.450592 -3.478001 -1.717039 0
M  V30 31 C -2.174884 -3.842462 -2.082999 0
M  V30 32 N -1.699721 -5.004266 -2.566052 0
M  V30 33 N -0.378237 -4.912154 -2.786850 0
M  V30 34 C 0.018236 -3.653112 -2.437120 0
M  V30 35 C -1.108814 -2.967889 -1.990876 0
M  V30 36 C -1.330456 -1.691195 -1.517687 0
M  V30 37 C -0.980177 0.197172 4.499688 0
M  V30 38 C 0.296541 -0.197743 4.838167 0
M  V30 39 C 1.334284 -0.212518 3.925851 0
M  V30 40 F 2.606583 -0.589301 4.198704 0
M  V30 41 H 5.561378 -4.752098 2.442029 0
M  V30 42 H 3.479234 -3.499507 -0.960034 0
M  V30 43 H 2.130431 -3.552259 0.244267 0
M  V30 44 H 4.970581 -1.730591 -0.970377 0
M  V30 45 H 4.603470 -0.131183 -0.221024 0
M  V30 46 H 2.654228 1.322491 -1.458646 0
M  V30 47 H 1.687230 1.246833 -3.900633 0
M  V30 48 H 2.402817 -0.999053 -4.972819 0
M  V30 49 H 1.757807 0.863247 0.744127 0
M  V30 50 H 3.036570 0.621619 1.934397 0
M  V30 51 H -0.465708 0.912986 1.313342 0
M  V30 52 H -3.356105 0.096097 3.234723 0
M  V30 53 H -2.832221 1.656371 4.886759 0
M  V30 54 H -3.743989 4.666531 2.081101 0
M  V30 55 H -4.418943 2.571118 -0.496697 0
M  V30 56 H -2.604557 3.001516 -0.675184 0
M  V30 57 H -3.786652 4.149024 -0.069003 0
M  V30 58 H -3.117716 0.858346 -1.226958 0
M  V30 59 H -4.651815 -1.909510 -0.958820 0
M  V30 60 H -4.299570 -4.145271 -1.780558 0
M  V30 61 H -2.212095 -5.895203 -2.769489 0
M  V30 62 H 1.027242 -3.230703 -2.486985 0
M  V30 63 H -0.503930 -1.005736 -1.444112 0
M  V30 64 H -1.617539 0.123853 5.368483 0
M  V30 65 H 0.641016 -0.534437 5.821936 0
M  V30 END ATOM
M  V30 BEGIN BOND
M  V30 1 3 1 2
M  V30 2 1 2 3
M  V30 3 1 3 4
M  V30 4 1 4 5
M  V30 5 1 5 6
M  V30 6 2 6 7
M  V30 7 1 7 8
M  V30 8 2 8 9
M  V30 9 1 9 10
M  V30 10 1 4 11
M  V30 11 2 11 12
M  V30 12 1 11 13
M  V30 13 1 13 14
M  V30 14 2 14 15
M  V30 15 1 15 16
M  V30 16 1 16 17
M  V30 17 1 17 18
M  V30 18 1 18 19
M  V30 19 2 19 20
M  V30 20 1 19 21
M  V30 21 1 21 22
M  V30 22 1 22 23
M  V30 23 2 22 24
M  V30 24 1 24 25
M  V30 25 2 25 26
M  V30 26 1 25 27
M  V30 27 1 27 28
M  V30 28 2 28 29
M  V30 29 1 29 30
M  V30 30 2 30 31
M  V30 31 1 31 32
M  V30 32 1 32 33
M  V30 33 2 33 34
M  V30 34 1 34 35
M  V30 35 2 35 36
M  V30 36 2 16 37
M  V30 37 1 37 38
M  V30 38 2 38 39
M  V30 39 1 39 40
M  V30 40 1 10 6
M  V30 41 1 39 14
M  V30 42 1 24 17
M  V30 43 1 36 28
M  V30 44 1 35 31
M  V30 45 1 1 41
M  V30 46 1 3 42
M  V30 47 1 3 43
M  V30 48 1 5 44
M  V30 49 1 5 45
M  V30 50 1 7 46
M  V30 51 1 8 47
M  V30 52 1 9 48
M  V30 53 1 13 49
M  V30 54 1 13 50
M  V30 55 1 15 51
M  V30 56 1 17 52
M  V30 57 1 18 53
M  V30 58 1 21 54
M  V30 59 1 23 55
M  V30 60 1 23 56
M  V30 61 1 23 57
M  V30 62 1 27 58
M  V30 63 1 29 59
M  V30 64 1 30 60
M  V30 65 1 32 61
M  V30 66 1 34 62
M  V30 67 1 36 63
M  V30 68 1 37 64
M  V30 69 1 38 65
M  V30 END BOND
M  V30 END CTAB
M  END
>  <Dataset>  (222) 
ChEMBL_Kinases

>  <Ligand_Instance>  (222) 
nan

>  <PDB_ID>  (222) 
nan

>  <Standardized_SMILES>  (222) 
C#CCN(Cc1ccco1)C(=O)Cc1cc(C2NC(=O)NC(C)=C2C(=O)Nc2ccc3[nH]ncc3c2)ccc1F

>  <Name>  (222) 
nan

>  <Pocket>  (222) 
nan

>  <ATP_Site>  (222) 
nan

>  <Peripheral>  (222) 
nan

>  <Num_H_Atoms_ProtBoundConf>  (222) 
nan

>  <Num_Resolved_Atoms>  (222) 
nan

>  <Num_Not_Resolved_Atoms>  (222) 
nan

$$$$
CHEMBL319170
     RDKit          3D

  0  0  0  0  0  0  0  0  0  0999 V3000
M  V30 BEGIN CTAB
M  V30 COUNTS 28 30 0 0 0
M  V30 BEGIN ATOM
M  V30 1 C 0.632290 -4.823712 -0.505394 0
M  V30 2 O 1.737235 -4.463723 0.299947 0
M  V30 3 C 1.916491 -3.157270 0.765628 0
M  V30 4 C 3.036782 -2.952962 1.539094 0
M  V30 5 C 3.242134 -1.678753 2.012857 0
M  V30 6 C 2.299418 -0.725734 1.663963 0
M  V30 7 S 2.231678 1.087100 2.107255 0
M  V30 8 C 0.718958 1.398335 1.220495 0
M  V30 9 C 0.344951 0.169766 0.650609 0
M  V30 10 C 1.165383 -0.901819 0.889253 0
M  V30 11 C 1.002739 -2.194737 0.437862 0
M  V30 12 S -1.149257 0.073759 -0.340011 0
M  V30 13 C -2.444923 0.898561 0.623241 0
M  V30 14 C -2.381107 2.357245 0.582750 0
M  V30 15 N -1.189759 3.056068 0.806107 0
M  V30 16 C 0.153568 2.710602 1.212769 0
M  V30 17 O 0.941570 3.627117 1.608142 0
M  V30 18 H 0.730333 -4.374325 -1.512144 0
M  V30 19 H -0.339852 -4.476373 -0.091373 0
M  V30 20 H 0.574177 -5.909845 -0.601807 0
M  V30 21 H 3.776065 -3.687633 1.816106 0
M  V30 22 H 4.050442 -1.343366 2.621387 0
M  V30 23 H 0.170797 -2.503808 -0.178806 0
M  V30 24 H -2.342756 0.498725 1.675053 0
M  V30 25 H -3.419678 0.556621 0.284342 0
M  V30 26 H -2.787285 2.687094 -0.418985 0
M  V30 27 H -3.158000 2.739817 1.299211 0
M  V30 28 H -1.306791 4.080261 0.635060 0
M  V30 END ATOM
M  V30 BEGIN BOND
M  V30 1 1 1 2
M  V30 2 1 2 3
M  V30 3 2 3 4
M  V30 4 1 4 5
M  V30 5 2 5 6
M  V30 6 1 6 7
M  V30 7 1 7 8
M  V30 8 2 8 9
M  V30 9 1 9 10
M  V30 10 2 10 11
M  V30 11 1 9 12
M  V30 12 1 12 13
M  V30 13 1 13 14
M  V30 14 1 14 15
M  V30 15 1 15 16
M  V30 16 2 16 17
M  V30 17 1 11 3
M  V30 18 1 10 6
M  V30 19 1 16 8
M  V30 20 1 1 18
M  V30 21 1 1 19
M  V30 22 1 1 20
M  V30 23 1 4 21
M  V30 24 1 5 22
M  V30 25 1 11 23
M  V30 26 1 13 24
M  V30 27 1 13 25
M  V30 28 1 14 26
M  V30 29 1 14 27
M  V30 30 1 15 28
M  V30 END BOND
M  V30 END CTAB
M  END
>  <Dataset>  (223) 
ChEMBL_Kinases

>  <Ligand_Instance>  (223) 
nan

>  <PDB_ID>  (223) 
nan

>  <Standardized_SMILES>  (223) 
COc1ccc2sc3c(c2c1)SCCNC3=O

>  <Name>  (223) 
nan

>  <Pocket>  (223) 
nan

>  <ATP_Site>  (223) 
nan

>  <Peripheral>  (223) 
nan

>  <Num_H_Atoms_ProtBoundConf>  (223) 
nan

>  <Num_Resolved_Atoms>  (223) 
nan

>  <Num_Not_Resolved_Atoms>  (223) 
nan

$$$$
CHEMBL3680402
     RDKit          3D

  0  0  0  0  0  0  0  0  0  0999 V3000
M  V30 BEGIN CTAB
M  V30 COUNTS 57 60 0 0 0
M  V30 BEGIN ATOM
M  V30 1 C 8.132149 -1.990475 4.406822 0
M  V30 2 O 6.925118 -2.603667 4.036988 0
M  V30 3 C 6.002869 -2.093957 3.168532 0
M  V30 4 C 6.130430 -0.882310 2.520539 0
M  V30 5 C 5.151733 -0.433504 1.654124 0
M  V30 6 C 4.026925 -1.201048 1.427199 0
M  V30 7 C 2.922598 -0.833206 0.532614 0
M  V30 8 O 1.905932 -1.550466 0.339608 0
M  V30 9 N 2.915827 0.376365 -0.193860 0
M  V30 10 C 1.755519 0.553578 -1.008730 0
M  V30 11 C 0.642888 1.177478 -0.492449 0
M  V30 12 C -0.552190 1.426737 -1.141739 0
M  V30 13 C -1.679069 2.113068 -0.460372 0 CFG=1
M  V30 14 C -1.690178 3.589839 -0.655416 0
M  V30 15 N -2.955906 1.467049 -0.703744 0
M  V30 16 C -3.142858 0.122750 -0.310872 0
M  V30 17 N -2.145849 -0.550144 0.281394 0
M  V30 18 C -2.231165 -1.816407 0.683399 0
M  V30 19 C -3.386005 -2.537152 0.510348 0
M  V30 20 C -4.448006 -1.905931 -0.091267 0
M  V30 21 C -5.625589 -2.552320 -0.297807 0
M  V30 22 C -5.862210 -3.924951 0.085412 0
M  V30 23 N -5.263125 -5.056291 0.688843 0
M  V30 24 O -6.933074 -4.575167 -0.080166 0
M  V30 25 C -6.704724 -1.954520 -0.894066 0
M  V30 26 C -6.574827 -0.644074 -1.295095 0
M  V30 27 C -5.380060 0.009883 -1.084855 0
M  V30 28 C -4.298168 -0.594577 -0.485254 0
M  V30 29 C -0.608231 0.989730 -2.455648 0
M  V30 30 C 0.488744 0.350443 -3.033782 0
M  V30 31 C 1.656943 0.134069 -2.321167 0
M  V30 32 F 2.739246 -0.488453 -2.868147 0
M  V30 33 C 3.888832 -2.432188 2.080425 0
M  V30 34 C 4.875033 -2.876133 2.948497 0
M  V30 35 F 4.686999 -4.084767 3.557980 0
M  V30 36 H 8.903534 -2.404732 3.693866 0
M  V30 37 H 8.477677 -2.284697 5.414273 0
M  V30 38 H 8.165804 -0.907500 4.255410 0
M  V30 39 H 7.009930 -0.277571 2.695226 0
M  V30 40 H 5.221502 0.511962 1.130185 0
M  V30 41 H 3.705754 1.058707 -0.119264 0
M  V30 42 H 0.708905 1.511606 0.538576 0
M  V30 43 H -1.501642 1.953829 0.644863 0
M  V30 44 H -1.830956 3.900232 -1.709827 0
M  V30 45 H -0.763251 4.003383 -0.208253 0
M  V30 46 H -2.510679 3.980202 0.003486 0
M  V30 47 H -3.643728 2.093712 -1.169440 0
M  V30 48 H -1.340678 -2.248844 1.154607 0
M  V30 49 H -3.475162 -3.547546 0.823413 0
M  V30 50 H -4.714469 -5.835909 0.224469 0
M  V30 51 H -5.255126 -5.326099 1.716402 0
M  V30 52 H -7.659961 -2.435851 -1.076318 0
M  V30 53 H -7.408166 -0.119464 -1.776887 0
M  V30 54 H -5.330160 1.024823 -1.413766 0
M  V30 55 H -1.512896 1.151337 -3.024906 0
M  V30 56 H 0.438034 0.008326 -4.070240 0
M  V30 57 H 3.011192 -3.052939 1.916927 0
M  V30 END ATOM
M  V30 BEGIN BOND
M  V30 1 1 1 2
M  V30 2 1 2 3
M  V30 3 2 3 4
M  V30 4 1 4 5
M  V30 5 2 5 6
M  V30 6 1 6 7
M  V30 7 2 7 8
M  V30 8 1 7 9
M  V30 9 1 9 10
M  V30 10 2 10 11
M  V30 11 1 11 12
M  V30 12 1 12 13
M  V30 13 1 13 14
M  V30 14 1 13 15
M  V30 15 1 15 16
M  V30 16 2 16 17
M  V30 17 1 17 18
M  V30 18 2 18 19
M  V30 19 1 19 20
M  V30 20 2 20 21
M  V30 21 1 21 22
M  V30 22 1 22 23
M  V30 23 2 22 24
M  V30 24 1 21 25
M  V30 25 2 25 26
M  V30 26 1 26 27
M  V30 27 2 27 28
M  V30 28 2 12 29
M  V30 29 1 29 30
M  V30 30 2 30 31
M  V30 31 1 31 32
M  V30 32 1 6 33
M  V30 33 2 33 34
M  V30 34 1 34 35
M  V30 35 1 34 3
M  V30 36 1 31 10
M  V30 37 1 28 16
M  V30 38 1 28 20
M  V30 39 1 1 36
M  V30 40 1 1 37
M  V30 41 1 1 38
M  V30 42 1 4 39
M  V30 43 1 5 40
M  V30 44 1 9 41
M  V30 45 1 11 42
M  V30 46 1 13 43 CFG=1
M  V30 47 1 14 44
M  V30 48 1 14 45
M  V30 49 1 14 46
M  V30 50 1 15 47
M  V30 51 1 18 48
M  V30 52 1 19 49
M  V30 53 1 23 50
M  V30 54 1 23 51
M  V30 55 1 25 52
M  V30 56 1 26 53
M  V30 57 1 27 54
M  V30 58 1 29 55
M  V30 59 1 30 56
M  V30 60 1 33 57
M  V30 END BOND
M  V30 END CTAB
M  END
>  <Dataset>  (224) 
ChEMBL_Kinases

>  <Ligand_Instance>  (224) 
nan

>  <PDB_ID>  (224) 
nan

>  <Standardized_SMILES>  (224) 
COc1ccc(C(=O)Nc2cc([C@@H](C)Nc3nccc4c(C(N)=O)cccc34)ccc2F)cc1F

>  <Name>  (224) 
nan

>  <Pocket>  (224) 
nan

>  <ATP_Site>  (224) 
nan

>  <Peripheral>  (224) 
nan

>  <Num_H_Atoms_ProtBoundConf>  (224) 
nan

>  <Num_Resolved_Atoms>  (224) 
nan

>  <Num_Not_Resolved_Atoms>  (224) 
nan

$$$$
CHEMBL3680400
     RDKit          3D

  0  0  0  0  0  0  0  0  0  0999 V3000
M  V30 BEGIN CTAB
M  V30 COUNTS 58 60 0 0 0
M  V30 BEGIN ATOM
M  V30 1 C -0.043294 -0.901679 4.217184 0
M  V30 2 N 1.202495 -1.549640 4.032261 0
M  V30 3 C 1.161542 -2.777408 3.258912 0
M  V30 4 C 0.785713 -2.354626 1.810301 0
M  V30 5 N 1.750337 -1.435152 1.330886 0
M  V30 6 C 2.713023 -0.521669 0.854301 0
M  V30 7 N 4.051064 -0.457546 1.135475 0
M  V30 8 C 4.711653 0.716786 0.918086 0
M  V30 9 N 4.047513 1.768123 0.442187 0
M  V30 10 C 2.746526 1.743890 0.151349 0
M  V30 11 C 2.174646 2.894265 -0.376043 0
M  V30 12 C 2.892474 4.136473 -0.547263 0
M  V30 13 N 4.248270 4.269838 -0.133122 0
M  V30 14 O 2.307789 5.155039 -1.073237 0
M  V30 15 C 0.839577 2.824794 -0.722045 0
M  V30 16 C 0.038190 1.675242 -0.576830 0
M  V30 17 O -1.295071 1.645981 -0.937742 0
M  V30 18 C -2.072280 0.455723 -0.927527 0
M  V30 19 C -3.476150 0.882880 -1.250029 0
M  V30 20 N -4.438905 -0.187227 -1.402978 0
M  V30 21 C -4.196662 -0.857256 -2.707724 0
M  V30 22 C -4.428348 -1.203589 -0.400708 0
M  V30 23 C 0.714035 0.609996 -0.039017 0
M  V30 24 C 2.048614 0.553414 0.357047 0
M  V30 25 C 0.383289 -3.438601 0.957178 0
M  V30 26 C -0.949933 -3.822413 1.245940 0
M  V30 27 C -1.689722 -4.838006 0.629111 0
M  V30 28 C -1.043694 -5.543266 -0.376283 0
M  V30 29 C 0.244373 -5.203164 -0.683754 0
M  V30 30 F 0.906845 -5.868004 -1.654823 0
M  V30 31 C 0.947159 -4.183368 -0.044889 0
M  V30 32 H -0.911678 -1.582999 4.162349 0
M  V30 33 H -0.140978 -0.081041 3.456745 0
M  V30 34 H -0.057045 -0.380124 5.211770 0
M  V30 35 H 1.932535 -0.873485 3.704613 0
M  V30 36 H 0.328827 -3.382129 3.615585 0
M  V30 37 H 2.112372 -3.297529 3.283300 0
M  V30 38 H -0.167826 -1.709950 2.082841 0
M  V30 39 H 2.435483 -2.238915 1.526456 0
M  V30 40 H 5.737553 0.539242 1.195208 0
M  V30 41 H 4.872784 4.489258 -0.958082 0
M  V30 42 H 4.603239 4.177753 0.840380 0
M  V30 43 H 0.396227 3.713700 -1.133337 0
M  V30 44 H -1.693361 -0.188711 -1.744822 0
M  V30 45 H -1.984277 -0.023571 0.054081 0
M  V30 46 H -3.891212 1.464676 -0.338240 0
M  V30 47 H -3.522054 1.613734 -2.075560 0
M  V30 48 H -5.121211 -1.431606 -2.922770 0
M  V30 49 H -3.357281 -1.542123 -2.561863 0
M  V30 50 H -4.009574 -0.084124 -3.483273 0
M  V30 51 H -3.600435 -1.078006 0.306085 0
M  V30 52 H -4.331073 -2.224496 -0.874278 0
M  V30 53 H -5.421390 -1.207113 0.112998 0
M  V30 54 H 0.142005 -0.313295 0.092540 0
M  V30 55 H -1.575071 -3.344227 2.022597 0
M  V30 56 H -2.710619 -5.065965 0.908382 0
M  V30 57 H -1.562854 -6.318130 -0.857906 0
M  V30 58 H 1.960455 -3.858506 -0.224739 0
M  V30 END ATOM
M  V30 BEGIN BOND
M  V30 1 1 1 2
M  V30 2 1 2 3
M  V30 3 1 3 4
M  V30 4 1 4 5
M  V30 5 1 5 6
M  V30 6 2 6 7
M  V30 7 1 7 8
M  V30 8 2 8 9
M  V30 9 1 9 10
M  V30 10 2 10 11
M  V30 11 1 11 12
M  V30 12 1 12 13
M  V30 13 2 12 14
M  V30 14 1 11 15
M  V30 15 2 15 16
M  V30 16 1 16 17
M  V30 17 1 17 18
M  V30 18 1 18 19
M  V30 19 1 19 20
M  V30 20 1 20 21
M  V30 21 1 20 22
M  V30 22 1 16 23
M  V30 23 2 23 24
M  V30 24 1 4 25
M  V30 25 2 25 26
M  V30 26 1 26 27
M  V30 27 2 27 28
M  V30 28 1 28 29
M  V30 29 1 29 30
M  V30 30 2 29 31
M  V30 31 1 24 6
M  V30 32 1 31 25
M  V30 33 1 24 10
M  V30 34 1 1 32
M  V30 35 1 1 33
M  V30 36 1 1 34
M  V30 37 1 2 35
M  V30 38 1 3 36
M  V30 39 1 3 37
M  V30 40 1 4 38
M  V30 41 1 5 39
M  V30 42 1 8 40
M  V30 43 1 13 41
M  V30 44 1 13 42
M  V30 45 1 15 43
M  V30 46 1 18 44
M  V30 47 1 18 45
M  V30 48 1 19 46
M  V30 49 1 19 47
M  V30 50 1 21 48
M  V30 51 1 21 49
M  V30 52 1 21 50
M  V30 53 1 22 51
M  V30 54 1 22 52
M  V30 55 1 22 53
M  V30 56 1 23 54
M  V30 57 1 26 55
M  V30 58 1 27 56
M  V30 59 1 28 57
M  V30 60 1 31 58
M  V30 END BOND
M  V30 END CTAB
M  END
>  <Dataset>  (225) 
ChEMBL_Kinases

>  <Ligand_Instance>  (225) 
nan

>  <PDB_ID>  (225) 
nan

>  <Standardized_SMILES>  (225) 
CNCC(Nc1ncnc2c(C(N)=O)cc(OCCN(C)C)cc12)c1cccc(F)c1

>  <Name>  (225) 
nan

>  <Pocket>  (225) 
nan

>  <ATP_Site>  (225) 
nan

>  <Peripheral>  (225) 
nan

>  <Num_H_Atoms_ProtBoundConf>  (225) 
nan

>  <Num_Resolved_Atoms>  (225) 
nan

>  <Num_Not_Resolved_Atoms>  (225) 
nan

$$$$
CHEMBL4228646
     RDKit          3D

  0  0  0  0  0  0  0  0  0  0999 V3000
M  V30 BEGIN CTAB
M  V30 COUNTS 71 75 0 0 0
M  V30 BEGIN ATOM
M  V30 1 C 8.359010 0.440337 -1.121174 0
M  V30 2 N 6.907196 0.609906 -0.942989 0
M  V30 3 C 6.263651 1.556826 -1.685223 0
M  V30 4 C 4.915720 1.562887 -1.394068 0
M  V30 5 C 3.681056 2.222849 -1.774850 0
M  V30 6 N 2.818676 2.727122 -0.860540 0
M  V30 7 N 1.683180 3.318651 -1.162321 0
M  V30 8 C 0.724337 3.852241 -0.202215 0
M  V30 9 C -0.202068 2.802098 0.320778 0
M  V30 10 C -1.132433 2.090656 -0.409326 0
M  V30 11 C -1.963394 1.147762 0.194630 0
M  V30 12 C -1.895386 0.887713 1.558665 0
M  V30 13 C -2.764721 -0.129096 2.147748 0
M  V30 14 O -3.305513 0.071458 3.270767 0
M  V30 15 N -3.023489 -1.365023 1.480526 0
M  V30 16 C -3.855444 -2.497977 1.834844 0
M  V30 17 C -3.663172 -2.776795 3.328668 0
M  V30 18 C -4.500690 -4.044975 3.562053 0
M  V30 19 C -4.533780 -4.248394 5.057561 0
M  V30 20 C -5.926268 -3.813901 3.111065 0
M  V30 21 N -3.867131 -5.183341 2.965760 0
M  V30 22 O -2.833682 -5.558938 3.799451 0 RAD=2 VAL=1
M  V30 23 C -3.414798 -4.997363 1.638622 0
M  V30 24 C -1.896772 -5.240035 1.650286 0
M  V30 25 C -4.004711 -6.109957 0.763961 0
M  V30 26 C -3.607424 -3.660665 1.003193 0
M  V30 27 C -0.962459 1.608423 2.269637 0
M  V30 28 C -0.133125 2.536811 1.686869 0
M  V30 29 C 1.300649 3.459430 -2.475584 0
M  V30 30 O 0.264142 3.994074 -2.925990 0
M  V30 31 C 2.162522 2.952203 -3.463398 0
M  V30 32 C 1.810578 3.073370 -4.811807 0
M  V30 33 C 2.630650 2.581852 -5.810938 0
M  V30 34 C 3.814716 1.961861 -5.483764 0
M  V30 35 C 4.156366 1.847364 -4.155835 0
M  V30 36 C 3.365100 2.325424 -3.136231 0
M  V30 37 C 4.783953 0.555188 -0.421903 0
M  V30 38 N 5.986851 0.019177 -0.186454 0
M  V30 39 H 8.539041 -0.100614 -2.088210 0
M  V30 40 H 8.753045 -0.195462 -0.302261 0
M  V30 41 H 8.854389 1.421983 -1.187141 0
M  V30 42 H 6.604991 2.282740 -2.424693 0
M  V30 43 H 0.058834 4.598769 -0.723892 0
M  V30 44 H 1.227559 4.359139 0.637810 0
M  V30 45 H -1.193237 2.293379 -1.457789 0
M  V30 46 H -2.683405 0.619456 -0.453116 0
M  V30 47 H -2.502583 -1.426955 0.555205 0
M  V30 48 H -4.917771 -2.139693 1.800107 0
M  V30 49 H -2.654888 -2.966285 3.630884 0
M  V30 50 H -4.146243 -1.980471 3.930450 0
M  V30 51 H -3.622941 -3.774937 5.515510 0
M  V30 52 H -4.596752 -5.314574 5.307515 0
M  V30 53 H -5.401952 -3.669990 5.485960 0
M  V30 54 H -6.151238 -2.746969 3.338996 0
M  V30 55 H -6.082115 -3.942461 2.020596 0
M  V30 56 H -6.645389 -4.400961 3.689248 0
M  V30 57 H -1.546233 -4.926877 0.629496 0
M  V30 58 H -1.435317 -4.566494 2.392759 0
M  V30 59 H -1.698738 -6.317822 1.843303 0
M  V30 60 H -4.812764 -5.707791 0.083572 0
M  V30 61 H -3.251452 -6.568014 0.102869 0
M  V30 62 H -4.395318 -6.949802 1.396760 0
M  V30 63 H -4.471828 -3.782939 0.286418 0
M  V30 64 H -2.750692 -3.454908 0.270188 0
M  V30 65 H -0.938074 1.377215 3.339114 0
M  V30 66 H 0.535160 3.009760 2.367538 0
M  V30 67 H 0.891884 3.552151 -5.119947 0
M  V30 68 H 2.354915 2.675665 -6.852380 0
M  V30 69 H 4.491790 1.562149 -6.222166 0
M  V30 70 H 5.073195 1.357633 -3.906034 0
M  V30 71 H 4.009510 0.115326 0.162461 0
M  V30 END ATOM
M  V30 BEGIN BOND
M  V30 1 1 1 2
M  V30 2 1 2 3
M  V30 3 2 3 4
M  V30 4 1 4 5
M  V30 5 2 5 6
M  V30 6 1 6 7
M  V30 7 1 7 8
M  V30 8 1 8 9
M  V30 9 2 9 10
M  V30 10 1 10 11
M  V30 11 2 11 12
M  V30 12 1 12 13
M  V30 13 2 13 14
M  V30 14 1 13 15
M  V30 15 1 15 16
M  V30 16 1 16 17
M  V30 17 1 17 18
M  V30 18 1 18 19
M  V30 19 1 18 20
M  V30 20 1 18 21
M  V30 21 1 21 22
M  V30 22 1 21 23
M  V30 23 1 23 24
M  V30 24 1 23 25
M  V30 25 1 23 26
M  V30 26 1 12 27
M  V30 27 2 27 28
M  V30 28 1 7 29
M  V30 29 2 29 30
M  V30 30 1 29 31
M  V30 31 2 31 32
M  V30 32 1 32 33
M  V30 33 2 33 34
M  V30 34 1 34 35
M  V30 35 2 35 36
M  V30 36 1 4 37
M  V30 37 2 37 38
M  V30 38 1 38 2
M  V30 39 1 36 5
M  V30 40 1 28 9
M  V30 41 1 36 31
M  V30 42 1 26 16
M  V30 43 1 1 39
M  V30 44 1 1 40
M  V30 45 1 1 41
M  V30 46 1 3 42
M  V30 47 1 8 43
M  V30 48 1 8 44
M  V30 49 1 10 45
M  V30 50 1 11 46
M  V30 51 1 15 47
M  V30 52 1 16 48
M  V30 53 1 17 49
M  V30 54 1 17 50
M  V30 55 1 19 51
M  V30 56 1 19 52
M  V30 57 1 19 53
M  V30 58 1 20 54
M  V30 59 1 20 55
M  V30 60 1 20 56
M  V30 61 1 24 57
M  V30 62 1 24 58
M  V30 63 1 24 59
M  V30 64 1 25 60
M  V30 65 1 25 61
M  V30 66 1 25 62
M  V30 67 1 26 63
M  V30 68 1 26 64
M  V30 69 1 27 65
M  V30 70 1 28 66
M  V30 71 1 32 67
M  V30 72 1 33 68
M  V30 73 1 34 69
M  V30 74 1 35 70
M  V30 75 1 37 71
M  V30 END BOND
M  V30 END CTAB
M  END
>  <Dataset>  (226) 
ChEMBL_Kinases

>  <Ligand_Instance>  (226) 
nan

>  <PDB_ID>  (226) 
nan

>  <Standardized_SMILES>  (226) 
Cn1cc(-c2nn(Cc3ccc(C(=O)NC4CC(C)(C)N([O])C(C)(C)C4)cc3)c(=O)c3ccccc23)cn1

>  <Name>  (226) 
nan

>  <Pocket>  (226) 
nan

>  <ATP_Site>  (226) 
nan

>  <Peripheral>  (226) 
nan

>  <Num_H_Atoms_ProtBoundConf>  (226) 
nan

>  <Num_Resolved_Atoms>  (226) 
nan

>  <Num_Not_Resolved_Atoms>  (226) 
nan

$$$$
CHEMBL4228587
     RDKit          3D

  0  0  0  0  0  0  0  0  0  0999 V3000
M  V30 BEGIN CTAB
M  V30 COUNTS 57 60 0 0 0
M  V30 BEGIN ATOM
M  V30 1 C 3.491642 -5.355486 3.669887 0
M  V30 2 C 3.283222 -4.442882 2.528805 0
M  V30 3 O 2.295631 -3.653811 2.556188 0
M  V30 4 N 4.140720 -4.390788 1.371758 0
M  V30 5 C 3.655658 -3.397463 0.453967 0
M  V30 6 C 4.093678 -2.083460 0.542191 0
M  V30 7 C 3.604186 -1.156593 -0.358650 0
M  V30 8 C 2.695305 -1.530640 -1.329611 0
M  V30 9 S 2.068444 -0.302416 -2.496762 0
M  V30 10 C 0.584210 0.462221 -1.830592 0
M  V30 11 N 0.611204 1.574392 -1.049578 0
M  V30 12 C -0.529832 2.115222 -0.570394 0
M  V30 13 N -0.340327 3.275867 0.230859 0
M  V30 14 C -0.153996 3.230047 1.642180 0
M  V30 15 C 1.126764 3.122276 2.189912 0
M  V30 16 C 1.032900 3.098043 3.571988 0
M  V30 17 C 2.168523 2.991868 4.526481 0
M  V30 18 N -0.300577 3.191626 3.825453 0
M  V30 19 N -0.972105 3.266897 2.707796 0
M  V30 20 C -1.757366 1.553984 -0.859985 0
M  V30 21 C -1.772131 0.426337 -1.652951 0
M  V30 22 N -2.993513 -0.200011 -1.988673 0
M  V30 23 C -4.299576 0.200251 -1.592762 0
M  V30 24 C -5.052149 -0.874069 -0.846470 0
M  V30 25 N -4.692112 -2.204221 -1.259388 0
M  V30 26 C -3.900741 -2.931168 -0.315372 0
M  V30 27 C -4.184288 -2.270377 -2.605434 0
M  V30 28 C -3.007007 -1.385999 -2.824063 0
M  V30 29 N -0.624736 -0.063324 -2.096644 0
M  V30 30 C 2.248160 -2.848980 -1.427385 0
M  V30 31 C 2.744028 -3.774500 -0.519319 0
M  V30 32 H 2.957136 -6.314464 3.552559 0
M  V30 33 H 3.116702 -4.871335 4.589655 0
M  V30 34 H 4.582497 -5.497023 3.824324 0
M  V30 35 H 4.955513 -5.034783 1.338460 0
M  V30 36 H 4.804218 -1.791975 1.301575 0
M  V30 37 H 3.930485 -0.144500 -0.304129 0
M  V30 38 H -0.345942 4.177720 -0.284873 0
M  V30 39 H 2.058703 3.064579 1.671493 0
M  V30 40 H 2.795763 2.096833 4.274457 0
M  V30 41 H 1.738587 2.801704 5.531093 0
M  V30 42 H 2.791222 3.890308 4.455974 0
M  V30 43 H -0.671531 3.197315 4.796147 0
M  V30 44 H -2.630010 2.008874 -0.464422 0
M  V30 45 H -4.381533 1.106736 -0.990967 0
M  V30 46 H -4.866781 0.420415 -2.537087 0
M  V30 47 H -4.944120 -0.709752 0.238955 0
M  V30 48 H -6.130028 -0.728216 -1.065606 0
M  V30 49 H -2.820427 -3.031820 -0.604235 0
M  V30 50 H -4.274323 -3.974736 -0.200238 0
M  V30 51 H -3.940261 -2.493356 0.716264 0
M  V30 52 H -3.856523 -3.323984 -2.752554 0
M  V30 53 H -4.969100 -2.107854 -3.368779 0
M  V30 54 H -2.085085 -1.940670 -2.573009 0
M  V30 55 H -2.964820 -1.039250 -3.874437 0
M  V30 56 H 1.532232 -3.111175 -2.203083 0
M  V30 57 H 2.415622 -4.806186 -0.569878 0
M  V30 END ATOM
M  V30 BEGIN BOND
M  V30 1 1 1 2
M  V30 2 2 2 3
M  V30 3 1 2 4
M  V30 4 1 4 5
M  V30 5 2 5 6
M  V30 6 1 6 7
M  V30 7 2 7 8
M  V30 8 1 8 9
M  V30 9 1 9 10
M  V30 10 2 10 11
M  V30 11 1 11 12
M  V30 12 1 12 13
M  V30 13 1 13 14
M  V30 14 1 14 15
M  V30 15 2 15 16
M  V30 16 1 16 17
M  V30 17 1 16 18
M  V30 18 1 18 19
M  V30 19 2 12 20
M  V30 20 1 20 21
M  V30 21 1 21 22
M  V30 22 1 22 23
M  V30 23 1 23 24
M  V30 24 1 24 25
M  V30 25 1 25 26
M  V30 26 1 25 27
M  V30 27 1 27 28
M  V30 28 2 21 29
M  V30 29 1 8 30
M  V30 30 2 30 31
M  V30 31 1 31 5
M  V30 32 1 29 10
M  V30 33 2 19 14
M  V30 34 1 28 22
M  V30 35 1 1 32
M  V30 36 1 1 33
M  V30 37 1 1 34
M  V30 38 1 4 35
M  V30 39 1 6 36
M  V30 40 1 7 37
M  V30 41 1 13 38
M  V30 42 1 15 39
M  V30 43 1 17 40
M  V30 44 1 17 41
M  V30 45 1 17 42
M  V30 46 1 18 43
M  V30 47 1 20 44
M  V30 48 1 23 45
M  V30 49 1 23 46
M  V30 50 1 24 47
M  V30 51 1 24 48
M  V30 52 1 26 49
M  V30 53 1 26 50
M  V30 54 1 26 51
M  V30 55 1 27 52
M  V30 56 1 27 53
M  V30 57 1 28 54
M  V30 58 1 28 55
M  V30 59 1 30 56
M  V30 60 1 31 57
M  V30 END BOND
M  V30 END CTAB
M  END
>  <Dataset>  (227) 
ChEMBL_Kinases

>  <Ligand_Instance>  (227) 
nan

>  <PDB_ID>  (227) 
nan

>  <Standardized_SMILES>  (227) 
CC(=O)Nc1ccc(Sc2nc(Nc3cc(C)[nH]n3)cc(N3CCN(C)CC3)n2)cc1

>  <Name>  (227) 
nan

>  <Pocket>  (227) 
nan

>  <ATP_Site>  (227) 
nan

>  <Peripheral>  (227) 
nan

>  <Num_H_Atoms_ProtBoundConf>  (227) 
nan

>  <Num_Resolved_Atoms>  (227) 
nan

>  <Num_Not_Resolved_Atoms>  (227) 
nan

$$$$
CHEMBL3680399
     RDKit          3D

  0  0  0  0  0  0  0  0  0  0999 V3000
M  V30 BEGIN CTAB
M  V30 COUNTS 53 56 0 0 0
M  V30 BEGIN ATOM
M  V30 1 C 3.439668 -6.563850 -1.631964 0
M  V30 2 C 3.100596 -5.151570 -1.321348 0
M  V30 3 C 4.010698 -4.434836 -0.568824 0
M  V30 4 N 3.710331 -3.152780 -0.282758 0
M  V30 5 C 2.549858 -2.589539 -0.722464 0
M  V30 6 C 2.186271 -1.205264 -0.435184 0
M  V30 7 O 1.108027 -0.668342 -0.838962 0
M  V30 8 N 2.979331 -0.305698 0.317345 0
M  V30 9 C 2.298657 0.968286 0.391498 0
M  V30 10 C 2.538817 1.914252 -0.584751 0
M  V30 11 C 1.878689 3.145587 -0.509979 0
M  V30 12 C 1.012952 3.357363 0.543355 0
M  V30 13 C 0.794332 2.405119 1.494084 0
M  V30 14 C -0.134273 2.563820 2.670502 0
M  V30 15 C 0.784204 2.780493 3.851663 0
M  V30 16 N -0.944679 1.357628 2.825409 0
M  V30 17 C -1.781478 0.976438 1.744425 0
M  V30 18 N -1.827308 1.699564 0.617111 0
M  V30 19 C -2.599264 1.375366 -0.419529 0
M  V30 20 N -3.399819 0.285919 -0.413214 0
M  V30 21 C -3.406524 -0.486054 0.682002 0
M  V30 22 C -4.195396 -1.608940 0.759060 0
M  V30 23 C -5.051485 -1.987966 -0.362643 0
M  V30 24 N -5.143881 -1.267356 -1.577165 0
M  V30 25 O -5.792988 -2.995033 -0.359566 0
M  V30 26 C -4.231176 -2.429832 1.867937 0
M  V30 27 C -3.415032 -2.071577 2.941673 0
M  V30 28 C -2.629719 -0.941614 2.847525 0
M  V30 29 C -2.601593 -0.129630 1.736544 0
M  V30 30 C 1.434104 1.164013 1.454121 0
M  V30 31 C 1.648909 -3.318697 -1.474329 0
M  V30 32 N 1.944625 -4.603934 -1.764072 0
M  V30 33 H 4.475063 -6.709455 -1.985872 0
M  V30 34 H 3.263629 -7.149807 -0.695258 0
M  V30 35 H 2.734370 -7.001315 -2.381012 0
M  V30 36 H 4.946840 -4.819000 -0.189416 0
M  V30 37 H 3.906016 -0.658627 0.702563 0
M  V30 38 H 3.227034 1.721811 -1.405690 0
M  V30 39 H 2.029006 3.924357 -1.248119 0
M  V30 40 H 0.488196 4.292944 0.632242 0
M  V30 41 H -0.774072 3.451387 2.525293 0
M  V30 42 H 1.100596 1.790531 4.234745 0
M  V30 43 H 0.218848 3.297283 4.652296 0
M  V30 44 H 1.692284 3.334365 3.547541 0
M  V30 45 H -0.837276 0.869002 3.736427 0
M  V30 46 H -2.597206 1.997111 -1.308109 0
M  V30 47 H -5.835408 -0.497363 -1.774619 0
M  V30 48 H -4.405800 -1.647328 -2.216302 0
M  V30 49 H -4.860935 -3.301753 1.894306 0
M  V30 50 H -3.446783 -2.721976 3.813623 0
M  V30 51 H -2.034088 -0.738619 3.715071 0
M  V30 52 H 1.306481 0.365887 2.174051 0
M  V30 53 H 0.723819 -2.894752 -1.833660 0
M  V30 END ATOM
M  V30 BEGIN BOND
M  V30 1 1 1 2
M  V30 2 2 2 3
M  V30 3 1 3 4
M  V30 4 2 4 5
M  V30 5 1 5 6
M  V30 6 2 6 7
M  V30 7 1 6 8
M  V30 8 1 8 9
M  V30 9 2 9 10
M  V30 10 1 10 11
M  V30 11 2 11 12
M  V30 12 1 12 13
M  V30 13 1 13 14
M  V30 14 1 14 15
M  V30 15 1 14 16
M  V30 16 1 16 17
M  V30 17 2 17 18
M  V30 18 1 18 19
M  V30 19 2 19 20
M  V30 20 1 20 21
M  V30 21 2 21 22
M  V30 22 1 22 23
M  V30 23 1 23 24
M  V30 24 2 23 25
M  V30 25 1 22 26
M  V30 26 2 26 27
M  V30 27 1 27 28
M  V30 28 2 28 29
M  V30 29 2 13 30
M  V30 30 1 5 31
M  V30 31 2 31 32
M  V30 32 1 32 2
M  V30 33 1 30 9
M  V30 34 1 29 17
M  V30 35 1 29 21
M  V30 36 1 1 33
M  V30 37 1 1 34
M  V30 38 1 1 35
M  V30 39 1 3 36
M  V30 40 1 8 37
M  V30 41 1 10 38
M  V30 42 1 11 39
M  V30 43 1 12 40
M  V30 44 1 14 41
M  V30 45 1 15 42
M  V30 46 1 15 43
M  V30 47 1 15 44
M  V30 48 1 16 45
M  V30 49 1 19 46
M  V30 50 1 24 47
M  V30 51 1 24 48
M  V30 52 1 26 49
M  V30 53 1 27 50
M  V30 54 1 28 51
M  V30 55 1 30 52
M  V30 56 1 31 53
M  V30 END BOND
M  V30 END CTAB
M  END
>  <Dataset>  (228) 
ChEMBL_Kinases

>  <Ligand_Instance>  (228) 
nan

>  <PDB_ID>  (228) 
nan

>  <Standardized_SMILES>  (228) 
Cc1cnc(C(=O)Nc2cccc(C(C)Nc3ncnc4c(C(N)=O)cccc34)c2)cn1

>  <Name>  (228) 
nan

>  <Pocket>  (228) 
nan

>  <ATP_Site>  (228) 
nan

>  <Peripheral>  (228) 
nan

>  <Num_H_Atoms_ProtBoundConf>  (228) 
nan

>  <Num_Resolved_Atoms>  (228) 
nan

>  <Num_Not_Resolved_Atoms>  (228) 
nan

$$$$
CHEMBL4228394
     RDKit          3D

  0  0  0  0  0  0  0  0  0  0999 V3000
M  V30 BEGIN CTAB
M  V30 COUNTS 44 47 0 0 0
M  V30 BEGIN ATOM
M  V30 1 C 2.859800 -4.556358 0.432408 0
M  V30 2 C 1.530053 -4.141309 -0.153868 0
M  V30 3 C 0.487223 -5.117559 0.349271 0
M  V30 4 N 1.195874 -2.810711 0.257537 0
M  V30 5 C 1.964417 -1.661081 -0.054414 0
M  V30 6 C 3.121270 -1.693821 -0.801358 0
M  V30 7 C 3.888872 -0.592799 -1.117185 0
M  V30 8 C 3.488076 0.647587 -0.661722 0
M  V30 9 C 3.992939 1.930923 -0.779970 0
M  V30 10 N 3.153389 2.715684 -0.116197 0
M  V30 11 N 2.147038 2.045633 0.421672 0
M  V30 12 C 1.091752 2.612340 1.188847 0
M  V30 13 C 1.356361 3.761003 1.901990 0
M  V30 14 N 0.350808 4.285037 2.621819 0
M  V30 15 C -0.862383 3.733064 2.659521 0
M  V30 16 C -1.156468 2.605652 1.971610 0
M  V30 17 C -2.468773 1.969609 1.985031 0
M  V30 18 C -3.518716 2.558817 2.766147 0
M  V30 19 S -4.943477 1.367888 2.429659 0
M  V30 20 C -4.035772 0.341792 1.391860 0
M  V30 21 C -4.564813 -0.868810 0.727850 0
M  V30 22 O -3.995046 -1.696241 -0.052235 0
M  V30 23 O -5.888206 -1.219063 0.945697 0
M  V30 24 C -2.767328 0.827004 1.287989 0
M  V30 25 N -0.131899 2.104518 1.261184 0
M  V30 26 C 2.332266 0.743383 0.094523 0
M  V30 27 C 1.614645 -0.401769 0.371305 0
M  V30 28 H 2.750507 -5.404110 1.146525 0
M  V30 29 H 3.294544 -3.677922 0.942888 0
M  V30 30 H 3.595387 -4.860370 -0.362336 0
M  V30 31 H 1.632176 -4.233376 -1.265664 0
M  V30 32 H 0.928060 -6.135451 0.384724 0
M  V30 33 H -0.396007 -5.125694 -0.332463 0
M  V30 34 H 0.156248 -4.814298 1.346087 0
M  V30 35 H 0.323500 -2.649384 0.832501 0
M  V30 36 H 3.493588 -2.619274 -1.191026 0
M  V30 37 H 4.787897 -0.639005 -1.700884 0
M  V30 38 H 4.890368 2.217742 -1.309351 0
M  V30 39 H 2.317164 4.257149 1.913527 0
M  V30 40 H -1.599563 4.229231 3.265807 0
M  V30 41 H -3.464877 3.426928 3.356330 0
M  V30 42 H -6.230451 -2.190355 0.881359 0
M  V30 43 H -2.044805 0.312242 0.673792 0
M  V30 44 H 0.722248 -0.255285 0.966801 0
M  V30 END ATOM
M  V30 BEGIN BOND
M  V30 1 1 1 2
M  V30 2 1 2 3
M  V30 3 1 2 4
M  V30 4 1 4 5
M  V30 5 2 5 6
M  V30 6 1 6 7
M  V30 7 2 7 8
M  V30 8 1 8 9
M  V30 9 2 9 10
M  V30 10 1 10 11
M  V30 11 1 11 12
M  V30 12 2 12 13
M  V30 13 1 13 14
M  V30 14 2 14 15
M  V30 15 1 15 16
M  V30 16 1 16 17
M  V30 17 2 17 18
M  V30 18 1 18 19
M  V30 19 1 19 20
M  V30 20 1 20 21
M  V30 21 2 21 22
M  V30 22 1 21 23
M  V30 23 2 20 24
M  V30 24 2 16 25
M  V30 25 1 11 26
M  V30 26 2 26 27
M  V30 27 1 27 5
M  V30 28 1 26 8
M  V30 29 1 25 12
M  V30 30 1 24 17
M  V30 31 1 1 28
M  V30 32 1 1 29
M  V30 33 1 1 30
M  V30 34 1 2 31
M  V30 35 1 3 32
M  V30 36 1 3 33
M  V30 37 1 3 34
M  V30 38 1 4 35
M  V30 39 1 6 36
M  V30 40 1 7 37
M  V30 41 1 9 38
M  V30 42 1 13 39
M  V30 43 1 15 40
M  V30 44 1 18 41
M  V30 45 1 23 42
M  V30 46 1 24 43
M  V30 47 1 27 44
M  V30 END BOND
M  V30 END CTAB
M  END
>  <Dataset>  (229) 
ChEMBL_Kinases

>  <Ligand_Instance>  (229) 
nan

>  <PDB_ID>  (229) 
nan

>  <Standardized_SMILES>  (229) 
CC(C)Nc1ccc2cnn(-c3cncc(-c4csc(C(=O)O)c4)n3)c2c1

>  <Name>  (229) 
nan

>  <Pocket>  (229) 
nan

>  <ATP_Site>  (229) 
nan

>  <Peripheral>  (229) 
nan

>  <Num_H_Atoms_ProtBoundConf>  (229) 
nan

>  <Num_Resolved_Atoms>  (229) 
nan

>  <Num_Not_Resolved_Atoms>  (229) 
nan

$$$$
CHEMBL4229046
     RDKit          3D

  0  0  0  0  0  0  0  0  0  0999 V3000
M  V30 BEGIN CTAB
M  V30 COUNTS 72 77 0 0 0
M  V30 BEGIN ATOM
M  V30 1 C 3.089650 -0.962505 4.922693 0
M  V30 2 C 3.641639 -0.806778 3.563122 0
M  V30 3 C 2.955552 -0.359259 2.540655 0
M  V30 4 C 1.575797 0.053706 2.535173 0
M  V30 5 O 1.009438 0.477011 1.474948 0
M  V30 6 N 0.511168 0.160979 3.412243 0
M  V30 7 C -0.819626 0.597830 3.259352 0
M  V30 8 C -1.722887 -0.361510 2.801465 0
M  V30 9 C -3.038966 0.064364 2.664825 0
M  V30 10 C -3.487800 1.328591 2.944803 0
M  V30 11 N -4.696249 1.913348 2.876822 0
M  V30 12 N -4.602816 3.171152 3.262918 0
M  V30 13 C -3.318933 3.409130 3.585927 0
M  V30 14 C -2.582705 2.238645 3.389106 0
M  V30 15 C -1.259626 1.871774 3.543521 0
M  V30 16 C 3.558947 -0.247580 1.172734 0
M  V30 17 C 2.888044 -1.200451 0.243099 0
M  V30 18 C 2.462752 -2.341221 0.891537 0
M  V30 19 C 1.802401 -3.307895 0.124433 0
M  V30 20 C 1.647129 -3.011538 -1.209857 0
M  V30 21 F 0.993304 -4.000823 -1.888142 0
M  V30 22 C 2.086557 -1.845036 -1.856539 0
M  V30 23 C 1.720419 -1.796623 -3.305851 0
M  V30 24 C 0.344823 -1.364912 -3.499857 0
M  V30 25 O 0.645445 -0.131042 -3.288171 0
M  V30 26 N -1.019561 -1.195064 -3.724987 0
M  V30 27 C -1.738095 -2.431386 -3.893778 0
M  V30 28 C -2.962043 -2.596859 -3.054577 0
M  V30 29 C -2.963070 -1.928982 -1.716896 0
M  V30 30 C -4.331286 -1.211223 -1.616535 0
M  V30 31 C -4.079869 -0.115093 -2.662540 0
M  V30 32 C -2.605627 0.219034 -2.519774 0
M  V30 33 C -1.845922 -0.016541 -3.840642 0
M  V30 34 N -2.134281 -0.815283 -1.672602 0
M  V30 35 C -1.394966 -0.489388 -0.550325 0
M  V30 36 C 2.737396 -0.897135 -1.083548 0
M  V30 37 N 4.949014 -0.598247 1.185677 0
M  V30 38 C 5.765049 -1.091652 2.229584 0
M  V30 39 O 6.951671 -1.395700 2.063622 0
M  V30 40 N 5.029552 -1.177812 3.441895 0
M  V30 41 H 2.749701 0.045751 5.287536 0
M  V30 42 H 2.226424 -1.653625 4.996824 0
M  V30 43 H 3.859736 -1.336486 5.636987 0
M  V30 44 H 0.719582 -0.130771 4.361170 0
M  V30 45 H -1.422323 -1.352831 2.568827 0
M  V30 46 H -3.718017 -0.720427 2.297879 0
M  V30 47 H -5.565597 1.426726 2.561913 0
M  V30 48 H -2.831337 4.315648 3.949108 0
M  V30 49 H -0.563396 2.616050 3.898579 0
M  V30 50 H 3.444101 0.761633 0.741064 0
M  V30 51 H 2.606098 -2.534283 1.943642 0
M  V30 52 H 1.451712 -4.212490 0.591448 0
M  V30 53 H 2.492591 -1.313504 -3.925093 0
M  V30 54 H 1.752796 -2.879961 -3.661330 0
M  V30 55 H -1.050798 -3.284032 -3.667129 0
M  V30 56 H -2.038785 -2.557481 -4.962649 0
M  V30 57 H -3.890909 -2.381699 -3.644614 0
M  V30 58 H -3.052125 -3.716081 -2.874539 0
M  V30 59 H -2.828022 -2.600446 -0.850527 0
M  V30 60 H -5.130298 -1.893246 -1.867018 0
M  V30 61 H -4.385195 -0.718143 -0.628168 0
M  V30 62 H -4.713912 0.778270 -2.422106 0
M  V30 63 H -4.348945 -0.431778 -3.681655 0
M  V30 64 H -2.496760 1.245605 -2.153002 0
M  V30 65 H -2.488507 0.008803 -4.713141 0
M  V30 66 H -1.131383 0.860136 -3.892411 0
M  V30 67 H -1.881670 0.351601 0.017198 0
M  V30 68 H -0.398581 -0.092081 -0.818039 0
M  V30 69 H -1.234672 -1.339653 0.110899 0
M  V30 70 H 3.070142 -0.012046 -1.577152 0
M  V30 71 H 5.330457 -0.432866 0.229269 0
M  V30 72 H 5.588742 -1.542452 4.271328 0
M  V30 END ATOM
M  V30 BEGIN BOND
M  V30 1 1 1 2
M  V30 2 2 2 3
M  V30 3 1 3 4
M  V30 4 2 4 5
M  V30 5 1 4 6
M  V30 6 1 6 7
M  V30 7 2 7 8
M  V30 8 1 8 9
M  V30 9 2 9 10
M  V30 10 1 10 11
M  V30 11 1 11 12
M  V30 12 2 12 13
M  V30 13 1 13 14
M  V30 14 2 14 15
M  V30 15 1 3 16
M  V30 16 1 16 17
M  V30 17 2 17 18
M  V30 18 1 18 19
M  V30 19 2 19 20
M  V30 20 1 20 21
M  V30 21 1 20 22
M  V30 22 1 22 23
M  V30 23 1 23 24
M  V30 24 2 24 25
M  V30 25 1 24 26
M  V30 26 1 26 27
M  V30 27 1 27 28
M  V30 28 1 28 29
M  V30 29 1 29 30
M  V30 30 1 30 31
M  V30 31 1 31 32
M  V30 32 1 32 33
M  V30 33 1 32 34
M  V30 34 1 34 35
M  V30 35 2 22 36
M  V30 36 1 16 37
M  V30 37 1 37 38
M  V30 38 2 38 39
M  V30 39 1 38 40
M  V30 40 1 40 2
M  V30 41 1 15 7
M  V30 42 1 36 17
M  V30 43 1 14 10
M  V30 44 1 33 26
M  V30 45 1 34 29
M  V30 46 1 1 41
M  V30 47 1 1 42
M  V30 48 1 1 43
M  V30 49 1 6 44
M  V30 50 1 8 45
M  V30 51 1 9 46
M  V30 52 1 11 47
M  V30 53 1 13 48
M  V30 54 1 15 49
M  V30 55 1 16 50
M  V30 56 1 18 51
M  V30 57 1 19 52
M  V30 58 1 23 53
M  V30 59 1 23 54
M  V30 60 1 27 55
M  V30 61 1 27 56
M  V30 62 1 28 57
M  V30 63 1 28 58
M  V30 64 1 29 59
M  V30 65 1 30 60
M  V30 66 1 30 61
M  V30 67 1 31 62
M  V30 68 1 31 63
M  V30 69 1 32 64
M  V30 70 1 33 65
M  V30 71 1 33 66
M  V30 72 1 35 67
M  V30 73 1 35 68
M  V30 74 1 35 69
M  V30 75 1 36 70
M  V30 76 1 37 71
M  V30 77 1 40 72
M  V30 END BOND
M  V30 END CTAB
M  END
>  <Dataset>  (230) 
ChEMBL_Kinases

>  <Ligand_Instance>  (230) 
nan

>  <PDB_ID>  (230) 
nan

>  <Standardized_SMILES>  (230) 
CC1=C(C(=O)Nc2ccc3[nH]ncc3c2)C(c2ccc(F)c(CC(=O)N3CCC4CCC(C3)N4C)c2)NC(=O)N1

>  <Name>  (230) 
nan

>  <Pocket>  (230) 
nan

>  <ATP_Site>  (230) 
nan

>  <Peripheral>  (230) 
nan

>  <Num_H_Atoms_ProtBoundConf>  (230) 
nan

>  <Num_Resolved_Atoms>  (230) 
nan

>  <Num_Not_Resolved_Atoms>  (230) 
nan

$$$$
CHEMBL3680434
     RDKit          3D

  0  0  0  0  0  0  0  0  0  0999 V3000
M  V30 BEGIN CTAB
M  V30 COUNTS 35 37 0 0 0
M  V30 BEGIN ATOM
M  V30 1 N 0.423073 -3.501493 4.458342 0
M  V30 2 C 1.273326 -4.050491 3.456375 0
M  V30 3 O 2.006123 -4.995773 3.788025 0
M  V30 4 C 1.295034 -3.535618 2.091877 0
M  V30 5 C 2.157238 -4.143942 1.206410 0
M  V30 6 C 2.166730 -3.643833 -0.086336 0
M  V30 7 C 1.347224 -2.594430 -0.437586 0
M  V30 8 C 0.494960 -1.987460 0.423339 0
M  V30 9 C -0.311193 -0.938112 0.034788 0
M  V30 10 N -0.306335 -0.427305 -1.282922 0
M  V30 11 C -1.121633 0.672574 -1.767917 0
M  V30 12 C -0.864772 1.954852 -1.076785 0
M  V30 13 C 0.181975 2.753098 -1.557863 0
M  V30 14 C 0.565623 3.979212 -1.056095 0
M  V30 15 C -0.137156 4.479714 0.019727 0
M  V30 16 F 0.185904 5.660436 0.550249 0
M  V30 17 C -1.172689 3.730680 0.524851 0
M  V30 18 F -1.915371 4.160826 1.589968 0
M  V30 19 C -1.529227 2.507268 -0.002745 0
M  V30 20 N -1.096796 -0.447519 1.002971 0
M  V30 21 C -1.104277 -0.932657 2.252178 0
M  V30 22 N -0.315567 -1.963471 2.642860 0
M  V30 23 C 0.491192 -2.490115 1.706432 0
M  V30 24 H -0.577571 -3.217311 4.648853 0
M  V30 25 H -0.572633 -3.217171 4.652127 0
M  V30 26 H 2.780782 -4.961559 1.522146 0
M  V30 27 H 2.857554 -4.139655 -0.774496 0
M  V30 28 H 1.451384 -2.309749 -1.451098 0
M  V30 29 H 0.313991 -0.836655 -2.005363 0
M  V30 30 H -0.918675 0.859270 -2.839558 0
M  V30 31 H -2.207998 0.417415 -1.714496 0
M  V30 32 H 0.759754 2.382512 -2.412623 0
M  V30 33 H 1.391751 4.510596 -1.507414 0
M  V30 34 H -2.348644 1.922672 0.389070 0
M  V30 35 H -1.748918 -0.528259 3.041997 0
M  V30 END ATOM
M  V30 BEGIN BOND
M  V30 1 1 1 2
M  V30 2 2 2 3
M  V30 3 1 2 4
M  V30 4 2 4 5
M  V30 5 1 5 6
M  V30 6 2 6 7
M  V30 7 1 7 8
M  V30 8 2 8 9
M  V30 9 1 9 10
M  V30 10 1 10 11
M  V30 11 1 11 12
M  V30 12 2 12 13
M  V30 13 1 13 14
M  V30 14 2 14 15
M  V30 15 1 15 16
M  V30 16 1 15 17
M  V30 17 1 17 18
M  V30 18 2 17 19
M  V30 19 1 9 20
M  V30 20 2 20 21
M  V30 21 1 21 22
M  V30 22 2 22 23
M  V30 23 1 23 4
M  V30 24 1 23 8
M  V30 25 1 19 12
M  V30 26 1 1 24
M  V30 27 1 1 25
M  V30 28 1 5 26
M  V30 29 1 6 27
M  V30 30 1 7 28
M  V30 31 1 10 29
M  V30 32 1 11 30
M  V30 33 1 11 31
M  V30 34 1 13 32
M  V30 35 1 14 33
M  V30 36 1 19 34
M  V30 37 1 21 35
M  V30 END BOND
M  V30 END CTAB
M  END
>  <Dataset>  (231) 
ChEMBL_Kinases

>  <Ligand_Instance>  (231) 
nan

>  <PDB_ID>  (231) 
nan

>  <Standardized_SMILES>  (231) 
NC(=O)c1cccc2c(NCc3ccc(F)c(F)c3)ncnc12

>  <Name>  (231) 
nan

>  <Pocket>  (231) 
nan

>  <ATP_Site>  (231) 
nan

>  <Peripheral>  (231) 
nan

>  <Num_H_Atoms_ProtBoundConf>  (231) 
nan

>  <Num_Resolved_Atoms>  (231) 
nan

>  <Num_Not_Resolved_Atoms>  (231) 
nan

$$$$
CHEMBL3680433
     RDKit          3D

  0  0  0  0  0  0  0  0  0  0999 V3000
M  V30 BEGIN CTAB
M  V30 COUNTS 61 64 0 0 0
M  V30 BEGIN ATOM
M  V30 1 C 4.038833 -2.660545 3.863886 0
M  V30 2 N 3.223801 -1.566505 3.373945 0
M  V30 3 C 3.341425 -0.460175 4.270388 0
M  V30 4 C 1.895257 -2.071134 3.202770 0
M  V30 5 C 0.934617 -1.046226 2.698070 0
M  V30 6 N 1.331674 -0.510488 1.400776 0
M  V30 7 C 0.500216 0.477890 0.803033 0
M  V30 8 N -0.618163 0.902076 1.420137 0
M  V30 9 C -1.434159 1.833587 0.893610 0
M  V30 10 N -1.208130 2.424497 -0.293706 0
M  V30 11 C -0.091849 2.033027 -0.959788 0
M  V30 12 C 0.180955 2.612053 -2.181942 0
M  V30 13 C -0.713942 3.621116 -2.739886 0
M  V30 14 N -1.875616 4.006600 -2.013946 0
M  V30 15 O -0.497597 4.170940 -3.850383 0
M  V30 16 C 1.307748 2.240767 -2.891676 0
M  V30 17 C 2.151032 1.273348 -2.340104 0
M  V30 18 C 1.844386 0.721125 -1.121168 0
M  V30 19 C 0.741599 1.077649 -0.415797 0
M  V30 20 C -0.444968 -1.592765 2.655581 0
M  V30 21 C -1.364245 -1.326180 3.648423 0
M  V30 22 C -2.622683 -1.826474 3.606881 0
M  V30 23 C -3.023597 -2.617072 2.571563 0
M  V30 24 C -2.157258 -2.939272 1.520787 0
M  V30 25 N -2.574548 -3.767889 0.453715 0
M  V30 26 C -1.960399 -4.261235 -0.759330 0
M  V30 27 C -1.652078 -3.176732 -1.732525 0
M  V30 28 C -0.509821 -2.452677 -1.994427 0
M  V30 29 C -0.509012 -1.469901 -2.959262 0
M  V30 30 C -1.614386 -1.142943 -3.715815 0
M  V30 31 Br -1.410647 0.248919 -5.002220 0
M  V30 32 C -2.768766 -1.856197 -3.470156 0
M  V30 33 C -2.774566 -2.840874 -2.505038 0
M  V30 34 C -0.898713 -2.396411 1.631658 0
M  V30 35 H 5.001251 -2.333841 4.296728 0
M  V30 36 H 4.124513 -3.438766 3.081768 0
M  V30 37 H 3.418269 -3.143713 4.669434 0
M  V30 38 H 4.390937 -0.472658 4.676995 0
M  V30 39 H 2.660750 -0.476508 5.141146 0
M  V30 40 H 3.292351 0.525847 3.725594 0
M  V30 41 H 1.506354 -2.551569 4.101159 0
M  V30 42 H 1.970726 -2.869856 2.407784 0
M  V30 43 H 0.954199 -0.204602 3.447345 0
M  V30 44 H 2.198806 -0.895298 1.009674 0
M  V30 45 H -2.295096 2.047835 1.544939 0
M  V30 46 H -2.798057 3.622687 -1.685069 0
M  V30 47 H -2.794902 3.640710 -1.680194 0
M  V30 48 H 1.482356 2.724415 -3.851455 0
M  V30 49 H 2.997316 1.058433 -2.973489 0
M  V30 50 H 2.538504 -0.016121 -0.759922 0
M  V30 51 H -1.114279 -0.708539 4.495674 0
M  V30 52 H -3.342944 -1.621964 4.377845 0
M  V30 53 H -4.046934 -3.009953 2.560272 0
M  V30 54 H -3.564126 -4.112058 0.553756 0
M  V30 55 H -2.590244 -5.022288 -1.248685 0
M  V30 56 H -1.022130 -4.817938 -0.487014 0
M  V30 57 H 0.314973 -2.760630 -1.383630 0
M  V30 58 H 0.462365 -0.992823 -3.045085 0
M  V30 59 H -3.621812 -1.586861 -4.071139 0
M  V30 60 H -3.751284 -3.317537 -2.421901 0
M  V30 61 H -0.166079 -2.588918 0.884846 0
M  V30 END ATOM
M  V30 BEGIN BOND
M  V30 1 1 1 2
M  V30 2 1 2 3
M  V30 3 1 2 4
M  V30 4 1 4 5
M  V30 5 1 5 6
M  V30 6 1 6 7
M  V30 7 2 7 8
M  V30 8 1 8 9
M  V30 9 2 9 10
M  V30 10 1 10 11
M  V30 11 2 11 12
M  V30 12 1 12 13
M  V30 13 1 13 14
M  V30 14 2 13 15
M  V30 15 1 12 16
M  V30 16 2 16 17
M  V30 17 1 17 18
M  V30 18 2 18 19
M  V30 19 1 5 20
M  V30 20 2 20 21
M  V30 21 1 21 22
M  V30 22 2 22 23
M  V30 23 1 23 24
M  V30 24 1 24 25
M  V30 25 1 25 26
M  V30 26 1 26 27
M  V30 27 2 27 28
M  V30 28 1 28 29
M  V30 29 2 29 30
M  V30 30 1 30 31
M  V30 31 1 30 32
M  V30 32 2 32 33
M  V30 33 2 24 34
M  V30 34 1 19 7
M  V30 35 1 34 20
M  V30 36 1 19 11
M  V30 37 1 33 27
M  V30 38 1 1 35
M  V30 39 1 1 36
M  V30 40 1 1 37
M  V30 41 1 3 38
M  V30 42 1 3 39
M  V30 43 1 3 40
M  V30 44 1 4 41
M  V30 45 1 4 42
M  V30 46 1 5 43
M  V30 47 1 6 44
M  V30 48 1 9 45
M  V30 49 1 14 46
M  V30 50 1 14 47
M  V30 51 1 16 48
M  V30 52 1 17 49
M  V30 53 1 18 50
M  V30 54 1 21 51
M  V30 55 1 22 52
M  V30 56 1 23 53
M  V30 57 1 25 54
M  V30 58 1 26 55
M  V30 59 1 26 56
M  V30 60 1 28 57
M  V30 61 1 29 58
M  V30 62 1 32 59
M  V30 63 1 33 60
M  V30 64 1 34 61
M  V30 END BOND
M  V30 END CTAB
M  END
>  <Dataset>  (232) 
ChEMBL_Kinases

>  <Ligand_Instance>  (232) 
nan

>  <PDB_ID>  (232) 
nan

>  <Standardized_SMILES>  (232) 
CN(C)CC(Nc1ncnc2c(C(N)=O)cccc12)c1cccc(NCc2ccc(Br)cc2)c1

>  <Name>  (232) 
nan

>  <Pocket>  (232) 
nan

>  <ATP_Site>  (232) 
nan

>  <Peripheral>  (232) 
nan

>  <Num_H_Atoms_ProtBoundConf>  (232) 
nan

>  <Num_Resolved_Atoms>  (232) 
nan

>  <Num_Not_Resolved_Atoms>  (232) 
nan

$$$$
CHEMBL3680432
     RDKit          3D

  0  0  0  0  0  0  0  0  0  0999 V3000
M  V30 BEGIN CTAB
M  V30 COUNTS 73 77 0 0 0
M  V30 BEGIN ATOM
M  V30 1 N 5.965022 -5.602326 4.912412 0
M  V30 2 C 4.901041 -5.250393 4.019492 0
M  V30 3 O 3.941845 -6.076164 3.888245 0
M  V30 4 C 4.971543 -3.960417 3.304717 0
M  V30 5 C 6.046661 -3.117463 3.493810 0
M  V30 6 C 6.087643 -1.916683 2.814615 0
M  V30 7 C 5.046747 -1.605211 1.969209 0
M  V30 8 C 3.990356 -2.445509 1.790413 0
M  V30 9 C 2.963063 -2.110532 0.939437 0
M  V30 10 N 2.926434 -0.891845 0.202741 0
M  V30 11 C 1.816693 -0.591933 -0.681677 0
M  V30 12 C 1.868458 0.687298 -1.396142 0
M  V30 13 C 1.916473 1.951524 -0.655022 0
M  V30 14 N 0.713621 2.124326 0.151240 0
M  V30 15 C 0.822566 3.350882 0.940025 0
M  V30 16 C -0.197043 3.240425 2.053302 0
M  V30 17 C -1.554340 2.898256 1.425613 0
M  V30 18 C -1.481085 3.100890 -0.067640 0
M  V30 19 C -0.423425 2.326588 -0.756440 0
M  V30 20 C 0.538603 -0.905171 -0.017096 0
M  V30 21 C 0.375851 -0.575945 1.329191 0
M  V30 22 C -0.776747 -0.829383 2.045577 0
M  V30 23 C -1.850952 -1.441630 1.429232 0
M  V30 24 C -1.710752 -1.774686 0.098509 0
M  V30 25 N -2.735903 -2.415634 -0.694760 0
M  V30 26 C -3.497288 -1.365809 -1.256279 0
M  V30 27 O -2.979585 -0.277611 -0.841571 0
M  V30 28 C -4.653406 -1.430441 -2.139319 0
M  V30 29 C -5.166345 -0.171363 -2.482232 0
M  V30 30 C -6.267433 -0.098912 -3.315435 0
M  V30 31 C -6.898488 -1.182710 -3.834587 0
M  V30 32 C -8.083567 -0.994347 -4.725604 0
M  V30 33 F -8.738136 -2.199245 -4.862000 0
M  V30 34 F -8.946899 -0.049809 -4.184014 0
M  V30 35 F -7.693272 -0.513563 -5.964060 0
M  V30 36 C -6.395993 -2.403987 -3.498189 0
M  V30 37 C -5.315025 -2.510228 -2.681452 0
M  V30 38 F -4.786796 -3.703099 -2.323769 0
M  V30 39 C -0.549914 -1.519883 -0.623326 0
M  V30 40 N 1.942384 -2.967376 0.792509 0
M  V30 41 C 1.862575 -4.138440 1.429459 0
M  V30 42 N 2.857818 -4.488412 2.269043 0
M  V30 43 C 3.906350 -3.662169 2.451607 0
M  V30 44 H 5.667820 -5.907308 5.876949 0
M  V30 45 H 5.685774 -5.906706 5.872347 0
M  V30 46 H 6.857445 -3.398366 4.174113 0
M  V30 47 H 6.932899 -1.265596 2.969776 0
M  V30 48 H 5.101933 -0.669748 1.454720 0
M  V30 49 H 3.628562 -0.122734 0.201067 0
M  V30 50 H 1.909593 -1.398322 -1.486050 0
M  V30 51 H 0.954310 0.731565 -2.064848 0
M  V30 52 H 2.712121 0.722189 -2.156325 0
M  V30 53 H 1.859762 2.779913 -1.412529 0
M  V30 54 H 2.840493 2.161283 -0.098057 0
M  V30 55 H 1.849767 3.467591 1.332169 0
M  V30 56 H 0.576595 4.220929 0.327299 0
M  V30 57 H -0.320912 4.199045 2.572590 0
M  V30 58 H 0.084745 2.460016 2.791695 0
M  V30 59 H -1.763453 1.840586 1.662543 0
M  V30 60 H -2.345661 3.581191 1.804725 0
M  V30 61 H -2.499696 2.884711 -0.477914 0
M  V30 62 H -1.362681 4.209175 -0.215621 0
M  V30 63 H -0.755851 1.368507 -1.177037 0
M  V30 64 H -0.005691 2.938562 -1.613631 0
M  V30 65 H 1.204856 -0.092180 1.840754 0
M  V30 66 H -0.855202 -0.560576 3.070415 0
M  V30 67 H -2.777193 -1.676907 1.897573 0
M  V30 68 H -3.041874 -3.400687 -0.945341 0
M  V30 69 H -4.737257 0.756504 -2.122387 0
M  V30 70 H -6.645014 0.896361 -3.564279 0
M  V30 71 H -6.850532 -3.304797 -3.878027 0
M  V30 72 H -0.423122 -1.771517 -1.656607 0
M  V30 73 H 0.998846 -4.740170 1.233258 0
M  V30 END ATOM
M  V30 BEGIN BOND
M  V30 1 1 1 2
M  V30 2 2 2 3
M  V30 3 1 2 4
M  V30 4 2 4 5
M  V30 5 1 5 6
M  V30 6 2 6 7
M  V30 7 1 7 8
M  V30 8 2 8 9
M  V30 9 1 9 10
M  V30 10 1 10 11
M  V30 11 1 11 12
M  V30 12 1 12 13
M  V30 13 1 13 14
M  V30 14 1 14 15
M  V30 15 1 15 16
M  V30 16 1 16 17
M  V30 17 1 17 18
M  V30 18 1 18 19
M  V30 19 1 11 20
M  V30 20 2 20 21
M  V30 21 1 21 22
M  V30 22 2 22 23
M  V30 23 1 23 24
M  V30 24 1 24 25
M  V30 25 1 25 26
M  V30 26 2 26 27
M  V30 27 1 26 28
M  V30 28 2 28 29
M  V30 29 1 29 30
M  V30 30 2 30 31
M  V30 31 1 31 32
M  V30 32 1 32 33
M  V30 33 1 32 34
M  V30 34 1 32 35
M  V30 35 1 31 36
M  V30 36 2 36 37
M  V30 37 1 37 38
M  V30 38 2 24 39
M  V30 39 1 9 40
M  V30 40 2 40 41
M  V30 41 1 41 42
M  V30 42 2 42 43
M  V30 43 1 43 4
M  V30 44 1 43 8
M  V30 45 1 19 14
M  V30 46 1 39 20
M  V30 47 1 37 28
M  V30 48 1 1 44
M  V30 49 1 1 45
M  V30 50 1 5 46
M  V30 51 1 6 47
M  V30 52 1 7 48
M  V30 53 1 10 49
M  V30 54 1 11 50
M  V30 55 1 12 51
M  V30 56 1 12 52
M  V30 57 1 13 53
M  V30 58 1 13 54
M  V30 59 1 15 55
M  V30 60 1 15 56
M  V30 61 1 16 57
M  V30 62 1 16 58
M  V30 63 1 17 59
M  V30 64 1 17 60
M  V30 65 1 18 61
M  V30 66 1 18 62
M  V30 67 1 19 63
M  V30 68 1 19 64
M  V30 69 1 21 65
M  V30 70 1 22 66
M  V30 71 1 23 67
M  V30 72 1 25 68
M  V30 73 1 29 69
M  V30 74 1 30 70
M  V30 75 1 36 71
M  V30 76 1 39 72
M  V30 77 1 41 73
M  V30 END BOND
M  V30 END CTAB
M  END
>  <Dataset>  (233) 
ChEMBL_Kinases

>  <Ligand_Instance>  (233) 
nan

>  <PDB_ID>  (233) 
nan

>  <Standardized_SMILES>  (233) 
NC(=O)c1cccc2c(NC(CCN3CCCCC3)c3cccc(NC(=O)c4ccc(C(F)(F)F)cc4F)c3)ncnc12

>  <Name>  (233) 
nan

>  <Pocket>  (233) 
nan

>  <ATP_Site>  (233) 
nan

>  <Peripheral>  (233) 
nan

>  <Num_H_Atoms_ProtBoundConf>  (233) 
nan

>  <Num_Resolved_Atoms>  (233) 
nan

>  <Num_Not_Resolved_Atoms>  (233) 
nan

$$$$
CHEMBL4245507
     RDKit          3D

  0  0  0  0  0  0  0  0  0  0999 V3000
M  V30 BEGIN CTAB
M  V30 COUNTS 58 61 0 0 0
M  V30 BEGIN ATOM
M  V30 1 O -0.218553 -2.799827 1.348989 0
M  V30 2 C -0.669153 -2.172660 2.342042 0
M  V30 3 C 0.205624 -1.320593 3.189032 0
M  V30 4 C 1.602301 -1.340700 2.690238 0
M  V30 5 C 2.588677 -2.223482 3.067284 0
M  V30 6 C 3.872872 -2.145340 2.527640 0
M  V30 7 C 4.133043 -1.137145 1.585541 0
M  V30 8 C 3.150339 -0.211019 1.171141 0
M  V30 9 O 3.777425 0.564018 0.288222 0
M  V30 10 C 3.520425 1.625873 -0.492624 0
M  V30 11 C 3.139972 2.936213 0.091207 0
M  V30 12 C 1.899579 3.022998 0.887432 0
M  V30 13 N 0.701345 2.681583 0.144085 0
M  V30 14 C -0.422238 2.809857 1.052379 0
M  V30 15 C -1.691747 2.401596 0.360953 0
M  V30 16 N -1.933671 3.342112 -0.715079 0
M  V30 17 C -0.817357 3.213342 -1.631449 0
M  V30 18 C 0.498429 3.523008 -0.992554 0
M  V30 19 C 1.932634 -0.396736 1.775791 0
M  V30 20 N -2.036858 -2.236747 2.717968 0
M  V30 21 C -2.782940 -3.109094 1.800258 0
M  V30 22 N -2.508557 -3.749600 0.849339 0
M  V30 23 C -3.325289 -4.491482 0.130155 0
M  V30 24 C -2.856996 -5.240832 -1.031606 0
M  V30 25 C -3.698895 -6.021707 -1.794801 0
M  V30 26 C -3.300795 -6.745489 -2.898394 0
M  V30 27 N -2.014651 -6.707781 -3.280274 0
M  V30 28 C -1.134471 -5.970210 -2.587968 0
M  V30 29 C -1.556776 -5.257967 -1.491695 0
M  V30 30 C -4.649922 -4.519555 0.538768 0
M  V30 31 S -4.584005 -3.374460 2.051318 0
M  V30 32 H -0.188135 -0.301844 3.322208 0
M  V30 33 H 0.226922 -1.801369 4.198706 0
M  V30 34 H 2.279149 -2.961191 3.800860 0
M  V30 35 H 4.506038 -2.901576 2.928547 0
M  V30 36 H 5.188248 -1.276861 1.313212 0
M  V30 37 H 4.471492 1.842685 -1.097290 0
M  V30 38 H 2.813924 1.315875 -1.321425 0
M  V30 39 H 4.000750 3.260405 0.751263 0
M  V30 40 H 3.165757 3.687103 -0.733145 0
M  V30 41 H 1.987220 2.527579 1.853239 0
M  V30 42 H 1.763219 4.118914 1.146201 0
M  V30 43 H -0.482306 3.874713 1.352356 0
M  V30 44 H -0.259927 2.195503 1.943900 0
M  V30 45 H -2.527815 2.353533 1.087063 0
M  V30 46 H -1.519059 1.397723 -0.097681 0
M  V30 47 H -2.073043 4.301508 -0.384437 0
M  V30 48 H -0.845255 2.152685 -1.991939 0
M  V30 49 H -0.958934 3.913618 -2.489841 0
M  V30 50 H 0.519560 4.599116 -0.735571 0
M  V30 51 H 1.270011 3.304917 -1.782529 0
M  V30 52 H 1.235070 0.313374 1.419838 0
M  V30 53 H -2.518071 -1.780044 3.492971 0
M  V30 54 H -4.744660 -6.100115 -1.548193 0
M  V30 55 H -4.014378 -7.346890 -3.464343 0
M  V30 56 H -0.075056 -5.920697 -2.877845 0
M  V30 57 H -0.816751 -4.661467 -0.941473 0
M  V30 58 H -5.479153 -5.093222 0.049274 0
M  V30 END ATOM
M  V30 BEGIN BOND
M  V30 1 2 1 2
M  V30 2 1 2 3
M  V30 3 1 3 4
M  V30 4 2 4 5
M  V30 5 1 5 6
M  V30 6 2 6 7
M  V30 7 1 7 8
M  V30 8 1 8 9
M  V30 9 1 9 10
M  V30 10 1 10 11
M  V30 11 1 11 12
M  V30 12 1 12 13
M  V30 13 1 13 14
M  V30 14 1 14 15
M  V30 15 1 15 16
M  V30 16 1 16 17
M  V30 17 1 17 18
M  V30 18 2 8 19
M  V30 19 1 2 20
M  V30 20 1 20 21
M  V30 21 2 21 22
M  V30 22 1 22 23
M  V30 23 1 23 24
M  V30 24 2 24 25
M  V30 25 1 25 26
M  V30 26 2 26 27
M  V30 27 1 27 28
M  V30 28 2 28 29
M  V30 29 2 23 30
M  V30 30 1 30 31
M  V30 31 1 19 4
M  V30 32 1 31 21
M  V30 33 1 18 13
M  V30 34 1 29 24
M  V30 35 1 3 32
M  V30 36 1 3 33
M  V30 37 1 5 34
M  V30 38 1 6 35
M  V30 39 1 7 36
M  V30 40 1 10 37
M  V30 41 1 10 38
M  V30 42 1 11 39
M  V30 43 1 11 40
M  V30 44 1 12 41
M  V30 45 1 12 42
M  V30 46 1 14 43
M  V30 47 1 14 44
M  V30 48 1 15 45
M  V30 49 1 15 46
M  V30 50 1 16 47
M  V30 51 1 17 48
M  V30 52 1 17 49
M  V30 53 1 18 50
M  V30 54 1 18 51
M  V30 55 1 19 52
M  V30 56 1 20 53
M  V30 57 1 25 54
M  V30 58 1 26 55
M  V30 59 1 28 56
M  V30 60 1 29 57
M  V30 61 1 30 58
M  V30 END BOND
M  V30 END CTAB
M  END
>  <Dataset>  (234) 
ChEMBL_Kinases

>  <Ligand_Instance>  (234) 
nan

>  <PDB_ID>  (234) 
nan

>  <Standardized_SMILES>  (234) 
O=C(Cc1cccc(OCCCN2CCNCC2)c1)Nc1nc(-c2ccncc2)cs1

>  <Name>  (234) 
nan

>  <Pocket>  (234) 
nan

>  <ATP_Site>  (234) 
nan

>  <Peripheral>  (234) 
nan

>  <Num_H_Atoms_ProtBoundConf>  (234) 
nan

>  <Num_Resolved_Atoms>  (234) 
nan

>  <Num_Not_Resolved_Atoms>  (234) 
nan

$$$$
CHEMBL3680431
     RDKit          3D

  0  0  0  0  0  0  0  0  0  0999 V3000
M  V30 BEGIN CTAB
M  V30 COUNTS 52 54 0 0 0
M  V30 BEGIN ATOM
M  V30 1 C 0.086702 -0.632018 4.569601 0
M  V30 2 C 0.927181 -1.607454 3.787069 0
M  V30 3 C 1.084667 -1.058719 2.365945 0
M  V30 4 N 1.880363 -1.961595 1.591687 0
M  V30 5 C 3.247968 -1.927477 2.139711 0
M  V30 6 C 1.944221 -1.747636 0.200648 0
M  V30 7 C 0.734167 -1.978862 -0.621882 0
M  V30 8 N -0.391470 -1.141281 -0.294689 0
M  V30 9 C -0.318061 0.274184 -0.562370 0
M  V30 10 N 0.792835 0.775439 -1.120563 0
M  V30 11 C 0.975300 2.069019 -1.423257 0
M  V30 12 N -0.026538 2.955922 -1.153336 0
M  V30 13 C -1.153124 2.482496 -0.593068 0
M  V30 14 C -2.220063 3.297321 -0.281673 0
M  V30 15 C -2.153383 4.723150 -0.559691 0
M  V30 16 N -1.008874 5.306159 -1.149683 0
M  V30 17 O -2.899119 5.722856 -0.416908 0
M  V30 18 C -3.400466 2.879328 0.293282 0
M  V30 19 C -3.545621 1.538001 0.588290 0
M  V30 20 C -2.492501 0.685799 0.288941 0
M  V30 21 C -1.354246 1.155484 -0.276523 0
M  V30 22 C 0.331292 -3.436074 -0.627836 0
M  V30 23 C 0.712358 -4.304230 -1.631531 0
M  V30 24 C 0.369854 -5.627999 -1.670630 0
M  V30 25 C -0.407729 -6.102643 -0.627954 0
M  V30 26 C -0.817491 -5.276238 0.403652 0
M  V30 27 C -0.455044 -3.945453 0.414092 0
M  V30 28 H 0.733606 -0.141192 5.355154 0
M  V30 29 H -0.437568 0.119636 3.960710 0
M  V30 30 H -0.651010 -1.231170 5.180824 0
M  V30 31 H 0.439127 -2.602008 3.759126 0
M  V30 32 H 1.907669 -1.724170 4.251746 0
M  V30 33 H 0.072652 -0.877799 1.993205 0
M  V30 34 H 1.616672 -0.080469 2.516855 0
M  V30 35 H 3.415780 -2.894778 2.683173 0
M  V30 36 H 3.990643 -1.783452 1.330876 0
M  V30 37 H 3.315756 -1.129974 2.900067 0
M  V30 38 H 2.240619 -0.667351 0.040307 0
M  V30 39 H 2.836312 -2.314216 -0.216389 0
M  V30 40 H 1.044962 -1.749955 -1.692336 0
M  V30 41 H -1.202630 -1.636968 0.123460 0
M  V30 42 H 1.922506 2.358016 -1.875232 0
M  V30 43 H -0.182996 5.741266 -1.585556 0
M  V30 44 H 0.023270 5.340553 -1.336380 0
M  V30 45 H -4.179761 3.610603 0.496086 0
M  V30 46 H -4.465257 1.197048 1.040766 0
M  V30 47 H -2.653997 -0.340647 0.535811 0
M  V30 48 H 1.317763 -3.830872 -2.397313 0
M  V30 49 H 0.724673 -6.220060 -2.508990 0
M  V30 50 H -0.689681 -7.155957 -0.644039 0
M  V30 51 H -1.433151 -5.684762 1.213224 0
M  V30 52 H -0.784798 -3.315343 1.227212 0
M  V30 END ATOM
M  V30 BEGIN BOND
M  V30 1 1 1 2
M  V30 2 1 2 3
M  V30 3 1 3 4
M  V30 4 1 4 5
M  V30 5 1 4 6
M  V30 6 1 6 7
M  V30 7 1 7 8
M  V30 8 1 8 9
M  V30 9 2 9 10
M  V30 10 1 10 11
M  V30 11 2 11 12
M  V30 12 1 12 13
M  V30 13 2 13 14
M  V30 14 1 14 15
M  V30 15 1 15 16
M  V30 16 2 15 17
M  V30 17 1 14 18
M  V30 18 2 18 19
M  V30 19 1 19 20
M  V30 20 2 20 21
M  V30 21 1 7 22
M  V30 22 2 22 23
M  V30 23 1 23 24
M  V30 24 2 24 25
M  V30 25 1 25 26
M  V30 26 2 26 27
M  V30 27 1 21 9
M  V30 28 1 27 22
M  V30 29 1 21 13
M  V30 30 1 1 28
M  V30 31 1 1 29
M  V30 32 1 1 30
M  V30 33 1 2 31
M  V30 34 1 2 32
M  V30 35 1 3 33
M  V30 36 1 3 34
M  V30 37 1 5 35
M  V30 38 1 5 36
M  V30 39 1 5 37
M  V30 40 1 6 38
M  V30 41 1 6 39
M  V30 42 1 7 40
M  V30 43 1 8 41
M  V30 44 1 11 42
M  V30 45 1 16 43
M  V30 46 1 16 44
M  V30 47 1 18 45
M  V30 48 1 19 46
M  V30 49 1 20 47
M  V30 50 1 23 48
M  V30 51 1 24 49
M  V30 52 1 25 50
M  V30 53 1 26 51
M  V30 54 1 27 52
M  V30 END BOND
M  V30 END CTAB
M  END
>  <Dataset>  (235) 
ChEMBL_Kinases

>  <Ligand_Instance>  (235) 
nan

>  <PDB_ID>  (235) 
nan

>  <Standardized_SMILES>  (235) 
CCCN(C)CC(Nc1ncnc2c(C(N)=O)cccc12)c1ccccc1

>  <Name>  (235) 
nan

>  <Pocket>  (235) 
nan

>  <ATP_Site>  (235) 
nan

>  <Peripheral>  (235) 
nan

>  <Num_H_Atoms_ProtBoundConf>  (235) 
nan

>  <Num_Resolved_Atoms>  (235) 
nan

>  <Num_Not_Resolved_Atoms>  (235) 
nan

$$$$
CHEMBL3680430
     RDKit          3D

  0  0  0  0  0  0  0  0  0  0999 V3000
M  V30 BEGIN CTAB
M  V30 COUNTS 63 67 0 0 0
M  V30 BEGIN ATOM
M  V30 1 C 5.567760 -2.758254 2.606259 0
M  V30 2 O 4.316326 -2.931562 1.979037 0
M  V30 3 C 4.427647 -2.875245 0.604859 0
M  V30 4 C 3.157552 -3.048431 -0.147838 0
M  V30 5 C 2.084045 -2.035884 0.132646 0
M  V30 6 N 2.364253 -0.680086 -0.127512 0
M  V30 7 C 1.928467 0.665950 -0.164941 0
M  V30 8 N 0.672080 0.863798 0.180883 0
M  V30 9 C 0.109205 2.072105 0.188102 0
M  V30 10 N 0.867317 3.123578 -0.175249 0
M  V30 11 C 2.146424 2.970561 -0.533664 0
M  V30 12 C 2.988558 3.993773 -0.911989 0
M  V30 13 C 2.463430 5.348593 -0.944970 0
M  V30 14 N 1.107961 5.671273 -0.666941 0
M  V30 15 O 3.132440 6.375856 -1.217413 0
M  V30 16 C 4.314790 3.867283 -1.281152 0
M  V30 17 C 4.831788 2.582889 -1.264607 0
M  V30 18 C 4.033971 1.524342 -0.895209 0
M  V30 19 C 2.745573 1.737148 -0.548135 0
M  V30 20 C 0.807223 -2.594424 -0.369115 0
M  V30 21 C 0.832156 -3.655878 -1.288317 0
M  V30 22 C -0.282344 -4.282826 -1.812362 0
M  V30 23 C -1.528736 -3.840679 -1.408379 0
M  V30 24 C -1.634172 -2.785057 -0.492015 0
M  V30 25 N -2.914279 -2.298708 -0.044632 0
M  V30 26 C -3.337564 -2.997655 1.108010 0
M  V30 27 O -2.535572 -3.875043 1.494847 0
M  V30 28 C -4.595824 -2.711066 1.774132 0
M  V30 29 C -5.629732 -1.801516 1.546730 0
M  V30 30 C -6.627744 -1.930797 2.485520 0
M  V30 31 C -7.848482 -1.110469 2.507940 0
M  V30 32 C -8.441437 -0.549103 1.283959 0
M  V30 33 C -7.758659 0.344252 2.241619 0
M  V30 34 N -6.193887 -2.921846 3.280830 0
M  V30 35 N -5.028565 -3.379564 2.884602 0
M  V30 36 C -0.479465 -2.234196 -0.034593 0
M  V30 37 H 5.498639 -2.802727 3.704069 0
M  V30 38 H 6.048632 -1.815842 2.273513 0
M  V30 39 H 6.215018 -3.579289 2.254667 0
M  V30 40 H 5.056544 -3.777476 0.333520 0
M  V30 41 H 5.048599 -2.024027 0.230963 0
M  V30 42 H 3.437877 -3.059852 -1.233150 0
M  V30 43 H 2.723687 -4.030670 0.116288 0
M  V30 44 H 1.963256 -2.096558 1.279675 0
M  V30 45 H 3.353163 -0.765806 -0.421599 0
M  V30 46 H -0.924540 2.264942 0.468628 0
M  V30 47 H 0.121534 5.330795 -0.630576 0
M  V30 48 H 0.715395 6.566843 -0.356291 0
M  V30 49 H 4.907812 4.710745 -1.562395 0
M  V30 50 H 5.887783 2.459340 -1.555563 0
M  V30 51 H 4.537646 0.575263 -0.918520 0
M  V30 52 H 1.753420 -4.082213 -1.671651 0
M  V30 53 H -0.235238 -5.097284 -2.518793 0
M  V30 54 H -2.424325 -4.304897 -1.795206 0
M  V30 55 H -3.556908 -1.540872 -0.420745 0
M  V30 56 H -5.513990 -1.129152 0.683455 0
M  V30 57 H -8.524833 -1.386824 3.365068 0
M  V30 58 H -7.984085 -0.864067 0.319280 0
M  V30 59 H -9.561258 -0.543444 1.257164 0
M  V30 60 H -8.422177 1.073471 2.793124 0
M  V30 61 H -6.757548 0.759459 2.035739 0
M  V30 62 H -4.482530 -4.161357 3.350870 0
M  V30 63 H -0.599540 -1.454180 0.667815 0
M  V30 END ATOM
M  V30 BEGIN BOND
M  V30 1 1 1 2
M  V30 2 1 2 3
M  V30 3 1 3 4
M  V30 4 1 4 5
M  V30 5 1 5 6
M  V30 6 1 6 7
M  V30 7 2 7 8
M  V30 8 1 8 9
M  V30 9 2 9 10
M  V30 10 1 10 11
M  V30 11 2 11 12
M  V30 12 1 12 13
M  V30 13 1 13 14
M  V30 14 2 13 15
M  V30 15 1 12 16
M  V30 16 2 16 17
M  V30 17 1 17 18
M  V30 18 2 18 19
M  V30 19 1 5 20
M  V30 20 2 20 21
M  V30 21 1 21 22
M  V30 22 2 22 23
M  V30 23 1 23 24
M  V30 24 1 24 25
M  V30 25 1 25 26
M  V30 26 2 26 27
M  V30 27 1 26 28
M  V30 28 2 28 29
M  V30 29 1 29 30
M  V30 30 1 30 31
M  V30 31 1 31 32
M  V30 32 1 32 33
M  V30 33 2 30 34
M  V30 34 1 34 35
M  V30 35 2 24 36
M  V30 36 1 19 7
M  V30 37 1 36 20
M  V30 38 1 19 11
M  V30 39 1 35 28
M  V30 40 1 33 31
M  V30 41 1 1 37
M  V30 42 1 1 38
M  V30 43 1 1 39
M  V30 44 1 3 40
M  V30 45 1 3 41
M  V30 46 1 4 42
M  V30 47 1 4 43
M  V30 48 1 5 44
M  V30 49 1 6 45
M  V30 50 1 9 46
M  V30 51 1 14 47
M  V30 52 1 14 48
M  V30 53 1 16 49
M  V30 54 1 17 50
M  V30 55 1 18 51
M  V30 56 1 21 52
M  V30 57 1 22 53
M  V30 58 1 23 54
M  V30 59 1 25 55
M  V30 60 1 29 56
M  V30 61 1 31 57
M  V30 62 1 32 58
M  V30 63 1 32 59
M  V30 64 1 33 60
M  V30 65 1 33 61
M  V30 66 1 35 62
M  V30 67 1 36 63
M  V30 END BOND
M  V30 END CTAB
M  END
>  <Dataset>  (236) 
ChEMBL_Kinases

>  <Ligand_Instance>  (236) 
nan

>  <PDB_ID>  (236) 
nan

>  <Standardized_SMILES>  (236) 
COCCC(Nc1ncnc2c(C(N)=O)cccc12)c1cccc(NC(=O)c2cc(C3CC3)n[nH]2)c1

>  <Name>  (236) 
nan

>  <Pocket>  (236) 
nan

>  <ATP_Site>  (236) 
nan

>  <Peripheral>  (236) 
nan

>  <Num_H_Atoms_ProtBoundConf>  (236) 
nan

>  <Num_Resolved_Atoms>  (236) 
nan

>  <Num_Not_Resolved_Atoms>  (236) 
nan

$$$$
CHEMBL3128055
     RDKit          3D

  0  0  0  0  0  0  0  0  0  0999 V3000
M  V30 BEGIN CTAB
M  V30 COUNTS 44 46 0 0 0
M  V30 BEGIN ATOM
M  V30 1 C 0.952689 -5.557509 2.877008 0
M  V30 2 C -0.543054 -5.356087 2.629203 0
M  V30 3 N -0.893785 -4.111934 3.320501 0
M  V30 4 C -0.188025 -2.957768 2.864997 0
M  V30 5 N 0.983758 -2.526203 3.365714 0
M  V30 6 C 1.382567 -1.399189 2.706186 0
M  V30 7 C 2.523564 -0.608122 2.879755 0
M  V30 8 C 2.668331 0.490704 2.056360 0
M  V30 9 C 1.715193 0.796135 1.093267 0
M  V30 10 C 1.850944 1.938571 0.226606 0
M  V30 11 C 1.961090 2.892248 -0.504008 0
M  V30 12 C 2.109935 4.041905 -1.397273 0
M  V30 13 C 3.406063 3.846369 -2.154134 0
M  V30 14 C 2.064262 5.340731 -0.635791 0
M  V30 15 O 1.088513 4.074834 -2.357246 0
M  V30 16 C 0.611563 -0.022193 0.970381 0
M  V30 17 C 0.405062 -1.135291 1.760167 0
M  V30 18 N -0.526851 -2.098298 1.886770 0
M  V30 19 C -1.702102 -2.183851 1.090137 0
M  V30 20 N -2.601724 -3.169692 1.259528 0
M  V30 21 C -3.718209 -3.267946 0.516450 0
M  V30 22 N -3.978878 -2.364751 -0.441658 0
M  V30 23 C -3.085437 -1.365565 -0.626920 0
M  V30 24 N -3.262290 -0.355841 -1.613496 0
M  V30 25 N -1.972209 -1.285462 0.129108 0
M  V30 26 H 1.506454 -4.676421 2.476119 0
M  V30 27 H 1.338488 -6.458820 2.357128 0
M  V30 28 H 1.082333 -5.601481 3.975306 0
M  V30 29 H -1.103784 -6.215997 3.009571 0
M  V30 30 H -0.668155 -5.177866 1.529167 0
M  V30 31 H -1.614081 -4.157808 4.074772 0
M  V30 32 H 3.237633 -0.881180 3.638756 0
M  V30 33 H 3.524819 1.129137 2.148954 0
M  V30 34 H 3.304734 4.330503 -3.144704 0
M  V30 35 H 4.223747 4.289157 -1.556545 0
M  V30 36 H 3.500585 2.765254 -2.343730 0
M  V30 37 H 2.072025 5.106168 0.465508 0
M  V30 38 H 1.106943 5.876673 -0.795237 0
M  V30 39 H 2.880108 6.025584 -0.916719 0
M  V30 40 H 0.956766 4.990822 -2.708930 0
M  V30 41 H -0.127594 0.212660 0.225073 0
M  V30 42 H -4.473904 -4.034303 0.606553 0
M  V30 43 H -4.155124 0.016174 -2.033202 0
M  V30 44 H -2.445079 0.135129 -2.031863 0
M  V30 END ATOM
M  V30 BEGIN BOND
M  V30 1 1 1 2
M  V30 2 1 2 3
M  V30 3 1 3 4
M  V30 4 2 4 5
M  V30 5 1 5 6
M  V30 6 2 6 7
M  V30 7 1 7 8
M  V30 8 2 8 9
M  V30 9 1 9 10
M  V30 10 3 10 11
M  V30 11 1 11 12
M  V30 12 1 12 13
M  V30 13 1 12 14
M  V30 14 1 12 15
M  V30 15 1 9 16
M  V30 16 2 16 17
M  V30 17 1 17 18
M  V30 18 1 18 19
M  V30 19 2 19 20
M  V30 20 1 20 21
M  V30 21 2 21 22
M  V30 22 1 22 23
M  V30 23 1 23 24
M  V30 24 2 23 25
M  V30 25 1 18 4
M  V30 26 1 25 19
M  V30 27 1 17 6
M  V30 28 1 1 26
M  V30 29 1 1 27
M  V30 30 1 1 28
M  V30 31 1 2 29
M  V30 32 1 2 30
M  V30 33 1 3 31
M  V30 34 1 7 32
M  V30 35 1 8 33
M  V30 36 1 13 34
M  V30 37 1 13 35
M  V30 38 1 13 36
M  V30 39 1 14 37
M  V30 40 1 14 38
M  V30 41 1 14 39
M  V30 42 1 15 40
M  V30 43 1 16 41
M  V30 44 1 21 42
M  V30 45 1 24 43
M  V30 46 1 24 44
M  V30 END BOND
M  V30 END CTAB
M  END
>  <Dataset>  (237) 
ChEMBL_Kinases

>  <Ligand_Instance>  (237) 
nan

>  <PDB_ID>  (237) 
nan

>  <Standardized_SMILES>  (237) 
CCNc1nc2ccc(C#CC(C)(C)O)cc2n1-c1ncnc(N)n1

>  <Name>  (237) 
nan

>  <Pocket>  (237) 
nan

>  <ATP_Site>  (237) 
nan

>  <Peripheral>  (237) 
nan

>  <Num_H_Atoms_ProtBoundConf>  (237) 
nan

>  <Num_Resolved_Atoms>  (237) 
nan

>  <Num_Not_Resolved_Atoms>  (237) 
nan

$$$$
CHEMBL3133821
     RDKit          3D

  0  0  0  0  0  0  0  0  0  0999 V3000
M  V30 BEGIN CTAB
M  V30 COUNTS 34 37 0 0 0
M  V30 BEGIN ATOM
M  V30 1 O 0.049974 -1.659905 4.378960 0
M  V30 2 C 0.198874 -2.353460 3.187011 0
M  V30 3 C -0.065747 -3.706725 3.207082 0
M  V30 4 C 0.068876 -4.436003 2.046480 0
M  V30 5 C 0.455776 -3.911775 0.837024 0
M  V30 6 C 0.713594 -2.570119 0.836252 0
M  V30 7 N 1.132852 -1.786097 -0.274634 0
M  V30 8 C 1.407197 -0.431025 -0.559753 0
M  V30 9 C 2.752263 -0.236960 -0.893593 0
M  V30 10 C 3.254223 1.007619 -1.202202 0
M  V30 11 N 2.389761 2.031897 -1.168332 0
M  V30 12 C 1.088920 1.919017 -0.858390 0
M  V30 13 N 0.059681 2.779765 -0.771004 0
M  V30 14 C -1.043847 2.094593 -0.423011 0
M  V30 15 C -2.343277 2.498337 -0.213470 0
M  V30 16 C -3.321963 1.593710 0.132517 0
M  V30 17 C -2.965981 0.249307 0.266895 0
M  V30 18 C -1.662264 -0.135820 0.053876 0
M  V30 19 C -0.707247 0.777940 -0.287455 0
M  V30 20 C 0.608752 0.672804 -0.554933 0
M  V30 21 C 0.588744 -1.793001 1.994382 0
M  V30 22 H -0.371495 -0.731543 4.425493 0
M  V30 23 H -0.373949 -4.237339 4.078827 0
M  V30 24 H -0.135920 -5.514860 2.036332 0
M  V30 25 H 0.576582 -4.435233 -0.098163 0
M  V30 26 H 1.274571 -2.387418 -1.122442 0
M  V30 27 H 3.508373 -1.025992 -0.940257 0
M  V30 28 H 4.275468 1.197806 -1.462178 0
M  V30 29 H 0.095808 3.798353 -0.939935 0
M  V30 30 H -2.587946 3.548325 -0.325638 0
M  V30 31 H -4.314599 1.949313 0.285465 0
M  V30 32 H -3.811295 -0.388903 0.542974 0
M  V30 33 H -1.575008 -1.192939 0.187236 0
M  V30 34 H 0.778639 -0.727156 2.056829 0
M  V30 END ATOM
M  V30 BEGIN BOND
M  V30 1 1 1 2
M  V30 2 2 2 3
M  V30 3 1 3 4
M  V30 4 2 4 5
M  V30 5 1 5 6
M  V30 6 1 6 7
M  V30 7 1 7 8
M  V30 8 2 8 9
M  V30 9 1 9 10
M  V30 10 2 10 11
M  V30 11 1 11 12
M  V30 12 1 12 13
M  V30 13 1 13 14
M  V30 14 2 14 15
M  V30 15 1 15 16
M  V30 16 2 16 17
M  V30 17 1 17 18
M  V30 18 2 18 19
M  V30 19 1 19 20
M  V30 20 2 6 21
M  V30 21 1 21 2
M  V30 22 1 20 8
M  V30 23 2 20 12
M  V30 24 1 19 14
M  V30 25 1 1 22
M  V30 26 1 3 23
M  V30 27 1 4 24
M  V30 28 1 5 25
M  V30 29 1 7 26
M  V30 30 1 9 27
M  V30 31 1 10 28
M  V30 32 1 13 29
M  V30 33 1 15 30
M  V30 34 1 16 31
M  V30 35 1 17 32
M  V30 36 1 18 33
M  V30 37 1 21 34
M  V30 END BOND
M  V30 END CTAB
M  END
>  <Dataset>  (238) 
ChEMBL_Kinases

>  <Ligand_Instance>  (238) 
nan

>  <PDB_ID>  (238) 
nan

>  <Standardized_SMILES>  (238) 
Oc1cccc(Nc2ccnc3[nH]c4ccccc4c23)c1

>  <Name>  (238) 
nan

>  <Pocket>  (238) 
nan

>  <ATP_Site>  (238) 
nan

>  <Peripheral>  (238) 
nan

>  <Num_H_Atoms_ProtBoundConf>  (238) 
nan

>  <Num_Resolved_Atoms>  (238) 
nan

>  <Num_Not_Resolved_Atoms>  (238) 
nan

$$$$
CHEMBL4242549
     RDKit          3D

  0  0  0  0  0  0  0  0  0  0999 V3000
M  V30 BEGIN CTAB
M  V30 COUNTS 56 59 0 0 0
M  V30 BEGIN ATOM
M  V30 1 O 1.029754 -2.481891 1.607488 0
M  V30 2 C 0.732668 -3.107686 2.647611 0
M  V30 3 C 2.033421 -2.705689 3.238243 0
M  V30 4 C 2.778843 -2.078077 2.112262 0
M  V30 5 C 3.821465 -2.718495 1.553597 0
M  V30 6 C 4.615924 -2.358542 0.504543 0
M  V30 7 C 4.278049 -1.117405 -0.076968 0
M  V30 8 C 3.211014 -0.381421 0.435722 0
M  V30 9 O 2.814226 0.867316 -0.112551 0
M  V30 10 C 1.676308 1.529008 0.469589 0
M  V30 11 C 1.285120 2.784947 -0.207782 0
M  V30 12 N 0.111674 3.316926 0.400707 0
M  V30 13 C 0.180534 3.838998 1.697792 0
M  V30 14 C -1.191564 3.652723 2.363970 0
M  V30 15 C -2.330900 3.951338 1.433976 0
M  V30 16 C -2.271258 2.949304 0.271307 0
M  V30 17 C -0.944530 2.280684 0.314932 0
M  V30 18 C 2.501300 -0.857482 1.493579 0
M  V30 19 N -0.466471 -3.830580 2.875610 0
M  V30 20 C -1.336178 -3.642325 1.667360 0
M  V30 21 N -1.697814 -3.841232 0.683044 0
M  V30 22 C -2.136240 -4.034085 -0.434920 0
M  V30 23 C -2.604733 -4.573980 -1.647766 0
M  V30 24 C -2.999666 -5.625999 -2.363640 0
M  V30 25 C -3.172998 -6.059985 -3.576415 0
M  V30 26 N -2.848937 -5.142963 -4.507972 0
M  V30 27 C -2.390081 -3.897961 -4.118075 0
M  V30 28 C -2.295765 -3.674917 -2.775014 0
M  V30 29 C -3.011200 -2.874873 -0.229737 0
M  V30 30 S -2.553939 -2.305489 1.512543 0
M  V30 31 H 2.627502 -3.443366 3.726284 0
M  V30 32 H 1.846163 -1.893313 4.007469 0
M  V30 33 H 4.113141 -3.673405 1.970426 0
M  V30 34 H 5.482365 -2.870586 0.054121 0
M  V30 35 H 4.808125 -0.706306 -0.933989 0
M  V30 36 H 0.860764 0.813311 0.511690 0
M  V30 37 H 2.082580 1.839567 1.475523 0
M  V30 38 H 2.139327 3.530135 -0.155806 0
M  V30 39 H 1.063552 2.575518 -1.288957 0
M  V30 40 H 0.925648 3.417865 2.364795 0
M  V30 41 H 0.362362 4.961248 1.644149 0
M  V30 42 H -1.229453 4.315999 3.275764 0
M  V30 43 H -1.336413 2.644539 2.799277 0
M  V30 44 H -2.301795 4.973770 1.056584 0
M  V30 45 H -3.251147 3.762553 2.000228 0
M  V30 46 H -2.393263 3.553260 -0.644328 0
M  V30 47 H -3.086715 2.203099 0.355899 0
M  V30 48 H -0.861521 1.602693 1.182421 0
M  V30 49 H -0.702374 1.690712 -0.562434 0
M  V30 50 H 1.682107 -0.300015 1.916804 0
M  V30 51 H -0.364794 -4.249924 3.782614 0
M  V30 52 H -3.276836 -6.336465 -1.535796 0
M  V30 53 H -3.537131 -7.055324 -3.785071 0
M  V30 54 H -2.129163 -3.233435 -4.970350 0
M  V30 55 H -1.919522 -2.602657 -2.759320 0
M  V30 56 H -3.798029 -2.185502 -0.598190 0
M  V30 END ATOM
M  V30 BEGIN BOND
M  V30 1 2 1 2
M  V30 2 1 2 3
M  V30 3 1 3 4
M  V30 4 2 4 5
M  V30 5 1 5 6
M  V30 6 2 6 7
M  V30 7 1 7 8
M  V30 8 1 8 9
M  V30 9 1 9 10
M  V30 10 1 10 11
M  V30 11 1 11 12
M  V30 12 1 12 13
M  V30 13 1 13 14
M  V30 14 1 14 15
M  V30 15 1 15 16
M  V30 16 1 16 17
M  V30 17 2 8 18
M  V30 18 1 2 19
M  V30 19 1 19 20
M  V30 20 2 20 21
M  V30 21 1 21 22
M  V30 22 1 22 23
M  V30 23 2 23 24
M  V30 24 1 24 25
M  V30 25 2 25 26
M  V30 26 1 26 27
M  V30 27 2 27 28
M  V30 28 2 22 29
M  V30 29 1 29 30
M  V30 30 1 18 4
M  V30 31 1 30 20
M  V30 32 1 17 12
M  V30 33 1 28 23
M  V30 34 1 3 31
M  V30 35 1 3 32
M  V30 36 1 5 33
M  V30 37 1 6 34
M  V30 38 1 7 35
M  V30 39 1 10 36
M  V30 40 1 10 37
M  V30 41 1 11 38
M  V30 42 1 11 39
M  V30 43 1 13 40
M  V30 44 1 13 41
M  V30 45 1 14 42
M  V30 46 1 14 43
M  V30 47 1 15 44
M  V30 48 1 15 45
M  V30 49 1 16 46
M  V30 50 1 16 47
M  V30 51 1 17 48
M  V30 52 1 17 49
M  V30 53 1 18 50
M  V30 54 1 19 51
M  V30 55 1 24 52
M  V30 56 1 25 53
M  V30 57 1 27 54
M  V30 58 1 28 55
M  V30 59 1 29 56
M  V30 END BOND
M  V30 END CTAB
M  END
>  <Dataset>  (239) 
ChEMBL_Kinases

>  <Ligand_Instance>  (239) 
nan

>  <PDB_ID>  (239) 
nan

>  <Standardized_SMILES>  (239) 
O=C(Cc1cccc(OCCN2CCCCC2)c1)Nc1nc(-c2ccncc2)cs1

>  <Name>  (239) 
nan

>  <Pocket>  (239) 
nan

>  <ATP_Site>  (239) 
nan

>  <Peripheral>  (239) 
nan

>  <Num_H_Atoms_ProtBoundConf>  (239) 
nan

>  <Num_Resolved_Atoms>  (239) 
nan

>  <Num_Not_Resolved_Atoms>  (239) 
nan

$$$$
CHEMBL3680414
     RDKit          3D

  0  0  0  0  0  0  0  0  0  0999 V3000
M  V30 BEGIN CTAB
M  V30 COUNTS 49 51 0 0 0
M  V30 BEGIN ATOM
M  V30 1 C 2.019096 -2.998772 -1.364639 0
M  V30 2 C 0.588350 -3.543356 -1.356176 0
M  V30 3 C 0.119301 -3.488438 -2.780739 0
M  V30 4 N -0.259833 -2.693364 -0.504979 0
M  V30 5 C 0.214248 -2.650659 0.839838 0
M  V30 6 C -0.602133 -1.800548 1.779830 0 CFG=1
M  V30 7 N -0.697806 -0.423570 1.421987 0
M  V30 8 C 0.445211 0.397453 1.336847 0
M  V30 9 N 1.651634 -0.145221 1.605732 0
M  V30 10 C 2.810872 0.531903 1.559278 0
M  V30 11 N 2.778870 1.854150 1.219847 0
M  V30 12 C 1.577903 2.430010 0.943113 0
M  V30 13 C 1.441880 3.752884 0.590968 0
M  V30 14 C 2.641920 4.571284 0.509823 0
M  V30 15 N 3.923638 4.040801 0.793969 0
M  V30 16 O 3.156001 5.681642 0.274555 0
M  V30 17 C 0.259489 4.393792 0.298928 0
M  V30 18 C -0.895607 3.647496 0.363483 0
M  V30 19 C -0.820559 2.324782 0.708672 0
M  V30 20 C 0.380360 1.752146 0.985495 0
M  V30 21 C -1.905958 -2.424863 2.107078 0
M  V30 22 C -2.735197 -1.686154 2.950055 0
M  V30 23 C -3.976030 -2.113950 3.351458 0
M  V30 24 C -4.461927 -3.346130 2.911619 0
M  V30 25 C -3.643135 -4.071602 2.081612 0
M  V30 26 C -2.401078 -3.649682 1.676130 0
M  V30 27 H 2.043318 -1.906701 -1.346842 0
M  V30 28 H 2.520537 -3.337984 -2.295425 0
M  V30 29 H 2.566828 -3.451618 -0.505927 0
M  V30 30 H 0.642970 -4.577785 -1.023110 0
M  V30 31 H 0.537851 -2.568636 -3.242814 0
M  V30 32 H 0.499937 -4.419208 -3.277643 0
M  V30 33 H -0.977130 -3.494223 -2.895924 0
M  V30 34 H -0.224570 -1.740699 -0.955136 0
M  V30 35 H 0.214014 -3.699979 1.237321 0
M  V30 36 H 1.282604 -2.357094 0.844929 0
M  V30 37 H -0.031739 -1.817260 2.758413 0
M  V30 38 H -1.678339 -0.126288 1.239833 0
M  V30 39 H 3.725428 0.006615 1.793127 0
M  V30 40 H 4.746841 3.543727 1.146135 0
M  V30 41 H 4.615936 3.442607 1.294928 0
M  V30 42 H 0.294117 5.438310 0.036867 0
M  V30 43 H -1.841463 4.109237 0.143854 0
M  V30 44 H -1.749923 1.791500 0.743506 0
M  V30 45 H -2.466567 -0.710506 3.358874 0
M  V30 46 H -4.620039 -1.546737 4.002255 0
M  V30 47 H -5.401668 -3.785987 3.150291 0
M  V30 48 H -3.967606 -5.051421 1.700237 0
M  V30 49 H -1.747945 -4.189358 1.034064 0
M  V30 END ATOM
M  V30 BEGIN BOND
M  V30 1 1 1 2
M  V30 2 1 2 3
M  V30 3 1 2 4
M  V30 4 1 4 5
M  V30 5 1 5 6
M  V30 6 1 6 7
M  V30 7 1 7 8
M  V30 8 2 8 9
M  V30 9 1 9 10
M  V30 10 2 10 11
M  V30 11 1 11 12
M  V30 12 2 12 13
M  V30 13 1 13 14
M  V30 14 1 14 15
M  V30 15 2 14 16
M  V30 16 1 13 17
M  V30 17 2 17 18
M  V30 18 1 18 19
M  V30 19 2 19 20
M  V30 20 1 6 21
M  V30 21 2 21 22
M  V30 22 1 22 23
M  V30 23 2 23 24
M  V30 24 1 24 25
M  V30 25 2 25 26
M  V30 26 1 20 8
M  V30 27 1 26 21
M  V30 28 1 20 12
M  V30 29 1 1 27
M  V30 30 1 1 28
M  V30 31 1 1 29
M  V30 32 1 2 30
M  V30 33 1 3 31
M  V30 34 1 3 32
M  V30 35 1 3 33
M  V30 36 1 4 34
M  V30 37 1 5 35
M  V30 38 1 5 36
M  V30 39 1 6 37 CFG=1
M  V30 40 1 7 38
M  V30 41 1 10 39
M  V30 42 1 15 40
M  V30 43 1 15 41
M  V30 44 1 17 42
M  V30 45 1 18 43
M  V30 46 1 19 44
M  V30 47 1 22 45
M  V30 48 1 23 46
M  V30 49 1 24 47
M  V30 50 1 25 48
M  V30 51 1 26 49
M  V30 END BOND
M  V30 END CTAB
M  END
>  <Dataset>  (240) 
ChEMBL_Kinases

>  <Ligand_Instance>  (240) 
nan

>  <PDB_ID>  (240) 
nan

>  <Standardized_SMILES>  (240) 
CC(C)NC[C@@H](Nc1ncnc2c(C(N)=O)cccc12)c1ccccc1

>  <Name>  (240) 
nan

>  <Pocket>  (240) 
nan

>  <ATP_Site>  (240) 
nan

>  <Peripheral>  (240) 
nan

>  <Num_H_Atoms_ProtBoundConf>  (240) 
nan

>  <Num_Resolved_Atoms>  (240) 
nan

>  <Num_Not_Resolved_Atoms>  (240) 
nan

$$$$
CHEMBL3680428
     RDKit          3D

  0  0  0  0  0  0  0  0  0  0999 V3000
M  V30 BEGIN CTAB
M  V30 COUNTS 63 66 0 0 0
M  V30 BEGIN ATOM
M  V30 1 C -1.057737 3.304715 0.316052 0
M  V30 2 O -0.723059 2.325262 -0.644542 0
M  V30 3 C -1.938730 1.624933 -0.845410 0
M  V30 4 C -1.753915 0.501219 -1.829922 0
M  V30 5 C -0.730832 -0.467118 -1.256654 0
M  V30 6 N -0.496249 -1.546151 -2.119384 0
M  V30 7 C -0.957987 -2.474057 -3.092235 0
M  V30 8 N -2.239933 -2.170758 -3.464064 0
M  V30 9 C -2.884646 -2.858404 -4.429840 0
M  V30 10 N -2.250664 -3.898730 -5.069952 0
M  V30 11 C -0.977394 -4.175455 -4.674560 0
M  V30 12 C -0.290839 -5.225791 -5.268195 0
M  V30 13 C -0.951023 -5.967206 -6.318169 0
M  V30 14 N -2.199552 -5.734773 -6.907869 0
M  V30 15 O -0.436956 -6.982383 -6.870972 0
M  V30 16 C 1.012321 -5.534396 -4.859081 0
M  V30 17 C 1.606286 -4.794624 -3.865644 0
M  V30 18 C 0.968036 -3.737510 -3.241943 0
M  V30 19 C -0.298805 -3.508010 -3.710180 0
M  V30 20 C -1.058194 -0.885594 0.144469 0
M  V30 21 C -2.242749 -1.606407 0.370595 0
M  V30 22 C -2.415496 -1.965336 1.724064 0
M  V30 23 C -1.587903 -1.703400 2.822656 0
M  V30 24 C -0.499671 -0.994892 2.388501 0
M  V30 25 N 0.486487 -0.645165 3.416692 0
M  V30 26 C 0.271116 0.621932 3.936917 0
M  V30 27 O -0.752557 1.204567 3.404422 0
M  V30 28 C 0.965311 1.435251 4.968815 0
M  V30 29 C 0.258395 2.540301 5.454074 0
M  V30 30 C 0.813856 3.360687 6.436977 0
M  V30 31 C 2.089483 2.958696 6.847593 0
M  V30 32 O 2.660316 3.748631 7.816723 0
M  V30 33 C 3.933567 3.561005 8.401565 0
M  V30 34 C 2.779500 1.899138 6.391044 0
M  V30 35 C 2.217168 1.076287 5.400196 0
M  V30 36 F 2.892332 0.010836 4.940189 0
M  V30 37 C -0.173936 -0.565356 1.127892 0
M  V30 38 H -1.871271 3.904146 -0.113644 0
M  V30 39 H -1.415152 2.807874 1.242551 0
M  V30 40 H -0.197910 3.977958 0.495722 0
M  V30 41 H -2.647105 2.342496 -1.305209 0
M  V30 42 H -2.229082 1.279843 0.167326 0
M  V30 43 H -1.315116 0.910808 -2.755021 0
M  V30 44 H -2.674092 -0.023943 -2.077604 0
M  V30 45 H 0.203608 0.184222 -1.185227 0
M  V30 46 H 0.499348 -1.775964 -1.956011 0
M  V30 47 H -3.900821 -2.669783 -4.790845 0
M  V30 48 H -3.134286 -6.205745 -6.893394 0
M  V30 49 H -2.704997 -5.097739 -7.530274 0
M  V30 50 H 1.489684 -6.377847 -5.379149 0
M  V30 51 H 2.616669 -5.158713 -3.660699 0
M  V30 52 H 1.517184 -3.220638 -2.478944 0
M  V30 53 H -2.946689 -1.863580 -0.397349 0
M  V30 54 H -3.353779 -2.526321 1.849592 0
M  V30 55 H -1.823431 -2.041855 3.798702 0
M  V30 56 H 1.315521 -1.121687 3.854906 0
M  V30 57 H -0.731960 2.828472 5.118573 0
M  V30 58 H 0.300715 4.203536 6.834313 0
M  V30 59 H 3.909766 2.564367 8.891652 0
M  V30 60 H 4.740319 3.508343 7.620457 0
M  V30 61 H 4.155451 4.325323 9.150723 0
M  V30 62 H 3.785214 1.600934 6.732777 0
M  V30 63 H 0.721400 -0.019020 0.945550 0
M  V30 END ATOM
M  V30 BEGIN BOND
M  V30 1 1 1 2
M  V30 2 1 2 3
M  V30 3 1 3 4
M  V30 4 1 4 5
M  V30 5 1 5 6
M  V30 6 1 6 7
M  V30 7 2 7 8
M  V30 8 1 8 9
M  V30 9 2 9 10
M  V30 10 1 10 11
M  V30 11 2 11 12
M  V30 12 1 12 13
M  V30 13 1 13 14
M  V30 14 2 13 15
M  V30 15 1 12 16
M  V30 16 2 16 17
M  V30 17 1 17 18
M  V30 18 2 18 19
M  V30 19 1 5 20
M  V30 20 2 20 21
M  V30 21 1 21 22
M  V30 22 2 22 23
M  V30 23 1 23 24
M  V30 24 1 24 25
M  V30 25 1 25 26
M  V30 26 2 26 27
M  V30 27 1 26 28
M  V30 28 2 28 29
M  V30 29 1 29 30
M  V30 30 2 30 31
M  V30 31 1 31 32
M  V30 32 1 32 33
M  V30 33 1 31 34
M  V30 34 2 34 35
M  V30 35 1 35 36
M  V30 36 2 24 37
M  V30 37 1 19 7
M  V30 38 1 37 20
M  V30 39 1 19 11
M  V30 40 1 35 28
M  V30 41 1 1 38
M  V30 42 1 1 39
M  V30 43 1 1 40
M  V30 44 1 3 41
M  V30 45 1 3 42
M  V30 46 1 4 43
M  V30 47 1 4 44
M  V30 48 1 5 45
M  V30 49 1 6 46
M  V30 50 1 9 47
M  V30 51 1 14 48
M  V30 52 1 14 49
M  V30 53 1 16 50
M  V30 54 1 17 51
M  V30 55 1 18 52
M  V30 56 1 21 53
M  V30 57 1 22 54
M  V30 58 1 23 55
M  V30 59 1 25 56
M  V30 60 1 29 57
M  V30 61 1 30 58
M  V30 62 1 33 59
M  V30 63 1 33 60
M  V30 64 1 33 61
M  V30 65 1 34 62
M  V30 66 1 37 63
M  V30 END BOND
M  V30 END CTAB
M  END
>  <Dataset>  (241) 
ChEMBL_Kinases

>  <Ligand_Instance>  (241) 
nan

>  <PDB_ID>  (241) 
nan

>  <Standardized_SMILES>  (241) 
COCCC(Nc1ncnc2c(C(N)=O)cccc12)c1cccc(NC(=O)c2ccc(OC)cc2F)c1

>  <Name>  (241) 
nan

>  <Pocket>  (241) 
nan

>  <ATP_Site>  (241) 
nan

>  <Peripheral>  (241) 
nan

>  <Num_H_Atoms_ProtBoundConf>  (241) 
nan

>  <Num_Resolved_Atoms>  (241) 
nan

>  <Num_Not_Resolved_Atoms>  (241) 
nan

$$$$
CHEMBL3680425
     RDKit          3D

  0  0  0  0  0  0  0  0  0  0999 V3000
M  V30 BEGIN CTAB
M  V30 COUNTS 70 74 0 0 0
M  V30 BEGIN ATOM
M  V30 1 N 6.469414 2.307542 4.357288 0
M  V30 2 C 5.071234 2.210278 4.195074 0
M  V30 3 O 4.356712 2.122398 5.242932 0
M  V30 4 C 4.428288 2.206994 2.886058 0
M  V30 5 C 5.093319 2.297000 1.681190 0
M  V30 6 C 4.479356 2.293213 0.459455 0
M  V30 7 C 3.101597 2.192361 0.435365 0
M  V30 8 C 2.377434 2.099292 1.600223 0
M  V30 9 C 1.004249 1.999809 1.536020 0
M  V30 10 N 0.261628 1.986603 0.324120 0
M  V30 11 C -1.180713 1.876694 0.411501 0
M  V30 12 C -1.855458 1.878620 -0.934582 0
M  V30 13 C -1.442714 0.765400 -1.834900 0
M  V30 14 N -2.089073 0.783704 -3.108305 0
M  V30 15 C -1.673919 -0.302942 -3.973927 0
M  V30 16 C -1.998566 -1.614672 -3.306804 0
M  V30 17 C -3.419420 -1.741418 -2.872041 0
M  V30 18 C -4.089519 -0.480750 -2.452049 0
M  V30 19 C -3.519128 0.756414 -3.069749 0
M  V30 20 C -1.557465 0.723342 1.265980 0
M  V30 21 C -2.553976 0.883778 2.210223 0
M  V30 22 C -2.920836 -0.170526 3.014539 0
M  V30 23 C -2.292225 -1.383434 2.874954 0
M  V30 24 C -1.297688 -1.548010 1.934534 0
M  V30 25 N -0.619211 -2.785869 1.756810 0
M  V30 26 C -1.078354 -3.761494 0.863391 0
M  V30 27 O -2.143690 -3.334705 0.294417 0
M  V30 28 C -0.494824 -5.060546 0.579698 0
M  V30 29 C -1.188222 -5.823457 -0.368511 0
M  V30 30 C -0.753595 -7.077375 -0.739365 0
M  V30 31 C 0.379937 -7.655651 -0.206366 0
M  V30 32 F 0.847461 -8.866623 -0.527741 0
M  V30 33 C 1.061657 -6.908576 0.724154 0
M  V30 34 C 0.628217 -5.659429 1.093168 0
M  V30 35 F 1.293946 -4.930578 2.001019 0
M  V30 36 C -0.905786 -0.491099 1.103689 0
M  V30 37 N 0.389304 1.913523 2.728213 0
M  V30 38 C 1.025370 1.920427 3.906545 0
M  V30 39 N 2.362987 2.017989 3.951196 0
M  V30 40 C 3.063514 2.109581 2.788084 0
M  V30 41 H 6.887673 2.640789 5.253729 0
M  V30 42 H 7.051684 2.024164 3.521697 0
M  V30 43 H 6.187376 2.377029 1.708805 0
M  V30 44 H 5.087719 2.368304 -0.424221 0
M  V30 45 H 2.629107 2.190003 -0.518996 0
M  V30 46 H 0.629640 2.046766 -0.625925 0
M  V30 47 H -1.502619 2.843366 0.897845 0
M  V30 48 H -1.623094 2.861449 -1.395529 0
M  V30 49 H -2.951632 1.864507 -0.798950 0
M  V30 50 H -1.765224 -0.182342 -1.335763 0
M  V30 51 H -0.347971 0.753143 -2.018359 0
M  V30 52 H -0.637736 -0.274451 -4.295071 0
M  V30 53 H -2.336054 -0.234057 -4.868894 0
M  V30 54 H -1.735217 -2.404525 -4.071043 0
M  V30 55 H -1.301736 -1.809777 -2.470692 0
M  V30 56 H -3.983412 -2.101579 -3.783778 0
M  V30 57 H -3.519270 -2.569371 -2.156161 0
M  V30 58 H -5.179169 -0.494038 -2.646805 0
M  V30 59 H -3.993209 -0.382638 -1.337085 0
M  V30 60 H -3.853401 0.839779 -4.145022 0
M  V30 61 H -3.879300 1.684278 -2.590069 0
M  V30 62 H -3.033050 1.850710 2.298892 0
M  V30 63 H -3.710277 0.033308 3.731076 0
M  V30 64 H -2.570753 -2.201369 3.492766 0
M  V30 65 H 0.246407 -2.980792 2.303831 0
M  V30 66 H -2.093725 -5.450439 -0.843835 0
M  V30 67 H -1.319316 -7.631723 -1.474821 0
M  V30 68 H 1.970760 -7.259993 1.214589 0
M  V30 69 H -0.123436 -0.628405 0.367121 0
M  V30 70 H 0.429766 1.845770 4.803674 0
M  V30 END ATOM
M  V30 BEGIN BOND
M  V30 1 1 1 2
M  V30 2 2 2 3
M  V30 3 1 2 4
M  V30 4 2 4 5
M  V30 5 1 5 6
M  V30 6 2 6 7
M  V30 7 1 7 8
M  V30 8 2 8 9
M  V30 9 1 9 10
M  V30 10 1 10 11
M  V30 11 1 11 12
M  V30 12 1 12 13
M  V30 13 1 13 14
M  V30 14 1 14 15
M  V30 15 1 15 16
M  V30 16 1 16 17
M  V30 17 1 17 18
M  V30 18 1 18 19
M  V30 19 1 11 20
M  V30 20 2 20 21
M  V30 21 1 21 22
M  V30 22 2 22 23
M  V30 23 1 23 24
M  V30 24 1 24 25
M  V30 25 1 25 26
M  V30 26 2 26 27
M  V30 27 1 26 28
M  V30 28 2 28 29
M  V30 29 1 29 30
M  V30 30 2 30 31
M  V30 31 1 31 32
M  V30 32 1 31 33
M  V30 33 2 33 34
M  V30 34 1 34 35
M  V30 35 2 24 36
M  V30 36 1 9 37
M  V30 37 2 37 38
M  V30 38 1 38 39
M  V30 39 2 39 40
M  V30 40 1 40 4
M  V30 41 1 40 8
M  V30 42 1 19 14
M  V30 43 1 36 20
M  V30 44 1 34 28
M  V30 45 1 1 41
M  V30 46 1 1 42
M  V30 47 1 5 43
M  V30 48 1 6 44
M  V30 49 1 7 45
M  V30 50 1 10 46
M  V30 51 1 11 47
M  V30 52 1 12 48
M  V30 53 1 12 49
M  V30 54 1 13 50
M  V30 55 1 13 51
M  V30 56 1 15 52
M  V30 57 1 15 53
M  V30 58 1 16 54
M  V30 59 1 16 55
M  V30 60 1 17 56
M  V30 61 1 17 57
M  V30 62 1 18 58
M  V30 63 1 18 59
M  V30 64 1 19 60
M  V30 65 1 19 61
M  V30 66 1 21 62
M  V30 67 1 22 63
M  V30 68 1 23 64
M  V30 69 1 25 65
M  V30 70 1 29 66
M  V30 71 1 30 67
M  V30 72 1 33 68
M  V30 73 1 36 69
M  V30 74 1 38 70
M  V30 END BOND
M  V30 END CTAB
M  END
>  <Dataset>  (242) 
ChEMBL_Kinases

>  <Ligand_Instance>  (242) 
nan

>  <PDB_ID>  (242) 
nan

>  <Standardized_SMILES>  (242) 
NC(=O)c1cccc2c(NC(CCN3CCCCC3)c3cccc(NC(=O)c4ccc(F)cc4F)c3)ncnc12

>  <Name>  (242) 
nan

>  <Pocket>  (242) 
nan

>  <ATP_Site>  (242) 
nan

>  <Peripheral>  (242) 
nan

>  <Num_H_Atoms_ProtBoundConf>  (242) 
nan

>  <Num_Resolved_Atoms>  (242) 
nan

>  <Num_Not_Resolved_Atoms>  (242) 
nan

$$$$
CHEMBL3680424
     RDKit          3D

  0  0  0  0  0  0  0  0  0  0999 V3000
M  V30 BEGIN CTAB
M  V30 COUNTS 57 60 0 0 0
M  V30 BEGIN ATOM
M  V30 1 N 6.683969 -4.043458 0.996755 0
M  V30 2 C 5.523414 -3.317534 0.613326 0
M  V30 3 O 4.546744 -4.012523 0.213408 0
M  V30 4 C 5.506505 -1.848381 0.693998 0
M  V30 5 C 6.629945 -1.189163 1.145582 0
M  V30 6 C 6.556359 0.199654 1.200709 0
M  V30 7 C 5.398801 0.836177 0.813221 0
M  V30 8 C 4.284013 0.196765 0.365975 0
M  V30 9 C 3.164743 0.905403 -0.003108 0
M  V30 10 N 3.071486 2.320878 0.043979 0
M  V30 11 C 1.913247 3.082734 -0.334983 0
M  V30 12 C 0.698835 2.823184 0.432956 0
M  V30 13 C 0.515920 3.543837 1.620777 0
M  V30 14 C -0.568293 3.438388 2.467270 0
M  V30 15 C -1.561103 2.546877 2.117427 0
M  V30 16 C -1.445792 1.804386 0.960500 0
M  V30 17 N -2.427506 0.866834 0.535454 0
M  V30 18 C -3.568056 0.968520 -0.270975 0
M  V30 19 O -3.905797 2.042698 -0.783834 0
M  V30 20 C -4.378893 -0.219194 -0.513574 0
M  V30 21 C -5.493180 -0.045410 -1.321098 0
M  V30 22 C -6.305971 -1.153537 -1.585884 0
M  V30 23 C -6.025841 -2.391871 -1.069208 0
M  V30 24 C -4.907767 -2.570347 -0.257852 0
M  V30 25 O -4.565015 -3.806409 0.301064 0
M  V30 26 C -5.414796 -4.898501 0.006730 0
M  V30 27 C -4.934116 -6.173104 0.670234 0
M  V30 28 O -3.650261 -6.430556 0.181222 0
M  V30 29 C -4.130752 -1.463750 -0.017131 0
M  V30 30 C -0.336517 1.955998 0.155992 0
M  V30 31 N 2.174650 0.096985 -0.414467 0
M  V30 32 C 2.225758 -1.229991 -0.474157 0
M  V30 33 N 3.318979 -1.896511 -0.112155 0
M  V30 34 C 4.366743 -1.173594 0.315322 0
M  V30 35 H 6.511120 -4.646085 1.836141 0
M  V30 36 H 7.678341 -4.160743 0.688701 0
M  V30 37 H 7.489673 -1.776104 1.426579 0
M  V30 38 H 7.462364 0.677528 1.561728 0
M  V30 39 H 5.477235 1.901504 0.905043 0
M  V30 40 H 3.890343 2.868070 0.374352 0
M  V30 41 H 2.146633 4.159345 -0.226134 0
M  V30 42 H 1.697301 2.971538 -1.441534 0
M  V30 43 H 1.292986 4.262896 1.924717 0
M  V30 44 H -0.613201 4.042362 3.363267 0
M  V30 45 H -2.436137 2.418332 2.739370 0
M  V30 46 H -2.083265 0.001108 0.998051 0
M  V30 47 H -5.801257 0.894698 -1.778587 0
M  V30 48 H -7.182434 -1.027296 -2.218270 0
M  V30 49 H -6.647190 -3.254042 -1.267678 0
M  V30 50 H -6.438578 -4.625821 0.322926 0
M  V30 51 H -5.449094 -5.055890 -1.091590 0
M  V30 52 H -5.609732 -6.978679 0.333922 0
M  V30 53 H -4.934098 -6.000775 1.756153 0
M  V30 54 H -3.151394 -7.017971 0.779375 0
M  V30 55 H -3.280123 -1.601743 0.600665 0
M  V30 56 H -0.240601 1.384880 -0.755040 0
M  V30 57 H 1.322663 -1.716346 -0.834543 0
M  V30 END ATOM
M  V30 BEGIN BOND
M  V30 1 1 1 2
M  V30 2 2 2 3
M  V30 3 1 2 4
M  V30 4 2 4 5
M  V30 5 1 5 6
M  V30 6 2 6 7
M  V30 7 1 7 8
M  V30 8 2 8 9
M  V30 9 1 9 10
M  V30 10 1 10 11
M  V30 11 1 11 12
M  V30 12 2 12 13
M  V30 13 1 13 14
M  V30 14 2 14 15
M  V30 15 1 15 16
M  V30 16 1 16 17
M  V30 17 1 17 18
M  V30 18 2 18 19
M  V30 19 1 18 20
M  V30 20 2 20 21
M  V30 21 1 21 22
M  V30 22 2 22 23
M  V30 23 1 23 24
M  V30 24 1 24 25
M  V30 25 1 25 26
M  V30 26 1 26 27
M  V30 27 1 27 28
M  V30 28 2 24 29
M  V30 29 2 16 30
M  V30 30 1 9 31
M  V30 31 2 31 32
M  V30 32 1 32 33
M  V30 33 2 33 34
M  V30 34 1 34 4
M  V30 35 1 34 8
M  V30 36 1 30 12
M  V30 37 1 29 20
M  V30 38 1 1 35
M  V30 39 1 1 36
M  V30 40 1 5 37
M  V30 41 1 6 38
M  V30 42 1 7 39
M  V30 43 1 10 40
M  V30 44 1 11 41
M  V30 45 1 11 42
M  V30 46 1 13 43
M  V30 47 1 14 44
M  V30 48 1 15 45
M  V30 49 1 17 46
M  V30 50 1 21 47
M  V30 51 1 22 48
M  V30 52 1 23 49
M  V30 53 1 26 50
M  V30 54 1 26 51
M  V30 55 1 27 52
M  V30 56 1 27 53
M  V30 57 1 28 54
M  V30 58 1 29 55
M  V30 59 1 30 56
M  V30 60 1 32 57
M  V30 END BOND
M  V30 END CTAB
M  END
>  <Dataset>  (243) 
ChEMBL_Kinases

>  <Ligand_Instance>  (243) 
nan

>  <PDB_ID>  (243) 
nan

>  <Standardized_SMILES>  (243) 
NC(=O)c1cccc2c(NCc3cccc(NC(=O)c4cccc(OCCO)c4)c3)ncnc12

>  <Name>  (243) 
nan

>  <Pocket>  (243) 
nan

>  <ATP_Site>  (243) 
nan

>  <Peripheral>  (243) 
nan

>  <Num_H_Atoms_ProtBoundConf>  (243) 
nan

>  <Num_Resolved_Atoms>  (243) 
nan

>  <Num_Not_Resolved_Atoms>  (243) 
nan

$$$$
CHEMBL3143722
     RDKit          3D

  0  0  0  0  0  0  0  0  0  0999 V3000
M  V30 BEGIN CTAB
M  V30 COUNTS 76 82 0 0 0
M  V30 BEGIN ATOM
M  V30 1 O 4.004367 -5.101696 1.518889 0
M  V30 2 C 3.598745 -3.908502 1.410213 0
M  V30 3 N 2.560114 -3.775025 0.559264 0
M  V30 4 C 2.034231 -2.555679 0.352682 0
M  V30 5 C 0.911651 -2.381907 -0.546799 0
M  V30 6 C -0.188759 -3.129945 -0.112708 0
M  V30 7 C -1.403695 -3.151240 -0.798179 0
M  V30 8 C -1.573228 -2.424155 -1.951325 0
M  V30 9 C -2.734344 -2.302768 -2.861066 0
M  V30 10 N -3.691204 -1.278536 -2.406664 0
M  V30 11 C -4.669864 -1.157313 -3.485057 0
M  V30 12 C -5.759107 -0.179958 -3.189214 0
M  V30 13 C -5.770359 0.048524 -1.680953 0
M  V30 14 N -4.623713 0.850003 -1.359400 0
M  V30 15 C -3.774704 1.552108 -2.127179 0
M  V30 16 O -3.774682 1.685713 -3.376728 0
M  V30 17 N -2.808326 2.185851 -1.440949 0
M  V30 18 C -3.012575 1.899277 -0.141293 0
M  V30 19 C -2.321507 2.287663 0.979121 0
M  V30 20 C -2.735408 1.854227 2.232871 0
M  V30 21 C -3.844788 1.033959 2.318877 0
M  V30 22 C -4.485837 0.684978 1.167384 0
M  V30 23 C -4.133084 1.076141 -0.108477 0
M  V30 24 C -5.738084 -1.357624 -1.127115 0
M  V30 25 C -4.328020 -1.866448 -1.229295 0
M  V30 26 C -0.466293 -1.678786 -2.377313 0
M  V30 27 C 0.711854 -1.666065 -1.701077 0
M  V30 28 C 2.566799 -1.472536 1.013146 0
M  V30 29 C 2.184903 -0.072820 0.945774 0
M  V30 30 C 1.446261 0.538037 1.965687 0
M  V30 31 C 1.099608 1.893339 1.892262 0
M  V30 32 C 1.464979 2.681948 0.826260 0
M  V30 33 C 2.185420 2.108912 -0.178942 0
M  V30 34 C 2.512999 0.778723 -0.084543 0
M  V30 35 N 3.616776 -1.641484 1.866752 0
M  V30 36 C 4.172608 -2.845882 2.102016 0
M  V30 37 C 5.301592 -3.095258 3.014298 0
M  V30 38 C 6.042754 -1.818675 3.224194 0
M  V30 39 C 7.119221 -1.418886 2.470541 0
M  V30 40 C 7.826308 -0.247285 2.637873 0
M  V30 41 C 7.416012 0.611139 3.661215 0
M  V30 42 C 6.341667 0.261058 4.449093 0
M  V30 43 C 5.675186 -0.923291 4.233115 0
M  V30 44 H 2.132860 -4.562407 0.046541 0
M  V30 45 H -0.247736 -3.770335 0.782560 0
M  V30 46 H -2.278229 -3.708839 -0.509615 0
M  V30 47 H -2.447524 -2.073648 -3.894239 0
M  V30 48 H -3.266022 -3.288364 -2.846892 0
M  V30 49 H -4.107621 -0.820015 -4.378943 0
M  V30 50 H -5.069275 -2.177610 -3.753579 0
M  V30 51 H -5.789040 0.725019 -3.786286 0
M  V30 52 H -6.734462 -0.720485 -3.394858 0
M  V30 53 H -6.729041 0.564870 -1.418880 0
M  V30 54 H -2.029037 2.791699 -1.774060 0
M  V30 55 H -1.457750 2.928352 0.902397 0
M  V30 56 H -2.184933 2.169023 3.105302 0
M  V30 57 H -4.124308 0.726033 3.303823 0
M  V30 58 H -5.328126 0.058223 1.321463 0
M  V30 59 H -6.223359 -1.500835 -0.166409 0
M  V30 60 H -6.331928 -2.022606 -1.833278 0
M  V30 61 H -3.699937 -1.688919 -0.365397 0
M  V30 62 H -4.345629 -2.980358 -1.415143 0
M  V30 63 H -0.448143 -1.054101 -3.269354 0
M  V30 64 H 1.596686 -1.121444 -1.988089 0
M  V30 65 H 1.130809 -0.012508 2.820229 0
M  V30 66 H 0.531712 2.364947 2.679089 0
M  V30 67 H 1.214549 3.716444 0.745472 0
M  V30 68 H 2.484128 2.704122 -1.027784 0
M  V30 69 H 3.088043 0.385885 -0.913236 0
M  V30 70 H 5.987690 -3.883492 2.618356 0
M  V30 71 H 4.980200 -3.452351 4.032280 0
M  V30 72 H 7.403140 -2.125457 1.681635 0
M  V30 73 H 8.671788 -0.038943 1.971118 0
M  V30 74 H 7.994521 1.528632 3.769861 0
M  V30 75 H 6.068603 0.965303 5.227226 0
M  V30 76 H 4.833496 -1.185499 4.858895 0
M  V30 END ATOM
M  V30 BEGIN BOND
M  V30 1 2 1 2
M  V30 2 1 2 3
M  V30 3 1 3 4
M  V30 4 1 4 5
M  V30 5 2 5 6
M  V30 6 1 6 7
M  V30 7 2 7 8
M  V30 8 1 8 9
M  V30 9 1 9 10
M  V30 10 1 10 11
M  V30 11 1 11 12
M  V30 12 1 12 13
M  V30 13 1 13 14
M  V30 14 1 14 15
M  V30 15 2 15 16
M  V30 16 1 15 17
M  V30 17 1 17 18
M  V30 18 2 18 19
M  V30 19 1 19 20
M  V30 20 2 20 21
M  V30 21 1 21 22
M  V30 22 2 22 23
M  V30 23 1 13 24
M  V30 24 1 24 25
M  V30 25 1 8 26
M  V30 26 2 26 27
M  V30 27 2 4 28
M  V30 28 1 28 29
M  V30 29 2 29 30
M  V30 30 1 30 31
M  V30 31 2 31 32
M  V30 32 1 32 33
M  V30 33 2 33 34
M  V30 34 1 28 35
M  V30 35 2 35 36
M  V30 36 1 36 37
M  V30 37 1 37 38
M  V30 38 2 38 39
M  V30 39 1 39 40
M  V30 40 2 40 41
M  V30 41 1 41 42
M  V30 42 2 42 43
M  V30 43 1 36 2
M  V30 44 1 43 38
M  V30 45 1 27 5
M  V30 46 1 34 29
M  V30 47 1 25 10
M  V30 48 1 23 14
M  V30 49 1 23 18
M  V30 50 1 3 44
M  V30 51 1 6 45
M  V30 52 1 7 46
M  V30 53 1 9 47
M  V30 54 1 9 48
M  V30 55 1 11 49
M  V30 56 1 11 50
M  V30 57 1 12 51
M  V30 58 1 12 52
M  V30 59 1 13 53
M  V30 60 1 17 54
M  V30 61 1 19 55
M  V30 62 1 20 56
M  V30 63 1 21 57
M  V30 64 1 22 58
M  V30 65 1 24 59
M  V30 66 1 24 60
M  V30 67 1 25 61
M  V30 68 1 25 62
M  V30 69 1 26 63
M  V30 70 1 27 64
M  V30 71 1 30 65
M  V30 72 1 31 66
M  V30 73 1 32 67
M  V30 74 1 33 68
M  V30 75 1 34 69
M  V30 76 1 37 70
M  V30 77 1 37 71
M  V30 78 1 39 72
M  V30 79 1 40 73
M  V30 80 1 41 74
M  V30 81 1 42 75
M  V30 82 1 43 76
M  V30 END BOND
M  V30 END CTAB
M  END
>  <Dataset>  (244) 
ChEMBL_Kinases

>  <Ligand_Instance>  (244) 
nan

>  <PDB_ID>  (244) 
nan

>  <Standardized_SMILES>  (244) 
O=c1[nH]c(-c2ccc(CN3CCC(n4c(=O)[nH]c5ccccc54)CC3)cc2)c(-c2ccccc2)nc1Cc1ccccc1

>  <Name>  (244) 
nan

>  <Pocket>  (244) 
nan

>  <ATP_Site>  (244) 
nan

>  <Peripheral>  (244) 
nan

>  <Num_H_Atoms_ProtBoundConf>  (244) 
nan

>  <Num_Resolved_Atoms>  (244) 
nan

>  <Num_Not_Resolved_Atoms>  (244) 
nan

$$$$
CHEMBL3680423
     RDKit          3D

  0  0  0  0  0  0  0  0  0  0999 V3000
M  V30 BEGIN CTAB
M  V30 COUNTS 47 50 0 0 0
M  V30 BEGIN ATOM
M  V30 1 N 0.106754 -7.350867 -1.782093 0
M  V30 2 C -0.377506 -6.015012 -1.668084 0
M  V30 3 O -1.496766 -5.652768 -2.164845 0
M  V30 4 C 0.483153 -5.067725 -0.944127 0
M  V30 5 C 1.700431 -5.412537 -0.392202 0
M  V30 6 C 2.465303 -4.479565 0.277024 0
M  V30 7 C 1.961742 -3.194218 0.369243 0
M  V30 8 C 0.762531 -2.788864 -0.156066 0
M  V30 9 C 0.357753 -1.479564 -0.004429 0
M  V30 10 N 1.093652 -0.495726 0.663126 0
M  V30 11 C 0.542308 0.843092 0.745182 0 CFG=2
M  V30 12 C 1.417250 1.814380 1.485302 0
M  V30 13 N 0.853975 3.136931 1.556481 0
M  V30 14 C 1.731180 4.039181 2.278294 0
M  V30 15 C 1.411008 5.445793 2.502676 0
M  V30 16 C 1.187319 4.429595 3.630225 0
M  V30 17 C -0.856370 0.874129 1.166679 0
M  V30 18 C -1.351853 0.122187 2.224588 0
M  V30 19 C -2.671448 0.152240 2.620688 0
M  V30 20 C -3.568889 0.968351 1.942260 0
M  V30 21 C -3.155789 1.749277 0.876806 0
M  V30 22 C -1.818685 1.669154 0.534616 0
M  V30 23 N -0.834501 -1.215066 -0.565508 0
M  V30 24 C -1.584058 -2.120242 -1.218846 0
M  V30 25 N -1.148250 -3.398733 -1.345287 0
M  V30 26 C 0.045350 -3.766397 -0.812422 0
M  V30 27 H 0.288258 -7.972130 -0.945328 0
M  V30 28 H 0.251930 -7.877964 -0.892738 0
M  V30 29 H 2.008324 -6.454182 -0.520333 0
M  V30 30 H 3.421901 -4.765116 0.706650 0
M  V30 31 H 2.598555 -2.503765 0.902220 0
M  V30 32 H 2.009736 -0.597217 1.122196 0
M  V30 33 H 0.548447 1.202087 -0.327269 0
M  V30 34 H 2.411002 1.907935 1.001767 0
M  V30 35 H 1.602919 1.489348 2.531693 0
M  V30 36 H 0.709076 3.561065 0.606996 0
M  V30 37 H 2.804136 3.701106 2.258730 0
M  V30 38 H 0.513790 5.901689 2.041549 0
M  V30 39 H 2.269545 6.120653 2.701901 0
M  V30 40 H 1.885636 4.395728 4.468330 0
M  V30 41 H 0.139242 4.205131 3.900857 0
M  V30 42 H -0.696799 -0.516825 2.771333 0
M  V30 43 H -3.055272 -0.433261 3.443616 0
M  V30 44 H -4.620559 1.053476 2.185102 0
M  V30 45 H -3.772846 2.409468 0.292422 0
M  V30 46 H -1.440389 2.262839 -0.296307 0
M  V30 47 H -2.542138 -1.841363 -1.651070 0
M  V30 END ATOM
M  V30 BEGIN BOND
M  V30 1 1 1 2
M  V30 2 2 2 3
M  V30 3 1 2 4
M  V30 4 2 4 5
M  V30 5 1 5 6
M  V30 6 2 6 7
M  V30 7 1 7 8
M  V30 8 2 8 9
M  V30 9 1 9 10
M  V30 10 1 10 11
M  V30 11 1 11 12
M  V30 12 1 12 13
M  V30 13 1 13 14
M  V30 14 1 14 15
M  V30 15 1 15 16
M  V30 16 1 11 17
M  V30 17 2 17 18
M  V30 18 1 18 19
M  V30 19 2 19 20
M  V30 20 1 20 21
M  V30 21 2 21 22
M  V30 22 1 9 23
M  V30 23 2 23 24
M  V30 24 1 24 25
M  V30 25 2 25 26
M  V30 26 1 26 4
M  V30 27 1 26 8
M  V30 28 1 16 14
M  V30 29 1 22 17
M  V30 30 1 1 27
M  V30 31 1 1 28
M  V30 32 1 5 29
M  V30 33 1 6 30
M  V30 34 1 7 31
M  V30 35 1 10 32
M  V30 36 1 11 33 CFG=3
M  V30 37 1 12 34
M  V30 38 1 12 35
M  V30 39 1 13 36
M  V30 40 1 14 37
M  V30 41 1 15 38
M  V30 42 1 15 39
M  V30 43 1 16 40
M  V30 44 1 16 41
M  V30 45 1 18 42
M  V30 46 1 19 43
M  V30 47 1 20 44
M  V30 48 1 21 45
M  V30 49 1 22 46
M  V30 50 1 24 47
M  V30 END BOND
M  V30 END CTAB
M  END
>  <Dataset>  (245) 
ChEMBL_Kinases

>  <Ligand_Instance>  (245) 
nan

>  <PDB_ID>  (245) 
nan

>  <Standardized_SMILES>  (245) 
NC(=O)c1cccc2c(N[C@H](CNC3CC3)c3ccccc3)ncnc12

>  <Name>  (245) 
nan

>  <Pocket>  (245) 
nan

>  <ATP_Site>  (245) 
nan

>  <Peripheral>  (245) 
nan

>  <Num_H_Atoms_ProtBoundConf>  (245) 
nan

>  <Num_Resolved_Atoms>  (245) 
nan

>  <Num_Not_Resolved_Atoms>  (245) 
nan

$$$$
CHEMBL3680422
     RDKit          3D

  0  0  0  0  0  0  0  0  0  0999 V3000
M  V30 BEGIN CTAB
M  V30 COUNTS 57 60 0 0 0
M  V30 BEGIN ATOM
M  V30 1 C -1.431015 -2.896223 2.753427 0
M  V30 2 N -0.387970 -3.836868 2.857290 0
M  V30 3 C 0.397768 -4.192027 1.754420 0
M  V30 4 C 1.353143 -3.177265 1.203581 0
M  V30 5 N 0.651464 -2.027837 0.736447 0
M  V30 6 C 1.514785 -0.957147 0.299346 0
M  V30 7 N 2.844332 -1.043071 0.330335 0
M  V30 8 C 3.635857 -0.043672 -0.079413 0
M  V30 9 N 3.161262 1.122112 -0.553269 0
M  V30 10 C 1.816899 1.285687 -0.615751 0
M  V30 11 C 1.343138 2.479313 -1.100193 0
M  V30 12 C 2.265637 3.530393 -1.530693 0
M  V30 13 N 1.736110 4.760574 -2.027878 0
M  V30 14 O 3.494214 3.294705 -1.439791 0
M  V30 15 C -0.048500 2.632641 -1.157630 0
M  V30 16 C -0.916251 1.609198 -0.737762 0
M  V30 17 O -2.192683 2.008396 -0.895979 0
M  V30 18 C -3.419344 1.457573 -0.663962 0
M  V30 19 C -3.748199 1.078829 0.722236 0
M  V30 20 C -4.284967 2.065037 1.538340 0
M  V30 21 C -4.663033 1.906719 2.847027 0
M  V30 22 C -4.506155 0.665840 3.428418 0
M  V30 23 C -3.976290 -0.348363 2.657531 0
M  V30 24 C -3.609765 -0.144183 1.344901 0
M  V30 25 C -0.321970 0.458797 -0.271436 0
M  V30 26 C 1.033854 0.241680 -0.187891 0
M  V30 27 C 1.985551 -3.795088 -0.024929 0
M  V30 28 C 3.303336 -4.228665 -0.033600 0
M  V30 29 C 3.798361 -4.781802 -1.196845 0
M  V30 30 C 2.976581 -4.888337 -2.311947 0
M  V30 31 C 1.669008 -4.452584 -2.287514 0
M  V30 32 C 1.156690 -3.891774 -1.118025 0
M  V30 33 H -2.078765 -2.966897 1.853580 0
M  V30 34 H -2.196259 -3.032714 3.602916 0
M  V30 35 H -1.115807 -1.841343 2.882567 0
M  V30 36 H 0.105529 -3.693868 3.754639 0
M  V30 37 H 0.882070 -5.202070 1.855604 0
M  V30 38 H -0.331686 -4.379781 0.891744 0
M  V30 39 H 2.171194 -2.929912 1.919326 0
M  V30 40 H -0.372108 -1.939114 0.685174 0
M  V30 41 H 4.703208 -0.284834 0.016068 0
M  V30 42 H 1.310524 5.355021 -1.282013 0
M  V30 43 H 1.755435 5.062417 -3.018854 0
M  V30 44 H -0.330936 3.617591 -1.558528 0
M  V30 45 H -3.658293 0.556413 -1.277898 0
M  V30 46 H -4.202842 2.204965 -0.987876 0
M  V30 47 H -4.437944 3.066461 1.151173 0
M  V30 48 H -5.074277 2.694174 3.443284 0
M  V30 49 H -4.767113 0.422573 4.447445 0
M  V30 50 H -3.844533 -1.329691 3.092631 0
M  V30 51 H -3.197981 -0.931631 0.723558 0
M  V30 52 H -1.045176 -0.254527 0.019662 0
M  V30 53 H 3.837401 -4.087253 0.904293 0
M  V30 54 H 4.821186 -5.109400 -1.176549 0
M  V30 55 H 3.373512 -5.325188 -3.223693 0
M  V30 56 H 1.004425 -4.528040 -3.158013 0
M  V30 57 H 0.119403 -3.549691 -1.107939 0
M  V30 END ATOM
M  V30 BEGIN BOND
M  V30 1 1 1 2
M  V30 2 1 2 3
M  V30 3 1 3 4
M  V30 4 1 4 5
M  V30 5 1 5 6
M  V30 6 2 6 7
M  V30 7 1 7 8
M  V30 8 2 8 9
M  V30 9 1 9 10
M  V30 10 2 10 11
M  V30 11 1 11 12
M  V30 12 1 12 13
M  V30 13 2 12 14
M  V30 14 1 11 15
M  V30 15 2 15 16
M  V30 16 1 16 17
M  V30 17 1 17 18
M  V30 18 1 18 19
M  V30 19 2 19 20
M  V30 20 1 20 21
M  V30 21 2 21 22
M  V30 22 1 22 23
M  V30 23 2 23 24
M  V30 24 1 16 25
M  V30 25 2 25 26
M  V30 26 1 4 27
M  V30 27 2 27 28
M  V30 28 1 28 29
M  V30 29 2 29 30
M  V30 30 1 30 31
M  V30 31 2 31 32
M  V30 32 1 26 6
M  V30 33 1 32 27
M  V30 34 1 26 10
M  V30 35 1 24 19
M  V30 36 1 1 33
M  V30 37 1 1 34
M  V30 38 1 1 35
M  V30 39 1 2 36
M  V30 40 1 3 37
M  V30 41 1 3 38
M  V30 42 1 4 39
M  V30 43 1 5 40
M  V30 44 1 8 41
M  V30 45 1 13 42
M  V30 46 1 13 43
M  V30 47 1 15 44
M  V30 48 1 18 45
M  V30 49 1 18 46
M  V30 50 1 20 47
M  V30 51 1 21 48
M  V30 52 1 22 49
M  V30 53 1 23 50
M  V30 54 1 24 51
M  V30 55 1 25 52
M  V30 56 1 28 53
M  V30 57 1 29 54
M  V30 58 1 30 55
M  V30 59 1 31 56
M  V30 60 1 32 57
M  V30 END BOND
M  V30 END CTAB
M  END
>  <Dataset>  (246) 
ChEMBL_Kinases

>  <Ligand_Instance>  (246) 
nan

>  <PDB_ID>  (246) 
nan

>  <Standardized_SMILES>  (246) 
CNCC(Nc1ncnc2c(C(N)=O)cc(OCc3ccccc3)cc12)c1ccccc1

>  <Name>  (246) 
nan

>  <Pocket>  (246) 
nan

>  <ATP_Site>  (246) 
nan

>  <Peripheral>  (246) 
nan

>  <Num_H_Atoms_ProtBoundConf>  (246) 
nan

>  <Num_Resolved_Atoms>  (246) 
nan

>  <Num_Not_Resolved_Atoms>  (246) 
nan

$$$$
CHEMBL315708
     RDKit          3D

  0  0  0  0  0  0  0  0  0  0999 V3000
M  V30 BEGIN CTAB
M  V30 COUNTS 25 27 0 0 0
M  V30 BEGIN ATOM
M  V30 1 C 0.602445 -1.691477 4.631634 0
M  V30 2 C 0.958464 -2.601898 3.665068 0
M  V30 3 C 0.904256 -2.242311 2.337244 0
M  V30 4 C 0.511141 -1.006752 1.867440 0
M  V30 5 C 0.517601 -0.812402 0.442311 0
M  V30 6 N 0.891091 -1.791846 -0.403301 0
M  V30 7 N 0.824612 -1.406940 -1.659844 0
M  V30 8 C 0.402019 -0.143781 -1.738530 0
M  V30 9 C 0.149382 0.754261 -2.740733 0
M  V30 10 C -0.302113 2.051683 -2.476808 0
M  V30 11 C -0.479373 2.376231 -1.137981 0
M  V30 12 C -0.217437 1.453542 -0.155105 0
M  V30 13 C 0.219145 0.201097 -0.424495 0
M  V30 14 C 0.175580 -0.164029 2.881186 0
M  V30 15 C 0.200747 -0.439902 4.224708 0
M  V30 16 H 0.634212 -1.942842 5.680778 0
M  V30 17 H 1.263045 -3.558466 4.024093 0
M  V30 18 H 1.215626 -3.070607 1.706128 0
M  V30 19 H 1.221597 -2.784452 -0.310286 0
M  V30 20 H 0.321770 0.394972 -3.751123 0
M  V30 21 H -0.480058 2.705161 -3.322830 0
M  V30 22 H -0.828689 3.382766 -0.952189 0
M  V30 23 H -0.391267 1.822050 0.821609 0
M  V30 24 H -0.144239 0.817321 2.659248 0
M  V30 25 H -0.084109 0.293984 4.961739 0
M  V30 END ATOM
M  V30 BEGIN BOND
M  V30 1 2 1 2
M  V30 2 1 2 3
M  V30 3 2 3 4
M  V30 4 1 4 5
M  V30 5 1 5 6
M  V30 6 1 6 7
M  V30 7 2 7 8
M  V30 8 1 8 9
M  V30 9 2 9 10
M  V30 10 1 10 11
M  V30 11 2 11 12
M  V30 12 1 12 13
M  V30 13 1 4 14
M  V30 14 2 14 15
M  V30 15 1 15 1
M  V30 16 2 13 5
M  V30 17 1 13 8
M  V30 18 1 1 16
M  V30 19 1 2 17
M  V30 20 1 3 18
M  V30 21 1 6 19
M  V30 22 1 9 20
M  V30 23 1 10 21
M  V30 24 1 11 22
M  V30 25 1 12 23
M  V30 26 1 14 24
M  V30 27 1 15 25
M  V30 END BOND
M  V30 END CTAB
M  END
>  <Dataset>  (247) 
ChEMBL_Kinases

>  <Ligand_Instance>  (247) 
nan

>  <PDB_ID>  (247) 
nan

>  <Standardized_SMILES>  (247) 
c1ccc(-c2[nH]nc3ccccc23)cc1

>  <Name>  (247) 
nan

>  <Pocket>  (247) 
nan

>  <ATP_Site>  (247) 
nan

>  <Peripheral>  (247) 
nan

>  <Num_H_Atoms_ProtBoundConf>  (247) 
nan

>  <Num_Resolved_Atoms>  (247) 
nan

>  <Num_Not_Resolved_Atoms>  (247) 
nan

$$$$
CHEMBL3680419
     RDKit          3D

  0  0  0  0  0  0  0  0  0  0999 V3000
M  V30 BEGIN CTAB
M  V30 COUNTS 70 74 0 0 0
M  V30 BEGIN ATOM
M  V30 1 N 5.707058 1.593077 4.821043 0
M  V30 2 C 4.325596 1.769566 4.525551 0
M  V30 3 O 3.526851 2.062228 5.453067 0
M  V30 4 C 3.945688 1.586345 3.110469 0
M  V30 5 C 4.834280 1.265890 2.105599 0
M  V30 6 C 4.372118 1.115129 0.804085 0
M  V30 7 C 3.030731 1.288451 0.538019 0
M  V30 8 C 2.129859 1.608617 1.530390 0
M  V30 9 C 0.802560 1.767881 1.197431 0
M  V30 10 N 0.273273 1.623775 -0.111135 0
M  V30 11 C -1.153671 1.822520 -0.316339 0
M  V30 12 C -1.601806 1.628447 -1.723211 0
M  V30 13 C -1.351773 0.272244 -2.299144 0
M  V30 14 N -1.798705 0.136222 -3.651813 0
M  V30 15 C -1.072819 0.889665 -4.626619 0
M  V30 16 C 0.291389 0.374511 -4.921004 0
M  V30 17 C 0.545745 -1.062360 -4.605803 0
M  V30 18 C -0.626409 -1.918689 -4.314594 0
M  V30 19 C -1.921587 -1.204150 -4.129105 0
M  V30 20 C -1.962788 1.146149 0.708133 0
M  V30 21 C -3.066707 1.704540 1.364838 0
M  V30 22 C -3.773129 1.007828 2.322165 0
M  V30 23 C -3.378187 -0.276710 2.639921 0
M  V30 24 C -2.288400 -0.884207 2.020502 0
M  V30 25 N -1.924156 -2.200401 2.388280 0
M  V30 26 C -2.361926 -3.428475 1.845191 0
M  V30 27 O -3.187886 -3.290154 0.909283 0
M  V30 28 C -1.976192 -4.763961 2.236147 0
M  V30 29 C -2.566356 -5.805406 1.534374 0
M  V30 30 F -3.465924 -5.616752 0.525300 0
M  V30 31 C -2.271670 -7.132000 1.821891 0
M  V30 32 C -1.390352 -7.459821 2.805752 0
M  V30 33 C -0.789250 -6.464719 3.518421 0
M  V30 34 C -1.100111 -5.162562 3.211795 0
M  V30 35 F -0.497983 -4.189481 3.924636 0
M  V30 36 C -1.618072 -0.142325 1.070768 0
M  V30 37 N 0.002383 2.077227 2.221874 0
M  V30 38 C 0.420834 2.229444 3.488954 0
M  V30 39 N 1.724937 2.065590 3.773766 0
M  V30 40 C 2.615395 1.752628 2.814072 0
M  V30 41 H 6.615729 2.086696 4.942162 0
M  V30 42 H 6.132256 0.658195 5.018230 0
M  V30 43 H 5.890503 1.140295 2.378860 0
M  V30 44 H 5.098958 0.861938 0.031179 0
M  V30 45 H 2.723508 1.159903 -0.488166 0
M  V30 46 H 0.789907 1.385243 -0.980153 0
M  V30 47 H -1.291034 2.929826 -0.113646 0
M  V30 48 H -2.713191 1.767961 -1.718814 0
M  V30 49 H -1.203859 2.439211 -2.331667 0
M  V30 50 H -1.711431 -0.552397 -1.682910 0
M  V30 51 H -0.227817 0.153043 -2.308486 0
M  V30 52 H -1.688031 0.892837 -5.554572 0
M  V30 53 H -1.010039 1.955021 -4.292970 0
M  V30 54 H 0.484032 0.549496 -6.020824 0
M  V30 55 H 1.032759 1.033671 -4.423944 0
M  V30 56 H 1.238427 -1.099519 -3.726957 0
M  V30 57 H 1.166924 -1.513279 -5.430521 0
M  V30 58 H -0.774808 -2.666079 -5.147057 0
M  V30 59 H -0.462341 -2.558549 -3.402366 0
M  V30 60 H -2.419803 -1.130491 -5.134032 0
M  V30 61 H -2.608487 -1.842780 -3.528862 0
M  V30 62 H -3.340289 2.713402 1.083812 0
M  V30 63 H -4.618505 1.490809 2.797087 0
M  V30 64 H -3.966072 -0.793005 3.404138 0
M  V30 65 H -1.239736 -2.224671 3.167821 0
M  V30 66 H -2.733791 -7.934916 1.272801 0
M  V30 67 H -1.121724 -8.481083 3.073968 0
M  V30 68 H -0.083114 -6.679439 4.308441 0
M  V30 69 H -0.787213 -0.644928 0.617768 0
M  V30 70 H -0.292781 2.483465 4.275231 0
M  V30 END ATOM
M  V30 BEGIN BOND
M  V30 1 1 1 2
M  V30 2 2 2 3
M  V30 3 1 2 4
M  V30 4 2 4 5
M  V30 5 1 5 6
M  V30 6 2 6 7
M  V30 7 1 7 8
M  V30 8 2 8 9
M  V30 9 1 9 10
M  V30 10 1 10 11
M  V30 11 1 11 12
M  V30 12 1 12 13
M  V30 13 1 13 14
M  V30 14 1 14 15
M  V30 15 1 15 16
M  V30 16 1 16 17
M  V30 17 1 17 18
M  V30 18 1 18 19
M  V30 19 1 11 20
M  V30 20 2 20 21
M  V30 21 1 21 22
M  V30 22 2 22 23
M  V30 23 1 23 24
M  V30 24 1 24 25
M  V30 25 1 25 26
M  V30 26 2 26 27
M  V30 27 1 26 28
M  V30 28 2 28 29
M  V30 29 1 29 30
M  V30 30 1 29 31
M  V30 31 2 31 32
M  V30 32 1 32 33
M  V30 33 2 33 34
M  V30 34 1 34 35
M  V30 35 2 24 36
M  V30 36 1 9 37
M  V30 37 2 37 38
M  V30 38 1 38 39
M  V30 39 2 39 40
M  V30 40 1 40 4
M  V30 41 1 40 8
M  V30 42 1 19 14
M  V30 43 1 36 20
M  V30 44 1 34 28
M  V30 45 1 1 41
M  V30 46 1 1 42
M  V30 47 1 5 43
M  V30 48 1 6 44
M  V30 49 1 7 45
M  V30 50 1 10 46
M  V30 51 1 11 47
M  V30 52 1 12 48
M  V30 53 1 12 49
M  V30 54 1 13 50
M  V30 55 1 13 51
M  V30 56 1 15 52
M  V30 57 1 15 53
M  V30 58 1 16 54
M  V30 59 1 16 55
M  V30 60 1 17 56
M  V30 61 1 17 57
M  V30 62 1 18 58
M  V30 63 1 18 59
M  V30 64 1 19 60
M  V30 65 1 19 61
M  V30 66 1 21 62
M  V30 67 1 22 63
M  V30 68 1 23 64
M  V30 69 1 25 65
M  V30 70 1 31 66
M  V30 71 1 32 67
M  V30 72 1 33 68
M  V30 73 1 36 69
M  V30 74 1 38 70
M  V30 END BOND
M  V30 END CTAB
M  END
>  <Dataset>  (248) 
ChEMBL_Kinases

>  <Ligand_Instance>  (248) 
nan

>  <PDB_ID>  (248) 
nan

>  <Standardized_SMILES>  (248) 
NC(=O)c1cccc2c(NC(CCN3CCCCC3)c3cccc(NC(=O)c4c(F)cccc4F)c3)ncnc12

>  <Name>  (248) 
nan

>  <Pocket>  (248) 
nan

>  <ATP_Site>  (248) 
nan

>  <Peripheral>  (248) 
nan

>  <Num_H_Atoms_ProtBoundConf>  (248) 
nan

>  <Num_Resolved_Atoms>  (248) 
nan

>  <Num_Not_Resolved_Atoms>  (248) 
nan

$$$$
CHEMBL3680416
     RDKit          3D

  0  0  0  0  0  0  0  0  0  0999 V3000
M  V30 BEGIN CTAB
M  V30 COUNTS 54 57 0 0 0
M  V30 BEGIN ATOM
M  V30 1 C 7.846197 -2.789480 3.786918 0
M  V30 2 O 7.882032 -2.378429 2.429949 0
M  V30 3 C 6.842493 -1.599584 1.928585 0
M  V30 4 N 5.797924 -1.224031 2.702233 0
M  V30 5 C 4.789894 -0.475922 2.238474 0
M  V30 6 C 4.822429 -0.074855 0.919097 0
M  V30 7 C 3.854698 0.731530 0.197274 0
M  V30 8 O 3.864092 1.109085 -1.005723 0
M  V30 9 N 2.709648 1.186968 0.908972 0
M  V30 10 C 1.575371 1.975029 0.556147 0
M  V30 11 C 1.547796 3.368801 0.677194 0
M  V30 12 C 0.380765 3.996129 0.296807 0
M  V30 13 C -0.720789 3.319568 -0.181871 0
M  V30 14 C -0.671796 1.937608 -0.293735 0
M  V30 15 C -1.862240 1.216566 -0.810136 0 CFG=1
M  V30 16 C -1.500470 0.721253 -2.216341 0
M  V30 17 N -2.155869 0.043895 -0.001952 0
M  V30 18 C -3.266325 -0.757368 -0.363553 0
M  V30 19 N -4.026151 -0.444515 -1.421436 0
M  V30 20 C -5.093903 -1.155170 -1.825649 0
M  V30 21 N -5.470731 -2.277843 -1.147921 0
M  V30 22 C -4.758041 -2.650581 -0.081054 0
M  V30 23 C -5.147758 -3.786569 0.596338 0
M  V30 24 C -6.300042 -4.591731 0.196018 0
M  V30 25 N -7.029875 -4.150232 -0.952975 0
M  V30 26 O -6.613056 -5.619150 0.848329 0
M  V30 27 C -4.404834 -4.162022 1.696224 0
M  V30 28 C -3.296321 -3.431914 2.123114 0
M  V30 29 C -2.973367 -2.311477 1.393262 0
M  V30 30 C -3.669683 -1.895006 0.301598 0
M  V30 31 C 0.469928 1.267804 0.073109 0
M  V30 32 C 5.891070 -0.451121 0.102724 0
M  V30 33 N 6.895902 -1.215694 0.624097 0
M  V30 34 H 6.798842 -3.003498 4.128925 0
M  V30 35 H 8.467290 -3.712394 3.949021 0
M  V30 36 H 8.240221 -2.002356 4.464975 0
M  V30 37 H 3.934727 -0.140036 2.782653 0
M  V30 38 H 2.485732 1.001050 1.911459 0
M  V30 39 H 2.423665 3.853249 1.052720 0
M  V30 40 H 0.327775 5.075094 0.378624 0
M  V30 41 H -1.597666 3.909187 -0.456553 0
M  V30 42 H -2.723704 1.900496 -0.875406 0
M  V30 43 H -2.410824 0.600804 -2.831385 0
M  V30 44 H -0.758788 1.403855 -2.640038 0
M  V30 45 H -0.995896 -0.261470 -2.070454 0
M  V30 46 H -1.518318 -0.128299 0.800388 0
M  V30 47 H -5.567866 -0.722154 -2.709295 0
M  V30 48 H -6.481611 -4.580397 -1.731374 0
M  V30 49 H -7.890718 -3.553303 -1.036966 0
M  V30 50 H -4.716307 -5.059063 2.227397 0
M  V30 51 H -2.730237 -3.744081 2.985716 0
M  V30 52 H -2.113472 -1.777433 1.754791 0
M  V30 53 H 0.474334 0.189000 -0.026931 0
M  V30 54 H 6.034789 -0.203247 -0.943681 0
M  V30 END ATOM
M  V30 BEGIN BOND
M  V30 1 1 1 2
M  V30 2 1 2 3
M  V30 3 2 3 4
M  V30 4 1 4 5
M  V30 5 2 5 6
M  V30 6 1 6 7
M  V30 7 2 7 8
M  V30 8 1 7 9
M  V30 9 1 9 10
M  V30 10 2 10 11
M  V30 11 1 11 12
M  V30 12 2 12 13
M  V30 13 1 13 14
M  V30 14 1 14 15
M  V30 15 1 15 16
M  V30 16 1 15 17
M  V30 17 1 17 18
M  V30 18 2 18 19
M  V30 19 1 19 20
M  V30 20 2 20 21
M  V30 21 1 21 22
M  V30 22 2 22 23
M  V30 23 1 23 24
M  V30 24 1 24 25
M  V30 25 2 24 26
M  V30 26 1 23 27
M  V30 27 2 27 28
M  V30 28 1 28 29
M  V30 29 2 29 30
M  V30 30 2 14 31
M  V30 31 1 6 32
M  V30 32 2 32 33
M  V30 33 1 33 3
M  V30 34 1 31 10
M  V30 35 1 30 18
M  V30 36 1 30 22
M  V30 37 1 1 34
M  V30 38 1 1 35
M  V30 39 1 1 36
M  V30 40 1 5 37
M  V30 41 1 9 38
M  V30 42 1 11 39
M  V30 43 1 12 40
M  V30 44 1 13 41
M  V30 45 1 15 42 CFG=3
M  V30 46 1 16 43
M  V30 47 1 16 44
M  V30 48 1 16 45
M  V30 49 1 17 46
M  V30 50 1 20 47
M  V30 51 1 25 48
M  V30 52 1 25 49
M  V30 53 1 27 50
M  V30 54 1 28 51
M  V30 55 1 29 52
M  V30 56 1 31 53
M  V30 57 1 32 54
M  V30 END BOND
M  V30 END CTAB
M  END
>  <Dataset>  (249) 
ChEMBL_Kinases

>  <Ligand_Instance>  (249) 
nan

>  <PDB_ID>  (249) 
nan

>  <Standardized_SMILES>  (249) 
COc1ncc(C(=O)Nc2cccc([C@@H](C)Nc3ncnc4c(C(N)=O)cccc34)c2)cn1

>  <Name>  (249) 
nan

>  <Pocket>  (249) 
nan

>  <ATP_Site>  (249) 
nan

>  <Peripheral>  (249) 
nan

>  <Num_H_Atoms_ProtBoundConf>  (249) 
nan

>  <Num_Resolved_Atoms>  (249) 
nan

>  <Num_Not_Resolved_Atoms>  (249) 
nan

$$$$
CHEMBL313578
     RDKit          3D

  0  0  0  0  0  0  0  0  0  0999 V3000
M  V30 BEGIN CTAB
M  V30 COUNTS 29 31 0 0 0
M  V30 BEGIN ATOM
M  V30 1 O 1.277600 -1.721080 2.427228 0
M  V30 2 C 1.543073 -1.491679 1.230045 0
M  V30 3 N 2.681057 -1.925097 0.500267 0
M  V30 4 C 2.556890 -1.421394 -0.822649 0
M  V30 5 C 3.451901 -1.614318 -1.852158 0
M  V30 6 C 3.216184 -1.070838 -3.097480 0
M  V30 7 C 2.049088 -0.322518 -3.283567 0
M  V30 8 C 1.165350 -0.142768 -2.234330 0
M  V30 9 C 1.402089 -0.687473 -0.987669 0
M  V30 10 C 0.726322 -0.712792 0.312183 0
M  V30 11 C -0.429106 -0.135807 0.538826 0
M  V30 12 C -1.135274 -0.179592 1.801987 0
M  V30 13 C -1.512284 1.007921 2.390103 0
M  V30 14 C -2.219018 0.955778 3.581601 0
M  V30 15 C -2.548234 -0.236266 4.181982 0
M  V30 16 O -3.254364 -0.224723 5.371710 0
M  V30 17 C -2.163333 -1.398131 3.578233 0
M  V30 18 C -1.448684 -1.379166 2.374221 0
M  V30 19 H 3.418148 -2.506409 0.953057 0
M  V30 20 H 4.378765 -2.194170 -1.748533 0
M  V30 21 H 3.880848 -1.184741 -3.950826 0
M  V30 22 H 1.820796 0.129169 -4.254900 0
M  V30 23 H 0.260524 0.433478 -2.362090 0
M  V30 24 H -0.916261 0.428746 -0.273846 0
M  V30 25 H -1.299014 1.983048 1.993198 0
M  V30 26 H -2.535612 1.872444 4.078827 0
M  V30 27 H -2.990113 0.401915 6.148958 0
M  V30 28 H -2.428219 -2.351099 4.062448 0
M  V30 29 H -1.226219 -2.364838 1.991871 0
M  V30 END ATOM
M  V30 BEGIN BOND
M  V30 1 2 1 2
M  V30 2 1 2 3
M  V30 3 1 3 4
M  V30 4 2 4 5
M  V30 5 1 5 6
M  V30 6 2 6 7
M  V30 7 1 7 8
M  V30 8 2 8 9
M  V30 9 1 9 10
M  V30 10 2 10 11
M  V30 11 1 11 12
M  V30 12 2 12 13
M  V30 13 1 13 14
M  V30 14 2 14 15
M  V30 15 1 15 16
M  V30 16 1 15 17
M  V30 17 2 17 18
M  V30 18 1 10 2
M  V30 19 1 18 12
M  V30 20 1 9 4
M  V30 21 1 3 19
M  V30 22 1 5 20
M  V30 23 1 6 21
M  V30 24 1 7 22
M  V30 25 1 8 23
M  V30 26 1 11 24
M  V30 27 1 13 25
M  V30 28 1 14 26
M  V30 29 1 16 27
M  V30 30 1 17 28
M  V30 31 1 18 29
M  V30 END BOND
M  V30 END CTAB
M  END
>  <Dataset>  (250) 
ChEMBL_Kinases

>  <Ligand_Instance>  (250) 
nan

>  <PDB_ID>  (250) 
nan

>  <Standardized_SMILES>  (250) 
O=C1Nc2ccccc2/C1=C/c1ccc(O)cc1

>  <Name>  (250) 
nan

>  <Pocket>  (250) 
nan

>  <ATP_Site>  (250) 
nan

>  <Peripheral>  (250) 
nan

>  <Num_H_Atoms_ProtBoundConf>  (250) 
nan

>  <Num_Resolved_Atoms>  (250) 
nan

>  <Num_Not_Resolved_Atoms>  (250) 
nan

$$$$
CHEMBL322970
     RDKit          3D

  0  0  0  0  0  0  0  0  0  0999 V3000
M  V30 BEGIN CTAB
M  V30 COUNTS 35 37 0 0 0
M  V30 BEGIN ATOM
M  V30 1 O -0.194658 -3.036132 3.333752 0
M  V30 2 C 0.585812 -2.150791 2.902574 0
M  V30 3 N 1.575760 -1.381742 3.572121 0
M  V30 4 C 2.184707 -0.504188 2.599277 0
M  V30 5 O 3.080893 0.214172 3.119607 0
M  V30 6 C 1.510623 -0.785748 1.311578 0
M  V30 7 C 2.055570 -0.008550 0.210094 0
M  V30 8 C 2.460685 -0.794438 -0.874534 0
M  V30 9 C 2.999575 -0.183928 -1.980372 0
M  V30 10 C 3.133959 1.185154 -2.008482 0
M  V30 11 C 2.734008 1.986104 -0.933847 0
M  V30 12 C 2.194040 1.362200 0.169487 0
M  V30 13 N 1.745659 2.136315 1.280199 0 CHG=1 VAL=4
M  V30 14 O 0.741320 1.732152 1.923285 0
M  V30 15 O 2.361167 3.320830 1.648149 0 CHG=-1 VAL=1
M  V30 16 C 0.605645 -1.727083 1.514173 0
M  V30 17 N -0.147008 -2.113561 0.361824 0
M  V30 18 C -1.501820 -1.739396 0.405698 0
M  V30 19 C -1.733954 -0.459130 -0.106182 0
M  V30 20 C -2.987777 0.087963 -0.152108 0
M  V30 21 C -4.094744 -0.624969 0.318257 0
M  V30 22 O -5.411954 -0.166456 0.320483 0
M  V30 23 C -3.856774 -1.895448 0.824593 0
M  V30 24 Cl -5.188476 -2.844455 1.430591 0
M  V30 25 C -2.593182 -2.440494 0.868173 0
M  V30 26 H 1.698637 -1.567893 4.611726 0
M  V30 27 H 2.379124 -1.863232 -0.902132 0
M  V30 28 H 3.315065 -0.783219 -2.823538 0
M  V30 29 H 3.568454 1.670004 -2.896071 0
M  V30 30 H 2.833220 3.080903 -0.939452 0
M  V30 31 H 0.156716 -2.634426 -0.513743 0
M  V30 32 H -0.972601 0.200098 -0.499793 0
M  V30 33 H -3.256879 1.069212 -0.532330 0
M  V30 34 H -5.749148 0.209617 1.216639 0
M  V30 35 H -2.337499 -3.420899 1.249596 0
M  V30 END ATOM
M  V30 BEGIN BOND
M  V30 1 2 1 2
M  V30 2 1 2 3
M  V30 3 1 3 4
M  V30 4 2 4 5
M  V30 5 1 4 6
M  V30 6 1 6 7
M  V30 7 2 7 8
M  V30 8 1 8 9
M  V30 9 2 9 10
M  V30 10 1 10 11
M  V30 11 2 11 12
M  V30 12 1 12 13
M  V30 13 2 13 14
M  V30 14 1 13 15
M  V30 15 2 6 16
M  V30 16 1 16 17
M  V30 17 1 17 18
M  V30 18 2 18 19
M  V30 19 1 19 20
M  V30 20 2 20 21
M  V30 21 1 21 22
M  V30 22 1 21 23
M  V30 23 1 23 24
M  V30 24 2 23 25
M  V30 25 1 16 2
M  V30 26 1 25 18
M  V30 27 1 12 7
M  V30 28 1 3 26
M  V30 29 1 8 27
M  V30 30 1 9 28
M  V30 31 1 10 29
M  V30 32 1 11 30
M  V30 33 1 17 31
M  V30 34 1 19 32
M  V30 35 1 20 33
M  V30 36 1 22 34
M  V30 37 1 25 35
M  V30 END BOND
M  V30 END CTAB
M  END
>  <Dataset>  (251) 
ChEMBL_Kinases

>  <Ligand_Instance>  (251) 
nan

>  <PDB_ID>  (251) 
nan

>  <Standardized_SMILES>  (251) 
O=C1NC(=O)C(c2ccccc2[N+](=O)[O-])=C1Nc1ccc(O)c(Cl)c1

>  <Name>  (251) 
nan

>  <Pocket>  (251) 
nan

>  <ATP_Site>  (251) 
nan

>  <Peripheral>  (251) 
nan

>  <Num_H_Atoms_ProtBoundConf>  (251) 
nan

>  <Num_Resolved_Atoms>  (251) 
nan

>  <Num_Not_Resolved_Atoms>  (251) 
nan

$$$$
CHEMBL4216900
     RDKit          3D

  0  0  0  0  0  0  0  0  0  0999 V3000
M  V30 BEGIN CTAB
M  V30 COUNTS 89 95 0 0 0
M  V30 BEGIN ATOM
M  V30 1 C 2.435062 -7.794247 -2.567297 0
M  V30 2 C 1.722294 -9.014453 -3.113725 0
M  V30 3 N 1.131140 -8.697615 -4.419838 0
M  V30 4 C 0.166560 -7.650820 -4.525202 0
M  V30 5 N -0.493350 -7.174726 -5.445970 0
M  V30 6 C -1.339024 -6.184032 -5.293654 0
M  V30 7 C -1.504561 -5.644670 -4.056684 0
M  V30 8 C -2.357027 -4.535282 -3.540443 0
M  V30 9 C -3.204685 -3.824835 -4.337310 0
M  V30 10 C -3.934716 -2.820423 -3.754930 0
M  V30 11 C -3.870250 -2.480166 -2.420396 0
M  V30 12 C -4.669957 -1.396457 -1.872186 0
M  V30 13 C -4.553183 -1.125811 -0.583473 0
M  V30 14 C -5.332420 -0.044523 0.030879 0
M  V30 15 N -5.555241 0.926822 -1.057542 0
M  V30 16 C -5.003404 2.258383 -1.226537 0
M  V30 17 O -5.400918 2.881750 -2.271103 0
M  V30 18 C -4.109109 2.540737 -0.123345 0
M  V30 19 N -3.428107 3.765302 -0.042641 0
M  V30 20 C -2.422284 4.057383 -0.998555 0
M  V30 21 C -1.315154 3.120988 -0.579274 0
M  V30 22 C -1.420747 3.164052 0.937060 0 CFG=1
M  V30 23 S -1.565772 1.499043 1.626786 0
M  V30 24 C -1.692805 1.560018 3.411601 0
M  V30 25 C -0.189027 3.850294 1.433601 0
M  V30 26 O 0.207229 4.850525 2.116643 0
M  V30 27 N 0.919338 3.090438 0.956630 0
M  V30 28 C 2.338583 3.154338 1.048921 0
M  V30 29 C 3.023776 3.932749 0.104766 0
M  V30 30 C 4.421027 4.054593 0.094542 0
M  V30 31 C 5.070737 3.349225 1.085170 0
M  V30 32 N 6.389878 3.249771 1.351079 0
M  V30 33 N 6.630771 2.456102 2.409460 0
M  V30 34 C 5.430991 2.001657 2.877338 0
M  V30 35 C 5.169753 1.105991 4.000398 0
M  V30 36 C 4.231036 1.234651 4.980461 0
M  V30 37 C 4.136508 0.273543 5.963807 0
M  V30 38 N 4.947019 -0.828835 6.016608 0
M  V30 39 C 5.896673 -0.994845 5.058797 0
M  V30 40 C 6.836475 -2.168017 5.026308 0
M  V30 41 C 5.993943 -0.027146 4.066836 0
M  V30 42 C 4.478183 2.561547 2.050606 0
M  V30 43 C 3.086551 2.474420 2.016966 0
M  V30 44 C -2.665547 3.915926 1.209004 0
M  V30 45 C -6.452422 0.322824 -2.027787 0
M  V30 46 C -5.564384 -0.665292 -2.795292 0
M  V30 47 C -2.990075 -3.246140 -1.685578 0
M  V30 48 C -2.221925 -4.273763 -2.202765 0
M  V30 49 S -0.343846 -6.668724 -3.089151 0
M  V30 50 H 2.818466 -7.173574 -3.390343 0
M  V30 51 H 3.347546 -8.077381 -1.967512 0
M  V30 52 H 1.811830 -7.231856 -1.827489 0
M  V30 53 H 2.456212 -9.810128 -3.192907 0
M  V30 54 H 0.920856 -9.370601 -2.429903 0
M  V30 55 H 1.352642 -9.177518 -5.311720 0
M  V30 56 H -1.947639 -5.728343 -6.082487 0
M  V30 57 H -3.213161 -4.135843 -5.369079 0
M  V30 58 H -4.595665 -2.281406 -4.420977 0
M  V30 59 H -3.927043 -1.614914 0.143016 0
M  V30 60 H -4.884579 0.415111 0.926268 0
M  V30 61 H -6.305239 -0.454622 0.364075 0
M  V30 62 H -3.341382 1.737105 -0.099839 0
M  V30 63 H -4.686501 2.422738 0.839577 0
M  V30 64 H -2.672996 4.073599 -2.045592 0
M  V30 65 H -2.030844 5.084122 -0.750699 0
M  V30 66 H -1.391810 2.102238 -0.947146 0
M  V30 67 H -0.359710 3.526828 -0.949143 0
M  V30 68 H -2.693937 1.942960 3.747855 0
M  V30 69 H -0.932622 2.192451 3.913252 0
M  V30 70 H -1.676521 0.496025 3.790768 0
M  V30 71 H 0.953519 2.209254 0.358844 0
M  V30 72 H 2.424838 4.457349 -0.645015 0
M  V30 73 H 4.924432 4.654098 -0.634160 0
M  V30 74 H 7.142514 3.739580 0.790239 0
M  V30 75 H 3.612189 2.104349 4.916072 0
M  V30 76 H 3.389341 0.383703 6.741395 0
M  V30 77 H 7.865096 -1.805858 5.219271 0
M  V30 78 H 6.844545 -2.573378 3.971337 0
M  V30 79 H 6.499417 -2.952631 5.713563 0
M  V30 80 H 6.773610 -0.188711 3.306108 0
M  V30 81 H 2.527448 1.893664 2.716618 0
M  V30 82 H -3.270649 3.577802 2.065971 0
M  V30 83 H -2.396026 4.999981 1.306429 0
M  V30 84 H -7.301553 -0.156699 -1.547293 0
M  V30 85 H -6.871157 1.064770 -2.740959 0
M  V30 86 H -6.155948 -1.334460 -3.449505 0
M  V30 87 H -4.903744 -0.004222 -3.430485 0
M  V30 88 H -2.849658 -3.074627 -0.630544 0
M  V30 89 H -1.539121 -4.852567 -1.580910 0
M  V30 END ATOM
M  V30 BEGIN BOND
M  V30 1 1 1 2
M  V30 2 1 2 3
M  V30 3 1 3 4
M  V30 4 2 4 5
M  V30 5 1 5 6
M  V30 6 2 6 7
M  V30 7 1 7 8
M  V30 8 2 8 9
M  V30 9 1 9 10
M  V30 10 2 10 11
M  V30 11 1 11 12
M  V30 12 2 12 13
M  V30 13 1 13 14
M  V30 14 1 14 15
M  V30 15 1 15 16
M  V30 16 2 16 17
M  V30 17 1 16 18
M  V30 18 1 18 19
M  V30 19 1 19 20
M  V30 20 1 20 21
M  V30 21 1 21 22
M  V30 22 1 22 23 CFG=1
M  V30 23 1 23 24
M  V30 24 1 22 25
M  V30 25 2 25 26
M  V30 26 1 25 27
M  V30 27 1 27 28
M  V30 28 2 28 29
M  V30 29 1 29 30
M  V30 30 2 30 31
M  V30 31 1 31 32
M  V30 32 1 32 33
M  V30 33 2 33 34
M  V30 34 1 34 35
M  V30 35 2 35 36
M  V30 36 1 36 37
M  V30 37 2 37 38
M  V30 38 1 38 39
M  V30 39 1 39 40
M  V30 40 2 39 41
M  V30 41 1 34 42
M  V30 42 2 42 43
M  V30 43 1 22 44
M  V30 44 1 15 45
M  V30 45 1 45 46
M  V30 46 1 11 47
M  V30 47 2 47 48
M  V30 48 1 7 49
M  V30 49 1 49 4
M  V30 50 1 48 8
M  V30 51 1 46 12
M  V30 52 1 44 19
M  V30 53 1 43 28
M  V30 54 1 42 31
M  V30 55 1 41 35
M  V30 56 1 1 50
M  V30 57 1 1 51
M  V30 58 1 1 52
M  V30 59 1 2 53
M  V30 60 1 2 54
M  V30 61 1 3 55
M  V30 62 1 6 56
M  V30 63 1 9 57
M  V30 64 1 10 58
M  V30 65 1 13 59
M  V30 66 1 14 60
M  V30 67 1 14 61
M  V30 68 1 18 62
M  V30 69 1 18 63
M  V30 70 1 20 64
M  V30 71 1 20 65
M  V30 72 1 21 66
M  V30 73 1 21 67
M  V30 74 1 24 68
M  V30 75 1 24 69
M  V30 76 1 24 70
M  V30 77 1 27 71
M  V30 78 1 29 72
M  V30 79 1 30 73
M  V30 80 1 32 74
M  V30 81 1 36 75
M  V30 82 1 37 76
M  V30 83 1 40 77
M  V30 84 1 40 78
M  V30 85 1 40 79
M  V30 86 1 41 80
M  V30 87 1 43 81
M  V30 88 1 44 82
M  V30 89 1 44 83
M  V30 90 1 45 84
M  V30 91 1 45 85
M  V30 92 1 46 86
M  V30 93 1 46 87
M  V30 94 1 47 88
M  V30 95 1 48 89
M  V30 END BOND
M  V30 END CTAB
M  END
>  <Dataset>  (252) 
ChEMBL_Kinases

>  <Ligand_Instance>  (252) 
nan

>  <PDB_ID>  (252) 
nan

>  <Standardized_SMILES>  (252) 
CCNc1ncc(-c2ccc(C3=CCN(C(=O)CN4CC[C@@](SC)(C(=O)Nc5ccc6[nH]nc(-c7ccnc(C)c7)c6c5)C4)CC3)cc2)s1

>  <Name>  (252) 
nan

>  <Pocket>  (252) 
nan

>  <ATP_Site>  (252) 
nan

>  <Peripheral>  (252) 
nan

>  <Num_H_Atoms_ProtBoundConf>  (252) 
nan

>  <Num_Resolved_Atoms>  (252) 
nan

>  <Num_Not_Resolved_Atoms>  (252) 
nan

$$$$
CHEMBL3676264
     RDKit          3D

  0  0  0  0  0  0  0  0  0  0999 V3000
M  V30 BEGIN CTAB
M  V30 COUNTS 52 55 0 0 0
M  V30 BEGIN ATOM
M  V30 1 C 5.415336 0.680237 -1.022844 0
M  V30 2 O 4.375784 -0.169476 -0.687965 0
M  V30 3 C 3.599205 0.305857 0.365719 0 CFG=2
M  V30 4 C 3.623560 -0.687434 1.481038 0
M  V30 5 C 2.406579 -0.558756 2.367468 0 CFG=2
M  V30 6 N 1.395879 -1.504043 1.942258 0
M  V30 7 C 1.849302 0.848536 2.394555 0
M  V30 8 N 1.517668 1.234746 1.049024 0
M  V30 9 C 0.609512 2.254770 0.649166 0
M  V30 10 C 1.122022 3.291298 -0.110667 0
M  V30 11 C 0.351951 4.331830 -0.557040 0
M  V30 12 N -0.968116 4.352120 -0.244303 0
M  V30 13 C -1.521711 3.360921 0.497942 0
M  V30 14 C -0.738585 2.331705 0.934183 0
M  V30 15 N -1.262631 1.248188 1.725580 0
M  V30 16 C -1.713861 0.201677 0.875204 0
M  V30 17 O -1.532172 0.508053 -0.334238 0
M  V30 18 C -2.296660 -1.026989 1.436295 0
M  V30 19 C -2.471296 -1.306304 2.804631 0
M  V30 20 S -3.255575 -3.025618 2.668332 0
M  V30 21 C -3.186064 -3.005403 0.894733 0
M  V30 22 C -3.693777 -4.170292 0.104877 0
M  V30 23 C -4.212538 -5.251548 0.767298 0
M  V30 24 F -4.292420 -5.325339 2.119189 0
M  V30 25 C -4.667372 -6.301791 -0.030204 0
M  V30 26 C -4.585286 -6.225769 -1.416818 0
M  V30 27 C -4.050937 -5.107556 -2.038935 0
M  V30 28 C -3.600708 -4.067712 -1.246335 0
M  V30 29 F -3.066180 -2.946191 -1.829417 0
M  V30 30 N -2.688033 -1.944088 0.569547 0
M  V30 31 C 2.162621 0.526090 -0.041436 0
M  V30 32 H 5.091484 1.691182 -1.339002 0
M  V30 33 H 6.026616 0.149551 -1.781914 0
M  V30 34 H 6.080206 0.861789 -0.130434 0
M  V30 35 H 3.974970 1.295379 0.738562 0
M  V30 36 H 4.538944 -0.455576 2.091755 0
M  V30 37 H 3.712994 -1.714125 1.059090 0
M  V30 38 H 2.652934 -0.828695 3.429013 0
M  V30 39 H 0.628419 -1.593155 2.638530 0
M  V30 40 H 1.800890 -2.405663 1.661045 0
M  V30 41 H 1.023131 0.869807 3.106799 0
M  V30 42 H 2.682481 1.478258 2.813697 0
M  V30 43 H 2.163699 3.359872 -0.409164 0
M  V30 44 H 0.723108 5.166446 -1.158628 0
M  V30 45 H -2.583445 3.363087 0.758123 0
M  V30 46 H -1.334000 1.169877 2.767890 0
M  V30 47 H -2.136364 -0.519430 3.573643 0
M  V30 48 H -5.091457 -7.192191 0.423873 0
M  V30 49 H -4.941033 -7.046413 -2.029683 0
M  V30 50 H -3.973613 -5.019552 -3.123926 0
M  V30 51 H 1.600959 -0.423668 -0.179096 0
M  V30 52 H 2.097916 1.044960 -1.013325 0
M  V30 END ATOM
M  V30 BEGIN BOND
M  V30 1 1 1 2
M  V30 2 1 2 3
M  V30 3 1 3 4
M  V30 4 1 4 5
M  V30 5 1 5 6
M  V30 6 1 5 7
M  V30 7 1 7 8
M  V30 8 1 8 9
M  V30 9 2 9 10
M  V30 10 1 10 11
M  V30 11 2 11 12
M  V30 12 1 12 13
M  V30 13 2 13 14
M  V30 14 1 14 15
M  V30 15 1 15 16
M  V30 16 2 16 17
M  V30 17 1 16 18
M  V30 18 2 18 19
M  V30 19 1 19 20
M  V30 20 1 20 21
M  V30 21 1 21 22
M  V30 22 2 22 23
M  V30 23 1 23 24
M  V30 24 1 23 25
M  V30 25 2 25 26
M  V30 26 1 26 27
M  V30 27 2 27 28
M  V30 28 1 28 29
M  V30 29 2 21 30
M  V30 30 1 8 31
M  V30 31 1 31 3
M  V30 32 1 14 9
M  V30 33 1 30 18
M  V30 34 1 28 22
M  V30 35 1 1 32
M  V30 36 1 1 33
M  V30 37 1 1 34
M  V30 38 1 3 35 CFG=1
M  V30 39 1 4 36
M  V30 40 1 4 37
M  V30 41 1 5 38 CFG=1
M  V30 42 1 6 39
M  V30 43 1 6 40
M  V30 44 1 7 41
M  V30 45 1 7 42
M  V30 46 1 10 43
M  V30 47 1 11 44
M  V30 48 1 13 45
M  V30 49 1 15 46
M  V30 50 1 19 47
M  V30 51 1 25 48
M  V30 52 1 26 49
M  V30 53 1 27 50
M  V30 54 1 31 51
M  V30 55 1 31 52
M  V30 END BOND
M  V30 END CTAB
M  END
>  <Dataset>  (253) 
ChEMBL_Kinases

>  <Ligand_Instance>  (253) 
nan

>  <PDB_ID>  (253) 
nan

>  <Standardized_SMILES>  (253) 
CO[C@@H]1C[C@H](N)CN(c2ccncc2NC(=O)c2csc(-c3c(F)cccc3F)n2)C1

>  <Name>  (253) 
nan

>  <Pocket>  (253) 
nan

>  <ATP_Site>  (253) 
nan

>  <Peripheral>  (253) 
nan

>  <Num_H_Atoms_ProtBoundConf>  (253) 
nan

>  <Num_Resolved_Atoms>  (253) 
nan

>  <Num_Not_Resolved_Atoms>  (253) 
nan

$$$$
CHEMBL4216824
     RDKit          3D

  0  0  0  0  0  0  0  0  0  0999 V3000
M  V30 BEGIN CTAB
M  V30 COUNTS 54 59 0 0 0
M  V30 BEGIN ATOM
M  V30 1 F 2.788643 -6.679282 4.683934 0
M  V30 2 C 2.896497 -5.540907 3.930736 0
M  V30 3 C 2.237666 -4.415162 4.392112 0
M  V30 4 C 2.352878 -3.280374 3.629106 0
M  V30 5 C 3.068320 -3.188418 2.454575 0
M  V30 6 N 3.147348 -1.966251 1.703747 0
M  V30 7 C 4.131198 -1.068306 1.563557 0
M  V30 8 N 3.689098 -0.098450 0.743417 0
M  V30 9 C 2.418931 -0.411901 0.380509 0
M  V30 10 C 1.554859 0.293350 -0.456991 0
M  V30 11 N 1.893839 1.502926 -1.086708 0
M  V30 12 C 1.038747 2.278906 -1.964023 0
M  V30 13 C -0.202869 2.745912 -1.292546 0
M  V30 14 N -0.257993 3.929558 -0.613378 0
M  V30 15 C -1.488875 4.117122 -0.106895 0
M  V30 16 C -2.031604 5.142872 0.643264 0
M  V30 17 F -1.274044 6.224458 1.000229 0
M  V30 18 C -3.354240 5.074820 1.036925 0
M  V30 19 F -3.916799 6.079790 1.781973 0
M  V30 20 C -4.124558 3.989017 0.681761 0
M  V30 21 C -3.564861 2.962032 -0.074629 0
M  V30 22 C -2.244751 3.030522 -0.467217 0
M  V30 23 N -1.436791 2.226380 -1.180176 0
M  V30 24 N 0.358286 -0.277437 -0.621722 0
M  V30 25 C -0.035565 -1.429500 -0.055957 0
M  V30 26 N -1.308884 -2.033536 -0.234454 0
M  V30 27 C -1.682749 -3.278340 0.411119 0
M  V30 28 C -2.027729 -4.255074 -0.688941 0
M  V30 29 O -2.827034 -3.742224 -1.681730 0
M  V30 30 C -3.387937 -2.503286 -1.418899 0
M  V30 31 C -2.341830 -1.460532 -1.075345 0
M  V30 32 N 0.837974 -2.057689 0.736227 0
M  V30 33 C 2.071609 -1.594858 0.986860 0
M  V30 34 C 3.717215 -4.343315 2.023781 0
M  V30 35 C 3.631392 -5.509024 2.756331 0
M  V30 36 F 4.255086 -6.638310 2.352109 0
M  V30 37 H 1.652763 -4.396478 5.304237 0
M  V30 38 H 1.861240 -2.379117 3.942038 0
M  V30 39 H 5.064610 -1.227122 2.080490 0
M  V30 40 H 2.859543 1.849713 -0.883923 0
M  V30 41 H 1.600587 3.169654 -2.324456 0
M  V30 42 H 0.764840 1.693207 -2.869390 0
M  V30 43 H -5.167680 3.872198 0.956959 0
M  V30 44 H -4.141339 2.083628 -0.377197 0
M  V30 45 H -1.700977 1.317084 -1.604454 0
M  V30 46 H -2.607739 -3.152828 1.015565 0
M  V30 47 H -0.852300 -3.724417 0.994172 0
M  V30 48 H -1.064782 -4.633558 -1.092232 0
M  V30 49 H -2.503566 -5.140852 -0.183756 0
M  V30 50 H -3.860977 -2.172505 -2.369234 0
M  V30 51 H -4.145411 -2.499372 -0.629696 0
M  V30 52 H -1.918894 -1.037483 -2.007720 0
M  V30 53 H -2.830512 -0.639925 -0.512610 0
M  V30 54 H 4.301081 -4.330770 1.097249 0
M  V30 END ATOM
M  V30 BEGIN BOND
M  V30 1 1 1 2
M  V30 2 2 2 3
M  V30 3 1 3 4
M  V30 4 2 4 5
M  V30 5 1 5 6
M  V30 6 1 6 7
M  V30 7 2 7 8
M  V30 8 1 8 9
M  V30 9 2 9 10
M  V30 10 1 10 11
M  V30 11 1 11 12
M  V30 12 1 12 13
M  V30 13 2 13 14
M  V30 14 1 14 15
M  V30 15 2 15 16
M  V30 16 1 16 17
M  V30 17 1 16 18
M  V30 18 1 18 19
M  V30 19 2 18 20
M  V30 20 1 20 21
M  V30 21 2 21 22
M  V30 22 1 22 23
M  V30 23 1 10 24
M  V30 24 2 24 25
M  V30 25 1 25 26
M  V30 26 1 26 27
M  V30 27 1 27 28
M  V30 28 1 28 29
M  V30 29 1 29 30
M  V30 30 1 30 31
M  V30 31 1 25 32
M  V30 32 2 32 33
M  V30 33 1 5 34
M  V30 34 2 34 35
M  V30 35 1 35 36
M  V30 36 1 35 2
M  V30 37 1 33 6
M  V30 38 1 33 9
M  V30 39 1 23 13
M  V30 40 1 31 26
M  V30 41 1 22 15
M  V30 42 1 3 37
M  V30 43 1 4 38
M  V30 44 1 7 39
M  V30 45 1 11 40
M  V30 46 1 12 41
M  V30 47 1 12 42
M  V30 48 1 20 43
M  V30 49 1 21 44
M  V30 50 1 23 45
M  V30 51 1 27 46
M  V30 52 1 27 47
M  V30 53 1 28 48
M  V30 54 1 28 49
M  V30 55 1 30 50
M  V30 56 1 30 51
M  V30 57 1 31 52
M  V30 58 1 31 53
M  V30 59 1 34 54
M  V30 END BOND
M  V30 END CTAB
M  END
>  <Dataset>  (254) 
ChEMBL_Kinases

>  <Ligand_Instance>  (254) 
nan

>  <PDB_ID>  (254) 
nan

>  <Standardized_SMILES>  (254) 
Fc1ccc(-n2cnc3c(NCc4nc5c(F)c(F)ccc5[nH]4)nc(N4CCOCC4)nc32)cc1F

>  <Name>  (254) 
nan

>  <Pocket>  (254) 
nan

>  <ATP_Site>  (254) 
nan

>  <Peripheral>  (254) 
nan

>  <Num_H_Atoms_ProtBoundConf>  (254) 
nan

>  <Num_Resolved_Atoms>  (254) 
nan

>  <Num_Not_Resolved_Atoms>  (254) 
nan

$$$$
CHEMBL3676263
     RDKit          3D

  0  0  0  0  0  0  0  0  0  0999 V3000
M  V30 BEGIN CTAB
M  V30 COUNTS 52 55 0 0 0
M  V30 BEGIN ATOM
M  V30 1 C 1.256988 -1.637028 4.404188 0
M  V30 2 O 1.782855 -1.175394 3.200806 0
M  V30 3 C 2.155915 -2.249561 2.372925 0
M  V30 4 C 3.649963 -2.103067 2.170725 0
M  V30 5 C 3.913728 -0.726620 1.613764 0
M  V30 6 N 3.008063 -0.475112 0.517235 0
M  V30 7 C 2.938840 0.885058 0.123653 0
M  V30 8 C 3.768543 1.849063 0.645732 0
M  V30 9 C 3.753233 3.167222 0.297268 0
M  V30 10 N 2.875850 3.606086 -0.624807 0
M  V30 11 C 2.009932 2.721905 -1.200786 0
M  V30 12 C 2.072996 1.402523 -0.807835 0
M  V30 13 N 1.114495 0.622861 -1.490556 0
M  V30 14 C -0.125975 0.543136 -0.805122 0
M  V30 15 O -0.018251 1.216171 0.259855 0
M  V30 16 C -1.258308 -0.233133 -1.367082 0
M  V30 17 C -1.270524 -0.953168 -2.575626 0
M  V30 18 S -3.016786 -1.610479 -2.529991 0
M  V30 19 C -3.379443 -0.798341 -0.917504 0
M  V30 20 C -4.698433 -0.962906 -0.321785 0
M  V30 21 C -4.976296 -0.347932 0.903311 0
M  V30 22 F -3.984622 0.373823 1.467598 0
M  V30 23 C -6.200477 -0.459215 1.526574 0
M  V30 24 C -7.176192 -1.200897 0.918046 0
M  V30 25 C -6.925749 -1.822690 -0.300496 0
M  V30 26 C -5.703812 -1.702218 -0.906684 0
M  V30 27 F -5.479941 -2.313982 -2.090668 0
M  V30 28 N -2.320266 -0.174192 -0.564235 0
M  V30 29 C 2.353500 -1.650473 0.015902 0
M  V30 30 C 1.390240 -2.127211 1.099479 0
M  V30 31 N 0.791439 -3.381328 0.677101 0
M  V30 32 H 0.356766 -2.258378 4.128333 0
M  V30 33 H 1.987902 -2.190030 4.994938 0
M  V30 34 H 0.851942 -0.796736 5.002243 0
M  V30 35 H 1.915611 -3.182889 2.936044 0
M  V30 36 H 4.076629 -2.914890 1.564804 0
M  V30 37 H 4.130548 -2.122850 3.193102 0
M  V30 38 H 3.831536 0.046733 2.410832 0
M  V30 39 H 4.955610 -0.764110 1.192651 0
M  V30 40 H 4.521137 1.621474 1.392942 0
M  V30 41 H 4.403372 3.900978 0.711814 0
M  V30 42 H 1.334723 3.137968 -1.930421 0
M  V30 43 H 1.265897 0.140844 -2.429203 0
M  V30 44 H -0.276698 -0.931537 -3.196984 0
M  V30 45 H -6.328389 0.046925 2.468168 0
M  V30 46 H -8.149616 -1.301250 1.393432 0
M  V30 47 H -7.736693 -2.398847 -0.738158 0
M  V30 48 H 1.840087 -1.551517 -0.940708 0
M  V30 49 H 3.131514 -2.462687 -0.109783 0
M  V30 50 H 0.578408 -1.408537 1.194701 0
M  V30 51 H -0.013322 -3.583668 1.303250 0
M  V30 52 H 0.385869 -3.206439 -0.269293 0
M  V30 END ATOM
M  V30 BEGIN BOND
M  V30 1 1 1 2
M  V30 2 1 2 3
M  V30 3 1 3 4
M  V30 4 1 4 5
M  V30 5 1 5 6
M  V30 6 1 6 7
M  V30 7 2 7 8
M  V30 8 1 8 9
M  V30 9 2 9 10
M  V30 10 1 10 11
M  V30 11 2 11 12
M  V30 12 1 12 13
M  V30 13 1 13 14
M  V30 14 2 14 15
M  V30 15 1 14 16
M  V30 16 2 16 17
M  V30 17 1 17 18
M  V30 18 1 18 19
M  V30 19 1 19 20
M  V30 20 2 20 21
M  V30 21 1 21 22
M  V30 22 1 21 23
M  V30 23 2 23 24
M  V30 24 1 24 25
M  V30 25 2 25 26
M  V30 26 1 26 27
M  V30 27 2 19 28
M  V30 28 1 6 29
M  V30 29 1 29 30
M  V30 30 1 30 31
M  V30 31 1 30 3
M  V30 32 1 12 7
M  V30 33 1 28 16
M  V30 34 1 26 20
M  V30 35 1 1 32
M  V30 36 1 1 33
M  V30 37 1 1 34
M  V30 38 1 3 35
M  V30 39 1 4 36
M  V30 40 1 4 37
M  V30 41 1 5 38
M  V30 42 1 5 39
M  V30 43 1 8 40
M  V30 44 1 9 41
M  V30 45 1 11 42
M  V30 46 1 13 43
M  V30 47 1 17 44
M  V30 48 1 23 45
M  V30 49 1 24 46
M  V30 50 1 25 47
M  V30 51 1 29 48
M  V30 52 1 29 49
M  V30 53 1 30 50
M  V30 54 1 31 51
M  V30 55 1 31 52
M  V30 END BOND
M  V30 END CTAB
M  END
>  <Dataset>  (255) 
ChEMBL_Kinases

>  <Ligand_Instance>  (255) 
nan

>  <PDB_ID>  (255) 
nan

>  <Standardized_SMILES>  (255) 
COC1CCN(c2ccncc2NC(=O)c2csc(-c3c(F)cccc3F)n2)CC1N

>  <Name>  (255) 
nan

>  <Pocket>  (255) 
nan

>  <ATP_Site>  (255) 
nan

>  <Peripheral>  (255) 
nan

>  <Num_H_Atoms_ProtBoundConf>  (255) 
nan

>  <Num_Resolved_Atoms>  (255) 
nan

>  <Num_Not_Resolved_Atoms>  (255) 
nan

$$$$
CHEMBL3676262
     RDKit          3D

  0  0  0  0  0  0  0  0  0  0999 V3000
M  V30 BEGIN CTAB
M  V30 COUNTS 49 52 0 0 0
M  V30 BEGIN ATOM
M  V30 1 N -1.489415 -1.043637 -0.868283 0
M  V30 2 C -1.036669 -2.387489 -1.114062 0 CFG=2
M  V30 3 C 0.422734 -2.508911 -0.683866 0
M  V30 4 N 1.278010 -1.770652 -1.554970 0
M  V30 5 C 2.414496 -0.920186 -1.463093 0
M  V30 6 C 3.538172 -1.413196 -2.133982 0
M  V30 7 C 4.758930 -0.758940 -2.180918 0
M  V30 8 N 4.809787 0.414912 -1.525803 0
M  V30 9 C 3.762057 0.936610 -0.864767 0
M  V30 10 C 2.543016 0.291637 -0.813088 0
M  V30 11 N 1.369532 0.749576 -0.149144 0
M  V30 12 C 1.049713 0.458452 1.207873 0
M  V30 13 O 1.935652 -0.257678 1.752107 0
M  V30 14 C -0.181272 0.959753 1.847331 0
M  V30 15 C -1.100124 1.759267 1.129843 0
M  V30 16 S -2.377975 2.035897 2.479255 0
M  V30 17 C -1.394005 1.021637 3.691888 0
M  V30 18 C -1.861206 0.787963 5.126702 0
M  V30 19 C -1.042583 0.022844 5.913025 0
M  V30 20 F 0.105261 -0.472883 5.392987 0
M  V30 21 C -1.484474 -0.174110 7.203219 0
M  V30 22 C -2.661585 0.351998 7.686340 0
M  V30 23 C -3.456681 1.125500 6.837245 0
M  V30 24 C -3.053720 1.350551 5.532915 0
M  V30 25 F -3.821125 2.102444 4.698334 0
M  V30 26 N -0.494700 0.697707 3.105401 0
M  V30 27 C 0.873698 -1.929071 -2.962928 0
M  V30 28 C 0.069970 -3.193416 -3.117677 0
M  V30 29 C -1.292186 -2.875855 -2.503970 0 CFG=2
M  V30 30 O -1.795165 -1.791105 -3.259403 0
M  V30 31 H -1.712660 -0.886915 0.118615 0
M  V30 32 H -0.930256 -0.320178 -1.332983 0
M  V30 33 H -1.628790 -3.069633 -0.437255 0
M  V30 34 H 0.434377 -2.236795 0.366287 0
M  V30 35 H 0.750219 -3.581523 -0.721628 0
M  V30 36 H 3.529278 -2.370387 -2.679594 0
M  V30 37 H 5.603285 -1.151970 -2.697908 0
M  V30 38 H 3.804010 1.890356 -0.332673 0
M  V30 39 H 0.720340 1.334117 -0.718149 0
M  V30 40 H -1.011864 2.062772 0.130100 0
M  V30 41 H -0.847405 -0.780133 7.844847 0
M  V30 42 H -2.941569 0.148038 8.726321 0
M  V30 43 H -4.390076 1.538843 7.231176 0
M  V30 44 H 1.744963 -2.032171 -3.637213 0
M  V30 45 H 0.285891 -1.071144 -3.325274 0
M  V30 46 H -0.077138 -3.370812 -4.206264 0
M  V30 47 H 0.551929 -4.071225 -2.691146 0
M  V30 48 H -1.992313 -3.715696 -2.568441 0
M  V30 49 H -1.687463 -1.992611 -4.231731 0
M  V30 END ATOM
M  V30 BEGIN BOND
M  V30 1 1 1 2
M  V30 2 1 2 3
M  V30 3 1 3 4
M  V30 4 1 4 5
M  V30 5 2 5 6
M  V30 6 1 6 7
M  V30 7 2 7 8
M  V30 8 1 8 9
M  V30 9 2 9 10
M  V30 10 1 10 11
M  V30 11 1 11 12
M  V30 12 2 12 13
M  V30 13 1 12 14
M  V30 14 2 14 15
M  V30 15 1 15 16
M  V30 16 1 16 17
M  V30 17 1 17 18
M  V30 18 2 18 19
M  V30 19 1 19 20
M  V30 20 1 19 21
M  V30 21 2 21 22
M  V30 22 1 22 23
M  V30 23 2 23 24
M  V30 24 1 24 25
M  V30 25 2 17 26
M  V30 26 1 4 27
M  V30 27 1 27 28
M  V30 28 1 28 29
M  V30 29 1 29 30
M  V30 30 1 29 2
M  V30 31 1 10 5
M  V30 32 1 26 14
M  V30 33 1 24 18
M  V30 34 1 1 31
M  V30 35 1 1 32
M  V30 36 1 2 33 CFG=1
M  V30 37 1 3 34
M  V30 38 1 3 35
M  V30 39 1 6 36
M  V30 40 1 7 37
M  V30 41 1 9 38
M  V30 42 1 11 39
M  V30 43 1 15 40
M  V30 44 1 21 41
M  V30 45 1 22 42
M  V30 46 1 23 43
M  V30 47 1 27 44
M  V30 48 1 27 45
M  V30 49 1 28 46
M  V30 50 1 28 47
M  V30 51 1 29 48 CFG=1
M  V30 52 1 30 49
M  V30 END BOND
M  V30 END CTAB
M  END
>  <Dataset>  (256) 
ChEMBL_Kinases

>  <Ligand_Instance>  (256) 
nan

>  <PDB_ID>  (256) 
nan

>  <Standardized_SMILES>  (256) 
N[C@@H]1CN(c2ccncc2NC(=O)c2csc(-c3c(F)cccc3F)n2)CC[C@@H]1O

>  <Name>  (256) 
nan

>  <Pocket>  (256) 
nan

>  <ATP_Site>  (256) 
nan

>  <Peripheral>  (256) 
nan

>  <Num_H_Atoms_ProtBoundConf>  (256) 
nan

>  <Num_Resolved_Atoms>  (256) 
nan

>  <Num_Not_Resolved_Atoms>  (256) 
nan

$$$$
CHEMBL3676261
     RDKit          3D

  0  0  0  0  0  0  0  0  0  0999 V3000
M  V30 BEGIN CTAB
M  V30 COUNTS 49 52 0 0 0
M  V30 BEGIN ATOM
M  V30 1 N 4.472257 -1.399386 -2.849343 0
M  V30 2 C 3.264533 -2.030570 -2.345135 0 CFG=1
M  V30 3 C 3.532106 -2.840336 -1.125117 0
M  V30 4 C 2.465099 -2.860773 -0.095486 0 CFG=1
M  V30 5 O 2.998680 -3.263873 1.131452 0
M  V30 6 C 1.773180 -1.551488 0.140356 0
M  V30 7 N 2.135269 -0.553213 -0.869392 0
M  V30 8 C 2.415380 0.810182 -0.601538 0
M  V30 9 C 3.604039 1.474849 -0.821223 0
M  V30 10 C 3.769967 2.811393 -0.522959 0
M  V30 11 N 2.766480 3.537563 0.002939 0
M  V30 12 C 1.576523 2.917856 0.235036 0
M  V30 13 C 1.391614 1.561792 -0.062050 0
M  V30 14 N 0.091560 1.143544 0.253895 0
M  V30 15 C -0.606238 0.616404 1.371754 0
M  V30 16 O 0.155944 0.492366 2.348645 0
M  V30 17 C -2.036764 0.298559 1.267633 0
M  V30 18 C -2.790370 0.481857 0.105979 0
M  V30 19 S -4.473020 -0.117715 0.696026 0
M  V30 20 C -3.780046 -0.493998 2.419842 0
M  V30 21 C -4.663893 -1.037065 3.450153 0
M  V30 22 C -4.062251 -1.274637 4.667763 0
M  V30 23 F -2.746659 -1.011871 4.858209 0
M  V30 24 C -4.882682 -1.794626 5.674397 0
M  V30 25 C -6.232845 -2.045843 5.420543 0
M  V30 26 C -6.802012 -1.795373 4.187272 0
M  V30 27 C -5.995380 -1.282230 3.191599 0
M  V30 28 F -6.535396 -1.027340 1.967147 0
M  V30 29 N -2.630003 -0.187443 2.342338 0
M  V30 30 C 2.206546 -0.993184 -2.250554 0
M  V30 31 H 4.236023 -0.585204 -3.458093 0
M  V30 32 H 5.124013 -2.083684 -3.284001 0
M  V30 33 H 2.946745 -2.712877 -3.191218 0
M  V30 34 H 4.474964 -2.470629 -0.661172 0
M  V30 35 H 3.749031 -3.883907 -1.438066 0
M  V30 36 H 1.686746 -3.612340 -0.346257 0
M  V30 37 H 3.568825 -2.548142 1.546960 0
M  V30 38 H 0.669362 -1.643726 0.086199 0
M  V30 39 H 2.011101 -1.108742 1.128718 0
M  V30 40 H 4.405452 0.884701 -1.243345 0
M  V30 41 H 4.730171 3.284492 -0.717244 0
M  V30 42 H 0.841631 3.585716 0.656101 0
M  V30 43 H -0.380999 1.326492 -0.681971 0
M  V30 44 H -2.372789 0.879760 -0.826795 0
M  V30 45 H -4.447748 -1.993949 6.641883 0
M  V30 46 H -6.794338 -2.444504 6.244811 0
M  V30 47 H -7.850785 -2.005346 4.036807 0
M  V30 48 H 2.432913 -0.161464 -2.938560 0
M  V30 49 H 1.180965 -1.399500 -2.499343 0
M  V30 END ATOM
M  V30 BEGIN BOND
M  V30 1 1 1 2
M  V30 2 1 2 3
M  V30 3 1 3 4
M  V30 4 1 4 5
M  V30 5 1 4 6
M  V30 6 1 6 7
M  V30 7 1 7 8
M  V30 8 2 8 9
M  V30 9 1 9 10
M  V30 10 2 10 11
M  V30 11 1 11 12
M  V30 12 2 12 13
M  V30 13 1 13 14
M  V30 14 1 14 15
M  V30 15 2 15 16
M  V30 16 1 15 17
M  V30 17 2 17 18
M  V30 18 1 18 19
M  V30 19 1 19 20
M  V30 20 1 20 21
M  V30 21 2 21 22
M  V30 22 1 22 23
M  V30 23 1 22 24
M  V30 24 2 24 25
M  V30 25 1 25 26
M  V30 26 2 26 27
M  V30 27 1 27 28
M  V30 28 2 20 29
M  V30 29 1 7 30
M  V30 30 1 30 2
M  V30 31 1 13 8
M  V30 32 1 29 17
M  V30 33 1 27 21
M  V30 34 1 1 31
M  V30 35 1 1 32
M  V30 36 1 2 33 CFG=3
M  V30 37 1 3 34
M  V30 38 1 3 35
M  V30 39 1 4 36 CFG=3
M  V30 40 1 5 37
M  V30 41 1 6 38
M  V30 42 1 6 39
M  V30 43 1 9 40
M  V30 44 1 10 41
M  V30 45 1 12 42
M  V30 46 1 14 43
M  V30 47 1 18 44
M  V30 48 1 24 45
M  V30 49 1 25 46
M  V30 50 1 26 47
M  V30 51 1 30 48
M  V30 52 1 30 49
M  V30 END BOND
M  V30 END CTAB
M  END
>  <Dataset>  (257) 
ChEMBL_Kinases

>  <Ligand_Instance>  (257) 
nan

>  <PDB_ID>  (257) 
nan

>  <Standardized_SMILES>  (257) 
N[C@H]1C[C@@H](O)CN(c2ccncc2NC(=O)c2csc(-c3c(F)cccc3F)n2)C1

>  <Name>  (257) 
nan

>  <Pocket>  (257) 
nan

>  <ATP_Site>  (257) 
nan

>  <Peripheral>  (257) 
nan

>  <Num_H_Atoms_ProtBoundConf>  (257) 
nan

>  <Num_Resolved_Atoms>  (257) 
nan

>  <Num_Not_Resolved_Atoms>  (257) 
nan

$$$$
CHEMBL3676260
     RDKit          3D

  0  0  0  0  0  0  0  0  0  0999 V3000
M  V30 BEGIN CTAB
M  V30 COUNTS 48 51 0 0 0
M  V30 BEGIN ATOM
M  V30 1 N -1.647123 -0.556319 -0.863484 0
M  V30 2 C -1.409101 -1.923527 -1.323041 0 CFG=2
M  V30 3 C -0.001218 -2.371829 -0.938548 0
M  V30 4 N 1.002753 -1.795562 -1.767368 0
M  V30 5 C 2.258047 -1.139553 -1.700560 0
M  V30 6 C 3.396575 -1.667564 -2.301308 0
M  V30 7 C 4.585637 -0.948566 -2.179836 0
M  V30 8 N 4.626116 0.213995 -1.504868 0
M  V30 9 C 3.538102 0.745121 -0.915148 0
M  V30 10 C 2.344167 0.058236 -1.016422 0
M  V30 11 N 1.252058 0.700383 -0.361081 0
M  V30 12 C 1.043575 0.357350 1.005962 0
M  V30 13 O 1.887104 -0.483300 1.416892 0
M  V30 14 C -0.031926 0.931833 1.808499 0
M  V30 15 C -0.945330 1.897218 1.224472 0
M  V30 16 S -2.039513 2.216338 2.744073 0
M  V30 17 C -1.056093 1.028421 3.766530 0
M  V30 18 C -1.372331 0.724653 5.255147 0
M  V30 19 C -0.548319 -0.182128 5.879485 0
M  V30 20 F 0.463591 -0.739388 5.171671 0
M  V30 21 C -0.873187 -0.411909 7.190136 0
M  V30 22 C -1.927087 0.211114 7.814386 0
M  V30 23 C -2.716304 1.112976 7.127894 0
M  V30 24 C -2.447514 1.393741 5.803227 0
M  V30 25 F -3.187889 2.262096 5.099829 0
M  V30 26 N -0.260556 0.639918 3.076453 0
M  V30 27 C 0.688939 -1.878088 -3.191071 0
M  V30 28 C -0.544761 -2.724871 -3.457061 0
M  V30 29 C -1.692799 -2.037772 -2.784572 0 CFG=1
M  V30 30 F -2.867669 -2.721568 -3.032954 0
M  V30 31 H -2.464301 -0.156432 -1.374831 0
M  V30 32 H -1.902636 -0.616993 0.139281 0
M  V30 33 H -2.152789 -2.559186 -0.793262 0
M  V30 34 H 0.093631 -2.236377 0.134927 0
M  V30 35 H 0.015014 -3.474442 -1.109582 0
M  V30 36 H 3.317328 -2.609220 -2.836232 0
M  V30 37 H 5.493222 -1.350476 -2.647489 0
M  V30 38 H 3.689992 1.686828 -0.398667 0
M  V30 39 H 0.601786 1.396704 -0.808100 0
M  V30 40 H -0.924573 2.244432 0.259359 0
M  V30 41 H -0.227923 -1.134165 7.711510 0
M  V30 42 H -2.073222 -0.065160 8.862265 0
M  V30 43 H -3.544541 1.588525 7.655727 0
M  V30 44 H 1.504998 -2.408886 -3.764663 0
M  V30 45 H 0.617127 -0.889127 -3.670504 0
M  V30 46 H -0.386970 -3.739894 -3.091029 0
M  V30 47 H -0.650753 -2.733716 -4.568025 0
M  V30 48 H -1.779311 -1.021075 -3.253293 0
M  V30 END ATOM
M  V30 BEGIN BOND
M  V30 1 1 1 2
M  V30 2 1 2 3
M  V30 3 1 3 4
M  V30 4 1 4 5
M  V30 5 2 5 6
M  V30 6 1 6 7
M  V30 7 2 7 8
M  V30 8 1 8 9
M  V30 9 2 9 10
M  V30 10 1 10 11
M  V30 11 1 11 12
M  V30 12 2 12 13
M  V30 13 1 12 14
M  V30 14 2 14 15
M  V30 15 1 15 16
M  V30 16 1 16 17
M  V30 17 1 17 18
M  V30 18 2 18 19
M  V30 19 1 19 20
M  V30 20 1 19 21
M  V30 21 2 21 22
M  V30 22 1 22 23
M  V30 23 2 23 24
M  V30 24 1 24 25
M  V30 25 2 17 26
M  V30 26 1 4 27
M  V30 27 1 27 28
M  V30 28 1 28 29
M  V30 29 1 29 30
M  V30 30 1 29 2
M  V30 31 1 10 5
M  V30 32 1 26 14
M  V30 33 1 24 18
M  V30 34 1 1 31
M  V30 35 1 1 32
M  V30 36 1 2 33 CFG=1
M  V30 37 1 3 34
M  V30 38 1 3 35
M  V30 39 1 6 36
M  V30 40 1 7 37
M  V30 41 1 9 38
M  V30 42 1 11 39
M  V30 43 1 15 40
M  V30 44 1 21 41
M  V30 45 1 22 42
M  V30 46 1 23 43
M  V30 47 1 27 44
M  V30 48 1 27 45
M  V30 49 1 28 46
M  V30 50 1 28 47
M  V30 51 1 29 48 CFG=3
M  V30 END BOND
M  V30 END CTAB
M  END
>  <Dataset>  (258) 
ChEMBL_Kinases

>  <Ligand_Instance>  (258) 
nan

>  <PDB_ID>  (258) 
nan

>  <Standardized_SMILES>  (258) 
N[C@@H]1CN(c2ccncc2NC(=O)c2csc(-c3c(F)cccc3F)n2)CC[C@H]1F

>  <Name>  (258) 
nan

>  <Pocket>  (258) 
nan

>  <ATP_Site>  (258) 
nan

>  <Peripheral>  (258) 
nan

>  <Num_H_Atoms_ProtBoundConf>  (258) 
nan

>  <Num_Resolved_Atoms>  (258) 
nan

>  <Num_Not_Resolved_Atoms>  (258) 
nan

$$$$
CHEMBL3676259
     RDKit          3D

  0  0  0  0  0  0  0  0  0  0999 V3000
M  V30 BEGIN CTAB
M  V30 COUNTS 49 52 0 0 0
M  V30 BEGIN ATOM
M  V30 1 N -1.753643 -0.662754 -0.751150 0
M  V30 2 C -1.276812 -1.867100 -1.403817 0 CFG=2
M  V30 3 C 0.047469 -2.344471 -0.931776 0
M  V30 4 N 1.136306 -1.774890 -1.686909 0
M  V30 5 C 2.362234 -1.119099 -1.394038 0
M  V30 6 C 3.585478 -1.657145 -1.801513 0
M  V30 7 C 4.804254 -1.071165 -1.548818 0
M  V30 8 N 4.808416 0.085316 -0.870336 0
M  V30 9 C 3.685367 0.681571 -0.436218 0
M  V30 10 C 2.481359 0.067350 -0.706452 0
M  V30 11 N 1.328806 0.745024 -0.224582 0
M  V30 12 C 1.034090 0.325959 1.103289 0
M  V30 13 O 1.861865 -0.531664 1.505150 0
M  V30 14 C -0.129847 0.897225 1.828009 0
M  V30 15 C -0.987820 1.859432 1.278806 0
M  V30 16 S -2.141069 2.034938 2.778681 0
M  V30 17 C -1.274109 0.856327 3.746729 0
M  V30 18 C -1.640794 0.448141 5.152616 0
M  V30 19 C -0.877232 -0.492201 5.809666 0
M  V30 20 F 0.196101 -1.035109 5.173739 0
M  V30 21 C -1.248557 -0.844596 7.111278 0
M  V30 22 C -2.354059 -0.239757 7.674850 0
M  V30 23 C -3.114354 0.697277 7.019183 0
M  V30 24 C -2.745278 1.049923 5.720674 0
M  V30 25 F -3.506635 1.973602 5.093440 0
M  V30 26 N -0.326734 0.432929 3.073647 0
M  V30 27 C 1.080109 -1.835321 -3.142307 0
M  V30 28 C -0.235850 -2.499239 -3.530463 0
M  V30 29 C -1.314086 -1.663907 -2.896969 0 CFG=1
M  V30 30 O -2.579560 -1.953438 -3.420796 0
M  V30 31 H -1.916243 -0.745644 0.254143 0
M  V30 32 H -1.280594 0.205454 -1.078728 0
M  V30 33 H -2.087973 -2.636577 -1.206896 0
M  V30 34 H 0.194725 -2.270993 0.160382 0
M  V30 35 H 0.070010 -3.458033 -1.130917 0
M  V30 36 H 3.617081 -2.587154 -2.349810 0
M  V30 37 H 5.721367 -1.503216 -1.871079 0
M  V30 38 H 3.740459 1.620065 0.110446 0
M  V30 39 H 0.727876 1.463833 -0.715717 0
M  V30 40 H -0.876054 2.245568 0.326284 0
M  V30 41 H -0.622601 -1.587026 7.592968 0
M  V30 42 H -2.578909 -0.566285 8.689544 0
M  V30 43 H -3.974206 1.151351 7.490306 0
M  V30 44 H 1.874681 -2.573315 -3.432023 0
M  V30 45 H 1.207374 -0.863693 -3.623187 0
M  V30 46 H -0.283103 -3.522688 -3.129503 0
M  V30 47 H -0.331228 -2.557053 -4.630450 0
M  V30 48 H -1.041533 -0.596987 -3.114704 0
M  V30 49 H -2.473641 -1.888215 -4.419073 0
M  V30 END ATOM
M  V30 BEGIN BOND
M  V30 1 1 1 2
M  V30 2 1 2 3
M  V30 3 1 3 4
M  V30 4 1 4 5
M  V30 5 2 5 6
M  V30 6 1 6 7
M  V30 7 2 7 8
M  V30 8 1 8 9
M  V30 9 2 9 10
M  V30 10 1 10 11
M  V30 11 1 11 12
M  V30 12 2 12 13
M  V30 13 1 12 14
M  V30 14 2 14 15
M  V30 15 1 15 16
M  V30 16 1 16 17
M  V30 17 1 17 18
M  V30 18 2 18 19
M  V30 19 1 19 20
M  V30 20 1 19 21
M  V30 21 2 21 22
M  V30 22 1 22 23
M  V30 23 2 23 24
M  V30 24 1 24 25
M  V30 25 2 17 26
M  V30 26 1 4 27
M  V30 27 1 27 28
M  V30 28 1 28 29
M  V30 29 1 29 30
M  V30 30 1 29 2
M  V30 31 1 10 5
M  V30 32 1 26 14
M  V30 33 1 24 18
M  V30 34 1 1 31
M  V30 35 1 1 32
M  V30 36 1 2 33 CFG=3
M  V30 37 1 3 34
M  V30 38 1 3 35
M  V30 39 1 6 36
M  V30 40 1 7 37
M  V30 41 1 9 38
M  V30 42 1 11 39
M  V30 43 1 15 40
M  V30 44 1 21 41
M  V30 45 1 22 42
M  V30 46 1 23 43
M  V30 47 1 27 44
M  V30 48 1 27 45
M  V30 49 1 28 46
M  V30 50 1 28 47
M  V30 51 1 29 48 CFG=1
M  V30 52 1 30 49
M  V30 END BOND
M  V30 END CTAB
M  END
>  <Dataset>  (259) 
ChEMBL_Kinases

>  <Ligand_Instance>  (259) 
nan

>  <PDB_ID>  (259) 
nan

>  <Standardized_SMILES>  (259) 
N[C@@H]1CN(c2ccncc2NC(=O)c2csc(-c3c(F)cccc3F)n2)CC[C@H]1O

>  <Name>  (259) 
nan

>  <Pocket>  (259) 
nan

>  <ATP_Site>  (259) 
nan

>  <Peripheral>  (259) 
nan

>  <Num_H_Atoms_ProtBoundConf>  (259) 
nan

>  <Num_Resolved_Atoms>  (259) 
nan

>  <Num_Not_Resolved_Atoms>  (259) 
nan

$$$$
CHEMBL374424
     RDKit          3D

  0  0  0  0  0  0  0  0  0  0999 V3000
M  V30 BEGIN CTAB
M  V30 COUNTS 62 67 0 0 0
M  V30 BEGIN ATOM
M  V30 1 C 5.407094 2.709243 8.038092 0
M  V30 2 O 4.060381 3.204481 8.133861 0
M  V30 3 C 3.105136 3.017468 7.197627 0
M  V30 4 C 3.298167 2.270843 6.066034 0
M  V30 5 C 2.252588 2.154546 5.190768 0
M  V30 6 C 2.060259 1.375677 3.976042 0
M  V30 7 C 1.342781 1.645582 2.831065 0
M  V30 8 C 1.246681 0.646819 1.886004 0
M  V30 9 C 1.801521 -0.588573 1.985505 0
M  V30 10 C 1.767360 -1.693005 1.163766 0
M  V30 11 C 1.092530 -1.930701 -0.092592 0
M  V30 12 C 0.318763 -1.220382 -0.963639 0
M  V30 13 C -0.071369 -1.998064 -2.033452 0
M  V30 14 C -0.844973 -1.743289 -3.141834 0
M  V30 15 C -1.122986 -2.708187 -4.118452 0
M  V30 16 C -1.997874 -2.256930 -5.221845 0
M  V30 17 N -3.344542 -2.634768 -4.986306 0
M  V30 18 C -3.916031 -2.238163 -3.722207 0
M  V30 19 C -4.837510 -3.422841 -3.353567 0
M  V30 20 C -5.746679 -3.606244 -4.536538 0
M  V30 21 C -5.668455 -2.454380 -5.506025 0
M  V30 22 C -4.269321 -2.167901 -5.998328 0
M  V30 23 C -0.557510 -3.941662 -3.883250 0
M  V30 24 C 0.215574 -4.188806 -2.770350 0
M  V30 25 C 0.486611 -3.236614 -1.809761 0
M  V30 26 N 1.162123 -3.152125 -0.658352 0
M  V30 27 N 2.478894 -2.583093 1.860134 0
M  V30 28 N 2.925108 -2.117516 3.004047 0
M  V30 29 C 2.518715 -0.837291 3.139696 0
M  V30 30 C 2.663813 0.123590 4.145499 0
M  V30 31 C 1.030528 2.788859 5.455127 0
M  V30 32 C 0.830218 3.553768 6.609838 0
M  V30 33 C 1.902087 3.654248 7.482210 0
M  V30 34 O 1.730934 4.414306 8.649770 0
M  V30 35 H 5.351937 1.622022 7.950523 0
M  V30 36 H 5.885788 3.167807 7.161734 0
M  V30 37 H 5.992407 3.053468 8.921103 0
M  V30 38 H 4.189640 1.753551 5.779086 0
M  V30 39 H 0.942929 2.627570 2.833702 0
M  V30 40 H 0.684378 0.911097 1.030506 0
M  V30 41 H 0.054435 -0.209202 -0.835795 0
M  V30 42 H -1.236243 -0.739182 -3.228031 0
M  V30 43 H -1.696643 -2.691277 -6.198855 0
M  V30 44 H -1.956327 -1.156639 -5.345678 0
M  V30 45 H -3.199163 -2.055858 -2.912692 0
M  V30 46 H -4.538611 -1.317581 -3.779458 0
M  V30 47 H -4.198141 -4.326312 -3.195716 0
M  V30 48 H -5.344166 -3.220964 -2.400054 0
M  V30 49 H -6.790004 -3.600460 -4.125029 0
M  V30 50 H -5.649939 -4.594881 -5.032879 0
M  V30 51 H -6.137747 -1.570788 -4.987901 0
M  V30 52 H -6.361682 -2.688637 -6.345048 0
M  V30 53 H -4.059493 -2.625255 -6.993127 0
M  V30 54 H -4.229011 -1.054208 -6.130061 0
M  V30 55 H -0.789987 -4.663645 -4.654836 0
M  V30 56 H 0.630818 -5.166414 -2.639978 0
M  V30 57 H 1.646071 -4.037187 -0.359069 0
M  V30 58 H 3.494951 -2.676828 3.671712 0
M  V30 59 H 3.256750 -0.233381 4.976647 0
M  V30 60 H 0.108920 2.789813 4.849527 0
M  V30 61 H -0.101534 4.063369 6.852920 0
M  V30 62 H 0.927866 4.978870 8.801864 0
M  V30 END ATOM
M  V30 BEGIN BOND
M  V30 1 1 1 2
M  V30 2 1 2 3
M  V30 3 2 3 4
M  V30 4 1 4 5
M  V30 5 1 5 6
M  V30 6 2 6 7
M  V30 7 1 7 8
M  V30 8 2 8 9
M  V30 9 1 9 10
M  V30 10 1 10 11
M  V30 11 2 11 12
M  V30 12 1 12 13
M  V30 13 2 13 14
M  V30 14 1 14 15
M  V30 15 1 15 16
M  V30 16 1 16 17
M  V30 17 1 17 18
M  V30 18 1 18 19
M  V30 19 1 19 20
M  V30 20 1 20 21
M  V30 21 1 21 22
M  V30 22 2 15 23
M  V30 23 1 23 24
M  V30 24 2 24 25
M  V30 25 1 25 26
M  V30 26 2 10 27
M  V30 27 1 27 28
M  V30 28 1 28 29
M  V30 29 2 29 30
M  V30 30 2 5 31
M  V30 31 1 31 32
M  V30 32 2 32 33
M  V30 33 1 33 34
M  V30 34 1 33 3
M  V30 35 1 30 6
M  V30 36 1 29 9
M  V30 37 1 26 11
M  V30 38 1 25 13
M  V30 39 1 22 17
M  V30 40 1 1 35
M  V30 41 1 1 36
M  V30 42 1 1 37
M  V30 43 1 4 38
M  V30 44 1 7 39
M  V30 45 1 8 40
M  V30 46 1 12 41
M  V30 47 1 14 42
M  V30 48 1 16 43
M  V30 49 1 16 44
M  V30 50 1 18 45
M  V30 51 1 18 46
M  V30 52 1 19 47
M  V30 53 1 19 48
M  V30 54 1 20 49
M  V30 55 1 20 50
M  V30 56 1 21 51
M  V30 57 1 21 52
M  V30 58 1 22 53
M  V30 59 1 22 54
M  V30 60 1 23 55
M  V30 61 1 24 56
M  V30 62 1 26 57
M  V30 63 1 28 58
M  V30 64 1 30 59
M  V30 65 1 31 60
M  V30 66 1 32 61
M  V30 67 1 34 62
M  V30 END BOND
M  V30 END CTAB
M  END
>  <Dataset>  (260) 
ChEMBL_Kinases

>  <Ligand_Instance>  (260) 
nan

>  <PDB_ID>  (260) 
nan

>  <Standardized_SMILES>  (260) 
COc1cc(-c2ccc3c(-c4cc5cc(CN6CCCCC6)ccc5[nH]4)n[nH]c3c2)ccc1O

>  <Name>  (260) 
nan

>  <Pocket>  (260) 
nan

>  <ATP_Site>  (260) 
nan

>  <Peripheral>  (260) 
nan

>  <Num_H_Atoms_ProtBoundConf>  (260) 
nan

>  <Num_Resolved_Atoms>  (260) 
nan

>  <Num_Not_Resolved_Atoms>  (260) 
nan

$$$$
CHEMBL4216709
     RDKit          3D

  0  0  0  0  0  0  0  0  0  0999 V3000
M  V30 BEGIN CTAB
M  V30 COUNTS 81 87 0 0 0
M  V30 BEGIN ATOM
M  V30 1 C -1.426115 -6.222619 3.223586 0
M  V30 2 S -1.844211 -6.975409 1.610208 0
M  V30 3 C -1.204261 -5.859337 0.339954 0 CFG=1
M  V30 4 C 0.283215 -5.804376 0.360903 0
M  V30 5 O 1.034741 -6.534187 1.054628 0
M  V30 6 N 0.965056 -4.869620 -0.450241 0
M  V30 7 C 2.378110 -4.713789 -0.519748 0
M  V30 8 C 3.216149 -5.416618 -1.390094 0
M  V30 9 C 4.571286 -5.138313 -1.333777 0
M  V30 10 C 5.108154 -4.217103 -0.472649 0
M  V30 11 N 6.372114 -3.793722 -0.252950 0
M  V30 12 N 6.363680 -2.868463 0.704044 0
M  V30 13 C 5.114857 -2.680337 1.113257 0
M  V30 14 C 4.704234 -1.751937 2.138546 0
M  V30 15 C 3.606078 -0.910450 2.008668 0
M  V30 16 C 3.176990 -0.008429 2.957020 0
M  V30 17 C 3.924328 0.043820 4.134693 0
M  V30 18 F 3.563809 0.914062 5.128259 0
M  V30 19 C 5.012193 -0.763223 4.309574 0
M  V30 20 C 5.403996 -1.662161 3.312384 0
M  V30 21 C 4.295965 -3.518968 0.388391 0
M  V30 22 C 2.919712 -3.773548 0.360492 0
M  V30 23 C -1.782926 -6.110252 -1.016668 0
M  V30 24 C -2.173122 -4.754857 -1.576373 0
M  V30 25 N -1.786012 -3.784104 -0.594389 0
M  V30 26 C -2.624103 -2.638652 -0.479961 0
M  V30 27 C -2.572495 -1.743124 -1.648391 0
M  V30 28 O -1.802181 -2.102061 -2.601622 0
M  V30 29 N -3.340284 -0.548086 -1.700235 0
M  V30 30 C -4.294282 0.099589 -0.782478 0
M  V30 31 C -3.723077 1.440332 -0.499623 0
M  V30 32 C -2.954107 2.207814 -1.241512 0
M  V30 33 C -2.426523 3.500324 -0.919430 0
M  V30 34 C -1.622533 4.173710 -1.814290 0
M  V30 35 C -1.070116 5.411714 -1.591620 0
M  V30 36 C -1.308995 6.065484 -0.404050 0
M  V30 37 C -0.741060 7.376426 -0.132002 0
M  V30 38 N -1.033076 7.942566 1.052383 0
M  V30 39 C -0.585382 9.141920 1.445980 0
M  V30 40 C 0.230578 9.880368 0.616061 0
M  V30 41 C 0.531157 9.298833 -0.601679 0
M  V30 42 N 0.042318 8.078501 -0.935886 0
M  V30 43 C -2.101109 5.450214 0.529646 0
M  V30 44 C -2.619958 4.211259 0.238474 0
M  V30 45 F -3.386009 3.690531 1.221660 0
M  V30 46 C -2.606245 1.650107 -2.569062 0
M  V30 47 C -3.237286 0.315186 -2.861753 0
M  V30 48 C -1.716329 -4.464051 0.667463 0
M  V30 49 H -1.150108 -6.962137 3.977495 0
M  V30 50 H -0.562540 -5.517715 3.112647 0
M  V30 51 H -2.284254 -5.583454 3.485458 0
M  V30 52 H 0.498684 -4.189868 -1.089647 0
M  V30 53 H 2.740916 -6.128639 -2.044994 0
M  V30 54 H 5.218015 -5.682065 -2.006613 0
M  V30 55 H 7.230154 -4.128652 -0.746107 0
M  V30 56 H 3.019749 -0.941398 1.100581 0
M  V30 57 H 2.312483 0.620950 2.797868 0
M  V30 58 H 5.577441 -0.694888 5.250381 0
M  V30 59 H 6.290397 -2.281530 3.520756 0
M  V30 60 H 2.282038 -3.220704 1.042118 0
M  V30 61 H -2.694410 -6.707538 -0.912795 0
M  V30 62 H -1.092072 -6.670115 -1.676178 0
M  V30 63 H -3.267700 -4.719545 -1.810199 0
M  V30 64 H -1.666619 -4.514414 -2.533211 0
M  V30 65 H -2.409869 -2.068157 0.441528 0
M  V30 66 H -3.672615 -3.015159 -0.344283 0
M  V30 67 H -4.337202 -0.551907 0.089525 0
M  V30 68 H -5.295602 0.177930 -1.236423 0
M  V30 69 H -4.021794 1.774965 0.471060 0
M  V30 70 H -1.383817 3.717593 -2.788509 0
M  V30 71 H -0.450655 5.875910 -2.339628 0
M  V30 72 H -0.891826 9.496766 2.432615 0
M  V30 73 H 0.572348 10.842293 0.966831 0
M  V30 74 H 1.171142 9.860579 -1.269771 0
M  V30 75 H -2.291648 5.959715 1.463540 0
M  V30 76 H -2.949891 2.373202 -3.357454 0
M  V30 77 H -1.516853 1.499011 -2.696462 0
M  V30 78 H -2.678929 -0.224509 -3.664790 0
M  V30 79 H -4.255604 0.502341 -3.260494 0
M  V30 80 H -2.707052 -4.595008 1.145265 0
M  V30 81 H -1.008750 -3.995756 1.385272 0
M  V30 END ATOM
M  V30 BEGIN BOND
M  V30 1 1 1 2
M  V30 2 1 3 2 CFG=1
M  V30 3 1 3 4
M  V30 4 2 4 5
M  V30 5 1 4 6
M  V30 6 1 6 7
M  V30 7 2 7 8
M  V30 8 1 8 9
M  V30 9 2 9 10
M  V30 10 1 10 11
M  V30 11 1 11 12
M  V30 12 2 12 13
M  V30 13 1 13 14
M  V30 14 2 14 15
M  V30 15 1 15 16
M  V30 16 2 16 17
M  V30 17 1 17 18
M  V30 18 1 17 19
M  V30 19 2 19 20
M  V30 20 1 13 21
M  V30 21 2 21 22
M  V30 22 1 3 23
M  V30 23 1 23 24
M  V30 24 1 24 25
M  V30 25 1 25 26
M  V30 26 1 26 27
M  V30 27 2 27 28
M  V30 28 1 27 29
M  V30 29 1 29 30
M  V30 30 1 30 31
M  V30 31 2 31 32
M  V30 32 1 32 33
M  V30 33 2 33 34
M  V30 34 1 34 35
M  V30 35 2 35 36
M  V30 36 1 36 37
M  V30 37 2 37 38
M  V30 38 1 38 39
M  V30 39 2 39 40
M  V30 40 1 40 41
M  V30 41 2 41 42
M  V30 42 1 36 43
M  V30 43 2 43 44
M  V30 44 1 44 45
M  V30 45 1 32 46
M  V30 46 1 46 47
M  V30 47 1 25 48
M  V30 48 1 48 3
M  V30 49 1 22 7
M  V30 50 1 47 29
M  V30 51 1 21 10
M  V30 52 1 44 33
M  V30 53 1 20 14
M  V30 54 1 42 37
M  V30 55 1 1 49
M  V30 56 1 1 50
M  V30 57 1 1 51
M  V30 58 1 6 52
M  V30 59 1 8 53
M  V30 60 1 9 54
M  V30 61 1 11 55
M  V30 62 1 15 56
M  V30 63 1 16 57
M  V30 64 1 19 58
M  V30 65 1 20 59
M  V30 66 1 22 60
M  V30 67 1 23 61
M  V30 68 1 23 62
M  V30 69 1 24 63
M  V30 70 1 24 64
M  V30 71 1 26 65
M  V30 72 1 26 66
M  V30 73 1 30 67
M  V30 74 1 30 68
M  V30 75 1 31 69
M  V30 76 1 34 70
M  V30 77 1 35 71
M  V30 78 1 39 72
M  V30 79 1 40 73
M  V30 80 1 41 74
M  V30 81 1 43 75
M  V30 82 1 46 76
M  V30 83 1 46 77
M  V30 84 1 47 78
M  V30 85 1 47 79
M  V30 86 1 48 80
M  V30 87 1 48 81
M  V30 END BOND
M  V30 END CTAB
M  END
>  <Dataset>  (261) 
ChEMBL_Kinases

>  <Ligand_Instance>  (261) 
nan

>  <PDB_ID>  (261) 
nan

>  <Standardized_SMILES>  (261) 
CS[C@@]1(C(=O)Nc2ccc3[nH]nc(-c4ccc(F)cc4)c3c2)CCN(CC(=O)N2CC=C(c3ccc(-c4ncccn4)cc3F)CC2)C1

>  <Name>  (261) 
nan

>  <Pocket>  (261) 
nan

>  <ATP_Site>  (261) 
nan

>  <Peripheral>  (261) 
nan

>  <Num_H_Atoms_ProtBoundConf>  (261) 
nan

>  <Num_Resolved_Atoms>  (261) 
nan

>  <Num_Not_Resolved_Atoms>  (261) 
nan

$$$$
CHEMBL3746678
     RDKit          3D

  0  0  0  0  0  0  0  0  0  0999 V3000
M  V30 BEGIN CTAB
M  V30 COUNTS 66 70 0 0 0
M  V30 BEGIN ATOM
M  V30 1 C 5.275616 -0.831566 1.622265 0
M  V30 2 C 4.215577 0.146210 1.134076 0
M  V30 3 C 2.847302 -0.407848 1.314325 0
M  V30 4 C 2.548361 -1.586960 1.966819 0
M  V30 5 C 1.254289 -2.027118 2.076051 0
M  V30 6 C 0.181968 -1.338392 1.553735 0
M  V30 7 C 0.478455 -0.151014 0.894515 0
M  V30 8 C 1.800214 0.310424 0.777468 0
M  V30 9 C 1.933168 1.612905 0.083800 0
M  V30 10 C 2.296688 2.901928 0.394504 0
M  V30 11 N 2.226110 3.560072 -0.769254 0
M  V30 12 N 1.853074 2.793204 -1.769014 0
M  V30 13 C 1.715244 3.300594 -3.108966 0
M  V30 14 C 0.310502 3.743387 -3.444819 0
M  V30 15 C -0.661827 2.592490 -3.356617 0
M  V30 16 N -1.970103 3.011762 -3.706870 0
M  V30 17 C -2.636972 3.903253 -2.811537 0
M  V30 18 C -2.820193 2.001852 -4.253430 0
M  V30 19 C 1.650275 1.533280 -1.282330 0
M  V30 20 C -1.254644 -1.704267 1.626940 0
M  V30 21 C -1.897136 -1.733299 0.264011 0
M  V30 22 C -1.978018 -0.600948 2.415601 0
M  V30 23 C -1.460309 -3.014505 2.307999 0
M  V30 24 N -2.644209 -3.621875 2.488299 0
M  V30 25 C -2.425118 -4.789788 3.159913 0
M  V30 26 C -3.263448 -5.786668 3.600951 0
M  V30 27 C -2.775520 -6.910275 4.284358 0
M  V30 28 C -3.627907 -7.965518 4.755362 0
M  V30 29 N -4.318590 -8.808475 5.119050 0
M  V30 30 C -1.393026 -6.968611 4.495763 0
M  V30 31 C -0.583470 -5.960906 4.044281 0
M  V30 32 C -1.042595 -4.848833 3.371345 0
M  V30 33 C -0.421048 -3.741191 2.842741 0
M  V30 34 C 0.958549 -3.283583 2.751891 0
M  V30 35 O 1.860226 -3.992418 3.263294 0
M  V30 36 H 5.199237 -1.761755 1.006313 0
M  V30 37 H 6.270900 -0.402094 1.358715 0
M  V30 38 H 5.124812 -0.993166 2.692606 0
M  V30 39 H 4.385751 0.233812 0.025708 0
M  V30 40 H 4.366469 1.120439 1.608983 0
M  V30 41 H 3.368260 -2.144720 2.387730 0
M  V30 42 H -0.326101 0.431136 0.459911 0
M  V30 43 H 2.529983 3.021999 1.441644 0
M  V30 44 H 2.416513 4.155866 -3.247723 0
M  V30 45 H 2.003678 2.440620 -3.780399 0
M  V30 46 H 0.026455 4.551228 -2.746697 0
M  V30 47 H 0.296193 4.211644 -4.457245 0
M  V30 48 H -0.675724 2.249725 -2.288870 0
M  V30 49 H -0.309537 1.719256 -3.929088 0
M  V30 50 H -3.222284 3.367481 -2.030853 0
M  V30 51 H -1.948213 4.615047 -2.349728 0
M  V30 52 H -3.420550 4.433513 -3.435093 0
M  V30 53 H -3.801837 1.912506 -3.753073 0
M  V30 54 H -2.267675 1.038592 -4.300446 0
M  V30 55 H -3.028926 2.302413 -5.319623 0
M  V30 56 H 1.332426 0.764315 -1.981410 0
M  V30 57 H -1.265919 -2.323661 -0.457684 0
M  V30 58 H -2.071666 -0.703773 -0.111116 0
M  V30 59 H -2.893133 -2.205371 0.388181 0
M  V30 60 H -3.052762 -0.813195 2.469010 0
M  V30 61 H -1.474895 -0.535491 3.403523 0
M  V30 62 H -1.790804 0.342413 1.868608 0
M  V30 63 H -3.610765 -3.350525 2.213765 0
M  V30 64 H -4.325997 -5.740304 3.436640 0
M  V30 65 H -0.997721 -7.845973 5.032024 0
M  V30 66 H 0.489127 -6.003581 4.206406 0
M  V30 END ATOM
M  V30 BEGIN BOND
M  V30 1 1 1 2
M  V30 2 1 2 3
M  V30 3 2 3 4
M  V30 4 1 4 5
M  V30 5 2 5 6
M  V30 6 1 6 7
M  V30 7 2 7 8
M  V30 8 1 8 9
M  V30 9 1 9 10
M  V30 10 2 10 11
M  V30 11 1 11 12
M  V30 12 1 12 13
M  V30 13 1 13 14
M  V30 14 1 14 15
M  V30 15 1 15 16
M  V30 16 1 16 17
M  V30 17 1 16 18
M  V30 18 1 12 19
M  V30 19 1 6 20
M  V30 20 1 20 21
M  V30 21 1 20 22
M  V30 22 1 20 23
M  V30 23 1 23 24
M  V30 24 1 24 25
M  V30 25 2 25 26
M  V30 26 1 26 27
M  V30 27 1 27 28
M  V30 28 3 28 29
M  V30 29 2 27 30
M  V30 30 1 30 31
M  V30 31 2 31 32
M  V30 32 1 32 33
M  V30 33 1 33 34
M  V30 34 2 34 35
M  V30 35 1 8 3
M  V30 36 2 19 9
M  V30 37 2 33 23
M  V30 38 1 34 5
M  V30 39 1 32 25
M  V30 40 1 1 36
M  V30 41 1 1 37
M  V30 42 1 1 38
M  V30 43 1 2 39
M  V30 44 1 2 40
M  V30 45 1 4 41
M  V30 46 1 7 42
M  V30 47 1 10 43
M  V30 48 1 13 44
M  V30 49 1 13 45
M  V30 50 1 14 46
M  V30 51 1 14 47
M  V30 52 1 15 48
M  V30 53 1 15 49
M  V30 54 1 17 50
M  V30 55 1 17 51
M  V30 56 1 17 52
M  V30 57 1 18 53
M  V30 58 1 18 54
M  V30 59 1 18 55
M  V30 60 1 19 56
M  V30 61 1 21 57
M  V30 62 1 21 58
M  V30 63 1 21 59
M  V30 64 1 22 60
M  V30 65 1 22 61
M  V30 66 1 22 62
M  V30 67 1 24 63
M  V30 68 1 26 64
M  V30 69 1 30 65
M  V30 70 1 31 66
M  V30 END BOND
M  V30 END CTAB
M  END
>  <Dataset>  (262) 
ChEMBL_Kinases

>  <Ligand_Instance>  (262) 
nan

>  <PDB_ID>  (262) 
nan

>  <Standardized_SMILES>  (262) 
CCc1cc2c(cc1-c1cnn(CCCN(C)C)c1)C(C)(C)c1[nH]c3cc(C#N)ccc3c1C2=O

>  <Name>  (262) 
nan

>  <Pocket>  (262) 
nan

>  <ATP_Site>  (262) 
nan

>  <Peripheral>  (262) 
nan

>  <Num_H_Atoms_ProtBoundConf>  (262) 
nan

>  <Num_Resolved_Atoms>  (262) 
nan

>  <Num_Not_Resolved_Atoms>  (262) 
nan

$$$$
CHEMBL3747095
     RDKit          3D

  0  0  0  0  0  0  0  0  0  0999 V3000
M  V30 BEGIN CTAB
M  V30 COUNTS 29 30 0 0 0
M  V30 BEGIN ATOM
M  V30 1 C -2.380952 1.105113 4.023800 0
M  V30 2 N -1.063155 0.672917 3.607513 0
M  V30 3 C -0.668303 0.167556 2.342759 0
M  V30 4 C -1.573253 0.030573 1.312980 0
M  V30 5 C -1.116353 -0.473557 0.094063 0
M  V30 6 C 0.193359 -0.840164 -0.128828 0
M  V30 7 C 0.669820 -1.366280 -1.401041 0
M  V30 8 C -0.137179 -1.548858 -2.502603 0
M  V30 9 C 0.468742 -2.062187 -3.648061 0
M  V30 10 N 1.763080 -2.388460 -3.758880 0
M  V30 11 C 2.554541 -2.213697 -2.691573 0
M  V30 12 C 1.999191 -1.707906 -1.534646 0
M  V30 13 N 1.037186 -0.688356 0.904419 0
M  V30 14 C 0.625934 -0.206886 2.085595 0
M  V30 15 C 1.677083 -0.114330 3.079892 0
M  V30 16 N 3.033609 -0.479534 2.893135 0
M  V30 17 O 1.786792 0.253212 4.269116 0
M  V30 18 H -2.724374 0.349137 4.791272 0
M  V30 19 H -2.392603 2.120119 4.473797 0
M  V30 20 H -3.145530 1.029390 3.224570 0
M  V30 21 H -0.458482 0.805620 4.420594 0
M  V30 22 H -2.616091 0.296710 1.412341 0
M  V30 23 H -1.846182 -0.566317 -0.682729 0
M  V30 24 H -1.175324 -1.298407 -2.447815 0
M  V30 25 H -0.136189 -2.219192 -4.534858 0
M  V30 26 H 3.616869 -2.461878 -2.723067 0
M  V30 27 H 2.637594 -1.568478 -0.678400 0
M  V30 28 H 3.525929 -1.353192 3.236387 0
M  V30 29 H 3.567138 -1.325070 3.208963 0
M  V30 END ATOM
M  V30 BEGIN BOND
M  V30 1 1 1 2
M  V30 2 1 2 3
M  V30 3 2 3 4
M  V30 4 1 4 5
M  V30 5 2 5 6
M  V30 6 1 6 7
M  V30 7 2 7 8
M  V30 8 1 8 9
M  V30 9 2 9 10
M  V30 10 1 10 11
M  V30 11 2 11 12
M  V30 12 1 6 13
M  V30 13 2 13 14
M  V30 14 1 14 15
M  V30 15 1 15 16
M  V30 16 2 15 17
M  V30 17 1 14 3
M  V30 18 1 12 7
M  V30 19 1 1 18
M  V30 20 1 1 19
M  V30 21 1 1 20
M  V30 22 1 2 21
M  V30 23 1 4 22
M  V30 24 1 5 23
M  V30 25 1 8 24
M  V30 26 1 9 25
M  V30 27 1 11 26
M  V30 28 1 12 27
M  V30 29 1 16 28
M  V30 30 1 16 29
M  V30 END BOND
M  V30 END CTAB
M  END
>  <Dataset>  (263) 
ChEMBL_Kinases

>  <Ligand_Instance>  (263) 
nan

>  <PDB_ID>  (263) 
nan

>  <Standardized_SMILES>  (263) 
CNc1ccc(-c2ccncc2)nc1C(N)=O

>  <Name>  (263) 
nan

>  <Pocket>  (263) 
nan

>  <ATP_Site>  (263) 
nan

>  <Peripheral>  (263) 
nan

>  <Num_H_Atoms_ProtBoundConf>  (263) 
nan

>  <Num_Resolved_Atoms>  (263) 
nan

>  <Num_Not_Resolved_Atoms>  (263) 
nan

$$$$
CHEMBL4216447
     RDKit          3D

  0  0  0  0  0  0  0  0  0  0999 V3000
M  V30 BEGIN CTAB
M  V30 COUNTS 70 75 0 0 0
M  V30 BEGIN ATOM
M  V30 1 C 0.855931 -1.497390 3.096269 0
M  V30 2 C 2.017951 -1.668834 2.205561 0
M  V30 3 N 2.470020 -0.554954 1.602806 0
M  V30 4 C 3.549446 -0.521745 0.800805 0
M  V30 5 N 3.931915 0.689480 0.211338 0
M  V30 6 C 3.185579 1.863708 0.493691 0
M  V30 7 N 3.719261 2.786293 1.347418 0
M  V30 8 C 3.042576 3.920189 1.653988 0
M  V30 9 C 1.797040 4.138327 1.092545 0
M  V30 10 F 1.035706 5.246050 1.337035 0
M  V30 11 C 1.307317 3.152455 0.226309 0
M  V30 12 C -0.018672 3.370150 -0.353920 0
M  V30 13 C -0.396364 4.548456 -0.933431 0
M  V30 14 C -1.676961 4.685940 -1.451559 0
M  V30 15 F -2.035142 5.879965 -2.029088 0
M  V30 16 C -2.572694 3.626385 -1.379888 0
M  V30 17 N -3.831548 3.548540 -1.805515 0
M  V30 18 C -4.278689 2.333074 -1.510059 0
M  V30 19 N -3.304218 1.622883 -0.890275 0
M  V30 20 C -2.204609 2.410362 -0.789656 0
M  V30 21 C -0.917403 2.326991 -0.289948 0
M  V30 22 C -3.753006 0.298131 -0.544401 0
M  V30 23 C -3.343354 -0.095063 0.858960 0
M  V30 24 C -3.472934 -0.746755 -1.572017 0
M  V30 25 C -5.270632 0.486360 -0.492215 0
M  V30 26 C -5.482664 1.470347 -1.621907 0
M  V30 27 N 1.961903 2.016901 -0.094789 0
M  V30 28 C 4.212083 -1.715358 0.605170 0
M  V30 29 C 3.730715 -2.856696 1.235639 0
M  V30 30 C 2.627097 -2.923066 2.060566 0
M  V30 31 C 2.148837 -4.186492 2.634017 0
M  V30 32 N 1.192126 -4.919649 1.905518 0
M  V30 33 C 1.676611 -5.544172 0.708734 0
M  V30 34 C 1.115033 -5.092445 -0.576348 0
M  V30 35 N 0.071764 -4.151928 -0.579885 0
M  V30 36 C 0.338942 -3.020941 -1.430642 0
M  V30 37 C -0.562529 -3.778269 0.623813 0
M  V30 38 C -0.153213 -4.521771 1.858459 0
M  V30 39 H -0.094434 -1.275290 2.594345 0
M  V30 40 H 1.082733 -0.569918 3.708061 0
M  V30 41 H 0.736633 -2.332188 3.816407 0
M  V30 42 H 4.750622 0.759358 -0.432216 0
M  V30 43 H 3.397498 4.694474 2.318456 0
M  V30 44 H 0.326729 5.366232 -0.977628 0
M  V30 45 H -0.692762 1.366754 0.152538 0
M  V30 46 H -3.627941 0.793947 1.492301 0
M  V30 47 H -3.988676 -0.930846 1.225656 0
M  V30 48 H -2.284885 -0.315782 0.977442 0
M  V30 49 H -4.280385 -0.775080 -2.346799 0
M  V30 50 H -2.549382 -0.418938 -2.121926 0
M  V30 51 H -3.383076 -1.762487 -1.171112 0
M  V30 52 H -5.772791 -0.471173 -0.691019 0
M  V30 53 H -5.566430 0.951409 0.483366 0
M  V30 54 H -5.400121 0.927615 -2.586112 0
M  V30 55 H -6.433322 2.035912 -1.534362 0
M  V30 56 H 5.081659 -1.712891 -0.032030 0
M  V30 57 H 4.336518 -3.734822 1.010903 0
M  V30 58 H 1.840669 -4.040308 3.709321 0
M  V30 59 H 3.065734 -4.843711 2.733831 0
M  V30 60 H 1.409533 -6.642108 0.815726 0
M  V30 61 H 2.784383 -5.503893 0.729129 0
M  V30 62 H 0.780833 -5.967034 -1.228278 0
M  V30 63 H 1.957213 -4.660983 -1.209221 0
M  V30 64 H -0.498691 -2.336428 -1.582869 0
M  V30 65 H 1.172664 -2.446953 -0.939345 0
M  V30 66 H 0.737473 -3.416872 -2.398156 0
M  V30 67 H -1.695033 -3.810059 0.531027 0
M  V30 68 H -0.372900 -2.676292 0.754881 0
M  V30 69 H -0.488797 -4.019553 2.757188 0
M  V30 70 H -0.762718 -5.491876 1.845902 0
M  V30 END ATOM
M  V30 BEGIN BOND
M  V30 1 1 1 2
M  V30 2 2 2 3
M  V30 3 1 3 4
M  V30 4 1 4 5
M  V30 5 1 5 6
M  V30 6 2 6 7
M  V30 7 1 7 8
M  V30 8 2 8 9
M  V30 9 1 9 10
M  V30 10 1 9 11
M  V30 11 1 11 12
M  V30 12 2 12 13
M  V30 13 1 13 14
M  V30 14 1 14 15
M  V30 15 2 14 16
M  V30 16 1 16 17
M  V30 17 2 17 18
M  V30 18 1 18 19
M  V30 19 1 19 20
M  V30 20 2 20 21
M  V30 21 1 19 22
M  V30 22 1 22 23
M  V30 23 1 22 24
M  V30 24 1 22 25
M  V30 25 1 25 26
M  V30 26 2 11 27
M  V30 27 2 4 28
M  V30 28 1 28 29
M  V30 29 2 29 30
M  V30 30 1 30 31
M  V30 31 1 31 32
M  V30 32 1 32 33
M  V30 33 1 33 34
M  V30 34 1 34 35
M  V30 35 1 35 36
M  V30 36 1 35 37
M  V30 37 1 37 38
M  V30 38 1 30 2
M  V30 39 1 38 32
M  V30 40 1 27 6
M  V30 41 1 21 12
M  V30 42 1 20 16
M  V30 43 1 26 18
M  V30 44 1 1 39
M  V30 45 1 1 40
M  V30 46 1 1 41
M  V30 47 1 5 42
M  V30 48 1 8 43
M  V30 49 1 13 44
M  V30 50 1 21 45
M  V30 51 1 23 46
M  V30 52 1 23 47
M  V30 53 1 23 48
M  V30 54 1 24 49
M  V30 55 1 24 50
M  V30 56 1 24 51
M  V30 57 1 25 52
M  V30 58 1 25 53
M  V30 59 1 26 54
M  V30 60 1 26 55
M  V30 61 1 28 56
M  V30 62 1 29 57
M  V30 63 1 31 58
M  V30 64 1 31 59
M  V30 65 1 33 60
M  V30 66 1 33 61
M  V30 67 1 34 62
M  V30 68 1 34 63
M  V30 69 1 36 64
M  V30 70 1 36 65
M  V30 71 1 36 66
M  V30 72 1 37 67
M  V30 73 1 37 68
M  V30 74 1 38 69
M  V30 75 1 38 70
M  V30 END BOND
M  V30 END CTAB
M  END
>  <Dataset>  (264) 
ChEMBL_Kinases

>  <Ligand_Instance>  (264) 
nan

>  <PDB_ID>  (264) 
nan

>  <Standardized_SMILES>  (264) 
Cc1nc(Nc2ncc(F)c(-c3cc(F)c4nc5n(c4c3)C(C)(C)CC5)n2)ccc1CN1CCN(C)CC1

>  <Name>  (264) 
nan

>  <Pocket>  (264) 
nan

>  <ATP_Site>  (264) 
nan

>  <Peripheral>  (264) 
nan

>  <Num_H_Atoms_ProtBoundConf>  (264) 
nan

>  <Num_Resolved_Atoms>  (264) 
nan

>  <Num_Not_Resolved_Atoms>  (264) 
nan

$$$$
CHEMBL374713
     RDKit          3D

  0  0  0  0  0  0  0  0  0  0999 V3000
M  V30 BEGIN CTAB
M  V30 COUNTS 57 62 0 0 0
M  V30 BEGIN ATOM
M  V30 1 O 7.543418 -2.267846 -0.870206 0
M  V30 2 C 7.631040 -1.871556 0.470239 0
M  V30 3 C 7.869684 -0.428466 0.608403 0
M  V30 4 N 9.018987 0.195383 0.925267 0
M  V30 5 N 8.777226 1.491821 0.933412 0
M  V30 6 N 7.519122 1.704803 0.633512 0
M  V30 7 C 6.883091 0.515596 0.414054 0
M  V30 8 C 5.472710 0.449895 0.056556 0
M  V30 9 C 4.491991 -0.369726 0.568595 0
M  V30 10 C 3.198145 -0.299063 0.103542 0
M  V30 11 C 2.800578 0.560844 -0.869117 0
M  V30 12 C 1.582821 0.781650 -1.459932 0
M  V30 13 C 0.277653 0.185925 -1.270100 0
M  V30 14 C -0.253096 -0.787274 -0.469189 0
M  V30 15 C -1.600535 -0.974166 -0.697777 0
M  V30 16 C -2.534349 -1.825388 -0.141574 0
M  V30 17 C -3.850942 -1.816643 -0.554488 0
M  V30 18 C -4.848198 -2.722982 0.035446 0
M  V30 19 N -5.483052 -2.096544 1.166423 0
M  V30 20 C -4.510349 -1.757349 2.183983 0
M  V30 21 C -5.229705 -1.291277 3.406768 0
M  V30 22 C -6.686699 -0.958216 3.185279 0
M  V30 23 C -7.425689 -2.100191 2.520616 0
M  V30 24 C -6.435518 -3.023785 1.798172 0
M  V30 25 C -4.167075 -0.912211 -1.547227 0
M  V30 26 C -3.229613 -0.056145 -2.107041 0
M  V30 27 C -1.906185 -0.065898 -1.691092 0
M  V30 28 N -0.785639 0.587711 -1.994362 0
M  V30 29 N 1.850191 1.757976 -2.344827 0
M  V30 30 N 3.120816 2.115634 -2.310506 0
M  V30 31 C 3.771776 1.390016 -1.393228 0
M  V30 32 C 5.076910 1.341708 -0.946941 0
M  V30 33 H 6.589044 -2.435115 -1.050464 0
M  V30 34 H 8.555074 -2.408665 0.842972 0
M  V30 35 H 6.822905 -2.275246 1.105562 0
M  V30 36 H 9.545941 2.186567 1.159750 0
M  V30 37 H 4.808829 -1.035802 1.329313 0
M  V30 38 H 2.492791 -0.965817 0.548177 0
M  V30 39 H 0.279814 -1.346435 0.248108 0
M  V30 40 H -2.237523 -2.505993 0.623351 0
M  V30 41 H -4.380092 -3.687863 0.387148 0
M  V30 42 H -5.609964 -3.049988 -0.701806 0
M  V30 43 H -3.945751 -2.694333 2.464796 0
M  V30 44 H -3.773921 -1.007897 1.810211 0
M  V30 45 H -4.739655 -0.330431 3.736966 0
M  V30 46 H -5.094809 -1.980525 4.268848 0
M  V30 47 H -6.806471 -0.003893 2.640563 0
M  V30 48 H -7.144179 -0.825014 4.185640 0
M  V30 49 H -8.067882 -1.665199 1.732625 0
M  V30 50 H -8.055391 -2.687267 3.225698 0
M  V30 51 H -6.958526 -3.657700 1.072324 0
M  V30 52 H -5.899290 -3.576744 2.590059 0
M  V30 53 H -5.183449 -0.852903 -1.918355 0
M  V30 54 H -3.502665 0.638733 -2.879008 0
M  V30 55 H -0.862802 1.315907 -2.738813 0
M  V30 56 H 3.506060 2.859676 -2.928941 0
M  V30 57 H 5.784410 2.023960 -1.406297 0
M  V30 END ATOM
M  V30 BEGIN BOND
M  V30 1 1 1 2
M  V30 2 1 2 3
M  V30 3 2 3 4
M  V30 4 1 4 5
M  V30 5 1 5 6
M  V30 6 2 6 7
M  V30 7 1 7 8
M  V30 8 2 8 9
M  V30 9 1 9 10
M  V30 10 2 10 11
M  V30 11 1 11 12
M  V30 12 1 12 13
M  V30 13 2 13 14
M  V30 14 1 14 15
M  V30 15 2 15 16
M  V30 16 1 16 17
M  V30 17 1 17 18
M  V30 18 1 18 19
M  V30 19 1 19 20
M  V30 20 1 20 21
M  V30 21 1 21 22
M  V30 22 1 22 23
M  V30 23 1 23 24
M  V30 24 2 17 25
M  V30 25 1 25 26
M  V30 26 2 26 27
M  V30 27 1 27 28
M  V30 28 2 12 29
M  V30 29 1 29 30
M  V30 30 1 30 31
M  V30 31 2 31 32
M  V30 32 1 7 3
M  V30 33 1 32 8
M  V30 34 1 31 11
M  V30 35 1 28 13
M  V30 36 1 27 15
M  V30 37 1 24 19
M  V30 38 1 1 33
M  V30 39 1 2 34
M  V30 40 1 2 35
M  V30 41 1 5 36
M  V30 42 1 9 37
M  V30 43 1 10 38
M  V30 44 1 14 39
M  V30 45 1 16 40
M  V30 46 1 18 41
M  V30 47 1 18 42
M  V30 48 1 20 43
M  V30 49 1 20 44
M  V30 50 1 21 45
M  V30 51 1 21 46
M  V30 52 1 22 47
M  V30 53 1 22 48
M  V30 54 1 23 49
M  V30 55 1 23 50
M  V30 56 1 24 51
M  V30 57 1 24 52
M  V30 58 1 25 53
M  V30 59 1 26 54
M  V30 60 1 28 55
M  V30 61 1 30 56
M  V30 62 1 32 57
M  V30 END BOND
M  V30 END CTAB
M  END
>  <Dataset>  (265) 
ChEMBL_Kinases

>  <Ligand_Instance>  (265) 
nan

>  <PDB_ID>  (265) 
nan

>  <Standardized_SMILES>  (265) 
OCc1n[nH]nc1-c1ccc2c(-c3cc4cc(CN5CCCCC5)ccc4[nH]3)n[nH]c2c1

>  <Name>  (265) 
nan

>  <Pocket>  (265) 
nan

>  <ATP_Site>  (265) 
nan

>  <Peripheral>  (265) 
nan

>  <Num_H_Atoms_ProtBoundConf>  (265) 
nan

>  <Num_Resolved_Atoms>  (265) 
nan

>  <Num_Not_Resolved_Atoms>  (265) 
nan

$$$$
CHEMBL4216393
     RDKit          3D

  0  0  0  0  0  0  0  0  0  0999 V3000
M  V30 BEGIN CTAB
M  V30 COUNTS 61 66 0 0 0
M  V30 BEGIN ATOM
M  V30 1 C 4.870157 -0.430095 7.301404 0
M  V30 2 O 5.526229 -0.012835 6.120947 0
M  V30 3 C 4.903721 0.545323 5.036042 0
M  V30 4 C 5.644883 0.932846 3.912721 0
M  V30 5 C 5.071967 1.496082 2.797478 0
M  V30 6 C 3.708155 1.676896 2.810098 0
M  V30 7 N 2.826010 2.185499 1.932595 0
M  V30 8 C 1.554952 2.143918 2.433323 0
M  V30 9 C 0.395303 2.692038 1.593554 0
M  V30 10 N -0.066195 1.646636 0.753192 0
M  V30 11 C -0.558097 0.644272 -0.098478 0
M  V30 12 N -1.532207 0.604129 -0.991647 0
M  V30 13 C -1.880400 -0.453313 -1.719141 0
M  V30 14 N -2.978075 -0.207703 -2.572766 0
M  V30 15 C -3.837613 0.951688 -2.423809 0
M  V30 16 C -5.108426 0.392528 -1.758530 0
M  V30 17 N -5.585357 -0.722507 -2.538759 0
M  V30 18 C -5.552310 -1.965414 -1.794043 0
M  V30 19 C -4.904106 -0.840215 -3.809144 0
M  V30 20 C -3.418016 -1.010394 -3.686743 0
M  V30 21 N -1.155376 -1.539143 -1.494905 0
M  V30 22 C -0.143275 -1.652195 -0.630371 0
M  V30 23 C 0.191588 -0.512164 0.121119 0
M  V30 24 N 1.221324 -0.942765 0.878615 0
M  V30 25 C 1.468394 -2.232210 0.591143 0
M  V30 26 N 0.642086 -2.697458 -0.334494 0
M  V30 27 C 0.617827 -4.011998 -0.873468 0
M  V30 28 C -0.473599 -4.569323 -1.506833 0
M  V30 29 C -0.419245 -5.864611 -2.003646 0
M  V30 30 C 0.755553 -6.608299 -1.860062 0
M  V30 31 N 1.828494 -6.077027 -1.244188 0
M  V30 32 C 1.748352 -4.820632 -0.770754 0
M  V30 33 N 1.607095 1.591372 3.675531 0
M  V30 34 C 2.903556 1.321284 3.879544 0
M  V30 35 C 3.540736 0.760070 4.970847 0
M  V30 36 H 5.412272 -1.246474 7.827509 0
M  V30 37 H 4.724404 0.449681 7.992867 0
M  V30 38 H 3.846500 -0.802786 7.103781 0
M  V30 39 H 6.704702 0.792407 3.905282 0
M  V30 40 H 5.648282 1.795694 1.932637 0
M  V30 41 H -0.333776 3.130025 2.310456 0
M  V30 42 H 0.827202 3.542110 0.992270 0
M  V30 43 H -0.777922 2.376353 0.394117 0
M  V30 44 H -4.101807 1.436614 -3.369552 0
M  V30 45 H -3.326320 1.641748 -1.713205 0
M  V30 46 H -5.839164 1.164121 -1.530009 0
M  V30 47 H -4.721080 -0.035002 -0.786974 0
M  V30 48 H -4.588678 -2.120645 -1.277261 0
M  V30 49 H -6.406280 -1.960868 -1.096604 0
M  V30 50 H -5.713618 -2.778464 -2.530329 0
M  V30 51 H -5.126998 0.034385 -4.438578 0
M  V30 52 H -5.366283 -1.715937 -4.309682 0
M  V30 53 H -2.955866 -0.554367 -4.587561 0
M  V30 54 H -3.104603 -2.071485 -3.607319 0
M  V30 55 H 2.265311 -2.772557 1.094710 0
M  V30 56 H -1.375338 -3.983941 -1.615104 0
M  V30 57 H -1.241617 -6.339146 -2.509445 0
M  V30 58 H 0.835196 -7.627352 -2.239512 0
M  V30 59 H 2.608298 -4.369147 -0.264833 0
M  V30 60 H 0.760663 1.462548 4.232433 0
M  V30 61 H 2.904621 0.477591 5.828963 0
M  V30 END ATOM
M  V30 BEGIN BOND
M  V30 1 1 1 2
M  V30 2 1 2 3
M  V30 3 2 3 4
M  V30 4 1 4 5
M  V30 5 2 5 6
M  V30 6 1 6 7
M  V30 7 2 7 8
M  V30 8 1 8 9
M  V30 9 1 9 10
M  V30 10 1 10 11
M  V30 11 2 11 12
M  V30 12 1 12 13
M  V30 13 1 13 14
M  V30 14 1 14 15
M  V30 15 1 15 16
M  V30 16 1 16 17
M  V30 17 1 17 18
M  V30 18 1 17 19
M  V30 19 1 19 20
M  V30 20 2 13 21
M  V30 21 1 21 22
M  V30 22 2 22 23
M  V30 23 1 23 24
M  V30 24 2 24 25
M  V30 25 1 25 26
M  V30 26 1 26 27
M  V30 27 2 27 28
M  V30 28 1 28 29
M  V30 29 2 29 30
M  V30 30 1 30 31
M  V30 31 2 31 32
M  V30 32 1 8 33
M  V30 33 1 33 34
M  V30 34 2 34 35
M  V30 35 1 35 3
M  V30 36 1 34 6
M  V30 37 1 23 11
M  V30 38 1 32 27
M  V30 39 1 20 14
M  V30 40 1 26 22
M  V30 41 1 1 36
M  V30 42 1 1 37
M  V30 43 1 1 38
M  V30 44 1 4 39
M  V30 45 1 5 40
M  V30 46 1 9 41
M  V30 47 1 9 42
M  V30 48 1 10 43
M  V30 49 1 15 44
M  V30 50 1 15 45
M  V30 51 1 16 46
M  V30 52 1 16 47
M  V30 53 1 18 48
M  V30 54 1 18 49
M  V30 55 1 18 50
M  V30 56 1 19 51
M  V30 57 1 19 52
M  V30 58 1 20 53
M  V30 59 1 20 54
M  V30 60 1 25 55
M  V30 61 1 28 56
M  V30 62 1 29 57
M  V30 63 1 30 58
M  V30 64 1 32 59
M  V30 65 1 33 60
M  V30 66 1 35 61
M  V30 END BOND
M  V30 END CTAB
M  END
>  <Dataset>  (266) 
ChEMBL_Kinases

>  <Ligand_Instance>  (266) 
nan

>  <PDB_ID>  (266) 
nan

>  <Standardized_SMILES>  (266) 
COc1ccc2nc(CNc3nc(N4CCN(C)CC4)nc4c3ncn4-c3cccnc3)[nH]c2c1

>  <Name>  (266) 
nan

>  <Pocket>  (266) 
nan

>  <ATP_Site>  (266) 
nan

>  <Peripheral>  (266) 
nan

>  <Num_H_Atoms_ProtBoundConf>  (266) 
nan

>  <Num_Resolved_Atoms>  (266) 
nan

>  <Num_Not_Resolved_Atoms>  (266) 
nan

$$$$
CHEMBL4216210
     RDKit          3D

  0  0  0  0  0  0  0  0  0  0999 V3000
M  V30 BEGIN CTAB
M  V30 COUNTS 54 59 0 0 0
M  V30 BEGIN ATOM
M  V30 1 C 0.253145 -5.894496 -0.391411 0
M  V30 2 C 1.110185 -6.331340 -1.423534 0
M  V30 3 N 1.835692 -5.451573 -2.170502 0
M  V30 4 C 1.778377 -4.103406 -1.966290 0
M  V30 5 C 0.939714 -3.768959 -0.961444 0
M  V30 6 N 0.734913 -2.428234 -0.489707 0
M  V30 7 C 1.828882 -1.908675 0.085765 0
M  V30 8 N 1.591202 -0.648308 0.565023 0
M  V30 9 C 0.303714 -0.364068 0.281863 0
M  V30 10 C -0.696759 0.626976 0.418928 0
M  V30 11 N -0.091063 1.631770 1.232749 0
M  V30 12 C 0.461747 2.646743 2.029919 0
M  V30 13 C 1.902136 2.214329 2.342478 0
M  V30 14 N 2.889518 2.640172 1.549437 0
M  V30 15 C 4.052006 2.095175 2.023548 0
M  V30 16 C 5.369321 2.161247 1.628639 0
M  V30 17 C 6.286092 1.454220 2.358308 0
M  V30 18 C 5.995171 0.685144 3.450683 0
M  V30 19 C 4.648266 0.627771 3.841141 0
M  V30 20 C 3.674710 1.340481 3.120040 0
M  V30 21 N 2.325862 1.397118 3.348939 0
M  V30 22 N -1.938340 0.463918 -0.042416 0
M  V30 23 C -2.323738 -0.659628 -0.666143 0
M  V30 24 N -3.672632 -0.664353 -1.077842 0
M  V30 25 C -4.532075 -1.802296 -1.309457 0
M  V30 26 C -5.895926 -1.602805 -0.681589 0
M  V30 27 N -5.893112 -0.531563 0.288705 0
M  V30 28 C -5.390920 0.721034 -0.182691 0
M  V30 29 C -4.428185 0.539009 -1.359127 0
M  V30 30 N -1.404677 -1.618908 -0.808815 0
M  V30 31 C -0.168833 -1.467506 -0.357062 0
M  V30 32 C 0.165664 -4.531361 -0.149715 0
M  V30 33 H -0.248034 -6.737297 0.100682 0
M  V30 34 H 1.206861 -7.401734 -1.643475 0
M  V30 35 H 2.322639 -3.358306 -2.524333 0
M  V30 36 H 2.886783 -2.157041 0.308631 0
M  V30 37 H -0.969410 2.259243 1.181449 0
M  V30 38 H 0.469980 3.676326 1.682803 0
M  V30 39 H 0.001205 2.669717 3.063299 0
M  V30 40 H 5.687020 2.745517 0.783179 0
M  V30 41 H 7.337437 1.476150 2.074960 0
M  V30 42 H 6.765879 0.158157 3.967239 0
M  V30 43 H 4.403979 0.005563 4.717052 0
M  V30 44 H 1.733709 0.958428 4.076012 0
M  V30 45 H -4.676947 -1.898617 -2.401469 0
M  V30 46 H -4.027490 -2.720228 -0.955128 0
M  V30 47 H -6.650000 -1.453466 -1.462709 0
M  V30 48 H -6.113195 -2.546999 -0.143252 0
M  V30 49 H -5.461215 -0.806992 1.177685 0
M  V30 50 H -4.829020 1.280546 0.597622 0
M  V30 51 H -6.259319 1.354313 -0.533677 0
M  V30 52 H -5.058535 0.422661 -2.295971 0
M  V30 53 H -3.824397 1.424660 -1.547785 0
M  V30 54 H -0.517028 -4.341681 0.657464 0
M  V30 END ATOM
M  V30 BEGIN BOND
M  V30 1 2 1 2
M  V30 2 1 2 3
M  V30 3 2 3 4
M  V30 4 1 4 5
M  V30 5 1 5 6
M  V30 6 1 6 7
M  V30 7 2 7 8
M  V30 8 1 8 9
M  V30 9 2 9 10
M  V30 10 1 10 11
M  V30 11 1 11 12
M  V30 12 1 12 13
M  V30 13 2 13 14
M  V30 14 1 14 15
M  V30 15 2 15 16
M  V30 16 1 16 17
M  V30 17 2 17 18
M  V30 18 1 18 19
M  V30 19 2 19 20
M  V30 20 1 20 21
M  V30 21 1 10 22
M  V30 22 2 22 23
M  V30 23 1 23 24
M  V30 24 1 24 25
M  V30 25 1 25 26
M  V30 26 1 26 27
M  V30 27 1 27 28
M  V30 28 1 28 29
M  V30 29 1 23 30
M  V30 30 2 30 31
M  V30 31 2 5 32
M  V30 32 1 32 1
M  V30 33 1 31 6
M  V30 34 1 31 9
M  V30 35 1 21 13
M  V30 36 1 29 24
M  V30 37 1 20 15
M  V30 38 1 1 33
M  V30 39 1 2 34
M  V30 40 1 4 35
M  V30 41 1 7 36
M  V30 42 1 11 37
M  V30 43 1 12 38
M  V30 44 1 12 39
M  V30 45 1 16 40
M  V30 46 1 17 41
M  V30 47 1 18 42
M  V30 48 1 19 43
M  V30 49 1 21 44
M  V30 50 1 25 45
M  V30 51 1 25 46
M  V30 52 1 26 47
M  V30 53 1 26 48
M  V30 54 1 27 49
M  V30 55 1 28 50
M  V30 56 1 28 51
M  V30 57 1 29 52
M  V30 58 1 29 53
M  V30 59 1 32 54
M  V30 END BOND
M  V30 END CTAB
M  END
>  <Dataset>  (267) 
ChEMBL_Kinases

>  <Ligand_Instance>  (267) 
nan

>  <PDB_ID>  (267) 
nan

>  <Standardized_SMILES>  (267) 
c1cncc(-n2cnc3c(NCc4nc5ccccc5[nH]4)nc(N4CCNCC4)nc32)c1

>  <Name>  (267) 
nan

>  <Pocket>  (267) 
nan

>  <ATP_Site>  (267) 
nan

>  <Peripheral>  (267) 
nan

>  <Num_H_Atoms_ProtBoundConf>  (267) 
nan

>  <Num_Resolved_Atoms>  (267) 
nan

>  <Num_Not_Resolved_Atoms>  (267) 
nan

$$$$
CHEMBL4216109
     RDKit          3D

  0  0  0  0  0  0  0  0  0  0999 V3000
M  V30 BEGIN CTAB
M  V30 COUNTS 60 64 0 0 0
M  V30 BEGIN ATOM
M  V30 1 C 4.288947 -1.833469 3.315665 0
M  V30 2 N 4.420587 -1.777493 1.890233 0
M  V30 3 C 3.313365 -2.296982 1.178354 0
M  V30 4 C 5.014089 -0.576108 1.405545 0
M  V30 5 C 4.250350 0.683136 1.757779 0
M  V30 6 C 3.143100 1.012026 0.809156 0
M  V30 7 N 3.500670 0.839539 -0.565626 0
M  V30 8 C 2.565243 0.858001 -1.633053 0
M  V30 9 O 2.868181 0.707943 -2.857501 0
M  V30 10 C 1.160496 1.063688 -1.300173 0
M  V30 11 C 0.467200 -0.112070 -0.988892 0
M  V30 12 C -0.875076 -0.086911 -0.652674 0
M  V30 13 C -1.533322 1.124731 -0.626441 0
M  V30 14 C -2.944657 1.099478 -0.268889 0
M  V30 15 C -3.773948 2.196881 -0.187220 0
M  V30 16 C -5.109597 2.063363 0.162393 0
M  V30 17 C -5.666630 0.816352 0.444807 0
M  V30 18 N -6.865078 0.319525 0.800734 0
M  V30 19 C -6.772645 -1.013647 0.929956 0
M  V30 20 C -5.470429 -1.367357 0.645177 0
M  V30 21 C -4.874910 -2.715934 0.647625 0
M  V30 22 C -5.044121 -3.691460 1.604954 0
M  V30 23 C -4.387617 -4.875667 1.395872 0
M  V30 24 C -3.589150 -5.115243 0.293950 0
M  V30 25 C -2.920358 -6.375774 0.119107 0
M  V30 26 N -2.398209 -7.395606 -0.031270 0
M  V30 27 C -3.415589 -4.133480 -0.674752 0
M  V30 28 C -4.072006 -2.939689 -0.471846 0
M  V30 29 N -4.807542 -0.213580 0.348083 0
M  V30 30 N -3.536258 -0.074362 0.013955 0
M  V30 31 C -0.861587 2.283967 -0.929976 0
M  V30 32 C 0.471444 2.278966 -1.266336 0
M  V30 33 C 4.927413 0.639127 -0.756200 0
M  V30 34 C 5.355491 -0.647625 -0.038669 0
M  V30 35 H 3.561961 -1.129817 3.751860 0
M  V30 36 H 5.297593 -1.772249 3.771105 0
M  V30 37 H 3.901684 -2.858521 3.569911 0
M  V30 38 H 2.981240 -1.771772 0.288597 0
M  V30 39 H 2.422631 -2.296283 1.873123 0
M  V30 40 H 3.471363 -3.364318 0.913847 0
M  V30 41 H 5.986272 -0.477734 1.973556 0
M  V30 42 H 4.941425 1.567794 1.783417 0
M  V30 43 H 3.821572 0.638725 2.774776 0
M  V30 44 H 2.256767 0.394395 1.043129 0
M  V30 45 H 2.898149 2.098236 0.994232 0
M  V30 46 H 0.944390 -1.083961 -0.996729 0
M  V30 47 H -1.380065 -1.024153 -0.416590 0
M  V30 48 H -3.341561 3.164895 -0.407168 0
M  V30 49 H -5.762627 2.920009 0.227186 0
M  V30 50 H -7.548323 -1.734949 1.205614 0
M  V30 51 H -5.678443 -3.426351 2.427198 0
M  V30 52 H -4.515300 -5.644828 2.141189 0
M  V30 53 H -2.796449 -4.330290 -1.523033 0
M  V30 54 H -3.898436 -2.210576 -1.261064 0
M  V30 55 H -1.369248 3.237322 -0.912297 0
M  V30 56 H 1.072168 3.141883 -1.515919 0
M  V30 57 H 5.440768 1.528956 -0.365733 0
M  V30 58 H 5.134679 0.531520 -1.821532 0
M  V30 59 H 6.443842 -0.729392 -0.176041 0
M  V30 60 H 4.842776 -1.457770 -0.591592 0
M  V30 END ATOM
M  V30 BEGIN BOND
M  V30 1 1 1 2
M  V30 2 1 2 3
M  V30 3 1 2 4
M  V30 4 1 4 5
M  V30 5 1 5 6
M  V30 6 1 6 7
M  V30 7 1 7 8
M  V30 8 2 8 9
M  V30 9 1 8 10
M  V30 10 2 10 11
M  V30 11 1 11 12
M  V30 12 2 12 13
M  V30 13 1 13 14
M  V30 14 1 14 15
M  V30 15 2 15 16
M  V30 16 1 16 17
M  V30 17 2 17 18
M  V30 18 1 18 19
M  V30 19 2 19 20
M  V30 20 1 20 21
M  V30 21 2 21 22
M  V30 22 1 22 23
M  V30 23 2 23 24
M  V30 24 1 24 25
M  V30 25 3 25 26
M  V30 26 1 24 27
M  V30 27 2 27 28
M  V30 28 1 20 29
M  V30 29 1 29 30
M  V30 30 1 13 31
M  V30 31 2 31 32
M  V30 32 1 7 33
M  V30 33 1 33 34
M  V30 34 1 34 4
M  V30 35 1 32 10
M  V30 36 2 30 14
M  V30 37 1 29 17
M  V30 38 1 28 21
M  V30 39 1 1 35
M  V30 40 1 1 36
M  V30 41 1 1 37
M  V30 42 1 3 38
M  V30 43 1 3 39
M  V30 44 1 3 40
M  V30 45 1 4 41
M  V30 46 1 5 42
M  V30 47 1 5 43
M  V30 48 1 6 44
M  V30 49 1 6 45
M  V30 50 1 11 46
M  V30 51 1 12 47
M  V30 52 1 15 48
M  V30 53 1 16 49
M  V30 54 1 19 50
M  V30 55 1 22 51
M  V30 56 1 23 52
M  V30 57 1 27 53
M  V30 58 1 28 54
M  V30 59 1 31 55
M  V30 60 1 32 56
M  V30 61 1 33 57
M  V30 62 1 33 58
M  V30 63 1 34 59
M  V30 64 1 34 60
M  V30 END BOND
M  V30 END CTAB
M  END
>  <Dataset>  (268) 
ChEMBL_Kinases

>  <Ligand_Instance>  (268) 
nan

>  <PDB_ID>  (268) 
nan

>  <Standardized_SMILES>  (268) 
CN(C)C1CCN(C(=O)c2ccc(-c3ccc4ncc(-c5ccc(C#N)cc5)n4n3)cc2)CC1

>  <Name>  (268) 
nan

>  <Pocket>  (268) 
nan

>  <ATP_Site>  (268) 
nan

>  <Peripheral>  (268) 
nan

>  <Num_H_Atoms_ProtBoundConf>  (268) 
nan

>  <Num_Resolved_Atoms>  (268) 
nan

>  <Num_Not_Resolved_Atoms>  (268) 
nan

$$$$
CHEMBL4216093
     RDKit          3D

  0  0  0  0  0  0  0  0  0  0999 V3000
M  V30 BEGIN CTAB
M  V30 COUNTS 54 58 0 0 0
M  V30 BEGIN ATOM
M  V30 1 C 2.712923 1.983502 3.160854 0
M  V30 2 N 3.312151 0.757819 3.437571 0
M  V30 3 C 4.689083 0.655860 3.692689 0
M  V30 4 C 5.337921 -0.082595 2.519934 0
M  V30 5 N 4.317810 -0.664133 1.668234 0
M  V30 6 C 4.196883 -0.588152 0.230985 0
M  V30 7 O 5.103234 0.055232 -0.352250 0
M  V30 8 C 3.054715 -1.255516 -0.332388 0
M  V30 9 C 1.885836 -0.576064 0.055008 0
M  V30 10 C 0.602936 -0.992465 -0.341099 0
M  V30 11 C 0.483591 -2.124707 -1.151635 0
M  V30 12 C -0.808049 -2.613605 -1.620638 0
M  V30 13 C -1.989125 -1.979736 -1.310292 0
M  V30 14 N -3.233468 -2.342930 -1.706531 0
M  V30 15 C -4.476556 -1.811400 -1.490486 0
M  V30 16 C -4.686402 -0.596673 -0.692703 0
M  V30 17 C -4.095490 -0.623430 0.567597 0
M  V30 18 C -4.166369 0.449758 1.440705 0
M  V30 19 C -4.865620 1.552252 0.975031 0
M  V30 20 C -5.459563 1.623642 -0.247239 0
M  V30 21 O -6.148826 2.730647 -0.686166 0
M  V30 22 C -5.368003 0.531824 -1.092598 0
M  V30 23 C -5.352170 -2.646028 -2.188465 0
M  V30 24 N -4.618653 -3.618122 -2.777204 0
M  V30 25 C -3.295395 -3.438052 -2.482398 0
M  V30 26 C -2.159881 -4.133172 -2.840373 0
M  V30 27 N -0.956501 -3.705491 -2.403300 0
M  V30 28 C 1.628920 -2.791845 -1.531128 0
M  V30 29 C 2.874219 -2.364502 -1.129628 0
M  V30 30 C 3.350587 -1.397970 2.494893 0
M  V30 31 C 2.573999 -0.437263 3.401665 0
M  V30 32 H 3.229027 2.473251 2.297717 0
M  V30 33 H 1.678495 1.777972 2.758882 0
M  V30 34 H 2.661442 2.711396 3.985658 0
M  V30 35 H 4.877640 0.041724 4.607901 0
M  V30 36 H 5.188568 1.624816 3.903519 0
M  V30 37 H 6.052545 -0.815270 2.900060 0
M  V30 38 H 5.887059 0.736273 1.962635 0
M  V30 39 H 1.841625 0.316863 0.676346 0
M  V30 40 H -0.268337 -0.449110 -0.020676 0
M  V30 41 H -1.962492 -1.111505 -0.705622 0
M  V30 42 H -3.538287 -1.459619 1.007312 0
M  V30 43 H -3.736105 0.500719 2.425659 0
M  V30 44 H -4.951183 2.424637 1.622812 0
M  V30 45 H -7.124324 2.882659 -0.507801 0
M  V30 46 H -5.791929 0.456108 -2.084615 0
M  V30 47 H -6.375739 -2.353665 -2.112784 0
M  V30 48 H -2.251597 -5.004957 -3.463343 0
M  V30 49 H 1.644941 -3.691116 -2.161870 0
M  V30 50 H 3.833083 -2.798159 -1.364812 0
M  V30 51 H 3.903585 -2.076168 3.180455 0
M  V30 52 H 2.677093 -2.021042 1.879299 0
M  V30 53 H 2.388050 -0.924517 4.399424 0
M  V30 54 H 1.583063 -0.321425 2.953897 0
M  V30 END ATOM
M  V30 BEGIN BOND
M  V30 1 1 1 2
M  V30 2 1 2 3
M  V30 3 1 3 4
M  V30 4 1 4 5
M  V30 5 1 5 6
M  V30 6 2 6 7
M  V30 7 1 6 8
M  V30 8 2 8 9
M  V30 9 1 9 10
M  V30 10 2 10 11
M  V30 11 1 11 12
M  V30 12 2 12 13
M  V30 13 1 13 14
M  V30 14 1 14 15
M  V30 15 1 15 16
M  V30 16 2 16 17
M  V30 17 1 17 18
M  V30 18 2 18 19
M  V30 19 1 19 20
M  V30 20 1 20 21
M  V30 21 2 20 22
M  V30 22 2 15 23
M  V30 23 1 23 24
M  V30 24 2 24 25
M  V30 25 1 25 26
M  V30 26 2 26 27
M  V30 27 1 11 28
M  V30 28 2 28 29
M  V30 29 1 5 30
M  V30 30 1 30 31
M  V30 31 1 31 2
M  V30 32 1 29 8
M  V30 33 1 27 12
M  V30 34 1 25 14
M  V30 35 1 22 16
M  V30 36 1 1 32
M  V30 37 1 1 33
M  V30 38 1 1 34
M  V30 39 1 3 35
M  V30 40 1 3 36
M  V30 41 1 4 37
M  V30 42 1 4 38
M  V30 43 1 9 39
M  V30 44 1 10 40
M  V30 45 1 13 41
M  V30 46 1 17 42
M  V30 47 1 18 43
M  V30 48 1 19 44
M  V30 49 1 21 45
M  V30 50 1 22 46
M  V30 51 1 23 47
M  V30 52 1 26 48
M  V30 53 1 28 49
M  V30 54 1 29 50
M  V30 55 1 30 51
M  V30 56 1 30 52
M  V30 57 1 31 53
M  V30 58 1 31 54
M  V30 END BOND
M  V30 END CTAB
M  END
>  <Dataset>  (269) 
ChEMBL_Kinases

>  <Ligand_Instance>  (269) 
nan

>  <PDB_ID>  (269) 
nan

>  <Standardized_SMILES>  (269) 
CN1CCN(C(=O)c2ccc(-c3cn4c(-c5cccc(O)c5)cnc4cn3)cc2)CC1

>  <Name>  (269) 
nan

>  <Pocket>  (269) 
nan

>  <ATP_Site>  (269) 
nan

>  <Peripheral>  (269) 
nan

>  <Num_H_Atoms_ProtBoundConf>  (269) 
nan

>  <Num_Resolved_Atoms>  (269) 
nan

>  <Num_Not_Resolved_Atoms>  (269) 
nan

$$$$
CHEMBL3676258
     RDKit          3D

  0  0  0  0  0  0  0  0  0  0999 V3000
M  V30 BEGIN CTAB
M  V30 COUNTS 48 51 0 0 0
M  V30 BEGIN ATOM
M  V30 1 N -0.587420 -2.113827 3.420738 0
M  V30 2 C 0.823974 -1.775206 3.375964 0 CFG=1
M  V30 3 C 1.688936 -2.947101 3.059301 0
M  V30 4 C 3.108422 -2.542896 3.387242 0
M  V30 5 C 3.225506 -1.039796 3.217657 0
M  V30 6 N 2.481061 -0.532736 2.086218 0
M  V30 7 C 3.106657 0.041621 0.954718 0
M  V30 8 C 4.474743 0.034697 0.807242 0
M  V30 9 C 5.132509 0.581381 -0.273621 0
M  V30 10 N 4.433087 1.172326 -1.277128 0
M  V30 11 C 3.080173 1.208855 -1.186450 0
M  V30 12 C 2.452594 0.652359 -0.091334 0
M  V30 13 N 1.065939 0.777220 -0.138733 0
M  V30 14 C 0.174083 1.726433 0.376393 0
M  V30 15 O 0.727629 2.658287 1.011740 0
M  V30 16 C -1.273119 1.650699 0.197558 0
M  V30 17 C -2.113665 2.678872 0.766698 0
M  V30 18 S -3.782609 2.059943 0.226853 0
M  V30 19 C -3.102315 0.635785 -0.605372 0
M  V30 20 C -3.996190 -0.322951 -1.288190 0
M  V30 21 C -5.360205 -0.117155 -1.282656 0
M  V30 22 F -5.932204 0.945220 -0.667660 0
M  V30 23 C -6.142845 -1.046647 -1.937036 0
M  V30 24 C -5.599642 -2.141823 -2.575231 0
M  V30 25 C -4.230684 -2.270218 -2.531733 0
M  V30 26 C -3.373075 -1.389927 -1.901441 0
M  V30 27 F -2.030873 -1.570762 -1.893282 0
M  V30 28 N -1.857515 0.675510 -0.467552 0
M  V30 29 C 1.083243 -0.710386 2.303440 0
M  V30 30 H -0.800836 -3.019980 2.950561 0
M  V30 31 H -1.163103 -1.324556 3.113663 0
M  V30 32 H 1.065314 -1.383020 4.379614 0
M  V30 33 H 1.346944 -3.848187 3.602695 0
M  V30 34 H 1.564568 -3.149071 1.966167 0
M  V30 35 H 3.880762 -3.093998 2.855582 0
M  V30 36 H 3.210485 -2.716576 4.492078 0
M  V30 37 H 4.304680 -0.823655 3.180925 0
M  V30 38 H 2.831017 -0.483017 4.123505 0
M  V30 39 H 5.169863 -0.384364 1.488100 0
M  V30 40 H 6.202657 0.594485 -0.422940 0
M  V30 41 H 2.569075 1.689012 -2.008550 0
M  V30 42 H 0.676356 -0.032501 -0.710473 0
M  V30 43 H -1.787479 3.522433 1.325772 0
M  V30 44 H -7.219993 -0.948539 -1.973094 0
M  V30 45 H -6.195914 -2.880509 -3.092948 0
M  V30 46 H -3.802064 -3.135553 -3.036046 0
M  V30 47 H 0.499101 -0.955152 1.392718 0
M  V30 48 H 0.716396 0.227759 2.793054 0
M  V30 END ATOM
M  V30 BEGIN BOND
M  V30 1 1 1 2
M  V30 2 1 2 3
M  V30 3 1 3 4
M  V30 4 1 4 5
M  V30 5 1 5 6
M  V30 6 1 6 7
M  V30 7 2 7 8
M  V30 8 1 8 9
M  V30 9 2 9 10
M  V30 10 1 10 11
M  V30 11 2 11 12
M  V30 12 1 12 13
M  V30 13 1 13 14
M  V30 14 2 14 15
M  V30 15 1 14 16
M  V30 16 2 16 17
M  V30 17 1 17 18
M  V30 18 1 18 19
M  V30 19 1 19 20
M  V30 20 2 20 21
M  V30 21 1 21 22
M  V30 22 1 21 23
M  V30 23 2 23 24
M  V30 24 1 24 25
M  V30 25 2 25 26
M  V30 26 1 26 27
M  V30 27 2 19 28
M  V30 28 1 6 29
M  V30 29 1 29 2
M  V30 30 1 12 7
M  V30 31 1 28 16
M  V30 32 1 26 20
M  V30 33 1 1 30
M  V30 34 1 1 31
M  V30 35 1 2 32 CFG=1
M  V30 36 1 3 33
M  V30 37 1 3 34
M  V30 38 1 4 35
M  V30 39 1 4 36
M  V30 40 1 5 37
M  V30 41 1 5 38
M  V30 42 1 8 39
M  V30 43 1 9 40
M  V30 44 1 11 41
M  V30 45 1 13 42
M  V30 46 1 17 43
M  V30 47 1 23 44
M  V30 48 1 24 45
M  V30 49 1 25 46
M  V30 50 1 29 47
M  V30 51 1 29 48
M  V30 END BOND
M  V30 END CTAB
M  END
>  <Dataset>  (270) 
ChEMBL_Kinases

>  <Ligand_Instance>  (270) 
nan

>  <PDB_ID>  (270) 
nan

>  <Standardized_SMILES>  (270) 
N[C@H]1CCCN(c2ccncc2NC(=O)c2csc(-c3c(F)cccc3F)n2)C1

>  <Name>  (270) 
nan

>  <Pocket>  (270) 
nan

>  <ATP_Site>  (270) 
nan

>  <Peripheral>  (270) 
nan

>  <Num_H_Atoms_ProtBoundConf>  (270) 
nan

>  <Num_Resolved_Atoms>  (270) 
nan

>  <Num_Not_Resolved_Atoms>  (270) 
nan

$$$$
CHEMBL3676269
     RDKit          3D

  0  0  0  0  0  0  0  0  0  0999 V3000
M  V30 BEGIN CTAB
M  V30 COUNTS 52 55 0 0 0
M  V30 BEGIN ATOM
M  V30 1 N 0.989557 2.168334 3.563883 0
M  V30 2 C 1.078005 0.741966 3.598077 0
M  V30 3 C 2.573315 0.405341 3.759918 0
M  V30 4 C 3.286242 0.544721 2.452006 0
M  V30 5 C 4.633452 1.174732 2.724776 0
M  V30 6 O 5.348661 1.334186 1.558166 0
M  V30 7 C 2.588121 1.359795 1.427462 0
M  V30 8 N 1.160614 1.134374 1.298640 0
M  V30 9 C 0.508142 1.919450 0.351604 0
M  V30 10 C 1.147673 2.934929 -0.317999 0
M  V30 11 C 0.531568 3.736192 -1.234821 0
M  V30 12 N -0.778736 3.562227 -1.536445 0
M  V30 13 C -1.493378 2.575053 -0.918458 0
M  V30 14 C -0.811580 1.801256 -0.003433 0
M  V30 15 N -1.647099 0.804277 0.565927 0
M  V30 16 C -1.590413 -0.348836 -0.307804 0
M  V30 17 O -0.836771 -0.136190 -1.291259 0
M  V30 18 C -2.357086 -1.568200 0.006466 0
M  V30 19 C -3.183921 -1.698288 1.158906 0
M  V30 20 S -3.796257 -3.470367 0.861335 0
M  V30 21 C -2.838433 -3.615321 -0.676749 0
M  V30 22 C -2.916369 -4.919016 -1.455349 0
M  V30 23 C -3.684161 -5.950817 -1.010751 0
M  V30 24 F -4.399307 -5.864780 0.122986 0
M  V30 25 C -3.681847 -7.097811 -1.802601 0
M  V30 26 C -2.935021 -7.167775 -2.972989 0
M  V30 27 C -2.172730 -6.075915 -3.368040 0
M  V30 28 C -2.170355 -4.941987 -2.592202 0
M  V30 29 F -1.413693 -3.864899 -2.988891 0
M  V30 30 N -2.284546 -2.612958 -0.820097 0
M  V30 31 C 0.770942 0.118201 2.233050 0
M  V30 32 H 0.477752 2.547855 2.735092 0
M  V30 33 H 0.729937 2.607745 4.453434 0
M  V30 34 H 0.515607 0.301785 4.414852 0
M  V30 35 H 2.964229 1.044370 4.575767 0
M  V30 36 H 2.595566 -0.640102 4.126822 0
M  V30 37 H 3.477229 -0.470860 2.055164 0
M  V30 38 H 4.485952 2.131193 3.266991 0
M  V30 39 H 5.223707 0.500587 3.400356 0
M  V30 40 H 5.985275 0.593770 1.448912 0
M  V30 41 H 3.026459 1.192607 0.424412 0
M  V30 42 H 2.718808 2.445923 1.646645 0
M  V30 43 H 2.193521 3.172074 -0.165565 0
M  V30 44 H 1.034080 4.526389 -1.753872 0
M  V30 45 H -2.532789 2.463745 -1.181292 0
M  V30 46 H -2.242831 0.776166 1.429648 0
M  V30 47 H -3.297871 -0.901312 1.877522 0
M  V30 48 H -4.274201 -7.943133 -1.493516 0
M  V30 49 H -2.932540 -8.064850 -3.593345 0
M  V30 50 H -1.579961 -6.120651 -4.289634 0
M  V30 51 H -0.246937 -0.250683 2.172878 0
M  V30 52 H 1.418757 -0.791035 2.047100 0
M  V30 END ATOM
M  V30 BEGIN BOND
M  V30 1 1 1 2
M  V30 2 1 2 3
M  V30 3 1 3 4
M  V30 4 1 4 5
M  V30 5 1 5 6
M  V30 6 1 4 7
M  V30 7 1 7 8
M  V30 8 1 8 9
M  V30 9 2 9 10
M  V30 10 1 10 11
M  V30 11 2 11 12
M  V30 12 1 12 13
M  V30 13 2 13 14
M  V30 14 1 14 15
M  V30 15 1 15 16
M  V30 16 2 16 17
M  V30 17 1 16 18
M  V30 18 2 18 19
M  V30 19 1 19 20
M  V30 20 1 20 21
M  V30 21 1 21 22
M  V30 22 2 22 23
M  V30 23 1 23 24
M  V30 24 1 23 25
M  V30 25 2 25 26
M  V30 26 1 26 27
M  V30 27 2 27 28
M  V30 28 1 28 29
M  V30 29 2 21 30
M  V30 30 1 8 31
M  V30 31 1 31 2
M  V30 32 1 14 9
M  V30 33 1 30 18
M  V30 34 1 28 22
M  V30 35 1 1 32
M  V30 36 1 1 33
M  V30 37 1 2 34
M  V30 38 1 3 35
M  V30 39 1 3 36
M  V30 40 1 4 37
M  V30 41 1 5 38
M  V30 42 1 5 39
M  V30 43 1 6 40
M  V30 44 1 7 41
M  V30 45 1 7 42
M  V30 46 1 10 43
M  V30 47 1 11 44
M  V30 48 1 13 45
M  V30 49 1 15 46
M  V30 50 1 19 47
M  V30 51 1 25 48
M  V30 52 1 26 49
M  V30 53 1 27 50
M  V30 54 1 31 51
M  V30 55 1 31 52
M  V30 END BOND
M  V30 END CTAB
M  END
>  <Dataset>  (271) 
ChEMBL_Kinases

>  <Ligand_Instance>  (271) 
nan

>  <PDB_ID>  (271) 
nan

>  <Standardized_SMILES>  (271) 
NC1CC(CO)CN(c2ccncc2NC(=O)c2csc(-c3c(F)cccc3F)n2)C1

>  <Name>  (271) 
nan

>  <Pocket>  (271) 
nan

>  <ATP_Site>  (271) 
nan

>  <Peripheral>  (271) 
nan

>  <Num_H_Atoms_ProtBoundConf>  (271) 
nan

>  <Num_Resolved_Atoms>  (271) 
nan

>  <Num_Not_Resolved_Atoms>  (271) 
nan

$$$$
CHEMBL3220494
     RDKit          3D

  0  0  0  0  0  0  0  0  0  0999 V3000
M  V30 BEGIN CTAB
M  V30 COUNTS 42 44 0 0 0
M  V30 BEGIN ATOM
M  V30 1 C 0.578095 -4.925735 3.350610 0
M  V30 2 O 0.682076 -5.354881 2.003287 0
M  V30 3 C 0.746404 -4.431388 0.972115 0
M  V30 4 C 0.710336 -3.088093 1.244914 0
M  V30 5 C 0.776865 -2.206753 0.189630 0
M  V30 6 C 0.877485 -2.566242 -1.127654 0
M  V30 7 N 0.947128 -1.673488 -2.226060 0
M  V30 8 C 0.938752 -0.256289 -2.219355 0
M  V30 9 N 1.007213 0.436449 -3.367431 0
M  V30 10 C 1.004172 1.761378 -3.430481 0
M  V30 11 C 0.929296 2.523596 -2.302132 0
M  V30 12 Cl 0.923544 4.269209 -2.356267 0
M  V30 13 C 0.859091 1.848392 -1.126867 0
M  V30 14 N 0.783981 2.536632 0.127873 0
M  V30 15 C 0.681665 2.121056 1.482618 0
M  V30 16 C 1.694214 2.476152 2.330366 0
M  V30 17 C 1.619320 2.087687 3.643889 0
M  V30 18 C 0.566783 1.359731 4.126262 0
M  V30 19 C -0.491030 0.971805 3.305820 0
M  V30 20 C -0.357994 1.390887 2.002885 0
M  V30 21 C -1.459943 1.006907 1.136086 0
M  V30 22 N -2.595257 0.246461 1.527451 0
M  V30 23 O -1.999137 1.017943 0.011567 0
M  V30 24 N 0.866048 0.510291 -1.125508 0
M  V30 25 C 0.909370 -3.916196 -1.341625 0
M  V30 26 C 0.846616 -4.846513 -0.330208 0
M  V30 27 H 1.384161 -4.224119 3.619848 0
M  V30 28 H 0.621261 -5.827653 4.005123 0
M  V30 29 H -0.381086 -4.437932 3.573638 0
M  V30 30 H 0.631094 -2.751599 2.273365 0
M  V30 31 H 0.744324 -1.178430 0.464071 0
M  V30 32 H 1.014793 -2.121979 -3.187833 0
M  V30 33 H 1.062678 2.251635 -4.403228 0
M  V30 34 H 0.804149 3.597323 0.104100 0
M  V30 35 H 2.534950 3.049999 1.973976 0
M  V30 36 H 2.446419 2.391963 4.282717 0
M  V30 37 H 0.556459 1.078595 5.171201 0
M  V30 38 H -1.333205 0.396368 3.664744 0
M  V30 39 H -3.077527 0.439631 2.435154 0
M  V30 40 H -3.052036 0.473667 2.450732 0
M  V30 41 H 0.987934 -4.319274 -2.349106 0
M  V30 42 H 0.875430 -5.909741 -0.548576 0
M  V30 END ATOM
M  V30 BEGIN BOND
M  V30 1 1 1 2
M  V30 2 1 2 3
M  V30 3 2 3 4
M  V30 4 1 4 5
M  V30 5 2 5 6
M  V30 6 1 6 7
M  V30 7 1 7 8
M  V30 8 2 8 9
M  V30 9 1 9 10
M  V30 10 2 10 11
M  V30 11 1 11 12
M  V30 12 1 11 13
M  V30 13 1 13 14
M  V30 14 1 14 15
M  V30 15 2 15 16
M  V30 16 1 16 17
M  V30 17 2 17 18
M  V30 18 1 18 19
M  V30 19 2 19 20
M  V30 20 1 20 21
M  V30 21 1 21 22
M  V30 22 2 21 23
M  V30 23 2 13 24
M  V30 24 1 6 25
M  V30 25 2 25 26
M  V30 26 1 26 3
M  V30 27 1 24 8
M  V30 28 1 20 15
M  V30 29 1 1 27
M  V30 30 1 1 28
M  V30 31 1 1 29
M  V30 32 1 4 30
M  V30 33 1 5 31
M  V30 34 1 7 32
M  V30 35 1 10 33
M  V30 36 1 14 34
M  V30 37 1 16 35
M  V30 38 1 17 36
M  V30 39 1 18 37
M  V30 40 1 19 38
M  V30 41 1 22 39
M  V30 42 1 22 40
M  V30 43 1 25 41
M  V30 44 1 26 42
M  V30 END BOND
M  V30 END CTAB
M  END
>  <Dataset>  (272) 
ChEMBL_Kinases

>  <Ligand_Instance>  (272) 
nan

>  <PDB_ID>  (272) 
nan

>  <Standardized_SMILES>  (272) 
COc1ccc(Nc2ncc(Cl)c(Nc3ccccc3C(N)=O)n2)cc1

>  <Name>  (272) 
nan

>  <Pocket>  (272) 
nan

>  <ATP_Site>  (272) 
nan

>  <Peripheral>  (272) 
nan

>  <Num_H_Atoms_ProtBoundConf>  (272) 
nan

>  <Num_Resolved_Atoms>  (272) 
nan

>  <Num_Not_Resolved_Atoms>  (272) 
nan

$$$$
CHEMBL3220496
     RDKit          3D

  0  0  0  0  0  0  0  0  0  0999 V3000
M  V30 BEGIN CTAB
M  V30 COUNTS 51 54 0 0 0
M  V30 BEGIN ATOM
M  V30 1 N 3.418050 -1.704346 6.807494 0
M  V30 2 C 3.325324 -1.533104 5.420885 0
M  V30 3 O 2.076493 -1.493429 5.134994 0
M  V30 4 C 4.331064 -1.409998 4.409192 0
M  V30 5 C 5.601780 -1.790400 4.709069 0
M  V30 6 C 6.527815 -1.818119 3.695759 0
M  V30 7 C 6.185355 -1.471900 2.409389 0
M  V30 8 C 4.848396 -1.090471 2.200509 0
M  V30 9 C 3.840021 -1.035694 3.202216 0
M  V30 10 N 2.682802 -0.593842 2.576320 0
M  V30 11 C 1.858915 0.556143 2.443940 0
M  V30 12 N 1.628601 0.645058 1.091210 0
M  V30 13 C 0.909092 1.596996 0.496545 0
M  V30 14 N 0.568238 1.895908 -0.856248 0
M  V30 15 C -0.511673 1.129388 -1.364049 0
M  V30 16 C -1.116868 0.079615 -0.680855 0
M  V30 17 C -2.162858 -0.694688 -1.148430 0
M  V30 18 C -2.645894 -0.381946 -2.429301 0
M  V30 19 N -3.724371 -1.283904 -2.750823 0
M  V30 20 C -5.090280 -0.889106 -3.152966 0
M  V30 21 C -5.887033 -1.113955 -1.847703 0
M  V30 22 O -5.486386 -2.288602 -1.259145 0
M  V30 23 C -4.945547 -3.229113 -2.122044 0
M  V30 24 C -3.661106 -2.736429 -2.749525 0
M  V30 25 C -2.092725 0.645207 -3.163789 0
M  V30 26 C -1.056279 1.353083 -2.603944 0
M  V30 27 F -0.554744 2.334803 -3.369802 0
M  V30 28 N 0.356434 2.550800 1.256544 0
M  V30 29 C 0.511295 2.571537 2.586875 0
M  V30 30 C 1.258976 1.571973 3.128276 0
M  V30 31 Cl 1.565567 1.527711 4.838686 0
M  V30 32 H 2.831627 -2.333038 7.394249 0
M  V30 33 H 4.163269 -1.139599 7.313748 0
M  V30 34 H 5.839092 -2.056782 5.723325 0
M  V30 35 H 7.539759 -2.117875 3.904223 0
M  V30 36 H 6.943674 -1.515994 1.647222 0
M  V30 37 H 4.725720 -0.846425 1.128324 0
M  V30 38 H 2.357374 -1.492218 2.117870 0
M  V30 39 H 1.002705 2.582438 -1.488412 0
M  V30 40 H -0.711509 -0.131741 0.323354 0
M  V30 41 H -2.518192 -1.474599 -0.487035 0
M  V30 42 H -5.141596 0.187581 -3.393472 0
M  V30 43 H -5.497298 -1.495704 -3.955818 0
M  V30 44 H -5.625906 -0.224158 -1.189971 0
M  V30 45 H -6.944086 -1.097584 -2.094088 0
M  V30 46 H -4.684386 -4.107228 -1.471027 0
M  V30 47 H -5.675418 -3.565898 -2.890723 0
M  V30 48 H -2.823469 -3.116652 -2.141791 0
M  V30 49 H -3.636765 -3.134169 -3.790733 0
M  V30 50 H -2.565692 0.769776 -4.122622 0
M  V30 51 H 0.110349 3.283987 3.288757 0
M  V30 END ATOM
M  V30 BEGIN BOND
M  V30 1 1 1 2
M  V30 2 2 2 3
M  V30 3 1 2 4
M  V30 4 2 4 5
M  V30 5 1 5 6
M  V30 6 2 6 7
M  V30 7 1 7 8
M  V30 8 2 8 9
M  V30 9 1 9 10
M  V30 10 1 10 11
M  V30 11 2 11 12
M  V30 12 1 12 13
M  V30 13 1 13 14
M  V30 14 1 14 15
M  V30 15 2 15 16
M  V30 16 1 16 17
M  V30 17 2 17 18
M  V30 18 1 18 19
M  V30 19 1 19 20
M  V30 20 1 20 21
M  V30 21 1 21 22
M  V30 22 1 22 23
M  V30 23 1 23 24
M  V30 24 1 18 25
M  V30 25 2 25 26
M  V30 26 1 26 27
M  V30 27 2 13 28
M  V30 28 1 28 29
M  V30 29 2 29 30
M  V30 30 1 30 31
M  V30 31 1 9 4
M  V30 32 1 30 11
M  V30 33 1 26 15
M  V30 34 1 24 19
M  V30 35 1 1 32
M  V30 36 1 1 33
M  V30 37 1 5 34
M  V30 38 1 6 35
M  V30 39 1 7 36
M  V30 40 1 8 37
M  V30 41 1 10 38
M  V30 42 1 14 39
M  V30 43 1 16 40
M  V30 44 1 17 41
M  V30 45 1 20 42
M  V30 46 1 20 43
M  V30 47 1 21 44
M  V30 48 1 21 45
M  V30 49 1 23 46
M  V30 50 1 23 47
M  V30 51 1 24 48
M  V30 52 1 24 49
M  V30 53 1 25 50
M  V30 54 1 29 51
M  V30 END BOND
M  V30 END CTAB
M  END
>  <Dataset>  (273) 
ChEMBL_Kinases

>  <Ligand_Instance>  (273) 
nan

>  <PDB_ID>  (273) 
nan

>  <Standardized_SMILES>  (273) 
NC(=O)c1ccccc1Nc1nc(Nc2ccc(N3CCOCC3)cc2F)ncc1Cl

>  <Name>  (273) 
nan

>  <Pocket>  (273) 
nan

>  <ATP_Site>  (273) 
nan

>  <Peripheral>  (273) 
nan

>  <Num_H_Atoms_ProtBoundConf>  (273) 
nan

>  <Num_Resolved_Atoms>  (273) 
nan

>  <Num_Not_Resolved_Atoms>  (273) 
nan

$$$$
CHEMBL3220497
     RDKit          3D

  0  0  0  0  0  0  0  0  0  0999 V3000
M  V30 BEGIN CTAB
M  V30 COUNTS 55 58 0 0 0
M  V30 BEGIN ATOM
M  V30 1 C -1.851401 -1.083593 1.898560 0
M  V30 2 O -1.869097 -2.003418 0.830645 0
M  V30 3 C -0.732112 -2.648056 0.466842 0
M  V30 4 C 0.461753 -2.404606 1.146673 0
M  V30 5 C 1.712788 -2.961072 0.924064 0
M  V30 6 N 2.824681 -2.565710 1.697148 0
M  V30 7 C 3.020611 -1.224184 1.223839 0
M  V30 8 N 4.246083 -0.955218 0.725326 0
M  V30 9 C 4.557689 0.264624 0.220876 0
M  V30 10 C 3.649064 1.277713 0.192557 0
M  V30 11 Cl 3.815747 2.897768 -0.397662 0
M  V30 12 C 2.400539 1.015628 0.696956 0
M  V30 13 N 1.225275 1.802833 0.821964 0
M  V30 14 C 1.026116 2.474588 2.051135 0
M  V30 15 C 1.976615 2.367715 3.035185 0
M  V30 16 C 1.715807 3.035314 4.213057 0
M  V30 17 C 0.543433 3.769615 4.363603 0
M  V30 18 C -0.414271 3.880038 3.377364 0
M  V30 19 C -0.123775 3.204114 2.221018 0
M  V30 20 C -1.050269 3.229828 1.120526 0
M  V30 21 N -2.279251 3.910789 1.117397 0
M  V30 22 O -1.162181 2.775491 -0.039934 0
M  V30 23 N 2.098365 -0.217034 1.203153 0
M  V30 24 C 1.700236 -3.869059 -0.131072 0
M  V30 25 C 0.548691 -4.152423 -0.844541 0
M  V30 26 C -0.655186 -3.550956 -0.551204 0
M  V30 27 N -1.788361 -3.907032 -1.326547 0
M  V30 28 C -1.756062 -4.657516 -2.598444 0
M  V30 29 C -2.115790 -3.587116 -3.602401 0
M  V30 30 O -3.234178 -2.880219 -3.378210 0
M  V30 31 C -3.811074 -2.804423 -2.155301 0
M  V30 32 C -3.173407 -3.640067 -1.075648 0
M  V30 33 H -1.143720 -0.252284 1.730032 0
M  V30 34 H -2.890319 -0.749340 2.113419 0
M  V30 35 H -1.492759 -1.580562 2.853482 0
M  V30 36 H 0.400738 -1.677328 1.972360 0
M  V30 37 H 3.358045 -3.088046 2.417804 0
M  V30 38 H 5.535563 0.536301 -0.197946 0
M  V30 39 H 0.826395 1.645425 -0.104094 0
M  V30 40 H 2.891615 1.813519 2.961692 0
M  V30 41 H 2.419969 2.998311 5.035336 0
M  V30 42 H 0.371184 4.289815 5.320358 0
M  V30 43 H -1.309138 4.460334 3.542418 0
M  V30 44 H -2.385590 4.887474 0.711165 0
M  V30 45 H -3.196204 4.355577 1.143141 0
M  V30 46 H 2.689773 -4.322392 -0.320866 0
M  V30 47 H 0.782809 -4.882075 -1.603795 0
M  V30 48 H -2.513538 -5.462522 -2.618626 0
M  V30 49 H -0.745209 -4.996268 -2.797065 0
M  V30 50 H -1.225952 -2.892599 -3.613132 0
M  V30 51 H -2.129183 -4.058248 -4.605172 0
M  V30 52 H -4.886457 -3.051249 -2.279094 0
M  V30 53 H -3.779730 -1.754266 -1.801203 0
M  V30 54 H -3.710794 -4.641087 -1.147700 0
M  V30 55 H -3.429494 -3.313785 -0.052193 0
M  V30 END ATOM
M  V30 BEGIN BOND
M  V30 1 1 1 2
M  V30 2 1 2 3
M  V30 3 2 3 4
M  V30 4 1 4 5
M  V30 5 1 5 6
M  V30 6 1 6 7
M  V30 7 2 7 8
M  V30 8 1 8 9
M  V30 9 2 9 10
M  V30 10 1 10 11
M  V30 11 1 10 12
M  V30 12 1 12 13
M  V30 13 1 13 14
M  V30 14 2 14 15
M  V30 15 1 15 16
M  V30 16 2 16 17
M  V30 17 1 17 18
M  V30 18 2 18 19
M  V30 19 1 19 20
M  V30 20 1 20 21
M  V30 21 2 20 22
M  V30 22 2 12 23
M  V30 23 2 5 24
M  V30 24 1 24 25
M  V30 25 2 25 26
M  V30 26 1 26 27
M  V30 27 1 27 28
M  V30 28 1 28 29
M  V30 29 1 29 30
M  V30 30 1 30 31
M  V30 31 1 31 32
M  V30 32 1 26 3
M  V30 33 1 32 27
M  V30 34 1 23 7
M  V30 35 1 19 14
M  V30 36 1 1 33
M  V30 37 1 1 34
M  V30 38 1 1 35
M  V30 39 1 4 36
M  V30 40 1 6 37
M  V30 41 1 9 38
M  V30 42 1 13 39
M  V30 43 1 15 40
M  V30 44 1 16 41
M  V30 45 1 17 42
M  V30 46 1 18 43
M  V30 47 1 21 44
M  V30 48 1 21 45
M  V30 49 1 24 46
M  V30 50 1 25 47
M  V30 51 1 28 48
M  V30 52 1 28 49
M  V30 53 1 29 50
M  V30 54 1 29 51
M  V30 55 1 31 52
M  V30 56 1 31 53
M  V30 57 1 32 54
M  V30 58 1 32 55
M  V30 END BOND
M  V30 END CTAB
M  END
>  <Dataset>  (274) 
ChEMBL_Kinases

>  <Ligand_Instance>  (274) 
nan

>  <PDB_ID>  (274) 
nan

>  <Standardized_SMILES>  (274) 
COc1cc(Nc2ncc(Cl)c(Nc3ccccc3C(N)=O)n2)ccc1N1CCOCC1

>  <Name>  (274) 
nan

>  <Pocket>  (274) 
nan

>  <ATP_Site>  (274) 
nan

>  <Peripheral>  (274) 
nan

>  <Num_H_Atoms_ProtBoundConf>  (274) 
nan

>  <Num_Resolved_Atoms>  (274) 
nan

>  <Num_Not_Resolved_Atoms>  (274) 
nan

$$$$
CHEMBL3220498
     RDKit          3D

  0  0  0  0  0  0  0  0  0  0999 V3000
M  V30 BEGIN CTAB
M  V30 COUNTS 54 57 0 0 0
M  V30 BEGIN ATOM
M  V30 1 C -1.845607 -1.258741 -1.394417 0
M  V30 2 C -1.373721 -2.345566 -0.527924 0
M  V30 3 C -0.231676 -2.185336 0.228912 0
M  V30 4 C 0.294870 -3.141313 1.071418 0
M  V30 5 N 1.487486 -2.889320 1.808430 0
M  V30 6 C 2.147235 -1.640760 1.642080 0
M  V30 7 N 3.048642 -1.586142 0.618075 0
M  V30 8 C 3.736132 -0.444766 0.370156 0
M  V30 9 C 3.525185 0.688645 1.165321 0
M  V30 10 Cl 4.394600 2.157097 0.906137 0
M  V30 11 C 2.611107 0.606342 2.188984 0
M  V30 12 N 2.257397 1.656146 3.068784 0
M  V30 13 C 2.508766 3.044073 3.138631 0
M  V30 14 C 3.232494 3.621099 4.173792 0
M  V30 15 C 3.517887 4.957978 4.345764 0
M  V30 16 C 3.015556 5.787957 3.365227 0
M  V30 17 C 2.284722 5.311761 2.297842 0
M  V30 18 C 2.049645 3.955420 2.211413 0
M  V30 19 C 1.251970 3.514625 1.084420 0
M  V30 20 N 0.745091 4.391023 0.087271 0
M  V30 21 O 0.825991 2.413494 0.694211 0
M  V30 22 N 1.952183 -0.549533 2.397173 0
M  V30 23 C -0.362078 -4.359803 1.175566 0
M  V30 24 C -1.525398 -4.562520 0.423639 0
M  V30 25 C -2.006892 -3.563280 -0.406719 0
M  V30 26 N -3.201694 -3.818636 -1.161112 0
M  V30 27 C -3.100566 -3.712103 -2.605744 0
M  V30 28 C -3.444832 -5.015277 -3.290269 0
M  V30 29 O -4.622971 -5.567400 -2.828358 0
M  V30 30 C -4.806854 -5.547280 -1.473208 0
M  V30 31 C -4.587273 -4.188340 -0.829747 0
M  V30 32 H -1.287154 -1.224715 -2.359582 0
M  V30 33 H -2.933215 -1.251824 -1.527051 0
M  V30 34 H -1.580498 -0.284095 -0.893643 0
M  V30 35 H 0.314263 -1.241206 0.175836 0
M  V30 36 H 1.845188 -3.637387 2.455354 0
M  V30 37 H 4.452561 -0.392664 -0.441304 0
M  V30 38 H 1.670547 1.514178 3.915223 0
M  V30 39 H 3.630235 2.957312 4.950781 0
M  V30 40 H 4.092298 5.299438 5.195070 0
M  V30 41 H 3.224698 6.850860 3.473697 0
M  V30 42 H 1.936325 6.046351 1.586360 0
M  V30 43 H 1.140612 4.426512 -0.897463 0
M  V30 44 H -0.057880 5.054624 0.279023 0
M  V30 45 H 0.007619 -5.145166 1.821600 0
M  V30 46 H -2.057611 -5.505401 0.486697 0
M  V30 47 H -2.086995 -3.414392 -2.933787 0
M  V30 48 H -3.865195 -2.949901 -2.934655 0
M  V30 49 H -3.615268 -4.767512 -4.363652 0
M  V30 50 H -2.572634 -5.698014 -3.261796 0
M  V30 51 H -5.891986 -5.794679 -1.301373 0
M  V30 52 H -4.227934 -6.298208 -0.919026 0
M  V30 53 H -5.295939 -3.481833 -1.295463 0
M  V30 54 H -4.728478 -4.315276 0.252102 0
M  V30 END ATOM
M  V30 BEGIN BOND
M  V30 1 1 1 2
M  V30 2 2 2 3
M  V30 3 1 3 4
M  V30 4 1 4 5
M  V30 5 1 5 6
M  V30 6 2 6 7
M  V30 7 1 7 8
M  V30 8 2 8 9
M  V30 9 1 9 10
M  V30 10 1 9 11
M  V30 11 1 11 12
M  V30 12 1 12 13
M  V30 13 2 13 14
M  V30 14 1 14 15
M  V30 15 2 15 16
M  V30 16 1 16 17
M  V30 17 2 17 18
M  V30 18 1 18 19
M  V30 19 1 19 20
M  V30 20 2 19 21
M  V30 21 2 11 22
M  V30 22 2 4 23
M  V30 23 1 23 24
M  V30 24 2 24 25
M  V30 25 1 25 26
M  V30 26 1 26 27
M  V30 27 1 27 28
M  V30 28 1 28 29
M  V30 29 1 29 30
M  V30 30 1 30 31
M  V30 31 1 25 2
M  V30 32 1 31 26
M  V30 33 1 22 6
M  V30 34 1 18 13
M  V30 35 1 1 32
M  V30 36 1 1 33
M  V30 37 1 1 34
M  V30 38 1 3 35
M  V30 39 1 5 36
M  V30 40 1 8 37
M  V30 41 1 12 38
M  V30 42 1 14 39
M  V30 43 1 15 40
M  V30 44 1 16 41
M  V30 45 1 17 42
M  V30 46 1 20 43
M  V30 47 1 20 44
M  V30 48 1 23 45
M  V30 49 1 24 46
M  V30 50 1 27 47
M  V30 51 1 27 48
M  V30 52 1 28 49
M  V30 53 1 28 50
M  V30 54 1 30 51
M  V30 55 1 30 52
M  V30 56 1 31 53
M  V30 57 1 31 54
M  V30 END BOND
M  V30 END CTAB
M  END
>  <Dataset>  (275) 
ChEMBL_Kinases

>  <Ligand_Instance>  (275) 
nan

>  <PDB_ID>  (275) 
nan

>  <Standardized_SMILES>  (275) 
Cc1cc(Nc2ncc(Cl)c(Nc3ccccc3C(N)=O)n2)ccc1N1CCOCC1

>  <Name>  (275) 
nan

>  <Pocket>  (275) 
nan

>  <ATP_Site>  (275) 
nan

>  <Peripheral>  (275) 
nan

>  <Num_H_Atoms_ProtBoundConf>  (275) 
nan

>  <Num_Resolved_Atoms>  (275) 
nan

>  <Num_Not_Resolved_Atoms>  (275) 
nan

$$$$
CHEMBL3220499
     RDKit          3D

  0  0  0  0  0  0  0  0  0  0999 V3000
M  V30 BEGIN CTAB
M  V30 COUNTS 51 54 0 0 0
M  V30 BEGIN ATOM
M  V30 1 N 4.605803 0.710991 6.246330 0
M  V30 2 C 3.678116 0.066740 5.364381 0
M  V30 3 O 2.786296 0.849175 5.740979 0
M  V30 4 C 4.094969 -1.047605 4.535116 0
M  V30 5 C 5.405843 -1.436710 4.594216 0
M  V30 6 C 5.681218 -2.490888 3.753738 0
M  V30 7 C 4.759953 -3.106891 2.932989 0
M  V30 8 C 3.458306 -2.652168 2.934897 0
M  V30 9 C 3.098067 -1.580344 3.764530 0
M  V30 10 N 1.741758 -1.250259 3.649188 0
M  V30 11 C 0.863672 -0.197076 3.297290 0
M  V30 12 N 1.022187 0.304861 2.039598 0
M  V30 13 C 0.259907 1.295689 1.570162 0
M  V30 14 N 0.375007 1.853184 0.267318 0
M  V30 15 C -0.428313 1.182308 -0.694110 0
M  V30 16 C -1.223620 0.088525 -0.365855 0
M  V30 17 C -2.014258 -0.570677 -1.311227 0
M  V30 18 C -2.025950 -0.142067 -2.624552 0
M  V30 19 N -2.878643 -0.911038 -3.468839 0
M  V30 20 C -4.021211 -0.415583 -4.238933 0
M  V30 21 C -5.245742 -1.138045 -3.705513 0
M  V30 22 O -5.125135 -2.484994 -3.964359 0
M  V30 23 C -4.039683 -2.983162 -3.223480 0
M  V30 24 C -2.749827 -2.327965 -3.701607 0
M  V30 25 C -1.239157 0.941817 -2.955356 0
M  V30 26 F -1.304768 1.301063 -4.261775 0
M  V30 27 C -0.464752 1.580419 -2.011244 0
M  V30 28 N -0.695552 1.814206 2.368917 0
M  V30 29 C -0.891739 1.346936 3.632587 0
M  V30 30 C -0.102363 0.311296 4.135530 0
M  V30 31 Cl -0.304607 -0.351575 5.744289 0
M  V30 32 H 4.810496 0.560032 7.269852 0
M  V30 33 H 5.265926 1.482073 5.973942 0
M  V30 34 H 6.101059 -0.947530 5.236607 0
M  V30 35 H 6.693459 -2.880707 3.721764 0
M  V30 36 H 5.066009 -3.929206 2.304673 0
M  V30 37 H 2.775613 -3.181377 2.263403 0
M  V30 38 H 1.081109 -2.044222 3.906723 0
M  V30 39 H 0.948180 2.649549 -0.040301 0
M  V30 40 H -1.245041 -0.283395 0.665010 0
M  V30 41 H -2.605000 -1.424100 -0.945821 0
M  V30 42 H -4.178370 0.666446 -4.111302 0
M  V30 43 H -3.822648 -0.651004 -5.291428 0
M  V30 44 H -5.239500 -0.984601 -2.588019 0
M  V30 45 H -6.171919 -0.692732 -4.092334 0
M  V30 46 H -4.242521 -2.754358 -2.152443 0
M  V30 47 H -3.925509 -4.068328 -3.353895 0
M  V30 48 H -1.895491 -2.805062 -3.212400 0
M  V30 49 H -2.703786 -2.566778 -4.793367 0
M  V30 50 H 0.115841 2.416261 -2.375128 0
M  V30 51 H -1.655984 1.752166 4.293921 0
M  V30 END ATOM
M  V30 BEGIN BOND
M  V30 1 1 1 2
M  V30 2 2 2 3
M  V30 3 1 2 4
M  V30 4 2 4 5
M  V30 5 1 5 6
M  V30 6 2 6 7
M  V30 7 1 7 8
M  V30 8 2 8 9
M  V30 9 1 9 10
M  V30 10 1 10 11
M  V30 11 2 11 12
M  V30 12 1 12 13
M  V30 13 1 13 14
M  V30 14 1 14 15
M  V30 15 2 15 16
M  V30 16 1 16 17
M  V30 17 2 17 18
M  V30 18 1 18 19
M  V30 19 1 19 20
M  V30 20 1 20 21
M  V30 21 1 21 22
M  V30 22 1 22 23
M  V30 23 1 23 24
M  V30 24 1 18 25
M  V30 25 1 25 26
M  V30 26 2 25 27
M  V30 27 2 13 28
M  V30 28 1 28 29
M  V30 29 2 29 30
M  V30 30 1 30 31
M  V30 31 1 9 4
M  V30 32 1 30 11
M  V30 33 1 27 15
M  V30 34 1 24 19
M  V30 35 1 1 32
M  V30 36 1 1 33
M  V30 37 1 5 34
M  V30 38 1 6 35
M  V30 39 1 7 36
M  V30 40 1 8 37
M  V30 41 1 10 38
M  V30 42 1 14 39
M  V30 43 1 16 40
M  V30 44 1 17 41
M  V30 45 1 20 42
M  V30 46 1 20 43
M  V30 47 1 21 44
M  V30 48 1 21 45
M  V30 49 1 23 46
M  V30 50 1 23 47
M  V30 51 1 24 48
M  V30 52 1 24 49
M  V30 53 1 27 50
M  V30 54 1 29 51
M  V30 END BOND
M  V30 END CTAB
M  END
>  <Dataset>  (276) 
ChEMBL_Kinases

>  <Ligand_Instance>  (276) 
nan

>  <PDB_ID>  (276) 
nan

>  <Standardized_SMILES>  (276) 
NC(=O)c1ccccc1Nc1nc(Nc2ccc(N3CCOCC3)c(F)c2)ncc1Cl

>  <Name>  (276) 
nan

>  <Pocket>  (276) 
nan

>  <ATP_Site>  (276) 
nan

>  <Peripheral>  (276) 
nan

>  <Num_H_Atoms_ProtBoundConf>  (276) 
nan

>  <Num_Resolved_Atoms>  (276) 
nan

>  <Num_Not_Resolved_Atoms>  (276) 
nan

$$$$
CHEMBL3676268
     RDKit          3D

  0  0  0  0  0  0  0  0  0  0999 V3000
M  V30 BEGIN CTAB
M  V30 COUNTS 54 57 0 0 0
M  V30 BEGIN ATOM
M  V30 1 N 1.823202 -3.139700 4.130447 0
M  V30 2 C 2.344324 -2.767266 2.830242 0 CFG=1
M  V30 3 C 1.139371 -2.574150 1.904928 0
M  V30 4 C 1.615698 -2.308784 0.494908 0
M  V30 5 C 2.996899 -1.740401 0.458905 0
M  V30 6 N 3.178763 -0.895318 1.625193 0
M  V30 7 C 3.415703 0.494094 1.584472 0
M  V30 8 C 4.636869 0.833377 2.179748 0
M  V30 9 C 5.004610 2.184033 2.210482 0
M  V30 10 N 4.227153 3.151087 1.690714 0
M  V30 11 C 3.039177 2.820486 1.111680 0
M  V30 12 C 2.635851 1.502901 1.058533 0
M  V30 13 N 1.413036 1.045806 0.476628 0
M  V30 14 C 0.397901 1.041800 1.473124 0
M  V30 15 O 0.816031 1.431336 2.590198 0
M  V30 16 C -0.989307 0.633511 1.248251 0
M  V30 17 C -1.908775 0.672359 2.314177 0
M  V30 18 S -3.445658 0.050948 1.400809 0
M  V30 19 C -2.542793 -0.121795 -0.174269 0
M  V30 20 C -3.221589 -0.605705 -1.400891 0
M  V30 21 C -4.317338 0.309503 -1.847276 0
M  V30 22 C -5.313361 -0.513354 -2.642894 0
M  V30 23 C -4.576418 -1.539825 -3.493811 0
M  V30 24 C -3.869639 -2.581411 -2.659432 0
M  V30 25 C -3.742391 -2.010300 -1.257494 0
M  V30 26 N -1.389060 0.230215 0.061835 0
M  V30 27 C 3.123397 -1.471670 2.955085 0
M  V30 28 H 2.264939 -2.588033 4.895648 0
M  V30 29 H 0.785950 -3.125423 4.176088 0
M  V30 30 H 2.946063 -3.604148 2.451431 0
M  V30 31 H 0.560834 -3.512968 1.941962 0
M  V30 32 H 0.580777 -1.716671 2.342707 0
M  V30 33 H 1.569263 -3.273799 -0.054945 0
M  V30 34 H 0.859890 -1.657533 0.008668 0
M  V30 35 H 3.263326 -1.247605 -0.473001 0
M  V30 36 H 3.724928 -2.591459 0.578235 0
M  V30 37 H 5.354539 0.154117 2.634060 0
M  V30 38 H 5.951289 2.478846 2.668174 0
M  V30 39 H 2.372462 3.539125 0.679263 0
M  V30 40 H 1.158580 0.736142 -0.489056 0
M  V30 41 H -1.706807 0.988031 3.353318 0
M  V30 42 H -2.455203 -0.619850 -2.206962 0
M  V30 43 H -4.877266 0.769520 -1.010655 0
M  V30 44 H -3.888993 1.096544 -2.488899 0
M  V30 45 H -5.980010 -1.097464 -1.975086 0
M  V30 46 H -5.883309 0.120330 -3.353011 0
M  V30 47 H -3.863112 -1.029777 -4.203861 0
M  V30 48 H -5.321840 -2.015744 -4.172542 0
M  V30 49 H -4.356869 -3.574945 -2.682379 0
M  V30 50 H -2.812092 -2.657668 -3.037859 0
M  V30 51 H -3.001482 -2.624415 -0.693066 0
M  V30 52 H -4.701162 -2.044563 -0.698757 0
M  V30 53 H 4.183468 -1.741581 3.194154 0
M  V30 54 H 2.671139 -0.814236 3.700781 0
M  V30 END ATOM
M  V30 BEGIN BOND
M  V30 1 1 1 2
M  V30 2 1 2 3
M  V30 3 1 3 4
M  V30 4 1 4 5
M  V30 5 1 5 6
M  V30 6 1 6 7
M  V30 7 2 7 8
M  V30 8 1 8 9
M  V30 9 2 9 10
M  V30 10 1 10 11
M  V30 11 2 11 12
M  V30 12 1 12 13
M  V30 13 1 13 14
M  V30 14 2 14 15
M  V30 15 1 14 16
M  V30 16 2 16 17
M  V30 17 1 17 18
M  V30 18 1 18 19
M  V30 19 1 19 20
M  V30 20 1 20 21
M  V30 21 1 21 22
M  V30 22 1 22 23
M  V30 23 1 23 24
M  V30 24 1 24 25
M  V30 25 2 19 26
M  V30 26 1 6 27
M  V30 27 1 27 2
M  V30 28 1 12 7
M  V30 29 1 26 16
M  V30 30 1 25 20
M  V30 31 1 1 28
M  V30 32 1 1 29
M  V30 33 1 2 30 CFG=3
M  V30 34 1 3 31
M  V30 35 1 3 32
M  V30 36 1 4 33
M  V30 37 1 4 34
M  V30 38 1 5 35
M  V30 39 1 5 36
M  V30 40 1 8 37
M  V30 41 1 9 38
M  V30 42 1 11 39
M  V30 43 1 13 40
M  V30 44 1 17 41
M  V30 45 1 20 42
M  V30 46 1 21 43
M  V30 47 1 21 44
M  V30 48 1 22 45
M  V30 49 1 22 46
M  V30 50 1 23 47
M  V30 51 1 23 48
M  V30 52 1 24 49
M  V30 53 1 24 50
M  V30 54 1 25 51
M  V30 55 1 25 52
M  V30 56 1 27 53
M  V30 57 1 27 54
M  V30 END BOND
M  V30 END CTAB
M  END
>  <Dataset>  (277) 
ChEMBL_Kinases

>  <Ligand_Instance>  (277) 
nan

>  <PDB_ID>  (277) 
nan

>  <Standardized_SMILES>  (277) 
N[C@H]1CCCN(c2ccncc2NC(=O)c2csc(C3CCCCC3)n2)C1

>  <Name>  (277) 
nan

>  <Pocket>  (277) 
nan

>  <ATP_Site>  (277) 
nan

>  <Peripheral>  (277) 
nan

>  <Num_H_Atoms_ProtBoundConf>  (277) 
nan

>  <Num_Resolved_Atoms>  (277) 
nan

>  <Num_Not_Resolved_Atoms>  (277) 
nan

$$$$
CHEMBL3220500
     RDKit          3D

  0  0  0  0  0  0  0  0  0  0999 V3000
M  V30 BEGIN CTAB
M  V30 COUNTS 39 41 0 0 0
M  V30 BEGIN ATOM
M  V30 1 N -0.179436 -5.553827 4.390263 0
M  V30 2 C 0.446739 -4.667779 4.000489 0
M  V30 3 C 1.225138 -3.555131 3.533883 0
M  V30 4 C 2.536158 -3.848051 3.158906 0
M  V30 5 C 3.300483 -2.805158 2.681906 0
M  V30 6 C 2.849475 -1.485003 2.554052 0
M  V30 7 N 3.746364 -0.536112 2.031535 0
M  V30 8 C 3.037693 0.093443 0.937708 0
M  V30 9 N 3.786767 0.177911 -0.172238 0
M  V30 10 C 3.365541 0.705140 -1.335185 0
M  V30 11 C 2.063037 1.195391 -1.392111 0
M  V30 12 Cl 1.338929 1.906181 -2.806606 0
M  V30 13 C 1.259033 1.118692 -0.244808 0
M  V30 14 N -0.056572 1.588087 -0.148259 0
M  V30 15 C -1.402365 1.522315 -0.502276 0
M  V30 16 C -2.013134 2.642486 -1.064755 0
M  V30 17 C -3.355844 2.588238 -1.407913 0
M  V30 18 C -4.051402 1.430074 -1.184122 0
M  V30 19 C -3.486258 0.307750 -0.633600 0
M  V30 20 C -2.132120 0.381896 -0.295239 0
M  V30 21 C -1.653024 -0.865465 0.238206 0
M  V30 22 N -2.379181 -2.042445 0.475838 0
M  V30 23 O -0.608558 -1.367421 0.647510 0
M  V30 24 N 1.796690 0.566703 0.869625 0
M  V30 25 C 1.549752 -1.263653 2.944931 0
M  V30 26 C 0.712453 -2.269525 3.434525 0
M  V30 27 H 2.962174 -4.847289 3.225198 0
M  V30 28 H 4.329365 -3.055258 2.404890 0
M  V30 29 H 4.709824 -0.305000 2.352241 0
M  V30 30 H 3.970132 0.779539 -2.227054 0
M  V30 31 H 0.014886 2.406367 0.539128 0
M  V30 32 H -1.427803 3.540784 -1.223969 0
M  V30 33 H -3.868999 3.439648 -1.844960 0
M  V30 34 H -5.091939 1.441239 -1.470602 0
M  V30 35 H -4.130692 -0.551410 -0.502919 0
M  V30 36 H -2.498538 -2.822756 -0.208464 0
M  V30 37 H -2.890337 -2.300588 1.374600 0
M  V30 38 H 1.133088 -0.265045 2.885897 0
M  V30 39 H -0.320555 -2.065773 3.729865 0
M  V30 END ATOM
M  V30 BEGIN BOND
M  V30 1 3 1 2
M  V30 2 1 2 3
M  V30 3 2 3 4
M  V30 4 1 4 5
M  V30 5 2 5 6
M  V30 6 1 6 7
M  V30 7 1 7 8
M  V30 8 2 8 9
M  V30 9 1 9 10
M  V30 10 2 10 11
M  V30 11 1 11 12
M  V30 12 1 11 13
M  V30 13 1 13 14
M  V30 14 1 14 15
M  V30 15 2 15 16
M  V30 16 1 16 17
M  V30 17 2 17 18
M  V30 18 1 18 19
M  V30 19 2 19 20
M  V30 20 1 20 21
M  V30 21 1 21 22
M  V30 22 2 21 23
M  V30 23 2 13 24
M  V30 24 1 6 25
M  V30 25 2 25 26
M  V30 26 1 26 3
M  V30 27 1 24 8
M  V30 28 1 20 15
M  V30 29 1 4 27
M  V30 30 1 5 28
M  V30 31 1 7 29
M  V30 32 1 10 30
M  V30 33 1 14 31
M  V30 34 1 16 32
M  V30 35 1 17 33
M  V30 36 1 18 34
M  V30 37 1 19 35
M  V30 38 1 22 36
M  V30 39 1 22 37
M  V30 40 1 25 38
M  V30 41 1 26 39
M  V30 END BOND
M  V30 END CTAB
M  END
>  <Dataset>  (278) 
ChEMBL_Kinases

>  <Ligand_Instance>  (278) 
nan

>  <PDB_ID>  (278) 
nan

>  <Standardized_SMILES>  (278) 
N#Cc1ccc(Nc2ncc(Cl)c(Nc3ccccc3C(N)=O)n2)cc1

>  <Name>  (278) 
nan

>  <Pocket>  (278) 
nan

>  <ATP_Site>  (278) 
nan

>  <Peripheral>  (278) 
nan

>  <Num_H_Atoms_ProtBoundConf>  (278) 
nan

>  <Num_Resolved_Atoms>  (278) 
nan

>  <Num_Not_Resolved_Atoms>  (278) 
nan

$$$$
CHEMBL3220501
     RDKit          3D

  0  0  0  0  0  0  0  0  0  0999 V3000
M  V30 BEGIN CTAB
M  V30 COUNTS 38 40 0 0 0
M  V30 BEGIN ATOM
M  V30 1 N -0.841958 -3.029308 2.314645 0
M  V30 2 C -0.542975 -2.705028 0.994845 0
M  V30 3 O -1.769934 -2.511824 0.976032 0
M  V30 4 C 0.775996 -2.746223 0.420786 0
M  V30 5 C 1.781727 -3.182502 1.242689 0
M  V30 6 C 3.024560 -3.236038 0.637131 0
M  V30 7 C 3.199162 -2.868770 -0.698827 0
M  V30 8 C 2.125480 -2.434692 -1.467962 0
M  V30 9 C 0.868158 -2.368244 -0.894884 0
M  V30 10 N -0.253745 -1.941035 -1.622757 0
M  V30 11 C -1.088063 -0.825193 -1.422511 0
M  V30 12 N -0.888982 0.073060 -0.482498 0
M  V30 13 C -1.620088 1.159750 -0.216258 0
M  V30 14 N -1.381023 2.113443 0.802007 0
M  V30 15 C -0.322125 2.132277 1.741767 0
M  V30 16 C -0.234439 3.115151 2.698598 0
M  V30 17 C 0.740816 3.231391 3.649364 0
M  V30 18 C 1.741498 2.285709 3.670619 0
M  V30 19 Cl 3.011753 2.361624 4.841766 0
M  V30 20 C 1.717252 1.272316 2.741500 0
M  V30 21 C 0.703230 1.214603 1.809472 0
M  V30 22 N -2.675361 1.314342 -1.030451 0
M  V30 23 C -2.961620 0.455839 -2.014791 0
M  V30 24 C -2.173532 -0.650281 -2.246556 0
M  V30 25 Cl -2.596954 -1.739452 -3.548949 0
M  V30 26 H -0.988564 -3.215047 3.313659 0
M  V30 27 H -0.499616 -2.846396 3.297083 0
M  V30 28 H 1.629665 -3.462685 2.274471 0
M  V30 29 H 3.901485 -3.564772 1.178142 0
M  V30 30 H 4.148947 -2.897496 -1.203924 0
M  V30 31 H 2.271889 -2.151829 -2.502125 0
M  V30 32 H -0.408200 -2.609685 -2.398104 0
M  V30 33 H -2.065168 2.909156 0.880883 0
M  V30 34 H -1.003970 3.892760 2.728095 0
M  V30 35 H 0.741710 4.036132 4.370563 0
M  V30 36 H 2.503452 0.522636 2.752384 0
M  V30 37 H 0.751020 0.397211 1.117166 0
M  V30 38 H -3.846763 0.677967 -2.620890 0
M  V30 END ATOM
M  V30 BEGIN BOND
M  V30 1 1 1 2
M  V30 2 2 2 3
M  V30 3 1 2 4
M  V30 4 2 4 5
M  V30 5 1 5 6
M  V30 6 2 6 7
M  V30 7 1 7 8
M  V30 8 2 8 9
M  V30 9 1 9 10
M  V30 10 1 10 11
M  V30 11 2 11 12
M  V30 12 1 12 13
M  V30 13 1 13 14
M  V30 14 1 14 15
M  V30 15 2 15 16
M  V30 16 1 16 17
M  V30 17 2 17 18
M  V30 18 1 18 19
M  V30 19 1 18 20
M  V30 20 2 20 21
M  V30 21 2 13 22
M  V30 22 1 22 23
M  V30 23 2 23 24
M  V30 24 1 24 25
M  V30 25 1 9 4
M  V30 26 1 24 11
M  V30 27 1 21 15
M  V30 28 1 1 26
M  V30 29 1 1 27
M  V30 30 1 5 28
M  V30 31 1 6 29
M  V30 32 1 7 30
M  V30 33 1 8 31
M  V30 34 1 10 32
M  V30 35 1 14 33
M  V30 36 1 16 34
M  V30 37 1 17 35
M  V30 38 1 20 36
M  V30 39 1 21 37
M  V30 40 1 23 38
M  V30 END BOND
M  V30 END CTAB
M  END
>  <Dataset>  (279) 
ChEMBL_Kinases

>  <Ligand_Instance>  (279) 
nan

>  <PDB_ID>  (279) 
nan

>  <Standardized_SMILES>  (279) 
NC(=O)c1ccccc1Nc1nc(Nc2ccc(Cl)cc2)ncc1Cl

>  <Name>  (279) 
nan

>  <Pocket>  (279) 
nan

>  <ATP_Site>  (279) 
nan

>  <Peripheral>  (279) 
nan

>  <Num_H_Atoms_ProtBoundConf>  (279) 
nan

>  <Num_Resolved_Atoms>  (279) 
nan

>  <Num_Not_Resolved_Atoms>  (279) 
nan

$$$$
CHEMBL3221816
     RDKit          3D

  0  0  0  0  0  0  0  0  0  0999 V3000
M  V30 BEGIN CTAB
M  V30 COUNTS 56 59 0 0 0
M  V30 BEGIN ATOM
M  V30 1 C 2.845911 -4.091812 6.465482 0
M  V30 2 O 4.110114 -3.846077 5.864590 0
M  V30 3 C 4.183472 -2.937344 4.818250 0
M  V30 4 C 5.379177 -2.658492 4.197523 0
M  V30 5 C 5.519017 -1.756554 3.141888 0
M  V30 6 C 4.386445 -1.094886 2.682931 0
M  V30 7 C 3.176440 -1.365082 3.297525 0
M  V30 8 C 3.068416 -2.272869 4.351652 0
M  V30 9 C 1.932571 -0.685601 2.846891 0
M  V30 10 C 2.100555 -0.455535 1.359979 0 CFG=1
M  V30 11 C 0.858532 0.050873 0.746395 0
M  V30 12 O -0.031185 0.159119 1.630526 0
M  V30 13 N 0.816676 0.329617 -0.635100 0
M  V30 14 C -0.470984 0.816557 -1.073065 0
M  V30 15 C -0.575772 2.201132 -1.002531 0
M  V30 16 C -1.743507 2.828407 -1.385028 0
M  V30 17 C -2.787032 2.048651 -1.832680 0
M  V30 18 C -4.065518 2.621107 -2.260095 0
M  V30 19 C -4.976908 2.189476 -3.211878 0
M  V30 20 N -5.996935 3.068064 -3.227511 0
M  V30 21 N -5.788956 4.042395 -2.335191 0
M  V30 22 C -4.615064 3.791473 -1.731251 0
M  V30 23 C -2.694093 0.659417 -1.908024 0
M  V30 24 C -1.521912 0.042880 -1.523018 0
M  V30 25 O -1.295677 -1.342894 -1.548780 0
M  V30 26 C -2.373440 -2.148902 -2.011327 0
M  V30 27 C -2.052056 -3.610139 -2.007634 0
M  V30 28 C -3.270005 -4.343850 -2.516712 0
M  V30 29 O -3.571308 -3.917527 -3.810038 0
M  V30 30 C 3.258122 0.515421 1.203182 0
M  V30 31 O 4.422205 -0.180229 1.639472 0
M  V30 32 H 2.181204 -4.409951 5.622480 0
M  V30 33 H 2.921536 -4.918033 7.204486 0
M  V30 34 H 2.401802 -3.206922 6.943752 0
M  V30 35 H 6.264712 -3.184285 4.565870 0
M  V30 36 H 6.470954 -1.554697 2.670550 0
M  V30 37 H 2.110191 -2.485406 4.836846 0
M  V30 38 H 1.943737 0.315501 3.350209 0
M  V30 39 H 1.023879 -1.262017 3.084399 0
M  V30 40 H 2.463016 -1.417602 0.928991 0
M  V30 41 H 1.694922 0.162186 -1.192873 0
M  V30 42 H 0.229060 2.852168 -0.653219 0
M  V30 43 H -1.847442 3.915176 -1.337603 0
M  V30 44 H -4.802812 1.294057 -3.783977 0
M  V30 45 H -6.469351 4.843207 -2.180116 0
M  V30 46 H -4.182590 4.417640 -0.954819 0
M  V30 47 H -3.496730 0.012840 -2.256069 0
M  V30 48 H -2.627614 -1.884239 -3.071718 0
M  V30 49 H -3.303568 -1.943397 -1.415277 0
M  V30 50 H -1.176830 -3.765740 -2.685012 0
M  V30 51 H -1.789474 -3.991199 -1.016063 0
M  V30 52 H -3.085443 -5.420112 -2.555211 0
M  V30 53 H -4.114758 -4.073816 -1.853450 0
M  V30 54 H -2.821756 -3.954856 -4.426327 0
M  V30 55 H 3.354720 0.854104 0.156357 0
M  V30 56 H 3.054838 1.342733 1.914217 0
M  V30 END ATOM
M  V30 BEGIN BOND
M  V30 1 1 1 2
M  V30 2 1 2 3
M  V30 3 2 3 4
M  V30 4 1 4 5
M  V30 5 2 5 6
M  V30 6 1 6 7
M  V30 7 2 7 8
M  V30 8 1 7 9
M  V30 9 1 9 10
M  V30 10 1 10 11
M  V30 11 2 11 12
M  V30 12 1 11 13
M  V30 13 1 13 14
M  V30 14 2 14 15
M  V30 15 1 15 16
M  V30 16 2 16 17
M  V30 17 1 17 18
M  V30 18 1 18 19
M  V30 19 2 19 20
M  V30 20 1 20 21
M  V30 21 1 21 22
M  V30 22 1 17 23
M  V30 23 2 23 24
M  V30 24 1 24 25
M  V30 25 1 25 26
M  V30 26 1 26 27
M  V30 27 1 27 28
M  V30 28 1 28 29
M  V30 29 1 10 30
M  V30 30 1 30 31
M  V30 31 1 8 3
M  V30 32 1 24 14
M  V30 33 1 31 6
M  V30 34 2 22 18
M  V30 35 1 1 32
M  V30 36 1 1 33
M  V30 37 1 1 34
M  V30 38 1 4 35
M  V30 39 1 5 36
M  V30 40 1 8 37
M  V30 41 1 9 38
M  V30 42 1 9 39
M  V30 43 1 10 40 CFG=3
M  V30 44 1 13 41
M  V30 45 1 15 42
M  V30 46 1 16 43
M  V30 47 1 19 44
M  V30 48 1 21 45
M  V30 49 1 22 46
M  V30 50 1 23 47
M  V30 51 1 26 48
M  V30 52 1 26 49
M  V30 53 1 27 50
M  V30 54 1 27 51
M  V30 55 1 28 52
M  V30 56 1 28 53
M  V30 57 1 29 54
M  V30 58 1 30 55
M  V30 59 1 30 56
M  V30 END BOND
M  V30 END CTAB
M  END
>  <Dataset>  (280) 
ChEMBL_Kinases

>  <Ligand_Instance>  (280) 
nan

>  <PDB_ID>  (280) 
nan

>  <Standardized_SMILES>  (280) 
COc1ccc2c(c1)C[C@@H](C(=O)Nc1ccc(-c3cn[nH]c3)cc1OCCCO)CO2

>  <Name>  (280) 
nan

>  <Pocket>  (280) 
nan

>  <ATP_Site>  (280) 
nan

>  <Peripheral>  (280) 
nan

>  <Num_H_Atoms_ProtBoundConf>  (280) 
nan

>  <Num_Resolved_Atoms>  (280) 
nan

>  <Num_Not_Resolved_Atoms>  (280) 
nan

$$$$
CHEMBL4217426
     RDKit          3D

  0  0  0  0  0  0  0  0  0  0999 V3000
M  V30 BEGIN CTAB
M  V30 COUNTS 55 60 0 0 0
M  V30 BEGIN ATOM
M  V30 1 O 3.953466 -3.919845 2.568867 0
M  V30 2 C 3.127143 -3.061628 2.291385 0
M  V30 3 C 1.739235 -3.283987 2.809964 0
M  V30 4 C 0.994204 -1.962535 2.773669 0
M  V30 5 N 1.321621 -1.270441 1.540664 0
M  V30 6 C 0.431397 -1.117041 0.426625 0
M  V30 7 N 0.575163 -0.215649 -0.564707 0
M  V30 8 C -0.302987 -0.167997 -1.586446 0
M  V30 9 N -0.105160 0.802067 -2.630721 0
M  V30 10 C 1.003435 1.726212 -2.559597 0
M  V30 11 C 0.918321 2.604725 -1.360116 0
M  V30 12 N 1.410198 2.396066 -0.104298 0
M  V30 13 C 1.072975 3.491341 0.642468 0
M  V30 14 C 1.360648 3.730855 1.991978 0
M  V30 15 F 2.038669 2.893289 2.802448 0
M  V30 16 C 0.851624 4.952152 2.393276 0
M  V30 17 F 1.068919 5.299775 3.702151 0
M  V30 18 C 0.150271 5.880209 1.666567 0
M  V30 19 C -0.091629 5.560104 0.331527 0
M  V30 20 C 0.376226 4.361601 -0.164562 0
M  V30 21 N 0.287292 3.805593 -1.392257 0
M  V30 22 C -1.357760 -1.064201 -1.599667 0
M  V30 23 N -2.382829 -1.266224 -2.469882 0
M  V30 24 C -3.122234 -2.295513 -1.971395 0
M  V30 25 N -2.576150 -2.726215 -0.821677 0
M  V30 26 C -2.990358 -3.778379 0.046834 0
M  V30 27 C -2.641403 -4.981479 -0.558411 0
M  V30 28 C -2.930935 -6.199915 0.084255 0
M  V30 29 C -3.572157 -6.212094 1.335907 0
M  V30 30 C -3.876508 -4.974797 1.851854 0
M  V30 31 F -4.495240 -4.885895 3.056555 0
M  V30 32 C -3.623095 -3.762730 1.281946 0
M  V30 33 C -1.472111 -1.977016 -0.561870 0
M  V30 34 N -0.588584 -2.020355 0.462303 0
M  V30 35 C 2.686725 -0.733369 1.487244 0
M  V30 36 C 3.648198 -1.920025 1.469331 0
M  V30 37 H 1.199125 -4.083437 2.260916 0
M  V30 38 H 1.857340 -3.663851 3.850630 0
M  V30 39 H 1.425217 -1.339381 3.615798 0
M  V30 40 H -0.082438 -2.071701 2.960494 0
M  V30 41 H -0.781859 0.812573 -3.423333 0
M  V30 42 H 1.947191 1.188495 -2.546818 0
M  V30 43 H 0.990536 2.352437 -3.477054 0
M  V30 44 H -0.199508 6.802729 2.074758 0
M  V30 45 H -0.632683 6.255024 -0.259227 0
M  V30 46 H -0.188135 4.238905 -2.212372 0
M  V30 47 H -4.022090 -2.715954 -2.424690 0
M  V30 48 H -2.157789 -5.187203 -1.485694 0
M  V30 49 H -2.705532 -7.187717 -0.287514 0
M  V30 50 H -3.825866 -7.108088 1.884338 0
M  V30 51 H -3.815082 -2.753702 1.592867 0
M  V30 52 H 2.836309 -0.182661 2.435211 0
M  V30 53 H 2.826348 -0.098184 0.588615 0
M  V30 54 H 3.748257 -2.267451 0.406963 0
M  V30 55 H 4.639149 -1.638424 1.881149 0
M  V30 END ATOM
M  V30 BEGIN BOND
M  V30 1 2 1 2
M  V30 2 1 2 3
M  V30 3 1 3 4
M  V30 4 1 4 5
M  V30 5 1 5 6
M  V30 6 2 6 7
M  V30 7 1 7 8
M  V30 8 1 8 9
M  V30 9 1 9 10
M  V30 10 1 10 11
M  V30 11 2 11 12
M  V30 12 1 12 13
M  V30 13 2 13 14
M  V30 14 1 14 15
M  V30 15 1 14 16
M  V30 16 1 16 17
M  V30 17 2 16 18
M  V30 18 1 18 19
M  V30 19 2 19 20
M  V30 20 1 20 21
M  V30 21 2 8 22
M  V30 22 1 22 23
M  V30 23 2 23 24
M  V30 24 1 24 25
M  V30 25 1 25 26
M  V30 26 2 26 27
M  V30 27 1 27 28
M  V30 28 2 28 29
M  V30 29 1 29 30
M  V30 30 1 30 31
M  V30 31 2 30 32
M  V30 32 1 25 33
M  V30 33 2 33 34
M  V30 34 1 5 35
M  V30 35 1 35 36
M  V30 36 1 36 2
M  V30 37 1 34 6
M  V30 38 1 21 11
M  V30 39 1 33 22
M  V30 40 1 20 13
M  V30 41 1 32 26
M  V30 42 1 3 37
M  V30 43 1 3 38
M  V30 44 1 4 39
M  V30 45 1 4 40
M  V30 46 1 9 41
M  V30 47 1 10 42
M  V30 48 1 10 43
M  V30 49 1 18 44
M  V30 50 1 19 45
M  V30 51 1 21 46
M  V30 52 1 24 47
M  V30 53 1 27 48
M  V30 54 1 28 49
M  V30 55 1 29 50
M  V30 56 1 32 51
M  V30 57 1 35 52
M  V30 58 1 35 53
M  V30 59 1 36 54
M  V30 60 1 36 55
M  V30 END BOND
M  V30 END CTAB
M  END
>  <Dataset>  (281) 
ChEMBL_Kinases

>  <Ligand_Instance>  (281) 
nan

>  <PDB_ID>  (281) 
nan

>  <Standardized_SMILES>  (281) 
O=C1CCN(c2nc(NCc3nc4c(F)c(F)ccc4[nH]3)c3ncn(-c4cccc(F)c4)c3n2)CC1

>  <Name>  (281) 
nan

>  <Pocket>  (281) 
nan

>  <ATP_Site>  (281) 
nan

>  <Peripheral>  (281) 
nan

>  <Num_H_Atoms_ProtBoundConf>  (281) 
nan

>  <Num_Resolved_Atoms>  (281) 
nan

>  <Num_Not_Resolved_Atoms>  (281) 
nan

$$$$
CHEMBL4217366
     RDKit          3D

  0  0  0  0  0  0  0  0  0  0999 V3000
M  V30 BEGIN CTAB
M  V30 COUNTS 56 60 0 0 0
M  V30 BEGIN ATOM
M  V30 1 C 6.085785 -3.018344 1.412521 0
M  V30 2 N 5.889419 -3.490778 0.095886 0
M  V30 3 C 4.644382 -4.091024 -0.171657 0
M  V30 4 C 3.595733 -3.172390 -0.727098 0
M  V30 5 N 4.215389 -2.054439 -1.393532 0
M  V30 6 C 3.833910 -0.663799 -1.520267 0
M  V30 7 O 4.531334 0.140779 -2.160933 0
M  V30 8 C 2.577137 -0.298095 -0.839744 0
M  V30 9 C 2.838782 0.562764 0.220033 0
M  V30 10 C 1.793048 1.045706 1.007294 0
M  V30 11 C 0.485584 0.683857 0.754664 0
M  V30 12 C -0.576131 1.206939 1.604823 0
M  V30 13 C -1.907722 0.897473 1.413955 0
M  V30 14 N -2.806275 1.460420 2.284066 0
M  V30 15 C -4.140875 1.309104 2.290092 0
M  V30 16 C -5.065390 0.569395 1.460711 0
M  V30 17 C -4.885877 -0.758163 1.069081 0
M  V30 18 C -5.838769 -1.348636 0.270803 0
M  V30 19 C -6.977400 -0.729161 -0.184407 0
M  V30 20 C -7.946720 -1.409512 -1.029948 0
M  V30 21 O -7.714777 -2.612820 -1.339908 0
M  V30 22 O -9.079390 -0.769160 -1.480313 0
M  V30 23 C -7.124199 0.577029 0.218626 0
M  V30 24 C -6.199337 1.214576 1.017871 0
M  V30 25 C -4.603394 2.078372 3.354027 0
M  V30 26 N -3.539863 2.639500 3.919554 0
M  V30 27 C -2.415989 2.273705 3.277078 0
M  V30 28 C -1.090781 2.575626 3.459732 0
M  V30 29 N -0.213253 2.026101 2.608686 0
M  V30 30 C 0.280789 -0.168917 -0.304435 0
M  V30 31 C 1.277959 -0.674025 -1.111855 0
M  V30 32 C 5.478430 -2.433439 -2.056047 0
M  V30 33 C 6.489079 -2.728449 -0.943491 0
M  V30 34 H 5.109122 -2.815386 1.931291 0
M  V30 35 H 6.638057 -3.732837 2.075546 0
M  V30 36 H 6.709235 -2.081722 1.397101 0
M  V30 37 H 4.271049 -4.564478 0.777776 0
M  V30 38 H 4.741659 -4.984258 -0.875855 0
M  V30 39 H 2.979611 -3.781815 -1.453374 0
M  V30 40 H 2.941363 -2.824505 0.116107 0
M  V30 41 H 3.832065 0.925489 0.524646 0
M  V30 42 H 2.010974 1.720875 1.840501 0
M  V30 43 H -2.224296 0.243277 0.612647 0
M  V30 44 H -3.986864 -1.228098 1.434052 0
M  V30 45 H -5.661426 -2.378651 -0.010735 0
M  V30 46 H -9.778880 -1.201979 -2.089834 0
M  V30 47 H -8.017675 1.109303 -0.121840 0
M  V30 48 H -6.433874 2.253769 1.265389 0
M  V30 49 H -5.584584 2.293722 3.783404 0
M  V30 50 H -0.743899 3.230342 4.255503 0
M  V30 51 H -0.725537 -0.481917 -0.545188 0
M  V30 52 H 1.191231 -1.336469 -1.944352 0
M  V30 53 H 5.391799 -3.355213 -2.627422 0
M  V30 54 H 5.884671 -1.641622 -2.676178 0
M  V30 55 H 7.329593 -3.280430 -1.405225 0
M  V30 56 H 6.859494 -1.733456 -0.616981 0
M  V30 END ATOM
M  V30 BEGIN BOND
M  V30 1 1 1 2
M  V30 2 1 2 3
M  V30 3 1 3 4
M  V30 4 1 4 5
M  V30 5 1 5 6
M  V30 6 2 6 7
M  V30 7 1 6 8
M  V30 8 2 8 9
M  V30 9 1 9 10
M  V30 10 2 10 11
M  V30 11 1 11 12
M  V30 12 2 12 13
M  V30 13 1 13 14
M  V30 14 1 14 15
M  V30 15 1 15 16
M  V30 16 2 16 17
M  V30 17 1 17 18
M  V30 18 2 18 19
M  V30 19 1 19 20
M  V30 20 2 20 21
M  V30 21 1 20 22
M  V30 22 1 19 23
M  V30 23 2 23 24
M  V30 24 2 15 25
M  V30 25 1 25 26
M  V30 26 2 26 27
M  V30 27 1 27 28
M  V30 28 2 28 29
M  V30 29 1 11 30
M  V30 30 2 30 31
M  V30 31 1 5 32
M  V30 32 1 32 33
M  V30 33 1 33 2
M  V30 34 1 31 8
M  V30 35 1 29 12
M  V30 36 1 27 14
M  V30 37 1 24 16
M  V30 38 1 1 34
M  V30 39 1 1 35
M  V30 40 1 1 36
M  V30 41 1 3 37
M  V30 42 1 3 38
M  V30 43 1 4 39
M  V30 44 1 4 40
M  V30 45 1 9 41
M  V30 46 1 10 42
M  V30 47 1 13 43
M  V30 48 1 17 44
M  V30 49 1 18 45
M  V30 50 1 22 46
M  V30 51 1 23 47
M  V30 52 1 24 48
M  V30 53 1 25 49
M  V30 54 1 28 50
M  V30 55 1 30 51
M  V30 56 1 31 52
M  V30 57 1 32 53
M  V30 58 1 32 54
M  V30 59 1 33 55
M  V30 60 1 33 56
M  V30 END BOND
M  V30 END CTAB
M  END
>  <Dataset>  (282) 
ChEMBL_Kinases

>  <Ligand_Instance>  (282) 
nan

>  <PDB_ID>  (282) 
nan

>  <Standardized_SMILES>  (282) 
CN1CCN(C(=O)c2ccc(-c3cn4c(-c5ccc(C(=O)O)cc5)cnc4cn3)cc2)CC1

>  <Name>  (282) 
nan

>  <Pocket>  (282) 
nan

>  <ATP_Site>  (282) 
nan

>  <Peripheral>  (282) 
nan

>  <Num_H_Atoms_ProtBoundConf>  (282) 
nan

>  <Num_Resolved_Atoms>  (282) 
nan

>  <Num_Not_Resolved_Atoms>  (282) 
nan

$$$$
CHEMBL4217142
     RDKit          3D

  0  0  0  0  0  0  0  0  0  0999 V3000
M  V30 BEGIN CTAB
M  V30 COUNTS 57 62 0 0 0
M  V30 BEGIN ATOM
M  V30 1 C 3.716953 -2.981983 2.663270 0
M  V30 2 C 4.483412 -2.398028 1.558918 0
M  V30 3 C 5.651039 -2.976953 1.145155 0
M  V30 4 C 6.352128 -2.389588 0.089132 0
M  V30 5 C 5.877931 -1.233883 -0.538072 0
M  V30 6 C 4.689342 -0.651640 -0.110855 0
M  V30 7 C 4.027562 -1.255196 0.928496 0
M  V30 8 N 2.821086 -0.610022 1.315995 0
M  V30 9 C 2.483467 -0.044842 2.487405 0
M  V30 10 N 1.240250 0.459196 2.440553 0
M  V30 11 C 0.697750 0.239454 1.204451 0
M  V30 12 C -0.494528 0.481524 0.491663 0
M  V30 13 N -1.353340 1.165638 1.376503 0
M  V30 14 C -2.211797 1.846313 2.252314 0
M  V30 15 C -3.454479 1.044057 2.508013 0
M  V30 16 N -4.608219 1.091811 1.801535 0
M  V30 17 C -5.495591 0.240098 2.317684 0
M  V30 18 C -6.784777 -0.126067 2.029032 0
M  V30 19 F -7.436683 0.436382 0.991380 0
M  V30 20 C -7.377084 -1.078802 2.832139 0
M  V30 21 F -8.650659 -1.417954 2.519933 0
M  V30 22 C -6.744751 -1.683772 3.909490 0
M  V30 23 C -5.439592 -1.286304 4.169807 0
M  V30 24 C -4.838013 -0.331320 3.369195 0
M  V30 25 N -3.592925 0.136341 3.512416 0
M  V30 26 N -0.581578 0.059341 -0.776528 0
M  V30 27 C 0.404844 -0.580192 -1.401485 0
M  V30 28 N 0.127006 -0.946748 -2.740584 0
M  V30 29 C -1.136896 -0.641605 -3.368504 0
M  V30 30 C -0.919126 -0.316585 -4.809744 0
M  V30 31 O 0.063845 -1.083229 -5.419961 0
M  V30 32 C 1.286812 -0.993466 -4.801849 0
M  V30 33 C 1.195414 -1.642334 -3.419570 0
M  V30 34 N 1.517148 -0.794631 -0.704990 0
M  V30 35 C 1.732841 -0.431894 0.547800 0
M  V30 36 H 4.216921 -2.744232 3.617785 0
M  V30 37 H 3.634859 -4.103578 2.619911 0
M  V30 38 H 2.674905 -2.626628 2.721447 0
M  V30 39 H 6.065812 -3.878376 1.599424 0
M  V30 40 H 7.294863 -2.786514 -0.306151 0
M  V30 41 H 6.434503 -0.802054 -1.346800 0
M  V30 42 H 4.364931 0.233333 -0.621719 0
M  V30 43 H 3.115451 0.007484 3.363439 0
M  V30 44 H -2.124811 1.239169 0.644056 0
M  V30 45 H -1.684941 1.949648 3.280355 0
M  V30 46 H -2.512613 2.871209 1.936673 0
M  V30 47 H -7.306962 -2.409062 4.458204 0
M  V30 48 H -4.998187 -1.787861 5.016287 0
M  V30 49 H -2.854941 -0.088716 4.195845 0
M  V30 50 H -1.868002 -1.490957 -3.233280 0
M  V30 51 H -1.608817 0.251439 -2.867656 0
M  V30 52 H -1.877625 -0.589730 -5.340663 0
M  V30 53 H -0.797372 0.759172 -4.956211 0
M  V30 54 H 2.007439 -1.571642 -5.383050 0
M  V30 55 H 1.630258 0.032075 -4.626989 0
M  V30 56 H 2.149607 -1.582270 -2.899808 0
M  V30 57 H 0.857942 -2.698773 -3.550146 0
M  V30 END ATOM
M  V30 BEGIN BOND
M  V30 1 1 1 2
M  V30 2 2 2 3
M  V30 3 1 3 4
M  V30 4 2 4 5
M  V30 5 1 5 6
M  V30 6 2 6 7
M  V30 7 1 7 8
M  V30 8 1 8 9
M  V30 9 2 9 10
M  V30 10 1 10 11
M  V30 11 2 11 12
M  V30 12 1 12 13
M  V30 13 1 13 14
M  V30 14 1 14 15
M  V30 15 2 15 16
M  V30 16 1 16 17
M  V30 17 2 17 18
M  V30 18 1 18 19
M  V30 19 1 18 20
M  V30 20 1 20 21
M  V30 21 2 20 22
M  V30 22 1 22 23
M  V30 23 2 23 24
M  V30 24 1 24 25
M  V30 25 1 12 26
M  V30 26 2 26 27
M  V30 27 1 27 28
M  V30 28 1 28 29
M  V30 29 1 29 30
M  V30 30 1 30 31
M  V30 31 1 31 32
M  V30 32 1 32 33
M  V30 33 1 27 34
M  V30 34 2 34 35
M  V30 35 1 7 2
M  V30 36 1 35 8
M  V30 37 1 35 11
M  V30 38 1 25 15
M  V30 39 1 33 28
M  V30 40 1 24 17
M  V30 41 1 1 36
M  V30 42 1 1 37
M  V30 43 1 1 38
M  V30 44 1 3 39
M  V30 45 1 4 40
M  V30 46 1 5 41
M  V30 47 1 6 42
M  V30 48 1 9 43
M  V30 49 1 13 44
M  V30 50 1 14 45
M  V30 51 1 14 46
M  V30 52 1 22 47
M  V30 53 1 23 48
M  V30 54 1 25 49
M  V30 55 1 29 50
M  V30 56 1 29 51
M  V30 57 1 30 52
M  V30 58 1 30 53
M  V30 59 1 32 54
M  V30 60 1 32 55
M  V30 61 1 33 56
M  V30 62 1 33 57
M  V30 END BOND
M  V30 END CTAB
M  END
>  <Dataset>  (283) 
ChEMBL_Kinases

>  <Ligand_Instance>  (283) 
nan

>  <PDB_ID>  (283) 
nan

>  <Standardized_SMILES>  (283) 
Cc1ccccc1-n1cnc2c(NCc3nc4c(F)c(F)ccc4[nH]3)nc(N3CCOCC3)nc21

>  <Name>  (283) 
nan

>  <Pocket>  (283) 
nan

>  <ATP_Site>  (283) 
nan

>  <Peripheral>  (283) 
nan

>  <Num_H_Atoms_ProtBoundConf>  (283) 
nan

>  <Num_Resolved_Atoms>  (283) 
nan

>  <Num_Not_Resolved_Atoms>  (283) 
nan

$$$$
CHEMBL3676266
     RDKit          3D

  0  0  0  0  0  0  0  0  0  0999 V3000
M  V30 BEGIN CTAB
M  V30 COUNTS 61 65 0 0 0
M  V30 BEGIN ATOM
M  V30 1 N 2.844645 1.841930 2.306075 0
M  V30 2 C 1.793148 1.291112 3.103388 0 CFG=1
M  V30 3 C 0.469641 1.970728 2.749145 0
M  V30 4 C 0.126980 1.588131 1.355330 0 CFG=2
M  V30 5 O -1.026069 2.236796 0.864750 0
M  V30 6 C -1.114932 3.056147 -0.228899 0
M  V30 7 O -0.179009 3.383907 -1.003310 0
M  V30 8 C -2.447966 3.602901 -0.515541 0
M  V30 9 C -2.700405 4.451060 -1.570234 0
M  V30 10 C -3.925278 4.995195 -1.888520 0
M  V30 11 C -5.008625 4.662475 -1.075635 0
M  V30 12 C -4.793199 3.816874 -0.011987 0
M  V30 13 C -3.555566 3.285458 0.284632 0
M  V30 14 C -0.116059 0.113968 1.250769 0
M  V30 15 N 0.295654 -0.521151 2.479650 0
M  V30 16 C -0.554306 -1.406758 3.169240 0
M  V30 17 C -1.091776 -1.166661 4.435905 0
M  V30 18 C -1.938353 -2.029086 5.113961 0
M  V30 19 N -2.250405 -3.166413 4.494197 0
M  V30 20 C -1.811753 -3.526009 3.287496 0
M  V30 21 C -0.963560 -2.619001 2.654303 0
M  V30 22 N -0.492056 -3.046131 1.356821 0
M  V30 23 C 0.714297 -3.739831 1.647077 0
M  V30 24 O 0.953709 -3.744973 2.874481 0
M  V30 25 C 1.567062 -4.366710 0.644192 0
M  V30 26 C 2.768838 -5.030942 1.052176 0
M  V30 27 S 3.413367 -5.621524 -0.614889 0
M  V30 28 C 1.981679 -4.876655 -1.473990 0
M  V30 29 C 1.928326 -5.032498 -2.961101 0
M  V30 30 C 2.904977 -5.710071 -3.661878 0
M  V30 31 F 3.962325 -6.265310 -3.029544 0
M  V30 32 C 2.745135 -5.788501 -5.034452 0
M  V30 33 C 1.690416 -5.241418 -5.727872 0
M  V30 34 C 0.723784 -4.566865 -5.003860 0
M  V30 35 C 0.887696 -4.492332 -3.642637 0
M  V30 36 F -0.069518 -3.827471 -2.945028 0
M  V30 37 N 1.315612 -4.378338 -0.653296 0
M  V30 38 C 1.628738 -0.212139 2.966084 0
M  V30 39 H 3.660876 2.147683 2.916607 0
M  V30 40 H 2.580274 2.711504 1.769785 0
M  V30 41 H 1.978399 1.503012 4.171238 0
M  V30 42 H 0.610553 3.046358 2.909381 0
M  V30 43 H -0.279236 1.552378 3.464923 0
M  V30 44 H 1.026111 1.800161 0.731756 0
M  V30 45 H -1.810758 4.673299 -2.169001 0
M  V30 46 H -3.915558 5.650614 -2.770859 0
M  V30 47 H -5.927081 5.127997 -1.392045 0
M  V30 48 H -5.683159 3.612596 0.564525 0
M  V30 49 H -3.439094 2.625712 1.130698 0
M  V30 50 H 0.415732 -0.330323 0.373993 0
M  V30 51 H -1.222264 -0.085672 1.114127 0
M  V30 52 H -0.834363 -0.239526 4.938606 0
M  V30 53 H -2.300394 -1.747805 6.094528 0
M  V30 54 H -2.088767 -4.459137 2.818671 0
M  V30 55 H -0.788367 -2.981455 0.337823 0
M  V30 56 H 3.129617 -5.106259 2.159667 0
M  V30 57 H 3.533931 -6.331244 -5.573410 0
M  V30 58 H 1.586297 -5.313838 -6.789006 0
M  V30 59 H -0.099273 -4.141195 -5.556433 0
M  V30 60 H 1.809073 -0.721654 3.918008 0
M  V30 61 H 2.352442 -0.573719 2.224849 0
M  V30 END ATOM
M  V30 BEGIN BOND
M  V30 1 1 1 2
M  V30 2 1 2 3
M  V30 3 1 3 4
M  V30 4 1 4 5
M  V30 5 1 5 6
M  V30 6 2 6 7
M  V30 7 1 6 8
M  V30 8 2 8 9
M  V30 9 1 9 10
M  V30 10 2 10 11
M  V30 11 1 11 12
M  V30 12 2 12 13
M  V30 13 1 4 14
M  V30 14 1 14 15
M  V30 15 1 15 16
M  V30 16 2 16 17
M  V30 17 1 17 18
M  V30 18 2 18 19
M  V30 19 1 19 20
M  V30 20 2 20 21
M  V30 21 1 21 22
M  V30 22 1 22 23
M  V30 23 2 23 24
M  V30 24 1 23 25
M  V30 25 2 25 26
M  V30 26 1 26 27
M  V30 27 1 27 28
M  V30 28 1 28 29
M  V30 29 2 29 30
M  V30 30 1 30 31
M  V30 31 1 30 32
M  V30 32 2 32 33
M  V30 33 1 33 34
M  V30 34 2 34 35
M  V30 35 1 35 36
M  V30 36 2 28 37
M  V30 37 1 15 38
M  V30 38 1 38 2
M  V30 39 1 13 8
M  V30 40 1 21 16
M  V30 41 1 37 25
M  V30 42 1 35 29
M  V30 43 1 1 39
M  V30 44 1 1 40
M  V30 45 1 2 41 CFG=1
M  V30 46 1 3 42
M  V30 47 1 3 43
M  V30 48 1 4 44 CFG=3
M  V30 49 1 9 45
M  V30 50 1 10 46
M  V30 51 1 11 47
M  V30 52 1 12 48
M  V30 53 1 13 49
M  V30 54 1 14 50
M  V30 55 1 14 51
M  V30 56 1 17 52
M  V30 57 1 18 53
M  V30 58 1 20 54
M  V30 59 1 22 55
M  V30 60 1 26 56
M  V30 61 1 32 57
M  V30 62 1 33 58
M  V30 63 1 34 59
M  V30 64 1 38 60
M  V30 65 1 38 61
M  V30 END BOND
M  V30 END CTAB
M  END
>  <Dataset>  (284) 
ChEMBL_Kinases

>  <Ligand_Instance>  (284) 
nan

>  <PDB_ID>  (284) 
nan

>  <Standardized_SMILES>  (284) 
N[C@H]1C[C@H](OC(=O)c2ccccc2)CN(c2ccncc2NC(=O)c2csc(-c3c(F)cccc3F)n2)C1

>  <Name>  (284) 
nan

>  <Pocket>  (284) 
nan

>  <ATP_Site>  (284) 
nan

>  <Peripheral>  (284) 
nan

>  <Num_H_Atoms_ProtBoundConf>  (284) 
nan

>  <Num_Resolved_Atoms>  (284) 
nan

>  <Num_Not_Resolved_Atoms>  (284) 
nan

$$$$
CHEMBL3221810
     RDKit          3D

  0  0  0  0  0  0  0  0  0  0999 V3000
M  V30 BEGIN CTAB
M  V30 COUNTS 64 68 0 0 0
M  V30 BEGIN ATOM
M  V30 1 C 3.255575 -2.370733 1.880889 0
M  V30 2 O 3.486089 -1.252324 2.701727 0
M  V30 3 C 3.579829 0.024000 2.201618 0
M  V30 4 C 3.803440 1.092440 3.009022 0
M  V30 5 C 3.912459 2.418034 2.582943 0
M  V30 6 C 3.770430 2.598284 1.200517 0
M  V30 7 C 3.540455 1.502604 0.369125 0
M  V30 8 C 3.444560 0.227878 0.850726 0
M  V30 9 C 3.425458 1.981626 -1.044713 0
M  V30 10 C 2.320941 3.046229 -0.993712 0 CFG=1
M  V30 11 C 1.145510 2.616912 -0.234574 0
M  V30 12 O 0.873040 3.318422 0.770018 0
M  V30 13 N 0.321617 1.515114 -0.534983 0
M  V30 14 C -0.823576 1.011931 0.113933 0
M  V30 15 C -1.295685 1.538675 1.272910 0
M  V30 16 C -2.437917 1.080138 1.917894 0
M  V30 17 C -3.156839 0.034829 1.380840 0
M  V30 18 C -4.373630 -0.531051 1.945243 0
M  V30 19 C -5.272084 0.247240 2.653915 0
M  V30 20 N -6.274734 -0.582025 3.018896 0
M  V30 21 N -6.046722 -1.805102 2.581349 0
M  V30 22 C -4.891122 -1.807819 1.920856 0
M  V30 23 C -2.639860 -0.465795 0.208629 0
M  V30 24 C -1.500600 -0.057857 -0.494987 0
M  V30 25 O -0.999180 -0.539220 -1.639654 0
M  V30 26 C -1.220466 -1.496670 -2.552863 0
M  V30 27 C -1.047068 -2.953044 -2.289235 0
M  V30 28 N -1.723654 -3.579875 -1.260044 0
M  V30 29 C -1.325657 -3.402803 0.092602 0
M  V30 30 C -0.777027 -4.784069 0.520991 0
M  V30 31 C -1.810735 -5.670505 -0.156749 0
M  V30 32 C -2.188848 -4.914014 -1.422868 0
M  V30 33 C 2.984628 4.268916 -0.400318 0
M  V30 34 O 3.855822 3.862049 0.635957 0
M  V30 35 H 3.551758 -3.271044 2.469094 0
M  V30 36 H 2.189607 -2.446501 1.668148 0
M  V30 37 H 3.882797 -2.305444 0.949224 0
M  V30 38 H 3.904292 0.888050 4.070650 0
M  V30 39 H 4.091702 3.248540 3.254358 0
M  V30 40 H 3.268218 -0.517519 0.112477 0
M  V30 41 H 4.350346 2.522948 -1.369854 0
M  V30 42 H 3.247920 1.200961 -1.771895 0
M  V30 43 H 2.074170 3.320509 -2.041717 0
M  V30 44 H 0.698920 1.039398 -1.410394 0
M  V30 45 H -0.843487 2.355636 1.813090 0
M  V30 46 H -2.822564 1.500304 2.850682 0
M  V30 47 H -5.231416 1.287184 2.890622 0
M  V30 48 H -6.700096 -2.607748 2.752956 0
M  V30 49 H -4.413007 -2.645489 1.437065 0
M  V30 50 H -3.190983 -1.284831 -0.247920 0
M  V30 51 H -2.257510 -1.352272 -3.077446 0
M  V30 52 H -0.558145 -1.223068 -3.470546 0
M  V30 53 H -1.333112 -3.510208 -3.262876 0
M  V30 54 H 0.080899 -3.140020 -2.266549 0
M  V30 55 H -0.533147 -2.648504 0.264837 0
M  V30 56 H -2.226004 -3.273223 0.721592 0
M  V30 57 H -0.891833 -4.873044 1.615203 0
M  V30 58 H 0.235290 -4.960895 0.139208 0
M  V30 59 H -1.338723 -6.635326 -0.354020 0
M  V30 60 H -2.689858 -5.814731 0.508129 0
M  V30 61 H -1.803204 -5.447367 -2.292618 0
M  V30 62 H -3.317470 -4.867911 -1.426398 0
M  V30 63 H 2.243809 4.993372 -0.004750 0
M  V30 64 H 3.626845 4.710444 -1.192539 0
M  V30 END ATOM
M  V30 BEGIN BOND
M  V30 1 1 1 2
M  V30 2 1 2 3
M  V30 3 2 3 4
M  V30 4 1 4 5
M  V30 5 2 5 6
M  V30 6 1 6 7
M  V30 7 2 7 8
M  V30 8 1 7 9
M  V30 9 1 9 10
M  V30 10 1 10 11
M  V30 11 2 11 12
M  V30 12 1 11 13
M  V30 13 1 13 14
M  V30 14 2 14 15
M  V30 15 1 15 16
M  V30 16 2 16 17
M  V30 17 1 17 18
M  V30 18 1 18 19
M  V30 19 2 19 20
M  V30 20 1 20 21
M  V30 21 1 21 22
M  V30 22 1 17 23
M  V30 23 2 23 24
M  V30 24 1 24 25
M  V30 25 1 25 26
M  V30 26 1 26 27
M  V30 27 1 27 28
M  V30 28 1 28 29
M  V30 29 1 29 30
M  V30 30 1 30 31
M  V30 31 1 31 32
M  V30 32 1 10 33
M  V30 33 1 33 34
M  V30 34 1 8 3
M  V30 35 1 24 14
M  V30 36 1 32 28
M  V30 37 1 34 6
M  V30 38 2 22 18
M  V30 39 1 1 35
M  V30 40 1 1 36
M  V30 41 1 1 37
M  V30 42 1 4 38
M  V30 43 1 5 39
M  V30 44 1 8 40
M  V30 45 1 9 41
M  V30 46 1 9 42
M  V30 47 1 10 43 CFG=3
M  V30 48 1 13 44
M  V30 49 1 15 45
M  V30 50 1 16 46
M  V30 51 1 19 47
M  V30 52 1 21 48
M  V30 53 1 22 49
M  V30 54 1 23 50
M  V30 55 1 26 51
M  V30 56 1 26 52
M  V30 57 1 27 53
M  V30 58 1 27 54
M  V30 59 1 29 55
M  V30 60 1 29 56
M  V30 61 1 30 57
M  V30 62 1 30 58
M  V30 63 1 31 59
M  V30 64 1 31 60
M  V30 65 1 32 61
M  V30 66 1 32 62
M  V30 67 1 33 63
M  V30 68 1 33 64
M  V30 END BOND
M  V30 END CTAB
M  END
>  <Dataset>  (285) 
ChEMBL_Kinases

>  <Ligand_Instance>  (285) 
nan

>  <PDB_ID>  (285) 
nan

>  <Standardized_SMILES>  (285) 
COc1ccc2c(c1)C[C@@H](C(=O)Nc1ccc(-c3cn[nH]c3)cc1OCCN1CCCC1)CO2

>  <Name>  (285) 
nan

>  <Pocket>  (285) 
nan

>  <ATP_Site>  (285) 
nan

>  <Peripheral>  (285) 
nan

>  <Num_H_Atoms_ProtBoundConf>  (285) 
nan

>  <Num_Resolved_Atoms>  (285) 
nan

>  <Num_Not_Resolved_Atoms>  (285) 
nan

$$$$
CHEMBL3221812
     RDKit          3D

  0  0  0  0  0  0  0  0  0  0999 V3000
M  V30 BEGIN CTAB
M  V30 COUNTS 61 65 0 0 0
M  V30 BEGIN ATOM
M  V30 1 C 3.975895 -1.072142 2.809910 0
M  V30 2 O 3.831302 0.318990 2.970629 0
M  V30 3 C 3.432741 1.083764 1.903373 0
M  V30 4 C 3.298624 2.452984 2.090743 0
M  V30 5 C 2.898328 3.229490 1.022903 0
M  V30 6 C 2.632861 2.656027 -0.220274 0
M  V30 7 C 2.772495 1.285717 -0.388219 0
M  V30 8 C 3.168960 0.539465 0.680613 0
M  V30 9 C 2.452573 0.844276 -1.763526 0
M  V30 10 C 1.169217 1.589863 -2.140969 0 CFG=1
M  V30 11 C 0.156161 1.433917 -1.095957 0
M  V30 12 O -0.259067 2.481653 -0.543520 0
M  V30 13 N -0.372275 0.192197 -0.680409 0
M  V30 14 C -1.344441 -0.082814 0.308891 0
M  V30 15 C -1.998308 0.829023 1.102903 0
M  V30 16 C -2.942210 0.520490 2.057747 0
M  V30 17 C -3.276221 -0.794869 2.253533 0
M  V30 18 C -4.271074 -1.163388 3.254856 0
M  V30 19 C -5.106838 -2.276196 3.117482 0
M  V30 20 N -5.899048 -2.353986 4.177357 0
M  V30 21 N -5.608410 -1.346871 4.980568 0
M  V30 22 C -4.622768 -0.609318 4.442411 0
M  V30 23 C -2.638864 -1.737381 1.473266 0
M  V30 24 C -1.697730 -1.396374 0.525161 0
M  V30 25 O -1.107762 -2.383492 -0.210672 0
M  V30 26 C -1.289654 -3.750262 -0.181805 0 CFG=2
M  V30 27 C 0.085293 -4.370003 0.101662 0
M  V30 28 C 0.611238 -4.817960 -1.244780 0
M  V30 29 N -0.340592 -4.355520 -2.237218 0
M  V30 30 C 0.082516 -3.074471 -2.711376 0
M  V30 31 C -1.577794 -4.372174 -1.524258 0
M  V30 32 C 1.559708 3.036545 -2.349098 0
M  V30 33 O 2.241933 3.509531 -1.216505 0
M  V30 34 H 4.864925 -1.307847 2.196939 0
M  V30 35 H 4.124909 -1.583872 3.782765 0
M  V30 36 H 3.100240 -1.478534 2.276747 0
M  V30 37 H 3.497974 2.929321 3.046562 0
M  V30 38 H 2.801564 4.289923 1.194204 0
M  V30 39 H 3.257633 -0.518689 0.481312 0
M  V30 40 H 3.257928 1.202642 -2.454776 0
M  V30 41 H 2.349240 -0.238321 -1.886400 0
M  V30 42 H 0.809185 1.230296 -3.144607 0
M  V30 43 H 0.050785 -0.593112 -1.211998 0
M  V30 44 H -1.782863 1.872955 0.999666 0
M  V30 45 H -3.420197 1.276136 2.648393 0
M  V30 46 H -5.101342 -2.958278 2.278635 0
M  V30 47 H -6.044823 -1.100474 5.916830 0
M  V30 48 H -4.109089 0.291964 4.791290 0
M  V30 49 H -2.934388 -2.758576 1.663228 0
M  V30 50 H -2.008420 -4.158434 0.524518 0
M  V30 51 H -0.007828 -5.253602 0.763310 0
M  V30 52 H 0.800922 -3.647905 0.517526 0
M  V30 53 H 1.619212 -4.408460 -1.454816 0
M  V30 54 H 0.587485 -5.939344 -1.324358 0
M  V30 55 H 1.039288 -2.709710 -2.283313 0
M  V30 56 H -0.734661 -2.320248 -2.680920 0
M  V30 57 H 0.283243 -3.204772 -3.814649 0
M  V30 58 H -1.836156 -5.440949 -1.347571 0
M  V30 59 H -2.430887 -3.915504 -2.050008 0
M  V30 60 H 2.254667 3.074648 -3.195731 0
M  V30 61 H 0.666849 3.661417 -2.562769 0
M  V30 END ATOM
M  V30 BEGIN BOND
M  V30 1 1 1 2
M  V30 2 1 2 3
M  V30 3 2 3 4
M  V30 4 1 4 5
M  V30 5 2 5 6
M  V30 6 1 6 7
M  V30 7 2 7 8
M  V30 8 1 7 9
M  V30 9 1 9 10
M  V30 10 1 10 11
M  V30 11 2 11 12
M  V30 12 1 11 13
M  V30 13 1 13 14
M  V30 14 2 14 15
M  V30 15 1 15 16
M  V30 16 2 16 17
M  V30 17 1 17 18
M  V30 18 1 18 19
M  V30 19 2 19 20
M  V30 20 1 20 21
M  V30 21 1 21 22
M  V30 22 1 17 23
M  V30 23 2 23 24
M  V30 24 1 24 25
M  V30 25 1 25 26
M  V30 26 1 26 27
M  V30 27 1 27 28
M  V30 28 1 28 29
M  V30 29 1 29 30
M  V30 30 1 29 31
M  V30 31 1 10 32
M  V30 32 1 32 33
M  V30 33 1 8 3
M  V30 34 1 24 14
M  V30 35 1 31 26
M  V30 36 1 33 6
M  V30 37 2 22 18
M  V30 38 1 1 34
M  V30 39 1 1 35
M  V30 40 1 1 36
M  V30 41 1 4 37
M  V30 42 1 5 38
M  V30 43 1 8 39
M  V30 44 1 9 40
M  V30 45 1 9 41
M  V30 46 1 10 42 CFG=3
M  V30 47 1 13 43
M  V30 48 1 15 44
M  V30 49 1 16 45
M  V30 50 1 19 46
M  V30 51 1 21 47
M  V30 52 1 22 48
M  V30 53 1 23 49
M  V30 54 1 26 50 CFG=1
M  V30 55 1 27 51
M  V30 56 1 27 52
M  V30 57 1 28 53
M  V30 58 1 28 54
M  V30 59 1 30 55
M  V30 60 1 30 56
M  V30 61 1 30 57
M  V30 62 1 31 58
M  V30 63 1 31 59
M  V30 64 1 32 60
M  V30 65 1 32 61
M  V30 END BOND
M  V30 END CTAB
M  END
>  <Dataset>  (286) 
ChEMBL_Kinases

>  <Ligand_Instance>  (286) 
nan

>  <PDB_ID>  (286) 
nan

>  <Standardized_SMILES>  (286) 
COc1ccc2c(c1)C[C@@H](C(=O)Nc1ccc(-c3cn[nH]c3)cc1O[C@@H]1CCN(C)C1)CO2

>  <Name>  (286) 
nan

>  <Pocket>  (286) 
nan

>  <ATP_Site>  (286) 
nan

>  <Peripheral>  (286) 
nan

>  <Num_H_Atoms_ProtBoundConf>  (286) 
nan

>  <Num_Resolved_Atoms>  (286) 
nan

>  <Num_Not_Resolved_Atoms>  (286) 
nan

$$$$
CHEMBL4216991
     RDKit          3D

  0  0  0  0  0  0  0  0  0  0999 V3000
M  V30 BEGIN CTAB
M  V30 COUNTS 54 58 0 0 0
M  V30 BEGIN ATOM
M  V30 1 C -4.780147 -3.162042 -2.964114 0
M  V30 2 N -5.182791 -2.317879 -1.832912 0
M  V30 3 C -5.223057 -3.178377 -0.665941 0
M  V30 4 C -5.596407 -2.301094 0.536224 0
M  V30 5 N -4.501094 -1.356560 0.658588 0
M  V30 6 C -3.580639 -1.209242 1.710930 0
M  V30 7 O -3.261359 -1.651607 2.822189 0
M  V30 8 C -2.543606 -0.196130 1.614025 0
M  V30 9 C -1.578045 -0.650875 0.692803 0
M  V30 10 C -0.457292 0.128917 0.397500 0
M  V30 11 C -0.238757 1.358334 0.975540 0
M  V30 12 C 0.903232 2.228624 0.739372 0
M  V30 13 C 1.946189 1.911498 -0.103473 0
M  V30 14 N 3.034466 2.650303 -0.362210 0
M  V30 15 C 4.132244 2.457986 -1.152946 0
M  V30 16 C 4.311082 1.239746 -1.939662 0
M  V30 17 C 3.228485 0.907012 -2.733594 0
M  V30 18 C 3.244355 -0.251444 -3.523967 0
M  V30 19 C 4.385050 -1.035618 -3.469810 0
M  V30 20 C 4.419768 -2.241890 -4.279344 0
M  V30 21 N 4.456207 -3.214585 -4.911313 0
M  V30 22 C 5.454089 -0.696787 -2.678660 0
M  V30 23 C 5.446778 0.458424 -1.886316 0
M  V30 24 C 4.906688 3.609439 -0.964021 0
M  V30 25 N 4.240195 4.401876 -0.092259 0
M  V30 26 C 3.091723 3.836715 0.289458 0
M  V30 27 C 2.091963 4.228846 1.146967 0
M  V30 28 N 1.021120 3.438332 1.365316 0
M  V30 29 C -1.189761 1.791946 1.873773 0
M  V30 30 C -2.291219 1.032809 2.168834 0
M  V30 31 C -4.414645 -0.482153 -0.484680 0
M  V30 32 C -4.123725 -1.318653 -1.711946 0
M  V30 33 H -5.061692 -2.696057 -3.924309 0
M  V30 34 H -5.234234 -4.152558 -2.946951 0
M  V30 35 H -3.673505 -3.316049 -2.930059 0
M  V30 36 H -4.212289 -3.584697 -0.447217 0
M  V30 37 H -5.992023 -3.945495 -0.810982 0
M  V30 38 H -6.500790 -1.745003 0.290747 0
M  V30 39 H -5.675853 -2.941459 1.429639 0
M  V30 40 H -1.577241 -1.588926 0.135329 0
M  V30 41 H 0.302613 -0.220834 -0.323802 0
M  V30 42 H 1.872544 0.971461 -0.593291 0
M  V30 43 H 2.293520 1.445607 -2.863458 0
M  V30 44 H 2.429422 -0.564353 -4.164960 0
M  V30 45 H 6.330444 -1.314541 -2.646295 0
M  V30 46 H 6.266097 0.763397 -1.248457 0
M  V30 47 H 5.844817 3.696015 -1.493863 0
M  V30 48 H 2.167201 5.176872 1.648916 0
M  V30 49 H -1.182186 2.724169 2.420990 0
M  V30 50 H -3.119683 1.255387 2.859289 0
M  V30 51 H -3.672720 0.327508 -0.349025 0
M  V30 52 H -5.445129 -0.058573 -0.653000 0
M  V30 53 H -3.150914 -1.849086 -1.649264 0
M  V30 54 H -4.187999 -0.679903 -2.633914 0
M  V30 END ATOM
M  V30 BEGIN BOND
M  V30 1 1 1 2
M  V30 2 1 2 3
M  V30 3 1 3 4
M  V30 4 1 4 5
M  V30 5 1 5 6
M  V30 6 2 6 7
M  V30 7 1 6 8
M  V30 8 2 8 9
M  V30 9 1 9 10
M  V30 10 2 10 11
M  V30 11 1 11 12
M  V30 12 2 12 13
M  V30 13 1 13 14
M  V30 14 1 14 15
M  V30 15 1 15 16
M  V30 16 2 16 17
M  V30 17 1 17 18
M  V30 18 2 18 19
M  V30 19 1 19 20
M  V30 20 3 20 21
M  V30 21 1 19 22
M  V30 22 2 22 23
M  V30 23 2 15 24
M  V30 24 1 24 25
M  V30 25 2 25 26
M  V30 26 1 26 27
M  V30 27 2 27 28
M  V30 28 1 11 29
M  V30 29 2 29 30
M  V30 30 1 5 31
M  V30 31 1 31 32
M  V30 32 1 32 2
M  V30 33 1 30 8
M  V30 34 1 28 12
M  V30 35 1 26 14
M  V30 36 1 23 16
M  V30 37 1 1 33
M  V30 38 1 1 34
M  V30 39 1 1 35
M  V30 40 1 3 36
M  V30 41 1 3 37
M  V30 42 1 4 38
M  V30 43 1 4 39
M  V30 44 1 9 40
M  V30 45 1 10 41
M  V30 46 1 13 42
M  V30 47 1 17 43
M  V30 48 1 18 44
M  V30 49 1 22 45
M  V30 50 1 23 46
M  V30 51 1 24 47
M  V30 52 1 27 48
M  V30 53 1 29 49
M  V30 54 1 30 50
M  V30 55 1 31 51
M  V30 56 1 31 52
M  V30 57 1 32 53
M  V30 58 1 32 54
M  V30 END BOND
M  V30 END CTAB
M  END
>  <Dataset>  (287) 
ChEMBL_Kinases

>  <Ligand_Instance>  (287) 
nan

>  <PDB_ID>  (287) 
nan

>  <Standardized_SMILES>  (287) 
CN1CCN(C(=O)c2ccc(-c3cn4c(-c5ccc(C#N)cc5)cnc4cn3)cc2)CC1

>  <Name>  (287) 
nan

>  <Pocket>  (287) 
nan

>  <ATP_Site>  (287) 
nan

>  <Peripheral>  (287) 
nan

>  <Num_H_Atoms_ProtBoundConf>  (287) 
nan

>  <Num_Resolved_Atoms>  (287) 
nan

>  <Num_Not_Resolved_Atoms>  (287) 
nan

$$$$
CHEMBL3676265
     RDKit          3D

  0  0  0  0  0  0  0  0  0  0999 V3000
M  V30 BEGIN CTAB
M  V30 COUNTS 49 52 0 0 0
M  V30 BEGIN ATOM
M  V30 1 N 3.532103 -2.887280 -2.460421 0
M  V30 2 C 2.652417 -2.614157 -1.317922 0 CFG=1
M  V30 3 C 3.308527 -3.013051 -0.047115 0
M  V30 4 C 3.098137 -2.114468 1.121223 0 CFG=2
M  V30 5 O 3.009776 -2.817124 2.306790 0
M  V30 6 C 1.866680 -1.247277 0.994079 0
M  V30 7 N 2.129182 -0.470971 -0.225345 0
M  V30 8 C 2.345913 0.928009 -0.083887 0
M  V30 9 C 3.539127 1.487269 -0.495124 0
M  V30 10 C 3.734467 2.841157 -0.352141 0
M  V30 11 N 2.794658 3.669796 0.183199 0
M  V30 12 C 1.612437 3.129760 0.592992 0
M  V30 13 C 1.378063 1.774379 0.466261 0
M  V30 14 N 0.132637 1.183581 0.894308 0
M  V30 15 C -0.811872 1.179167 -0.165149 0
M  V30 16 O -0.346834 1.685461 -1.216313 0
M  V30 17 C -2.168524 0.655398 -0.072593 0
M  V30 18 C -3.014594 0.700270 -1.174036 0
M  V30 19 S -4.584947 -0.098920 -0.464937 0
M  V30 20 C -3.740911 -0.321185 1.187690 0
M  V30 21 C -4.425074 -0.933625 2.321154 0
M  V30 22 C -3.715000 -1.052465 3.498799 0
M  V30 23 F -2.424060 -0.596410 3.542732 0
M  V30 24 C -4.331765 -1.626637 4.589470 0
M  V30 25 C -5.648923 -2.071447 4.480663 0
M  V30 26 C -6.324692 -1.934985 3.287016 0
M  V30 27 C -5.737832 -1.366913 2.181396 0
M  V30 28 F -6.380465 -1.225607 1.010284 0
M  V30 29 N -2.618285 0.134071 1.042933 0
M  V30 30 C 2.135393 -1.238429 -1.444519 0
M  V30 31 H 4.144849 -3.721280 -2.236320 0
M  V30 32 H 2.976601 -3.036492 -3.333419 0
M  V30 33 H 1.784088 -3.319004 -1.462351 0
M  V30 34 H 4.413258 -3.083586 -0.215384 0
M  V30 35 H 3.027807 -4.036352 0.280570 0
M  V30 36 H 3.969711 -1.407594 1.227688 0
M  V30 37 H 3.174415 -2.208538 3.074954 0
M  V30 38 H 0.952702 -1.841380 0.825691 0
M  V30 39 H 1.835260 -0.605226 1.899165 0
M  V30 40 H 4.290992 0.831235 -0.922259 0
M  V30 41 H 4.652672 3.288009 -0.665849 0
M  V30 42 H 0.825177 3.731349 1.026018 0
M  V30 43 H -0.169340 0.774183 1.828442 0
M  V30 44 H -2.771785 1.115636 -2.194119 0
M  V30 45 H -3.783339 -1.720924 5.506822 0
M  V30 46 H -6.163278 -2.527293 5.318513 0
M  V30 47 H -7.362870 -2.260154 3.121914 0
M  V30 48 H 2.718343 -0.617588 -2.187896 0
M  V30 49 H 1.081898 -1.199820 -1.828068 0
M  V30 END ATOM
M  V30 BEGIN BOND
M  V30 1 1 1 2
M  V30 2 1 2 3
M  V30 3 1 3 4
M  V30 4 1 4 5
M  V30 5 1 4 6
M  V30 6 1 6 7
M  V30 7 1 7 8
M  V30 8 2 8 9
M  V30 9 1 9 10
M  V30 10 2 10 11
M  V30 11 1 11 12
M  V30 12 2 12 13
M  V30 13 1 13 14
M  V30 14 1 14 15
M  V30 15 2 15 16
M  V30 16 1 15 17
M  V30 17 2 17 18
M  V30 18 1 18 19
M  V30 19 1 19 20
M  V30 20 1 20 21
M  V30 21 2 21 22
M  V30 22 1 22 23
M  V30 23 1 22 24
M  V30 24 2 24 25
M  V30 25 1 25 26
M  V30 26 2 26 27
M  V30 27 1 27 28
M  V30 28 2 20 29
M  V30 29 1 7 30
M  V30 30 1 30 2
M  V30 31 1 13 8
M  V30 32 1 29 17
M  V30 33 1 27 21
M  V30 34 1 1 31
M  V30 35 1 1 32
M  V30 36 1 2 33 CFG=3
M  V30 37 1 3 34
M  V30 38 1 3 35
M  V30 39 1 4 36 CFG=1
M  V30 40 1 5 37
M  V30 41 1 6 38
M  V30 42 1 6 39
M  V30 43 1 9 40
M  V30 44 1 10 41
M  V30 45 1 12 42
M  V30 46 1 14 43
M  V30 47 1 18 44
M  V30 48 1 24 45
M  V30 49 1 25 46
M  V30 50 1 26 47
M  V30 51 1 30 48
M  V30 52 1 30 49
M  V30 END BOND
M  V30 END CTAB
M  END
>  <Dataset>  (288) 
ChEMBL_Kinases

>  <Ligand_Instance>  (288) 
nan

>  <PDB_ID>  (288) 
nan

>  <Standardized_SMILES>  (288) 
N[C@H]1C[C@H](O)CN(c2ccncc2NC(=O)c2csc(-c3c(F)cccc3F)n2)C1

>  <Name>  (288) 
nan

>  <Pocket>  (288) 
nan

>  <ATP_Site>  (288) 
nan

>  <Peripheral>  (288) 
nan

>  <Num_H_Atoms_ProtBoundConf>  (288) 
nan

>  <Num_Resolved_Atoms>  (288) 
nan

>  <Num_Not_Resolved_Atoms>  (288) 
nan

$$$$
CHEMBL3221814
     RDKit          3D

  0  0  0  0  0  0  0  0  0  0999 V3000
M  V30 BEGIN CTAB
M  V30 COUNTS 61 65 0 0 0
M  V30 BEGIN ATOM
M  V30 1 C 3.886283 -2.201755 3.612966 0
M  V30 2 O 3.848156 -0.852560 4.022108 0
M  V30 3 C 3.608931 0.122444 3.065043 0
M  V30 4 C 3.585566 1.418767 3.536388 0
M  V30 5 C 3.351171 2.452989 2.636601 0
M  V30 6 C 3.154668 2.117024 1.316624 0
M  V30 7 C 3.173639 0.822932 0.820324 0
M  V30 8 C 3.406964 -0.173063 1.731798 0
M  V30 9 C 2.946373 0.563600 -0.643517 0
M  V30 10 C 1.950703 1.603281 -1.112236 0 CFG=1
M  V30 11 C 0.665173 1.495268 -0.362371 0
M  V30 12 O 0.321177 2.532571 0.299334 0
M  V30 13 N -0.171922 0.355467 -0.336456 0
M  V30 14 C -1.392348 0.162810 0.337021 0
M  V30 15 C -2.022494 1.081680 1.132297 0
M  V30 16 C -3.209494 0.835052 1.758882 0
M  V30 17 C -3.830179 -0.389852 1.603591 0
M  V30 18 C -5.095466 -0.593533 2.299326 0
M  V30 19 C -6.166341 -1.386925 1.893269 0
M  V30 20 N -7.115660 -1.277180 2.840444 0
M  V30 21 N -6.669879 -0.457956 3.795629 0
M  V30 22 C -5.431737 -0.014142 3.503917 0
M  V30 23 C -3.158263 -1.311950 0.781049 0
M  V30 24 C -1.930133 -1.082128 0.121572 0
M  V30 25 O -1.676086 -2.186512 -0.522578 0
M  V30 26 C -0.853341 -2.836245 -1.316033 0 CFG=1
M  V30 27 C -0.399687 -4.218561 -0.748392 0
M  V30 28 C 0.244953 -4.777541 -2.009478 0
M  V30 29 N -0.576601 -4.337980 -3.108355 0
M  V30 30 C 0.153360 -3.723463 -4.182668 0
M  V30 31 C -1.534411 -3.405851 -2.597167 0
M  V30 32 C 2.558482 2.963364 -0.914300 0
M  V30 33 O 2.924918 3.161704 0.450050 0
M  V30 34 H 3.852960 -2.804421 4.555646 0
M  V30 35 H 4.780368 -2.455959 3.019262 0
M  V30 36 H 3.011199 -2.460860 2.972397 0
M  V30 37 H 3.738439 1.709674 4.577899 0
M  V30 38 H 3.324141 3.492523 2.964766 0
M  V30 39 H 3.432906 -1.201185 1.402172 0
M  V30 40 H 2.575890 -0.466321 -0.778443 0
M  V30 41 H 3.878991 0.735947 -1.197718 0
M  V30 42 H 1.773550 1.491343 -2.205424 0
M  V30 43 H 0.310539 -0.328806 -0.931715 0
M  V30 44 H -1.601689 2.056755 1.301706 0
M  V30 45 H -3.669491 1.596444 2.379371 0
M  V30 46 H -6.209725 -1.981184 0.973197 0
M  V30 47 H -7.173319 -0.170947 4.665887 0
M  V30 48 H -4.804962 0.659851 4.078889 0
M  V30 49 H -3.789026 -2.220576 0.771173 0
M  V30 50 H 0.094133 -2.397372 -1.690378 0
M  V30 51 H 0.321177 -4.090663 0.063300 0
M  V30 52 H -1.274599 -4.811298 -0.460632 0
M  V30 53 H 0.340955 -5.868154 -1.974758 0
M  V30 54 H 1.222217 -4.247203 -2.085399 0
M  V30 55 H 0.126391 -2.623552 -4.030225 0
M  V30 56 H 1.234109 -4.008504 -4.181558 0
M  V30 57 H -0.340321 -4.018166 -5.132685 0
M  V30 58 H -1.662542 -2.511122 -3.247186 0
M  V30 59 H -2.455565 -3.932173 -2.345567 0
M  V30 60 H 1.871400 3.761335 -1.263316 0
M  V30 61 H 3.517583 2.972221 -1.469911 0
M  V30 END ATOM
M  V30 BEGIN BOND
M  V30 1 1 1 2
M  V30 2 1 2 3
M  V30 3 2 3 4
M  V30 4 1 4 5
M  V30 5 2 5 6
M  V30 6 1 6 7
M  V30 7 2 7 8
M  V30 8 1 7 9
M  V30 9 1 9 10
M  V30 10 1 10 11
M  V30 11 2 11 12
M  V30 12 1 11 13
M  V30 13 1 13 14
M  V30 14 2 14 15
M  V30 15 1 15 16
M  V30 16 2 16 17
M  V30 17 1 17 18
M  V30 18 1 18 19
M  V30 19 2 19 20
M  V30 20 1 20 21
M  V30 21 1 21 22
M  V30 22 1 17 23
M  V30 23 2 23 24
M  V30 24 1 24 25
M  V30 25 1 25 26
M  V30 26 1 26 27
M  V30 27 1 27 28
M  V30 28 1 28 29
M  V30 29 1 29 30
M  V30 30 1 29 31
M  V30 31 1 10 32
M  V30 32 1 32 33
M  V30 33 1 8 3
M  V30 34 1 24 14
M  V30 35 1 31 26
M  V30 36 1 33 6
M  V30 37 2 22 18
M  V30 38 1 1 34
M  V30 39 1 1 35
M  V30 40 1 1 36
M  V30 41 1 4 37
M  V30 42 1 5 38
M  V30 43 1 8 39
M  V30 44 1 9 40
M  V30 45 1 9 41
M  V30 46 1 10 42 CFG=3
M  V30 47 1 13 43
M  V30 48 1 15 44
M  V30 49 1 16 45
M  V30 50 1 19 46
M  V30 51 1 21 47
M  V30 52 1 22 48
M  V30 53 1 23 49
M  V30 54 1 26 50 CFG=3
M  V30 55 1 27 51
M  V30 56 1 27 52
M  V30 57 1 28 53
M  V30 58 1 28 54
M  V30 59 1 30 55
M  V30 60 1 30 56
M  V30 61 1 30 57
M  V30 62 1 31 58
M  V30 63 1 31 59
M  V30 64 1 32 60
M  V30 65 1 32 61
M  V30 END BOND
M  V30 END CTAB
M  END
>  <Dataset>  (289) 
ChEMBL_Kinases

>  <Ligand_Instance>  (289) 
nan

>  <PDB_ID>  (289) 
nan

>  <Standardized_SMILES>  (289) 
COc1ccc2c(c1)C[C@@H](C(=O)Nc1ccc(-c3cn[nH]c3)cc1O[C@H]1CCN(C)C1)CO2

>  <Name>  (289) 
nan

>  <Pocket>  (289) 
nan

>  <ATP_Site>  (289) 
nan

>  <Peripheral>  (289) 
nan

>  <Num_H_Atoms_ProtBoundConf>  (289) 
nan

>  <Num_Resolved_Atoms>  (289) 
nan

>  <Num_Not_Resolved_Atoms>  (289) 
nan

$$$$
CHEMBL3676267
     RDKit          3D

  0  0  0  0  0  0  0  0  0  0999 V3000
M  V30 BEGIN CTAB
M  V30 COUNTS 48 51 0 0 0
M  V30 BEGIN ATOM
M  V30 1 N 4.268527 -2.305435 -1.361539 0
M  V30 2 C 3.033230 -2.250965 -0.564613 0 CFG=1
M  V30 3 C 3.270571 -2.692735 0.841375 0
M  V30 4 C 3.828206 -1.638038 1.745006 0 CFG=1
M  V30 5 F 5.124803 -1.294541 1.434902 0
M  V30 6 C 3.002079 -0.378299 1.776254 0
M  V30 7 N 2.598022 -0.101592 0.412198 0
M  V30 8 C 2.339693 1.266875 0.117802 0
M  V30 9 C 3.141371 1.803507 -0.872608 0
M  V30 10 C 3.016736 3.129223 -1.279704 0
M  V30 11 N 2.089947 3.918775 -0.696107 0
M  V30 12 C 1.296543 3.410701 0.274923 0
M  V30 13 C 1.405487 2.107299 0.688337 0
M  V30 14 N 0.604075 1.508392 1.702259 0
M  V30 15 C -0.565121 0.929466 1.137569 0
M  V30 16 O -0.582107 1.100073 -0.112066 0
M  V30 17 C -1.552634 0.246261 2.007711 0
M  V30 18 C -1.463006 0.102986 3.353365 0
M  V30 19 S -3.037455 -0.834934 3.691129 0
M  V30 20 C -3.502704 -0.850066 1.972481 0
M  V30 21 C -4.760010 -1.488699 1.476887 0
M  V30 22 C -5.056470 -1.464398 0.146204 0
M  V30 23 F -4.159080 -0.838971 -0.678012 0
M  V30 24 C -6.185270 -2.026165 -0.378485 0
M  V30 25 C -7.011505 -2.624180 0.534272 0
M  V30 26 C -6.775789 -2.687086 1.894842 0
M  V30 27 C -5.607306 -2.097065 2.378995 0
M  V30 28 F -5.295615 -2.111900 3.703609 0
M  V30 29 N -2.602594 -0.259698 1.403504 0
M  V30 30 C 2.392090 -0.929440 -0.754076 0
M  V30 31 H 4.046149 -1.755418 -2.221944 0
M  V30 32 H 4.543526 -3.289483 -1.535732 0
M  V30 33 H 2.383181 -3.024811 -1.032940 0
M  V30 34 H 4.016165 -3.518911 0.810012 0
M  V30 35 H 2.353249 -3.120870 1.296048 0
M  V30 36 H 3.836368 -2.054429 2.773568 0
M  V30 37 H 3.624046 0.438799 2.143657 0
M  V30 38 H 2.071203 -0.531342 2.397453 0
M  V30 39 H 3.918993 1.282292 -1.418507 0
M  V30 40 H 3.617618 3.593067 -2.046585 0
M  V30 41 H 0.523566 3.946943 0.810366 0
M  V30 42 H 0.791515 1.465383 2.739173 0
M  V30 43 H -0.558009 0.529190 3.943344 0
M  V30 44 H -6.356471 -1.970981 -1.432643 0
M  V30 45 H -7.936098 -3.094946 0.178312 0
M  V30 46 H -7.453965 -3.168964 2.581832 0
M  V30 47 H 1.280418 -1.076056 -0.812559 0
M  V30 48 H 2.787860 -0.466028 -1.674543 0
M  V30 END ATOM
M  V30 BEGIN BOND
M  V30 1 1 1 2
M  V30 2 1 2 3
M  V30 3 1 3 4
M  V30 4 1 4 5
M  V30 5 1 4 6
M  V30 6 1 6 7
M  V30 7 1 7 8
M  V30 8 2 8 9
M  V30 9 1 9 10
M  V30 10 2 10 11
M  V30 11 1 11 12
M  V30 12 2 12 13
M  V30 13 1 13 14
M  V30 14 1 14 15
M  V30 15 2 15 16
M  V30 16 1 15 17
M  V30 17 2 17 18
M  V30 18 1 18 19
M  V30 19 1 19 20
M  V30 20 1 20 21
M  V30 21 2 21 22
M  V30 22 1 22 23
M  V30 23 1 22 24
M  V30 24 2 24 25
M  V30 25 1 25 26
M  V30 26 2 26 27
M  V30 27 1 27 28
M  V30 28 2 20 29
M  V30 29 1 7 30
M  V30 30 1 30 2
M  V30 31 1 13 8
M  V30 32 1 29 17
M  V30 33 1 27 21
M  V30 34 1 1 31
M  V30 35 1 1 32
M  V30 36 1 2 33 CFG=3
M  V30 37 1 3 34
M  V30 38 1 3 35
M  V30 39 1 4 36 CFG=1
M  V30 40 1 6 37
M  V30 41 1 6 38
M  V30 42 1 9 39
M  V30 43 1 10 40
M  V30 44 1 12 41
M  V30 45 1 14 42
M  V30 46 1 18 43
M  V30 47 1 24 44
M  V30 48 1 25 45
M  V30 49 1 26 46
M  V30 50 1 30 47
M  V30 51 1 30 48
M  V30 END BOND
M  V30 END CTAB
M  END
>  <Dataset>  (290) 
ChEMBL_Kinases

>  <Ligand_Instance>  (290) 
nan

>  <PDB_ID>  (290) 
nan

>  <Standardized_SMILES>  (290) 
N[C@H]1C[C@@H](F)CN(c2ccncc2NC(=O)c2csc(-c3c(F)cccc3F)n2)C1

>  <Name>  (290) 
nan

>  <Pocket>  (290) 
nan

>  <ATP_Site>  (290) 
nan

>  <Peripheral>  (290) 
nan

>  <Num_H_Atoms_ProtBoundConf>  (290) 
nan

>  <Num_Resolved_Atoms>  (290) 
nan

>  <Num_Not_Resolved_Atoms>  (290) 
nan

$$$$
CHEMBL4214158
     RDKit          3D

  0  0  0  0  0  0  0  0  0  0999 V3000
M  V30 BEGIN CTAB
M  V30 COUNTS 57 62 0 0 0
M  V30 BEGIN ATOM
M  V30 1 C 1.960316 -1.346484 3.430000 0
M  V30 2 N 3.005304 -1.249006 2.470024 0
M  V30 3 C 3.217467 -2.396612 1.644022 0
M  V30 4 C 2.614801 -2.299998 0.284872 0
M  V30 5 N 1.947831 -1.039953 0.026831 0
M  V30 6 C 0.682618 -0.995528 -0.664567 0
M  V30 7 N 0.058750 0.182088 -0.891670 0
M  V30 8 C -1.117306 0.230184 -1.539661 0
M  V30 9 N -1.824716 1.425942 -1.819628 0
M  V30 10 C -1.376799 2.738766 -1.434418 0
M  V30 11 C -1.296739 2.830122 0.047070 0
M  V30 12 N -0.365607 2.604044 0.986003 0
M  V30 13 C -0.862819 2.861169 2.208560 0
M  V30 14 C -0.367345 2.802964 3.492637 0
M  V30 15 F 0.912420 2.403350 3.651519 0
M  V30 16 C -1.069322 3.118877 4.625261 0
M  V30 17 F -0.543971 3.048472 5.873046 0
M  V30 18 C -2.377118 3.526315 4.443795 0
M  V30 19 C -2.920398 3.600843 3.170204 0
M  V30 20 C -2.174429 3.272308 2.057686 0
M  V30 21 N -2.397550 3.240048 0.740481 0
M  V30 22 C -1.631668 -1.004625 -1.949992 0
M  V30 23 N -2.790539 -1.270492 -2.620129 0
M  V30 24 C -2.875849 -2.610717 -2.802925 0
M  V30 25 N -1.775368 -3.164337 -2.248049 0
M  V30 26 C -1.459077 -4.555755 -2.213155 0
M  V30 27 C -0.161260 -4.935639 -2.476723 0
M  V30 28 C 0.208852 -6.269730 -2.458598 0
M  V30 29 C -0.806709 -7.165706 -2.161476 0
M  V30 30 C -2.112232 -6.802412 -1.894889 0
M  V30 31 N -2.409210 -5.474268 -1.929106 0
M  V30 32 C -0.991167 -2.201965 -1.715481 0
M  V30 33 N 0.163704 -2.166697 -1.070889 0
M  V30 34 C 2.595346 0.177931 0.483716 0
M  V30 35 C 3.187045 0.006822 1.835561 0
M  V30 36 H 2.460616 -1.297634 4.441416 0
M  V30 37 H 1.294826 -0.470620 3.360714 0
M  V30 38 H 1.431079 -2.313092 3.300497 0
M  V30 39 H 2.783875 -3.280387 2.158358 0
M  V30 40 H 4.329261 -2.594129 1.602077 0
M  V30 41 H 1.912268 -3.142532 0.058290 0
M  V30 42 H 3.436868 -2.403641 -0.473207 0
M  V30 43 H -2.723360 1.361877 -2.334338 0
M  V30 44 H -0.352654 2.960837 -1.856750 0
M  V30 45 H -2.016375 3.536440 -1.850950 0
M  V30 46 H -2.970256 3.786051 5.308091 0
M  V30 47 H -3.950648 3.921486 3.022770 0
M  V30 48 H -3.354662 3.519794 0.373971 0
M  V30 49 H -3.685619 -3.125457 -3.304465 0
M  V30 50 H 0.571904 -4.169666 -2.700097 0
M  V30 51 H 1.217984 -6.605969 -2.660481 0
M  V30 52 H -0.563759 -8.237424 -2.134589 0
M  V30 53 H -2.859224 -7.558843 -1.668836 0
M  V30 54 H 3.388851 0.420106 -0.284008 0
M  V30 55 H 1.843510 0.976453 0.458284 0
M  V30 56 H 4.274644 0.296102 1.779875 0
M  V30 57 H 2.745629 0.786179 2.514536 0
M  V30 END ATOM
M  V30 BEGIN BOND
M  V30 1 1 1 2
M  V30 2 1 2 3
M  V30 3 1 3 4
M  V30 4 1 4 5
M  V30 5 1 5 6
M  V30 6 2 6 7
M  V30 7 1 7 8
M  V30 8 1 8 9
M  V30 9 1 9 10
M  V30 10 1 10 11
M  V30 11 2 11 12
M  V30 12 1 12 13
M  V30 13 2 13 14
M  V30 14 1 14 15
M  V30 15 1 14 16
M  V30 16 1 16 17
M  V30 17 2 16 18
M  V30 18 1 18 19
M  V30 19 2 19 20
M  V30 20 1 20 21
M  V30 21 2 8 22
M  V30 22 1 22 23
M  V30 23 2 23 24
M  V30 24 1 24 25
M  V30 25 1 25 26
M  V30 26 2 26 27
M  V30 27 1 27 28
M  V30 28 2 28 29
M  V30 29 1 29 30
M  V30 30 2 30 31
M  V30 31 1 25 32
M  V30 32 2 32 33
M  V30 33 1 5 34
M  V30 34 1 34 35
M  V30 35 1 35 2
M  V30 36 1 33 6
M  V30 37 1 21 11
M  V30 38 1 32 22
M  V30 39 1 20 13
M  V30 40 1 31 26
M  V30 41 1 1 36
M  V30 42 1 1 37
M  V30 43 1 1 38
M  V30 44 1 3 39
M  V30 45 1 3 40
M  V30 46 1 4 41
M  V30 47 1 4 42
M  V30 48 1 9 43
M  V30 49 1 10 44
M  V30 50 1 10 45
M  V30 51 1 18 46
M  V30 52 1 19 47
M  V30 53 1 21 48
M  V30 54 1 24 49
M  V30 55 1 27 50
M  V30 56 1 28 51
M  V30 57 1 29 52
M  V30 58 1 30 53
M  V30 59 1 34 54
M  V30 60 1 34 55
M  V30 61 1 35 56
M  V30 62 1 35 57
M  V30 END BOND
M  V30 END CTAB
M  END
>  <Dataset>  (291) 
ChEMBL_Kinases

>  <Ligand_Instance>  (291) 
nan

>  <PDB_ID>  (291) 
nan

>  <Standardized_SMILES>  (291) 
CN1CCN(c2nc(NCc3nc4c(F)c(F)ccc4[nH]3)c3ncn(-c4ccccn4)c3n2)CC1

>  <Name>  (291) 
nan

>  <Pocket>  (291) 
nan

>  <ATP_Site>  (291) 
nan

>  <Peripheral>  (291) 
nan

>  <Num_H_Atoms_ProtBoundConf>  (291) 
nan

>  <Num_Resolved_Atoms>  (291) 
nan

>  <Num_Not_Resolved_Atoms>  (291) 
nan

$$$$
CHEMBL3675532
     RDKit          3D

  0  0  0  0  0  0  0  0  0  0999 V3000
M  V30 BEGIN CTAB
M  V30 COUNTS 53 56 0 0 0
M  V30 BEGIN ATOM
M  V30 1 C 8.237881 0.154221 -0.176194 0
M  V30 2 N 7.771089 0.003613 1.185540 0
M  V30 3 C 6.445353 0.115226 1.658478 0
M  V30 4 C 5.387571 0.391416 0.821184 0
M  V30 5 C 4.122978 0.483906 1.371774 0
M  V30 6 C 3.026111 0.776935 0.456453 0
M  V30 7 O 3.240169 0.934782 -0.772355 0
M  V30 8 N 1.665596 0.908214 0.840700 0
M  V30 9 C 0.632326 1.198013 -0.111591 0
M  V30 10 C 0.230900 2.470918 -0.454357 0
M  V30 11 C -0.776380 2.621853 -1.385052 0
M  V30 12 C -1.357486 1.487015 -1.949976 0
M  V30 13 C -0.935940 0.200842 -1.588669 0
M  V30 14 C -1.724643 -0.802387 -2.354597 0
M  V30 15 N -2.976278 -1.147427 -1.703177 0
M  V30 16 C -3.121049 -1.755267 -0.436621 0
M  V30 17 N -2.069653 -2.093512 0.318040 0
M  V30 18 C -2.164441 -2.673741 1.519423 0
M  V30 19 N -3.383040 -2.962755 2.060814 0
M  V30 20 C -4.474873 -2.644410 1.345581 0
M  V30 21 C -5.704307 -2.927837 1.874600 0
M  V30 22 C -5.798502 -3.557406 3.179746 0
M  V30 23 N -4.649763 -3.900381 3.949239 0
M  V30 24 O -6.867533 -3.862194 3.761766 0
M  V30 25 C -6.880474 -2.636649 1.211733 0
M  V30 26 C -6.750878 -2.037801 -0.026632 0
M  V30 27 C -5.509541 -1.762887 -0.537436 0
M  V30 28 C -4.348380 -2.048188 0.112356 0
M  V30 29 C 0.059194 0.080643 -0.668990 0
M  V30 30 C 3.870155 0.313190 2.716798 0
M  V30 31 C 4.992093 0.039726 3.477785 0
M  V30 32 N 6.233368 -0.056318 2.971826 0
M  V30 33 H 8.658740 -0.823288 -0.492113 0
M  V30 34 H 9.036200 0.952295 -0.150972 0
M  V30 35 H 7.460616 0.501392 -0.858445 0
M  V30 36 H 8.570334 -0.210909 1.818969 0
M  V30 37 H 5.527084 0.532938 -0.231507 0
M  V30 38 H 1.415116 0.789988 1.845861 0
M  V30 39 H 0.753496 3.266124 0.049074 0
M  V30 40 H -1.053977 3.639278 -1.618597 0
M  V30 41 H -2.130992 1.769209 -2.660546 0
M  V30 42 H -1.112592 -1.759203 -2.293356 0
M  V30 43 H -1.818523 -0.545226 -3.412761 0
M  V30 44 H -3.781461 -0.881520 -2.305268 0
M  V30 45 H -1.263174 -2.910826 2.056462 0
M  V30 46 H -3.909553 -4.607340 4.035425 0
M  V30 47 H -4.256105 -3.375610 4.754374 0
M  V30 48 H -7.821301 -2.884226 1.679901 0
M  V30 49 H -7.674337 -1.808159 -0.549687 0
M  V30 50 H -5.523766 -1.299536 -1.502296 0
M  V30 51 H 0.308952 -0.943625 -0.470337 0
M  V30 52 H 2.904315 0.379959 3.163341 0
M  V30 53 H 4.875371 -0.107049 4.541896 0
M  V30 END ATOM
M  V30 BEGIN BOND
M  V30 1 1 1 2
M  V30 2 1 2 3
M  V30 3 2 3 4
M  V30 4 1 4 5
M  V30 5 1 5 6
M  V30 6 2 6 7
M  V30 7 1 6 8
M  V30 8 1 8 9
M  V30 9 2 9 10
M  V30 10 1 10 11
M  V30 11 2 11 12
M  V30 12 1 12 13
M  V30 13 1 13 14
M  V30 14 1 14 15
M  V30 15 1 15 16
M  V30 16 2 16 17
M  V30 17 1 17 18
M  V30 18 2 18 19
M  V30 19 1 19 20
M  V30 20 2 20 21
M  V30 21 1 21 22
M  V30 22 1 22 23
M  V30 23 2 22 24
M  V30 24 1 21 25
M  V30 25 2 25 26
M  V30 26 1 26 27
M  V30 27 2 27 28
M  V30 28 2 13 29
M  V30 29 2 5 30
M  V30 30 1 30 31
M  V30 31 2 31 32
M  V30 32 1 32 3
M  V30 33 1 29 9
M  V30 34 1 28 16
M  V30 35 1 28 20
M  V30 36 1 1 33
M  V30 37 1 1 34
M  V30 38 1 1 35
M  V30 39 1 2 36
M  V30 40 1 4 37
M  V30 41 1 8 38
M  V30 42 1 10 39
M  V30 43 1 11 40
M  V30 44 1 12 41
M  V30 45 1 14 42
M  V30 46 1 14 43
M  V30 47 1 15 44
M  V30 48 1 18 45
M  V30 49 1 23 46
M  V30 50 1 23 47
M  V30 51 1 25 48
M  V30 52 1 26 49
M  V30 53 1 27 50
M  V30 54 1 29 51
M  V30 55 1 30 52
M  V30 56 1 31 53
M  V30 END BOND
M  V30 END CTAB
M  END
>  <Dataset>  (292) 
ChEMBL_Kinases

>  <Ligand_Instance>  (292) 
nan

>  <PDB_ID>  (292) 
nan

>  <Standardized_SMILES>  (292) 
CNc1cc(C(=O)Nc2cccc(CNc3ncnc4c(C(N)=O)cccc34)c2)ccn1

>  <Name>  (292) 
nan

>  <Pocket>  (292) 
nan

>  <ATP_Site>  (292) 
nan

>  <Peripheral>  (292) 
nan

>  <Num_H_Atoms_ProtBoundConf>  (292) 
nan

>  <Num_Resolved_Atoms>  (292) 
nan

>  <Num_Not_Resolved_Atoms>  (292) 
nan

$$$$
CHEMBL4214092
     RDKit          3D

  0  0  0  0  0  0  0  0  0  0999 V3000
M  V30 BEGIN CTAB
M  V30 COUNTS 58 62 0 0 0
M  V30 BEGIN ATOM
M  V30 1 C 5.404108 -3.294129 1.381957 0
M  V30 2 N 5.741039 -1.966380 1.775340 0
M  V30 3 C 6.693430 -1.281538 0.969783 0
M  V30 4 C 6.172702 -0.661510 -0.279961 0
M  V30 5 N 4.882022 -0.030841 -0.089505 0
M  V30 6 C 4.027380 0.360024 -1.164794 0
M  V30 7 O 4.481151 0.129859 -2.316256 0
M  V30 8 C 2.782664 0.952920 -0.697838 0
M  V30 9 C 2.455297 2.217834 -0.261573 0
M  V30 10 C 1.189862 2.546612 0.151701 0
M  V30 11 C 0.152991 1.638081 0.162639 0
M  V30 12 C -1.174142 2.020779 0.608304 0
M  V30 13 C -2.242077 1.163468 0.625002 0
M  V30 14 N -3.510060 1.393316 1.001832 0
M  V30 15 C -4.647787 0.662924 1.066009 0
M  V30 16 C -4.734522 -0.758947 0.658868 0
M  V30 17 C -5.763640 -1.104788 -0.218491 0
M  V30 18 C -5.851793 -2.427599 -0.586878 0
M  V30 19 C -4.957265 -3.359633 -0.103282 0
M  V30 20 C -4.881411 -4.784633 -0.364297 0
M  V30 21 O -4.105719 -5.654908 0.054930 0
M  V30 22 N -5.812386 -5.390488 -1.238796 0
M  V30 23 O -6.505739 -6.248179 -1.982356 0
M  V30 24 C -3.961222 -2.961181 0.760019 0
M  V30 25 C -3.816275 -1.642949 1.171411 0
M  V30 26 C -5.607740 1.556192 1.553125 0
M  V30 27 N -5.035776 2.753886 1.758950 0
M  V30 28 C -3.740480 2.674428 1.424771 0
M  V30 29 C -2.717017 3.628594 1.447010 0
M  V30 30 N -1.515178 3.244110 1.041908 0
M  V30 31 C 0.447314 0.359488 -0.269555 0
M  V30 32 C 1.738225 0.013689 -0.694178 0
M  V30 33 C 4.592256 0.148864 1.335356 0
M  V30 34 C 4.583870 -1.182493 2.055651 0
M  V30 35 H 6.253256 -4.010069 1.508277 0
M  V30 36 H 4.997794 -3.304591 0.347818 0
M  V30 37 H 4.539201 -3.606893 2.037834 0
M  V30 38 H 7.564061 -1.922383 0.730492 0
M  V30 39 H 7.107354 -0.450805 1.605747 0
M  V30 40 H 6.174029 -1.348980 -1.151043 0
M  V30 41 H 6.871279 0.176865 -0.564980 0
M  V30 42 H 3.310513 2.872964 -0.298811 0
M  V30 43 H 1.065109 3.582921 0.473961 0
M  V30 44 H -2.104393 0.127249 0.287181 0
M  V30 45 H -6.490737 -0.430180 -0.629416 0
M  V30 46 H -6.571270 -2.880729 -1.248269 0
M  V30 47 H -6.591538 -4.860640 -1.736701 0
M  V30 48 H -6.002158 -6.864684 -2.540442 0
M  V30 49 H -3.217190 -3.655149 1.179275 0
M  V30 50 H -3.031004 -1.353248 1.856749 0
M  V30 51 H -6.628839 1.209109 1.700393 0
M  V30 52 H -2.939761 4.633717 1.789660 0
M  V30 53 H -0.310173 -0.423457 -0.296666 0
M  V30 54 H 1.861752 -1.020341 -1.010543 0
M  V30 55 H 5.402605 0.815774 1.707150 0
M  V30 56 H 3.622552 0.622791 1.519956 0
M  V30 57 H 3.658068 -1.716491 1.740090 0
M  V30 58 H 4.440013 -0.945472 3.142746 0
M  V30 END ATOM
M  V30 BEGIN BOND
M  V30 1 1 1 2
M  V30 2 1 2 3
M  V30 3 1 3 4
M  V30 4 1 4 5
M  V30 5 1 5 6
M  V30 6 2 6 7
M  V30 7 1 6 8
M  V30 8 2 8 9
M  V30 9 1 9 10
M  V30 10 2 10 11
M  V30 11 1 11 12
M  V30 12 2 12 13
M  V30 13 1 13 14
M  V30 14 1 14 15
M  V30 15 1 15 16
M  V30 16 2 16 17
M  V30 17 1 17 18
M  V30 18 2 18 19
M  V30 19 1 19 20
M  V30 20 2 20 21
M  V30 21 1 20 22
M  V30 22 1 22 23
M  V30 23 1 19 24
M  V30 24 2 24 25
M  V30 25 2 15 26
M  V30 26 1 26 27
M  V30 27 2 27 28
M  V30 28 1 28 29
M  V30 29 2 29 30
M  V30 30 1 11 31
M  V30 31 2 31 32
M  V30 32 1 5 33
M  V30 33 1 33 34
M  V30 34 1 34 2
M  V30 35 1 32 8
M  V30 36 1 30 12
M  V30 37 1 28 14
M  V30 38 1 25 16
M  V30 39 1 1 35
M  V30 40 1 1 36
M  V30 41 1 1 37
M  V30 42 1 3 38
M  V30 43 1 3 39
M  V30 44 1 4 40
M  V30 45 1 4 41
M  V30 46 1 9 42
M  V30 47 1 10 43
M  V30 48 1 13 44
M  V30 49 1 17 45
M  V30 50 1 18 46
M  V30 51 1 22 47
M  V30 52 1 23 48
M  V30 53 1 24 49
M  V30 54 1 25 50
M  V30 55 1 26 51
M  V30 56 1 29 52
M  V30 57 1 31 53
M  V30 58 1 32 54
M  V30 59 1 33 55
M  V30 60 1 33 56
M  V30 61 1 34 57
M  V30 62 1 34 58
M  V30 END BOND
M  V30 END CTAB
M  END
>  <Dataset>  (293) 
ChEMBL_Kinases

>  <Ligand_Instance>  (293) 
nan

>  <PDB_ID>  (293) 
nan

>  <Standardized_SMILES>  (293) 
CN1CCN(C(=O)c2ccc(-c3cn4c(-c5ccc(C(=O)NO)cc5)cnc4cn3)cc2)CC1

>  <Name>  (293) 
nan

>  <Pocket>  (293) 
nan

>  <ATP_Site>  (293) 
nan

>  <Peripheral>  (293) 
nan

>  <Num_H_Atoms_ProtBoundConf>  (293) 
nan

>  <Num_Resolved_Atoms>  (293) 
nan

>  <Num_Not_Resolved_Atoms>  (293) 
nan

$$$$
CHEMBL3675528
     RDKit          3D

  0  0  0  0  0  0  0  0  0  0999 V3000
M  V30 BEGIN CTAB
M  V30 COUNTS 50 52 0 0 0
M  V30 BEGIN ATOM
M  V30 1 C 0.976630 -0.744144 5.053760 0
M  V30 2 O 2.247654 -0.286788 4.654621 0
M  V30 3 C 2.589390 -0.017867 3.345848 0
M  V30 4 C 3.857144 0.421467 3.082856 0
M  V30 5 C 4.165914 0.680890 1.765067 0
M  V30 6 C 5.508811 1.150238 1.468151 0
M  V30 7 N 5.853510 1.429887 0.124492 0
M  V30 8 O 6.410508 1.333613 2.318714 0
M  V30 9 C 3.216580 0.494793 0.784700 0
M  V30 10 N 3.579964 0.761531 -0.460737 0
M  V30 11 C 2.813029 0.644604 -1.539044 0
M  V30 12 N 1.574789 0.217192 -1.293144 0
M  V30 13 C 1.097700 -0.082870 -0.073344 0
M  V30 14 N -0.204436 -0.531536 0.259178 0
M  V30 15 C -1.497785 -0.977173 0.589450 0
M  V30 16 C -2.656977 -0.067549 0.392816 0
M  V30 17 N -2.834131 0.356970 -0.935529 0
M  V30 18 C -1.903809 1.279713 -1.489580 0
M  V30 19 C -4.182499 0.828418 -1.127820 0
M  V30 20 C -1.851811 -2.373241 0.180717 0
M  V30 21 C -2.502280 -3.286445 1.008812 0
M  V30 22 C -2.818868 -4.564512 0.613961 0
M  V30 23 C -2.480803 -4.970442 -0.660303 0
M  V30 24 F -2.804006 -6.239036 -1.029721 0
M  V30 25 C -1.836841 -4.092965 -1.505966 0
M  V30 26 C -1.530897 -2.813081 -1.080664 0
M  V30 27 C 1.936802 0.054016 1.027266 0
M  V30 28 C 1.654211 -0.197698 2.352709 0
M  V30 29 H 1.014938 -0.996628 6.133122 0
M  V30 30 H 0.189100 0.021329 4.955640 0
M  V30 31 H 0.703638 -1.697893 4.537854 0
M  V30 32 H 4.648878 0.588708 3.800691 0
M  V30 33 H 5.676005 2.102229 -0.653866 0
M  V30 34 H 6.090290 1.653254 -0.854683 0
M  V30 35 H 3.075626 0.851450 -2.560876 0
M  V30 36 H -0.632793 -0.621254 -0.689263 0
M  V30 37 H -1.459769 -1.095914 1.747375 0
M  V30 38 H -2.583142 0.768352 1.136044 0
M  V30 39 H -3.564099 -0.647642 0.745160 0
M  V30 40 H -2.495779 2.180722 -1.860074 0
M  V30 41 H -1.310461 0.870767 -2.349766 0
M  V30 42 H -1.140560 1.660340 -0.756846 0
M  V30 43 H -4.849418 -0.046216 -0.875496 0
M  V30 44 H -4.370684 1.085216 -2.202263 0
M  V30 45 H -4.404141 1.698833 -0.484057 0
M  V30 46 H -2.757338 -2.940186 2.006915 0
M  V30 47 H -3.329860 -5.230643 1.315373 0
M  V30 48 H -1.599887 -4.472401 -2.490625 0
M  V30 49 H -1.034771 -2.237208 -1.829543 0
M  V30 50 H 0.658254 -0.544642 2.571184 0
M  V30 END ATOM
M  V30 BEGIN BOND
M  V30 1 1 1 2
M  V30 2 1 2 3
M  V30 3 2 3 4
M  V30 4 1 4 5
M  V30 5 1 5 6
M  V30 6 1 6 7
M  V30 7 2 6 8
M  V30 8 2 5 9
M  V30 9 1 9 10
M  V30 10 2 10 11
M  V30 11 1 11 12
M  V30 12 2 12 13
M  V30 13 1 13 14
M  V30 14 1 14 15
M  V30 15 1 15 16
M  V30 16 1 16 17
M  V30 17 1 17 18
M  V30 18 1 17 19
M  V30 19 1 15 20
M  V30 20 2 20 21
M  V30 21 1 21 22
M  V30 22 2 22 23
M  V30 23 1 23 24
M  V30 24 1 23 25
M  V30 25 2 25 26
M  V30 26 1 13 27
M  V30 27 2 27 28
M  V30 28 1 28 3
M  V30 29 1 27 9
M  V30 30 1 26 20
M  V30 31 1 1 29
M  V30 32 1 1 30
M  V30 33 1 1 31
M  V30 34 1 4 32
M  V30 35 1 7 33
M  V30 36 1 7 34
M  V30 37 1 11 35
M  V30 38 1 14 36
M  V30 39 1 15 37
M  V30 40 1 16 38
M  V30 41 1 16 39
M  V30 42 1 18 40
M  V30 43 1 18 41
M  V30 44 1 18 42
M  V30 45 1 19 43
M  V30 46 1 19 44
M  V30 47 1 19 45
M  V30 48 1 21 46
M  V30 49 1 22 47
M  V30 50 1 25 48
M  V30 51 1 26 49
M  V30 52 1 28 50
M  V30 END BOND
M  V30 END CTAB
M  END
>  <Dataset>  (294) 
ChEMBL_Kinases

>  <Ligand_Instance>  (294) 
nan

>  <PDB_ID>  (294) 
nan

>  <Standardized_SMILES>  (294) 
COc1cc(C(N)=O)c2ncnc(NC(CN(C)C)c3ccc(F)cc3)c2c1

>  <Name>  (294) 
nan

>  <Pocket>  (294) 
nan

>  <ATP_Site>  (294) 
nan

>  <Peripheral>  (294) 
nan

>  <Num_H_Atoms_ProtBoundConf>  (294) 
nan

>  <Num_Resolved_Atoms>  (294) 
nan

>  <Num_Not_Resolved_Atoms>  (294) 
nan

$$$$
CHEMBL3675527
     RDKit          3D

  0  0  0  0  0  0  0  0  0  0999 V3000
M  V30 BEGIN CTAB
M  V30 COUNTS 57 59 0 0 0
M  V30 BEGIN ATOM
M  V30 1 C -1.985971 1.030728 4.370280 0
M  V30 2 O -0.971241 0.466341 5.116119 0
M  V30 3 C 0.187341 0.308455 4.375370 0
M  V30 4 C 0.670178 1.634017 3.900718 0
M  V30 5 O 1.826561 1.655812 3.147032 0
M  V30 6 C 2.017329 1.073967 1.927426 0
M  V30 7 C 3.340065 1.317265 1.521498 0
M  V30 8 C 3.817461 0.832074 0.294353 0
M  V30 9 C 5.205267 1.080568 -0.146423 0
M  V30 10 N 5.634175 0.547047 -1.389804 0
M  V30 11 O 5.975337 1.755239 0.582869 0
M  V30 12 C 2.963196 0.109586 -0.510466 0
M  V30 13 N 3.374186 -0.377499 -1.704178 0
M  V30 14 C 2.499445 -1.085867 -2.474930 0
M  V30 15 N 1.237158 -1.309282 -2.071219 0
M  V30 16 C 0.750082 -0.854628 -0.889228 0
M  V30 17 N -0.602747 -1.112954 -0.532776 0
M  V30 18 C -1.459000 -1.884594 -1.403745 0
M  V30 19 C -2.829066 -1.335982 -1.454337 0
M  V30 20 N -2.937774 0.003177 -1.955018 0
M  V30 21 C -4.399369 0.270342 -2.012130 0
M  V30 22 C -2.456495 0.968489 -0.990794 0
M  V30 23 C -1.390311 -3.287749 -0.938077 0
M  V30 24 C -2.505399 -4.098815 -0.891859 0
M  V30 25 C -2.558681 -5.408057 -0.470114 0
M  V30 26 C -1.360693 -5.988563 -0.040011 0
M  V30 27 C -0.211784 -5.228088 -0.062544 0
M  V30 28 F 0.923255 -5.824944 0.360281 0
M  V30 29 C -0.258043 -3.930682 -0.500282 0
M  V30 30 C 1.665946 -0.145041 -0.143400 0
M  V30 31 C 1.236295 0.346812 1.064795 0
M  V30 32 H -2.212403 0.399792 3.461954 0
M  V30 33 H -2.957222 0.975098 4.966714 0
M  V30 34 H -1.882727 2.100205 4.160399 0
M  V30 35 H 0.990485 -0.063672 5.103456 0
M  V30 36 H 0.080893 -0.479705 3.613761 0
M  V30 37 H 0.841468 2.250773 4.832606 0
M  V30 38 H -0.121404 2.181177 3.323465 0
M  V30 39 H 4.118425 1.876460 2.067456 0
M  V30 40 H 6.318875 -0.218701 -1.115824 0
M  V30 41 H 6.314288 -0.216579 -1.224617 0
M  V30 42 H 2.760966 -1.509195 -3.449797 0
M  V30 43 H -1.077125 -0.816983 0.338618 0
M  V30 44 H -1.013357 -1.856109 -2.415349 0
M  V30 45 H -3.271179 -1.305297 -0.412669 0
M  V30 46 H -3.561211 -1.935235 -2.023073 0
M  V30 47 H -4.817408 0.006338 -0.998417 0
M  V30 48 H -4.807581 -0.459209 -2.727076 0
M  V30 49 H -4.541634 1.323308 -2.250705 0
M  V30 50 H -2.836509 0.667788 0.001276 0
M  V30 51 H -1.376198 1.092883 -0.969256 0
M  V30 52 H -2.960471 1.955470 -1.293528 0
M  V30 53 H -3.484555 -3.756726 -1.198484 0
M  V30 54 H -3.439493 -6.024253 -0.441857 0
M  V30 55 H -1.329780 -7.011197 0.303475 0
M  V30 56 H 0.687210 -3.429752 -0.469412 0
M  V30 57 H 0.242959 0.212396 1.428566 0
M  V30 END ATOM
M  V30 BEGIN BOND
M  V30 1 1 1 2
M  V30 2 1 2 3
M  V30 3 1 3 4
M  V30 4 1 4 5
M  V30 5 1 5 6
M  V30 6 2 6 7
M  V30 7 1 7 8
M  V30 8 1 8 9
M  V30 9 1 9 10
M  V30 10 2 9 11
M  V30 11 2 8 12
M  V30 12 1 12 13
M  V30 13 2 13 14
M  V30 14 1 14 15
M  V30 15 2 15 16
M  V30 16 1 16 17
M  V30 17 1 17 18
M  V30 18 1 18 19
M  V30 19 1 19 20
M  V30 20 1 20 21
M  V30 21 1 20 22
M  V30 22 1 18 23
M  V30 23 2 23 24
M  V30 24 1 24 25
M  V30 25 2 25 26
M  V30 26 1 26 27
M  V30 27 1 27 28
M  V30 28 2 27 29
M  V30 29 1 16 30
M  V30 30 2 30 31
M  V30 31 1 31 6
M  V30 32 1 30 12
M  V30 33 1 29 23
M  V30 34 1 1 32
M  V30 35 1 1 33
M  V30 36 1 1 34
M  V30 37 1 3 35
M  V30 38 1 3 36
M  V30 39 1 4 37
M  V30 40 1 4 38
M  V30 41 1 7 39
M  V30 42 1 10 40
M  V30 43 1 10 41
M  V30 44 1 14 42
M  V30 45 1 17 43
M  V30 46 1 18 44
M  V30 47 1 19 45
M  V30 48 1 19 46
M  V30 49 1 21 47
M  V30 50 1 21 48
M  V30 51 1 21 49
M  V30 52 1 22 50
M  V30 53 1 22 51
M  V30 54 1 22 52
M  V30 55 1 24 53
M  V30 56 1 25 54
M  V30 57 1 26 55
M  V30 58 1 29 56
M  V30 59 1 31 57
M  V30 END BOND
M  V30 END CTAB
M  END
>  <Dataset>  (295) 
ChEMBL_Kinases

>  <Ligand_Instance>  (295) 
nan

>  <PDB_ID>  (295) 
nan

>  <Standardized_SMILES>  (295) 
COCCOc1cc(C(N)=O)c2ncnc(NC(CN(C)C)c3cccc(F)c3)c2c1

>  <Name>  (295) 
nan

>  <Pocket>  (295) 
nan

>  <ATP_Site>  (295) 
nan

>  <Peripheral>  (295) 
nan

>  <Num_H_Atoms_ProtBoundConf>  (295) 
nan

>  <Num_Resolved_Atoms>  (295) 
nan

>  <Num_Not_Resolved_Atoms>  (295) 
nan

$$$$
CHEMBL3237442
     RDKit          3D

  0  0  0  0  0  0  0  0  0  0999 V3000
M  V30 BEGIN CTAB
M  V30 COUNTS 57 62 0 0 0
M  V30 BEGIN ATOM
M  V30 1 C 0.614193 -6.464391 3.573667 0
M  V30 2 C 1.161063 -5.220746 3.313499 0
M  V30 3 C 0.955588 -4.696019 2.051235 0
M  V30 4 C 1.384182 -3.492620 1.540547 0
M  V30 5 C 2.112147 -2.446921 2.033238 0
M  V30 6 N 2.374129 -1.366484 1.253176 0
M  V30 7 C 1.919315 -1.297067 -0.036028 0
M  V30 8 N 2.359002 -0.056860 -0.565815 0
M  V30 9 C 1.534725 1.070385 -0.288995 0
M  V30 10 C 0.367145 0.904911 0.443329 0
M  V30 11 C -0.505616 1.920443 0.789980 0
M  V30 12 C -0.196452 3.223918 0.373623 0
M  V30 13 N -0.995512 4.367842 0.649038 0
M  V30 14 C -0.662522 5.771775 0.496060 0
M  V30 15 C -0.894459 6.398201 1.852649 0
M  V30 16 N -1.105407 5.426341 2.904266 0
M  V30 17 C -2.240248 4.558611 2.645265 0
M  V30 18 C -2.354329 4.253690 1.152335 0
M  V30 19 C 0.970064 3.332452 -0.348308 0
M  V30 20 N 1.803432 2.328611 -0.673081 0
M  V30 21 N 1.213288 -2.342020 -0.472403 0
M  V30 22 C 0.927177 -3.417677 0.237244 0
M  V30 23 N 0.238851 -4.529324 -0.064069 0
M  V30 24 C -0.401060 -4.876654 -1.301713 0
M  V30 25 C -1.249129 -3.797792 -1.905414 0
M  V30 26 C -1.602653 -4.458581 -3.242304 0
M  V30 27 C -0.262180 -4.980759 -3.665325 0
M  V30 28 C 0.526598 -5.257075 -2.393715 0
M  V30 29 C 0.257400 -5.316583 1.057134 0
M  V30 30 C -0.258737 -6.561506 1.400489 0
M  V30 31 N -0.079678 -7.102774 2.616249 0
M  V30 32 H 0.763803 -6.902249 4.572996 0
M  V30 33 H 1.732889 -4.659380 4.051396 0
M  V30 34 H 2.453734 -2.544155 3.066256 0
M  V30 35 H 3.236220 0.113019 -1.144837 0
M  V30 36 H 0.054820 -0.081926 0.804028 0
M  V30 37 H -1.404298 1.773793 1.360546 0
M  V30 38 H 0.376680 5.916873 0.141862 0
M  V30 39 H -1.377172 6.240872 -0.209703 0
M  V30 40 H -1.674781 7.198105 1.840110 0
M  V30 41 H 0.061174 6.928140 2.126755 0
M  V30 42 H -1.338848 5.952468 3.772940 0
M  V30 43 H -2.020529 3.586321 3.138097 0
M  V30 44 H -3.191728 4.926214 3.061523 0
M  V30 45 H -2.729883 3.246673 0.939039 0
M  V30 46 H -3.063524 4.954538 0.663727 0
M  V30 47 H 1.274158 4.307353 -0.703203 0
M  V30 48 H -1.074996 -5.742139 -1.119749 0
M  V30 49 H -0.640540 -2.890602 -2.069311 0
M  V30 50 H -2.172431 -3.598881 -1.319315 0
M  V30 51 H -2.314687 -5.277070 -3.000056 0
M  V30 52 H -2.053775 -3.728443 -3.944763 0
M  V30 53 H -0.340949 -5.859909 -4.307428 0
M  V30 54 H 0.206854 -4.145874 -4.261304 0
M  V30 55 H 1.454900 -4.667686 -2.459882 0
M  V30 56 H 0.760203 -6.343667 -2.362602 0
M  V30 57 H -0.825598 -7.091465 0.628116 0
M  V30 END ATOM
M  V30 BEGIN BOND
M  V30 1 2 1 2
M  V30 2 1 2 3
M  V30 3 1 3 4
M  V30 4 2 4 5
M  V30 5 1 5 6
M  V30 6 2 6 7
M  V30 7 1 7 8
M  V30 8 1 8 9
M  V30 9 2 9 10
M  V30 10 1 10 11
M  V30 11 2 11 12
M  V30 12 1 12 13
M  V30 13 1 13 14
M  V30 14 1 14 15
M  V30 15 1 15 16
M  V30 16 1 16 17
M  V30 17 1 17 18
M  V30 18 1 12 19
M  V30 19 2 19 20
M  V30 20 1 7 21
M  V30 21 2 21 22
M  V30 22 1 22 23
M  V30 23 1 23 24
M  V30 24 1 24 25
M  V30 25 1 25 26
M  V30 26 1 26 27
M  V30 27 1 27 28
M  V30 28 1 23 29
M  V30 29 1 29 30
M  V30 30 2 30 31
M  V30 31 1 31 1
M  V30 32 2 29 3
M  V30 33 1 22 4
M  V30 34 1 28 24
M  V30 35 1 20 9
M  V30 36 1 18 13
M  V30 37 1 1 32
M  V30 38 1 2 33
M  V30 39 1 5 34
M  V30 40 1 8 35
M  V30 41 1 10 36
M  V30 42 1 11 37
M  V30 43 1 14 38
M  V30 44 1 14 39
M  V30 45 1 15 40
M  V30 46 1 15 41
M  V30 47 1 16 42
M  V30 48 1 17 43
M  V30 49 1 17 44
M  V30 50 1 18 45
M  V30 51 1 18 46
M  V30 52 1 19 47
M  V30 53 1 24 48
M  V30 54 1 25 49
M  V30 55 1 25 50
M  V30 56 1 26 51
M  V30 57 1 26 52
M  V30 58 1 27 53
M  V30 59 1 27 54
M  V30 60 1 28 55
M  V30 61 1 28 56
M  V30 62 1 30 57
M  V30 END BOND
M  V30 END CTAB
M  END
>  <Dataset>  (296) 
ChEMBL_Kinases

>  <Ligand_Instance>  (296) 
nan

>  <PDB_ID>  (296) 
nan

>  <Standardized_SMILES>  (296) 
c1cc2c3cnc(Nc4ccc(N5CCNCC5)cn4)nc3n(C3CCCC3)c2cn1

>  <Name>  (296) 
nan

>  <Pocket>  (296) 
nan

>  <ATP_Site>  (296) 
nan

>  <Peripheral>  (296) 
nan

>  <Num_H_Atoms_ProtBoundConf>  (296) 
nan

>  <Num_Resolved_Atoms>  (296) 
nan

>  <Num_Not_Resolved_Atoms>  (296) 
nan

$$$$
CHEMBL3237443
     RDKit          3D

  0  0  0  0  0  0  0  0  0  0999 V3000
M  V30 BEGIN CTAB
M  V30 COUNTS 57 62 0 0 0
M  V30 BEGIN ATOM
M  V30 1 F 2.117150 -5.964290 1.446158 0
M  V30 2 C 3.095222 -5.046168 1.585074 0
M  V30 3 N 4.179494 -5.330824 2.321166 0
M  V30 4 C 5.213177 -4.459788 2.510153 0
M  V30 5 C 5.185513 -3.186282 1.922330 0
M  V30 6 C 4.079498 -2.874415 1.160900 0
M  V30 7 C 3.702909 -1.763241 0.446002 0
M  V30 8 C 4.329624 -0.533912 0.247983 0
M  V30 9 N 3.744223 0.410207 -0.506778 0
M  V30 10 C 2.549726 0.186203 -1.079992 0
M  V30 11 N 1.644375 0.924516 -1.897172 0
M  V30 12 C 0.474996 1.370664 -1.231598 0
M  V30 13 C 0.262754 1.111412 0.099696 0
M  V30 14 C -0.867410 1.495948 0.810601 0
M  V30 15 C -1.836376 2.185428 0.117626 0
M  V30 16 N -2.998060 2.580126 0.837034 0
M  V30 17 C -3.048156 2.714385 2.282884 0
M  V30 18 C -3.935563 1.551928 2.757213 0
M  V30 19 N -5.264874 1.837945 2.216904 0
M  V30 20 C -5.262186 1.801390 0.764526 0
M  V30 21 C -4.315310 2.880110 0.247504 0
M  V30 22 C -1.619144 2.443485 -1.210676 0
M  V30 23 N -0.499954 2.052238 -1.874720 0
M  V30 24 N 1.964960 -0.991819 -0.880737 0
M  V30 25 C 2.461444 -2.009438 -0.143601 0
M  V30 26 N 2.114105 -3.276744 0.233982 0
M  V30 27 C 0.849685 -3.764969 -0.257499 0
M  V30 28 C -0.316956 -2.951612 0.290429 0
M  V30 29 C -1.368449 -3.113254 -0.800645 0
M  V30 30 C -0.529345 -2.908597 -2.052705 0
M  V30 31 C 0.691784 -3.743210 -1.731047 0
M  V30 32 C 3.082370 -3.797573 1.016002 0
M  V30 33 H 6.038460 -4.792892 3.119013 0
M  V30 34 H 5.991796 -2.495507 2.066369 0
M  V30 35 H 5.278826 -0.293867 0.676556 0
M  V30 36 H 1.835701 1.118078 -2.902954 0
M  V30 37 H 1.008575 0.564539 0.693131 0
M  V30 38 H -0.961444 1.259670 1.847062 0
M  V30 39 H -2.072395 2.664380 2.775979 0
M  V30 40 H -3.585109 3.652781 2.564634 0
M  V30 41 H -3.997326 1.519128 3.845827 0
M  V30 42 H -3.487767 0.661923 2.275520 0
M  V30 43 H -5.944784 1.101735 2.541032 0
M  V30 44 H -6.278836 2.052277 0.424595 0
M  V30 45 H -4.995905 0.815484 0.398673 0
M  V30 46 H -4.637527 3.841718 0.688276 0
M  V30 47 H -4.297687 2.926706 -0.841919 0
M  V30 48 H -2.383640 2.986518 -1.740433 0
M  V30 49 H 0.721817 -4.808211 0.095742 0
M  V30 50 H -0.677061 -3.342223 1.252025 0
M  V30 51 H -0.034391 -1.886409 0.297187 0
M  V30 52 H -1.767107 -4.144186 -0.777891 0
M  V30 53 H -2.159561 -2.345768 -0.715646 0
M  V30 54 H -1.090765 -3.330621 -2.920171 0
M  V30 55 H -0.331066 -1.843186 -2.187435 0
M  V30 56 H 1.576828 -3.451740 -2.311301 0
M  V30 57 H 0.431152 -4.773931 -2.119777 0
M  V30 END ATOM
M  V30 BEGIN BOND
M  V30 1 1 1 2
M  V30 2 2 2 3
M  V30 3 1 3 4
M  V30 4 2 4 5
M  V30 5 1 5 6
M  V30 6 1 6 7
M  V30 7 2 7 8
M  V30 8 1 8 9
M  V30 9 2 9 10
M  V30 10 1 10 11
M  V30 11 1 11 12
M  V30 12 2 12 13
M  V30 13 1 13 14
M  V30 14 2 14 15
M  V30 15 1 15 16
M  V30 16 1 16 17
M  V30 17 1 17 18
M  V30 18 1 18 19
M  V30 19 1 19 20
M  V30 20 1 20 21
M  V30 21 1 15 22
M  V30 22 2 22 23
M  V30 23 1 10 24
M  V30 24 2 24 25
M  V30 25 1 25 26
M  V30 26 1 26 27
M  V30 27 1 27 28
M  V30 28 1 28 29
M  V30 29 1 29 30
M  V30 30 1 30 31
M  V30 31 1 26 32
M  V30 32 1 32 2
M  V30 33 2 32 6
M  V30 34 1 25 7
M  V30 35 1 31 27
M  V30 36 1 23 12
M  V30 37 1 21 16
M  V30 38 1 4 33
M  V30 39 1 5 34
M  V30 40 1 8 35
M  V30 41 1 11 36
M  V30 42 1 13 37
M  V30 43 1 14 38
M  V30 44 1 17 39
M  V30 45 1 17 40
M  V30 46 1 18 41
M  V30 47 1 18 42
M  V30 48 1 19 43
M  V30 49 1 20 44
M  V30 50 1 20 45
M  V30 51 1 21 46
M  V30 52 1 21 47
M  V30 53 1 22 48
M  V30 54 1 27 49
M  V30 55 1 28 50
M  V30 56 1 28 51
M  V30 57 1 29 52
M  V30 58 1 29 53
M  V30 59 1 30 54
M  V30 60 1 30 55
M  V30 61 1 31 56
M  V30 62 1 31 57
M  V30 END BOND
M  V30 END CTAB
M  END
>  <Dataset>  (297) 
ChEMBL_Kinases

>  <Ligand_Instance>  (297) 
nan

>  <PDB_ID>  (297) 
nan

>  <Standardized_SMILES>  (297) 
Fc1nccc2c3cnc(Nc4ccc(N5CCNCC5)cn4)nc3n(C3CCCC3)c12

>  <Name>  (297) 
nan

>  <Pocket>  (297) 
nan

>  <ATP_Site>  (297) 
nan

>  <Peripheral>  (297) 
nan

>  <Num_H_Atoms_ProtBoundConf>  (297) 
nan

>  <Num_Resolved_Atoms>  (297) 
nan

>  <Num_Not_Resolved_Atoms>  (297) 
nan

$$$$
CHEMBL3237444
     RDKit          3D

  0  0  0  0  0  0  0  0  0  0999 V3000
M  V30 BEGIN CTAB
M  V30 COUNTS 57 62 0 0 0
M  V30 BEGIN ATOM
M  V30 1 Cl 1.989893 -6.096283 1.847491 0
M  V30 2 C 3.174144 -4.852961 2.002035 0
M  V30 3 N 4.212415 -5.075503 2.828293 0
M  V30 4 C 5.197461 -4.170194 3.029382 0
M  V30 5 C 5.178228 -2.959031 2.384221 0
M  V30 6 C 4.122543 -2.662391 1.507213 0
M  V30 7 C 3.704478 -1.643729 0.689665 0
M  V30 8 C 4.350615 -0.443182 0.506884 0
M  V30 9 N 3.802496 0.455631 -0.335398 0
M  V30 10 C 2.646273 0.153128 -0.969686 0
M  V30 11 N 1.745730 0.786043 -1.893391 0
M  V30 12 C 0.500599 1.245365 -1.351928 0
M  V30 13 C 0.267935 1.055007 0.008311 0
M  V30 14 C -0.949649 1.478512 0.535376 0
M  V30 15 C -1.921714 2.080681 -0.270422 0
M  V30 16 N -3.117736 2.467911 0.386727 0
M  V30 17 C -3.216506 2.671314 1.822838 0
M  V30 18 C -3.988861 1.430428 2.297180 0
M  V30 19 N -5.290092 1.531247 1.745635 0
M  V30 20 C -5.427877 1.700949 0.354937 0
M  V30 21 C -4.425367 2.693569 -0.224593 0
M  V30 22 C -1.611517 2.230632 -1.598001 0
M  V30 23 N -0.443562 1.826882 -2.115071 0
M  V30 24 N 2.107788 -1.027845 -0.724250 0
M  V30 25 C 2.528496 -2.000463 0.069940 0
M  V30 26 N 2.203026 -3.257108 0.503083 0
M  V30 27 C 0.973109 -3.790178 -0.051967 0
M  V30 28 C -0.240370 -3.087292 0.562084 0
M  V30 29 C -1.292872 -3.186048 -0.521274 0
M  V30 30 C -0.488190 -2.764160 -1.728462 0
M  V30 31 C 0.805206 -3.484246 -1.524047 0
M  V30 32 C 3.162851 -3.640237 1.360608 0
M  V30 33 H 6.053115 -4.304019 3.684461 0
M  V30 34 H 5.933199 -2.166434 2.487785 0
M  V30 35 H 5.267689 -0.125030 0.969912 0
M  V30 36 H 1.977176 0.907467 -2.909722 0
M  V30 37 H 1.012096 0.584690 0.660660 0
M  V30 38 H -1.044987 1.288599 1.589538 0
M  V30 39 H -2.250594 2.707701 2.341469 0
M  V30 40 H -3.849565 3.571646 2.075332 0
M  V30 41 H -4.018063 1.317713 3.374560 0
M  V30 42 H -3.465657 0.565644 1.794970 0
M  V30 43 H -6.045485 1.047006 2.244047 0
M  V30 44 H -6.444696 2.039919 0.117655 0
M  V30 45 H -5.287546 0.683388 -0.119166 0
M  V30 46 H -4.757159 3.701560 0.084690 0
M  V30 47 H -4.396506 2.630301 -1.330572 0
M  V30 48 H -2.400256 2.703784 -2.179172 0
M  V30 49 H 0.875365 -4.881601 0.017033 0
M  V30 50 H -0.579582 -3.579657 1.486756 0
M  V30 51 H 0.027048 -2.025174 0.655346 0
M  V30 52 H -1.645038 -4.220251 -0.705410 0
M  V30 53 H -2.132877 -2.481402 -0.335488 0
M  V30 54 H -0.997763 -3.075272 -2.668578 0
M  V30 55 H -0.432051 -1.657125 -1.662202 0
M  V30 56 H 1.691146 -2.987862 -1.965018 0
M  V30 57 H 0.714032 -4.425788 -2.151209 0
M  V30 END ATOM
M  V30 BEGIN BOND
M  V30 1 1 1 2
M  V30 2 2 2 3
M  V30 3 1 3 4
M  V30 4 2 4 5
M  V30 5 1 5 6
M  V30 6 1 6 7
M  V30 7 2 7 8
M  V30 8 1 8 9
M  V30 9 2 9 10
M  V30 10 1 10 11
M  V30 11 1 11 12
M  V30 12 2 12 13
M  V30 13 1 13 14
M  V30 14 2 14 15
M  V30 15 1 15 16
M  V30 16 1 16 17
M  V30 17 1 17 18
M  V30 18 1 18 19
M  V30 19 1 19 20
M  V30 20 1 20 21
M  V30 21 1 15 22
M  V30 22 2 22 23
M  V30 23 1 10 24
M  V30 24 2 24 25
M  V30 25 1 25 26
M  V30 26 1 26 27
M  V30 27 1 27 28
M  V30 28 1 28 29
M  V30 29 1 29 30
M  V30 30 1 30 31
M  V30 31 1 26 32
M  V30 32 1 32 2
M  V30 33 2 32 6
M  V30 34 1 25 7
M  V30 35 1 31 27
M  V30 36 1 23 12
M  V30 37 1 21 16
M  V30 38 1 4 33
M  V30 39 1 5 34
M  V30 40 1 8 35
M  V30 41 1 11 36
M  V30 42 1 13 37
M  V30 43 1 14 38
M  V30 44 1 17 39
M  V30 45 1 17 40
M  V30 46 1 18 41
M  V30 47 1 18 42
M  V30 48 1 19 43
M  V30 49 1 20 44
M  V30 50 1 20 45
M  V30 51 1 21 46
M  V30 52 1 21 47
M  V30 53 1 22 48
M  V30 54 1 27 49
M  V30 55 1 28 50
M  V30 56 1 28 51
M  V30 57 1 29 52
M  V30 58 1 29 53
M  V30 59 1 30 54
M  V30 60 1 30 55
M  V30 61 1 31 56
M  V30 62 1 31 57
M  V30 END BOND
M  V30 END CTAB
M  END
>  <Dataset>  (298) 
ChEMBL_Kinases

>  <Ligand_Instance>  (298) 
nan

>  <PDB_ID>  (298) 
nan

>  <Standardized_SMILES>  (298) 
Clc1nccc2c3cnc(Nc4ccc(N5CCNCC5)cn4)nc3n(C3CCCC3)c12

>  <Name>  (298) 
nan

>  <Pocket>  (298) 
nan

>  <ATP_Site>  (298) 
nan

>  <Peripheral>  (298) 
nan

>  <Num_H_Atoms_ProtBoundConf>  (298) 
nan

>  <Num_Resolved_Atoms>  (298) 
nan

>  <Num_Not_Resolved_Atoms>  (298) 
nan

$$$$
CHEMBL3747207
     RDKit          3D

  0  0  0  0  0  0  0  0  0  0999 V3000
M  V30 BEGIN CTAB
M  V30 COUNTS 59 62 0 0 0
M  V30 BEGIN ATOM
M  V30 1 N -2.318420 3.032175 0.237868 0
M  V30 2 C -0.939919 2.693859 0.288183 0
M  V30 3 C -0.015340 3.615303 -0.208422 0
M  V30 4 C 1.309138 3.279305 -0.155024 0
M  V30 5 C 1.798935 2.094468 0.354540 0
M  V30 6 C 3.272231 1.796926 0.378826 0
M  V30 7 C 3.801614 1.704901 1.781870 0
M  V30 8 C 3.501396 0.388787 2.458944 0
M  V30 9 C 3.547490 -0.762159 1.505149 0
M  V30 10 C 4.423627 -0.407719 0.296812 0
M  V30 11 C 3.627317 0.624052 -0.480027 0
M  V30 12 N 0.875383 1.235880 0.822035 0
M  V30 13 C -0.430817 1.515946 0.793064 0
M  V30 14 C -1.385827 0.533480 1.320240 0
M  V30 15 O -2.619996 0.846822 1.270540 0
M  V30 16 N -0.935571 -0.709375 1.859495 0
M  V30 17 C -1.980280 -1.556118 2.330918 0
M  V30 18 C -2.339542 -1.393117 3.670169 0
M  V30 19 N -3.334684 -2.175562 4.181698 0
M  V30 20 C -3.964720 -3.096402 3.402835 0
M  V30 21 C -3.613601 -3.267348 2.063772 0
M  V30 22 C -2.609611 -2.486047 1.526699 0
M  V30 23 N -2.204826 -2.619132 0.148829 0
M  V30 24 C -2.182743 -1.695473 -0.990621 0
M  V30 25 C -2.497224 -2.533388 -2.218941 0
M  V30 26 C -1.232987 -3.343837 -2.531907 0
M  V30 27 C -0.682530 -3.941733 -1.263281 0 CFG=2
M  V30 28 N -0.277070 -5.319081 -1.456595 0
M  V30 29 C -1.719759 -3.958579 -0.153335 0
M  V30 30 H -3.086004 2.701823 -0.397750 0
M  V30 31 H -2.897818 3.673759 0.801657 0
M  V30 32 H -0.380671 4.552816 -0.613328 0
M  V30 33 H 1.987981 4.028259 -0.553084 0
M  V30 34 H 3.764319 2.697874 -0.074770 0
M  V30 35 H 4.914726 1.802506 1.717723 0
M  V30 36 H 3.346459 2.500636 2.383443 0
M  V30 37 H 2.529655 0.426417 3.000916 0
M  V30 38 H 4.262175 0.222841 3.249237 0
M  V30 39 H 2.553516 -0.992988 1.055734 0
M  V30 40 H 3.931069 -1.651460 2.045262 0
M  V30 41 H 5.365622 -0.025363 0.687650 0
M  V30 42 H 4.487940 -1.341646 -0.292111 0
M  V30 43 H 4.261772 0.911476 -1.357321 0
M  V30 44 H 2.681707 0.143488 -0.804036 0
M  V30 45 H 0.095932 -0.855956 1.847780 0
M  V30 46 H -1.892393 -0.689553 4.352594 0
M  V30 47 H -4.744397 -3.683214 3.871580 0
M  V30 48 H -4.126770 -4.007718 1.454432 0
M  V30 49 H -2.908743 -0.879722 -0.850304 0
M  V30 50 H -1.156484 -1.296668 -1.064635 0
M  V30 51 H -3.287698 -3.294184 -2.015710 0
M  V30 52 H -2.787917 -1.913234 -3.070996 0
M  V30 53 H -0.540528 -2.601169 -2.993985 0
M  V30 54 H -1.438114 -4.092137 -3.322037 0
M  V30 55 H 0.221774 -3.371399 -0.990743 0
M  V30 56 H -0.172255 -5.546158 -2.473796 0
M  V30 57 H 0.630523 -5.523978 -0.944287 0
M  V30 58 H -1.243992 -4.457952 0.696528 0
M  V30 59 H -2.574178 -4.549166 -0.570427 0
M  V30 END ATOM
M  V30 BEGIN BOND
M  V30 1 1 1 2
M  V30 2 2 2 3
M  V30 3 1 3 4
M  V30 4 2 4 5
M  V30 5 1 5 6
M  V30 6 1 6 7
M  V30 7 1 7 8
M  V30 8 1 8 9
M  V30 9 1 9 10
M  V30 10 1 10 11
M  V30 11 1 5 12
M  V30 12 2 12 13
M  V30 13 1 13 14
M  V30 14 2 14 15
M  V30 15 1 14 16
M  V30 16 1 16 17
M  V30 17 2 17 18
M  V30 18 1 18 19
M  V30 19 2 19 20
M  V30 20 1 20 21
M  V30 21 2 21 22
M  V30 22 1 22 23
M  V30 23 1 23 24
M  V30 24 1 24 25
M  V30 25 1 25 26
M  V30 26 1 26 27
M  V30 27 1 27 28
M  V30 28 1 27 29
M  V30 29 1 13 2
M  V30 30 1 22 17
M  V30 31 1 29 23
M  V30 32 1 11 6
M  V30 33 1 1 30
M  V30 34 1 1 31
M  V30 35 1 3 32
M  V30 36 1 4 33
M  V30 37 1 6 34
M  V30 38 1 7 35
M  V30 39 1 7 36
M  V30 40 1 8 37
M  V30 41 1 8 38
M  V30 42 1 9 39
M  V30 43 1 9 40
M  V30 44 1 10 41
M  V30 45 1 10 42
M  V30 46 1 11 43
M  V30 47 1 11 44
M  V30 48 1 16 45
M  V30 49 1 18 46
M  V30 50 1 20 47
M  V30 51 1 21 48
M  V30 52 1 24 49
M  V30 53 1 24 50
M  V30 54 1 25 51
M  V30 55 1 25 52
M  V30 56 1 26 53
M  V30 57 1 26 54
M  V30 58 1 27 55 CFG=1
M  V30 59 1 28 56
M  V30 60 1 28 57
M  V30 61 1 29 58
M  V30 62 1 29 59
M  V30 END BOND
M  V30 END CTAB
M  END
>  <Dataset>  (299) 
ChEMBL_Kinases

>  <Ligand_Instance>  (299) 
nan

>  <PDB_ID>  (299) 
nan

>  <Standardized_SMILES>  (299) 
Nc1ccc(C2CCCCC2)nc1C(=O)Nc1cnccc1N1CCC[C@H](N)C1

>  <Name>  (299) 
nan

>  <Pocket>  (299) 
nan

>  <ATP_Site>  (299) 
nan

>  <Peripheral>  (299) 
nan

>  <Num_H_Atoms_ProtBoundConf>  (299) 
nan

>  <Num_Resolved_Atoms>  (299) 
nan

>  <Num_Not_Resolved_Atoms>  (299) 
nan

$$$$
CHEMBL3675526
     RDKit          3D

  0  0  0  0  0  0  0  0  0  0999 V3000
M  V30 BEGIN CTAB
M  V30 COUNTS 52 54 0 0 0
M  V30 BEGIN ATOM
M  V30 1 C 2.418812 -3.598029 4.296205 0
M  V30 2 C 1.189317 -2.712568 4.010444 0
M  V30 3 C 0.040470 -3.634149 3.933573 0
M  V30 4 N 1.527512 -1.883312 2.941178 0
M  V30 5 C 2.678939 -1.081925 3.325548 0
M  V30 6 C 0.594966 -1.044475 2.311478 0
M  V30 7 C -0.489220 -1.657141 1.500136 0 CFG=1
M  V30 8 N -1.325835 -0.571034 0.958773 0
M  V30 9 C -0.809741 0.371535 0.003074 0
M  V30 10 N 0.443337 0.322688 -0.472947 0
M  V30 11 C 0.974314 1.163448 -1.367506 0
M  V30 12 N 0.191345 2.149507 -1.839162 0
M  V30 13 C -1.085185 2.302711 -1.437914 0
M  V30 14 C -1.878766 3.317308 -1.928582 0
M  V30 15 C -1.374399 4.273509 -2.904876 0
M  V30 16 N -0.047185 4.236114 -3.407828 0
M  V30 17 O -2.068872 5.199623 -3.374974 0
M  V30 18 C -3.187323 3.471423 -1.515029 0
M  V30 19 C -3.688540 2.567733 -0.581619 0
M  V30 20 C -2.861001 1.564990 -0.114179 0
M  V30 21 C -1.569329 1.401448 -0.513503 0
M  V30 22 C 0.012246 -2.446460 0.340239 0
M  V30 23 C 1.267750 -2.926159 0.042738 0
M  V30 24 C 1.464591 -3.641874 -1.116949 0
M  V30 25 C 0.466420 -3.926887 -2.038180 0
M  V30 26 C -0.785958 -3.440079 -1.726973 0
M  V30 27 C -1.011320 -2.721389 -0.574509 0
M  V30 28 H 3.314249 -3.001134 4.067283 0
M  V30 29 H 2.440364 -3.940127 5.347308 0
M  V30 30 H 2.358902 -4.401976 3.547807 0
M  V30 31 H 1.076226 -2.141238 4.983726 0
M  V30 32 H 0.221419 -4.456597 4.699979 0
M  V30 33 H -0.065722 -4.205428 2.989855 0
M  V30 34 H -0.929377 -3.214708 4.267680 0
M  V30 35 H 2.516718 0.001558 3.051080 0
M  V30 36 H 3.595330 -1.436804 2.795700 0
M  V30 37 H 2.789297 -1.068867 4.420753 0
M  V30 38 H 1.183982 -0.370315 1.617371 0
M  V30 39 H 0.139514 -0.311007 3.016167 0
M  V30 40 H -1.148913 -2.283236 2.107894 0
M  V30 41 H -2.289174 -0.516046 1.292695 0
M  V30 42 H 2.010151 0.984951 -1.649556 0
M  V30 43 H 0.822706 3.688549 -3.535638 0
M  V30 44 H 0.440298 4.998037 -3.892367 0
M  V30 45 H -3.786852 4.284465 -1.923043 0
M  V30 46 H -4.729398 2.720972 -0.277351 0
M  V30 47 H -3.360039 0.940525 0.594116 0
M  V30 48 H 1.992158 -2.679315 0.777913 0
M  V30 49 H 2.507428 -3.964136 -1.230201 0
M  V30 50 H 0.777142 -4.499183 -2.898078 0
M  V30 51 H -1.555805 -3.670664 -2.458410 0
M  V30 52 H -2.043610 -2.411376 -0.477649 0
M  V30 END ATOM
M  V30 BEGIN BOND
M  V30 1 1 1 2
M  V30 2 1 2 3
M  V30 3 1 2 4
M  V30 4 1 4 5
M  V30 5 1 4 6
M  V30 6 1 6 7
M  V30 7 1 7 8
M  V30 8 1 8 9
M  V30 9 2 9 10
M  V30 10 1 10 11
M  V30 11 2 11 12
M  V30 12 1 12 13
M  V30 13 2 13 14
M  V30 14 1 14 15
M  V30 15 1 15 16
M  V30 16 2 15 17
M  V30 17 1 14 18
M  V30 18 2 18 19
M  V30 19 1 19 20
M  V30 20 2 20 21
M  V30 21 1 7 22
M  V30 22 2 22 23
M  V30 23 1 23 24
M  V30 24 2 24 25
M  V30 25 1 25 26
M  V30 26 2 26 27
M  V30 27 1 21 9
M  V30 28 1 27 22
M  V30 29 1 21 13
M  V30 30 1 1 28
M  V30 31 1 1 29
M  V30 32 1 1 30
M  V30 33 1 2 31
M  V30 34 1 3 32
M  V30 35 1 3 33
M  V30 36 1 3 34
M  V30 37 1 5 35
M  V30 38 1 5 36
M  V30 39 1 5 37
M  V30 40 1 6 38
M  V30 41 1 6 39
M  V30 42 1 7 40 CFG=1
M  V30 43 1 8 41
M  V30 44 1 11 42
M  V30 45 1 16 43
M  V30 46 1 16 44
M  V30 47 1 18 45
M  V30 48 1 19 46
M  V30 49 1 20 47
M  V30 50 1 23 48
M  V30 51 1 24 49
M  V30 52 1 25 50
M  V30 53 1 26 51
M  V30 54 1 27 52
M  V30 END BOND
M  V30 END CTAB
M  END
>  <Dataset>  (300) 
ChEMBL_Kinases

>  <Ligand_Instance>  (300) 
nan

>  <PDB_ID>  (300) 
nan

>  <Standardized_SMILES>  (300) 
CC(C)N(C)C[C@@H](Nc1ncnc2c(C(N)=O)cccc12)c1ccccc1

>  <Name>  (300) 
nan

>  <Pocket>  (300) 
nan

>  <ATP_Site>  (300) 
nan

>  <Peripheral>  (300) 
nan

>  <Num_H_Atoms_ProtBoundConf>  (300) 
nan

>  <Num_Resolved_Atoms>  (300) 
nan

>  <Num_Not_Resolved_Atoms>  (300) 
nan

$$$$
CHEMBL3237446
     RDKit          3D

  0  0  0  0  0  0  0  0  0  0999 V3000
M  V30 BEGIN CTAB
M  V30 COUNTS 58 63 0 0 0
M  V30 BEGIN ATOM
M  V30 1 O 2.461251 -5.650975 0.516903 0
M  V30 2 C 3.249620 -4.769102 0.944367 0
M  V30 3 N 4.235864 -5.207188 1.743975 0
M  V30 4 C 5.150820 -4.378077 2.274485 0
M  V30 5 C 5.111162 -3.020383 2.013687 0
M  V30 6 C 4.097745 -2.576554 1.192731 0
M  V30 7 C 3.784440 -1.304256 0.741810 0
M  V30 8 C 4.326290 -0.050468 0.927228 0
M  V30 9 N 3.816825 1.058753 0.362897 0
M  V30 10 C 2.718649 0.906016 -0.421004 0
M  V30 11 N 1.877653 1.805747 -1.178933 0
M  V30 12 C 0.578775 2.001613 -0.633950 0
M  V30 13 C 0.209844 1.378277 0.561611 0
M  V30 14 C -1.037131 1.475522 1.155434 0
M  V30 15 C -1.975158 2.262905 0.485851 0
M  V30 16 N -3.262474 2.374278 1.091128 0
M  V30 17 C -3.479668 2.100696 2.502680 0
M  V30 18 C -4.257069 0.829635 2.616755 0
M  V30 19 N -5.118259 0.595272 1.472312 0
M  V30 20 C -5.593401 1.836548 0.884786 0
M  V30 21 C -4.497227 2.735961 0.403586 0
M  V30 22 C -1.632644 2.887879 -0.693472 0
M  V30 23 N -0.397765 2.730328 -1.185776 0
M  V30 24 N 2.204852 -0.319178 -0.590232 0
M  V30 25 C 2.678789 -1.453199 -0.046969 0
M  V30 26 N 2.268223 -2.757049 -0.123334 0
M  V30 27 C 1.169056 -3.329952 -0.821766 0
M  V30 28 C -0.114250 -3.354515 -0.009972 0
M  V30 29 C -1.216838 -2.843284 -0.917605 0
M  V30 30 C -0.621890 -3.120973 -2.286681 0
M  V30 31 C 0.787514 -2.540738 -2.054949 0
M  V30 32 C 3.147380 -3.430874 0.640457 0
M  V30 33 H 4.354287 -6.213053 2.003108 0
M  V30 34 H 5.938682 -4.727532 2.912125 0
M  V30 35 H 5.804458 -2.293201 2.399360 0
M  V30 36 H 5.183891 0.097870 1.532455 0
M  V30 37 H 2.097778 2.329391 -2.064392 0
M  V30 38 H 0.925459 0.752404 1.113678 0
M  V30 39 H -1.244646 0.969342 2.068710 0
M  V30 40 H -4.122619 2.914632 2.937093 0
M  V30 41 H -2.568774 2.103833 3.104049 0
M  V30 42 H -4.903016 0.835902 3.514655 0
M  V30 43 H -3.543049 0.000578 2.702954 0
M  V30 44 H -4.742902 -0.056174 0.779844 0
M  V30 45 H -6.180331 1.513971 -0.013988 0
M  V30 46 H -6.305106 2.323692 1.566462 0
M  V30 47 H -4.366532 2.679836 -0.701324 0
M  V30 48 H -4.711318 3.791101 0.649129 0
M  V30 49 H -2.355848 3.495905 -1.204900 0
M  V30 50 H 1.412478 -4.363177 -1.147041 0
M  V30 51 H -0.050953 -2.718698 0.872436 0
M  V30 52 H -0.403918 -4.402485 0.212651 0
M  V30 53 H -1.347032 -1.737457 -0.863536 0
M  V30 54 H -2.170145 -3.380108 -0.737982 0
M  V30 55 H -1.098482 -2.499262 -3.070127 0
M  V30 56 H -0.546815 -4.188615 -2.513177 0
M  V30 57 H 0.571188 -1.465174 -1.820905 0
M  V30 58 H 1.446894 -2.674040 -2.912111 0
M  V30 END ATOM
M  V30 BEGIN BOND
M  V30 1 2 1 2
M  V30 2 1 2 3
M  V30 3 1 3 4
M  V30 4 2 4 5
M  V30 5 1 5 6
M  V30 6 1 6 7
M  V30 7 2 7 8
M  V30 8 1 8 9
M  V30 9 2 9 10
M  V30 10 1 10 11
M  V30 11 1 11 12
M  V30 12 2 12 13
M  V30 13 1 13 14
M  V30 14 2 14 15
M  V30 15 1 15 16
M  V30 16 1 16 17
M  V30 17 1 17 18
M  V30 18 1 18 19
M  V30 19 1 19 20
M  V30 20 1 20 21
M  V30 21 1 15 22
M  V30 22 2 22 23
M  V30 23 1 10 24
M  V30 24 2 24 25
M  V30 25 1 25 26
M  V30 26 1 26 27
M  V30 27 1 27 28
M  V30 28 1 28 29
M  V30 29 1 29 30
M  V30 30 1 30 31
M  V30 31 1 26 32
M  V30 32 1 32 2
M  V30 33 2 32 6
M  V30 34 1 25 7
M  V30 35 1 31 27
M  V30 36 1 23 12
M  V30 37 1 21 16
M  V30 38 1 3 33
M  V30 39 1 4 34
M  V30 40 1 5 35
M  V30 41 1 8 36
M  V30 42 1 11 37
M  V30 43 1 13 38
M  V30 44 1 14 39
M  V30 45 1 17 40
M  V30 46 1 17 41
M  V30 47 1 18 42
M  V30 48 1 18 43
M  V30 49 1 19 44
M  V30 50 1 20 45
M  V30 51 1 20 46
M  V30 52 1 21 47
M  V30 53 1 21 48
M  V30 54 1 22 49
M  V30 55 1 27 50
M  V30 56 1 28 51
M  V30 57 1 28 52
M  V30 58 1 29 53
M  V30 59 1 29 54
M  V30 60 1 30 55
M  V30 61 1 30 56
M  V30 62 1 31 57
M  V30 63 1 31 58
M  V30 END BOND
M  V30 END CTAB
M  END
>  <Dataset>  (301) 
ChEMBL_Kinases

>  <Ligand_Instance>  (301) 
nan

>  <PDB_ID>  (301) 
nan

>  <Standardized_SMILES>  (301) 
O=c1[nH]ccc2c3cnc(Nc4ccc(N5CCNCC5)cn4)nc3n(C3CCCC3)c12

>  <Name>  (301) 
nan

>  <Pocket>  (301) 
nan

>  <ATP_Site>  (301) 
nan

>  <Peripheral>  (301) 
nan

>  <Num_H_Atoms_ProtBoundConf>  (301) 
nan

>  <Num_Resolved_Atoms>  (301) 
nan

>  <Num_Not_Resolved_Atoms>  (301) 
nan

$$$$
CHEMBL3237447
     RDKit          3D

  0  0  0  0  0  0  0  0  0  0999 V3000
M  V30 BEGIN CTAB
M  V30 COUNTS 58 63 0 0 0
M  V30 BEGIN ATOM
M  V30 1 N 2.115724 -6.361201 -1.943439 0
M  V30 2 C 2.815767 -5.563454 -1.482197 0
M  V30 3 C 3.694751 -4.595990 -0.902874 0
M  V30 4 N 4.881253 -5.073286 -0.467648 0
M  V30 5 C 5.829966 -4.315554 0.107644 0
M  V30 6 C 5.625313 -2.966029 0.285905 0
M  V30 7 C 4.419055 -2.455967 -0.151632 0
M  V30 8 C 3.872493 -1.208181 -0.146982 0
M  V30 9 C 4.427125 -0.043414 0.338448 0
M  V30 10 N 3.691425 1.075560 0.238350 0
M  V30 11 C 2.449685 1.042847 -0.322259 0
M  V30 12 N 1.453872 2.038198 -0.535521 0
M  V30 13 C 0.313238 1.915945 0.334393 0
M  V30 14 C -0.744587 2.794355 0.274365 0
M  V30 15 C -1.834743 2.648449 1.098345 0
M  V30 16 C -1.938524 1.632108 2.019900 0
M  V30 17 N -3.004834 1.376300 2.924616 0
M  V30 18 C -3.231774 0.157440 3.685741 0
M  V30 19 C -4.496724 -0.426840 3.017684 0
M  V30 20 N -5.593412 0.430275 3.315776 0
M  V30 21 C -5.418688 1.818957 3.101376 0
M  V30 22 C -4.036315 2.346080 3.211168 0
M  V30 23 C -0.861904 0.768105 2.057622 0
M  V30 24 N 0.190868 0.932930 1.241812 0
M  V30 25 N 1.958560 -0.119791 -0.779010 0
M  V30 26 C 2.618362 -1.300394 -0.725596 0
M  V30 27 N 2.368177 -2.589797 -1.095211 0
M  V30 28 C 1.116211 -2.895871 -1.709236 0
M  V30 29 C -0.061746 -2.741913 -0.768487 0
M  V30 30 C -1.240465 -2.376026 -1.675777 0
M  V30 31 C -0.619260 -1.506687 -2.725728 0
M  V30 32 C 0.780120 -1.991970 -2.894567 0
M  V30 33 C 3.469634 -3.269411 -0.738698 0
M  V30 34 H 6.773690 -4.766356 0.439374 0
M  V30 35 H 6.365745 -2.323185 0.743443 0
M  V30 36 H 5.385293 0.053325 0.786760 0
M  V30 37 H 1.432834 2.830687 -1.223045 0
M  V30 38 H -0.707754 3.597744 -0.426291 0
M  V30 39 H -2.659138 3.340089 1.045367 0
M  V30 40 H -2.430418 -0.588488 3.585140 0
M  V30 41 H -3.429806 0.417100 4.745343 0
M  V30 42 H -4.704822 -1.447144 3.352096 0
M  V30 43 H -4.285429 -0.348786 1.914445 0
M  V30 44 H -6.404829 0.087961 2.716347 0
M  V30 45 H -6.029233 2.335963 3.910075 0
M  V30 46 H -5.877175 2.194302 2.156458 0
M  V30 47 H -3.924848 3.270544 2.606794 0
M  V30 48 H -3.813009 2.688933 4.265103 0
M  V30 49 H -0.701213 -0.093063 2.687613 0
M  V30 50 H 1.081965 -3.916825 -2.091526 0
M  V30 51 H 0.066804 -1.992796 0.009492 0
M  V30 52 H -0.356972 -3.708822 -0.291565 0
M  V30 53 H -2.036344 -1.826638 -1.143162 0
M  V30 54 H -1.612723 -3.307120 -2.191663 0
M  V30 55 H -0.688777 -0.427085 -2.486587 0
M  V30 56 H -1.126923 -1.627399 -3.724932 0
M  V30 57 H 1.466226 -1.127120 -2.833603 0
M  V30 58 H 0.952841 -2.529441 -3.852493 0
M  V30 END ATOM
M  V30 BEGIN BOND
M  V30 1 3 1 2
M  V30 2 1 2 3
M  V30 3 2 3 4
M  V30 4 1 4 5
M  V30 5 2 5 6
M  V30 6 1 6 7
M  V30 7 1 7 8
M  V30 8 2 8 9
M  V30 9 1 9 10
M  V30 10 2 10 11
M  V30 11 1 11 12
M  V30 12 1 12 13
M  V30 13 2 13 14
M  V30 14 1 14 15
M  V30 15 2 15 16
M  V30 16 1 16 17
M  V30 17 1 17 18
M  V30 18 1 18 19
M  V30 19 1 19 20
M  V30 20 1 20 21
M  V30 21 1 21 22
M  V30 22 1 16 23
M  V30 23 2 23 24
M  V30 24 1 11 25
M  V30 25 2 25 26
M  V30 26 1 26 27
M  V30 27 1 27 28
M  V30 28 1 28 29
M  V30 29 1 29 30
M  V30 30 1 30 31
M  V30 31 1 31 32
M  V30 32 1 27 33
M  V30 33 1 33 3
M  V30 34 2 33 7
M  V30 35 1 26 8
M  V30 36 1 32 28
M  V30 37 1 24 13
M  V30 38 1 22 17
M  V30 39 1 5 34
M  V30 40 1 6 35
M  V30 41 1 9 36
M  V30 42 1 12 37
M  V30 43 1 14 38
M  V30 44 1 15 39
M  V30 45 1 18 40
M  V30 46 1 18 41
M  V30 47 1 19 42
M  V30 48 1 19 43
M  V30 49 1 20 44
M  V30 50 1 21 45
M  V30 51 1 21 46
M  V30 52 1 22 47
M  V30 53 1 22 48
M  V30 54 1 23 49
M  V30 55 1 28 50
M  V30 56 1 29 51
M  V30 57 1 29 52
M  V30 58 1 30 53
M  V30 59 1 30 54
M  V30 60 1 31 55
M  V30 61 1 31 56
M  V30 62 1 32 57
M  V30 63 1 32 58
M  V30 END BOND
M  V30 END CTAB
M  END
>  <Dataset>  (302) 
ChEMBL_Kinases

>  <Ligand_Instance>  (302) 
nan

>  <PDB_ID>  (302) 
nan

>  <Standardized_SMILES>  (302) 
N#Cc1nccc2c3cnc(Nc4ccc(N5CCNCC5)cn4)nc3n(C3CCCC3)c12

>  <Name>  (302) 
nan

>  <Pocket>  (302) 
nan

>  <ATP_Site>  (302) 
nan

>  <Peripheral>  (302) 
nan

>  <Num_H_Atoms_ProtBoundConf>  (302) 
nan

>  <Num_Resolved_Atoms>  (302) 
nan

>  <Num_Not_Resolved_Atoms>  (302) 
nan

$$$$
CHEMBL3237448
     RDKit          3D

  0  0  0  0  0  0  0  0  0  0999 V3000
M  V30 BEGIN CTAB
M  V30 COUNTS 56 61 0 0 0
M  V30 BEGIN ATOM
M  V30 1 C 0.510646 -6.584248 3.720786 0
M  V30 2 C 1.091223 -5.325189 3.626887 0
M  V30 3 C 1.072457 -4.676471 2.419362 0
M  V30 4 C 1.547376 -3.442544 2.008266 0
M  V30 5 C 2.210505 -2.428192 2.662366 0
M  V30 6 N 2.567216 -1.303071 2.022133 0
M  V30 7 C 2.259499 -1.174301 0.696086 0
M  V30 8 N 2.512197 -0.110919 -0.217489 0
M  V30 9 C 1.625725 1.002602 -0.058628 0
M  V30 10 C 0.654518 0.984037 0.954432 0
M  V30 11 C -0.213900 2.063836 1.117923 0
M  V30 12 C -0.157649 3.175595 0.306871 0
M  V30 13 N -1.019648 4.305137 0.456296 0
M  V30 14 C -1.868445 4.515393 1.611450 0
M  V30 15 C -1.628463 5.935658 2.088874 0
M  V30 16 N -1.812759 6.901277 1.052499 0
M  V30 17 C -2.034925 6.346415 -0.245685 0
M  V30 18 C -1.042203 5.266336 -0.604584 0
M  V30 19 C 0.810700 3.147405 -0.673249 0
M  V30 20 N 1.646200 2.104548 -0.827287 0
M  V30 21 N 1.611371 -2.184709 0.085272 0
M  V30 22 C 1.231272 -3.331413 0.674766 0
M  V30 23 N 0.578153 -4.443827 0.225372 0
M  V30 24 C 0.145584 -4.578013 -1.149763 0
M  V30 25 C -1.289646 -4.168974 -1.373080 0
M  V30 26 C -1.938556 -5.367468 -2.032221 0
M  V30 27 C -0.809309 -6.144988 -2.661067 0
M  V30 28 C 0.331774 -5.956011 -1.688191 0
M  V30 29 C 0.496942 -5.235646 1.301023 0
M  V30 30 N -0.052773 -6.451972 1.432040 0
M  V30 31 N -0.027366 -7.060757 2.594698 0
M  V30 32 H 0.474402 -7.163964 4.611214 0
M  V30 33 H 1.542365 -4.879672 4.496220 0
M  V30 34 H 2.471545 -2.490131 3.710157 0
M  V30 35 H 3.229937 -0.058618 -0.944850 0
M  V30 36 H 0.545320 0.138862 1.641585 0
M  V30 37 H -0.941653 1.997759 1.910580 0
M  V30 38 H -2.953301 4.393783 1.357580 0
M  V30 39 H -1.695493 3.785763 2.430293 0
M  V30 40 H -2.224298 6.207237 2.977429 0
M  V30 41 H -0.558444 5.969481 2.390528 0
M  V30 42 H -1.265663 7.758736 1.105170 0
M  V30 43 H -1.918634 7.160269 -0.989675 0
M  V30 44 H -3.048547 5.912261 -0.280621 0
M  V30 45 H -0.034857 5.651593 -0.820590 0
M  V30 46 H -1.396225 4.736332 -1.536685 0
M  V30 47 H 0.952453 3.965069 -1.374689 0
M  V30 48 H 0.758268 -3.894535 -1.820088 0
M  V30 49 H -1.814259 -3.829379 -0.467604 0
M  V30 50 H -1.388609 -3.321359 -2.114101 0
M  V30 51 H -2.509107 -5.963595 -1.306391 0
M  V30 52 H -2.646881 -5.056242 -2.838786 0
M  V30 53 H -1.038660 -7.227280 -2.748934 0
M  V30 54 H -0.529432 -5.678038 -3.613360 0
M  V30 55 H 1.278559 -6.020957 -2.304687 0
M  V30 56 H 0.327001 -6.678769 -0.873008 0
M  V30 END ATOM
M  V30 BEGIN BOND
M  V30 1 2 1 2
M  V30 2 1 2 3
M  V30 3 1 3 4
M  V30 4 2 4 5
M  V30 5 1 5 6
M  V30 6 2 6 7
M  V30 7 1 7 8
M  V30 8 1 8 9
M  V30 9 2 9 10
M  V30 10 1 10 11
M  V30 11 2 11 12
M  V30 12 1 12 13
M  V30 13 1 13 14
M  V30 14 1 14 15
M  V30 15 1 15 16
M  V30 16 1 16 17
M  V30 17 1 17 18
M  V30 18 1 12 19
M  V30 19 2 19 20
M  V30 20 1 7 21
M  V30 21 2 21 22
M  V30 22 1 22 23
M  V30 23 1 23 24
M  V30 24 1 24 25
M  V30 25 1 25 26
M  V30 26 1 26 27
M  V30 27 1 27 28
M  V30 28 1 23 29
M  V30 29 1 29 30
M  V30 30 2 30 31
M  V30 31 1 31 1
M  V30 32 2 29 3
M  V30 33 1 22 4
M  V30 34 1 28 24
M  V30 35 1 20 9
M  V30 36 1 18 13
M  V30 37 1 1 32
M  V30 38 1 2 33
M  V30 39 1 5 34
M  V30 40 1 8 35
M  V30 41 1 10 36
M  V30 42 1 11 37
M  V30 43 1 14 38
M  V30 44 1 14 39
M  V30 45 1 15 40
M  V30 46 1 15 41
M  V30 47 1 16 42
M  V30 48 1 17 43
M  V30 49 1 17 44
M  V30 50 1 18 45
M  V30 51 1 18 46
M  V30 52 1 19 47
M  V30 53 1 24 48
M  V30 54 1 25 49
M  V30 55 1 25 50
M  V30 56 1 26 51
M  V30 57 1 26 52
M  V30 58 1 27 53
M  V30 59 1 27 54
M  V30 60 1 28 55
M  V30 61 1 28 56
M  V30 END BOND
M  V30 END CTAB
M  END
>  <Dataset>  (303) 
ChEMBL_Kinases

>  <Ligand_Instance>  (303) 
nan

>  <PDB_ID>  (303) 
nan

>  <Standardized_SMILES>  (303) 
c1cc2c3cnc(Nc4ccc(N5CCNCC5)cn4)nc3n(C3CCCC3)c2nn1

>  <Name>  (303) 
nan

>  <Pocket>  (303) 
nan

>  <ATP_Site>  (303) 
nan

>  <Peripheral>  (303) 
nan

>  <Num_H_Atoms_ProtBoundConf>  (303) 
nan

>  <Num_Resolved_Atoms>  (303) 
nan

>  <Num_Not_Resolved_Atoms>  (303) 
nan

$$$$
CHEMBL3237449
     RDKit          3D

  0  0  0  0  0  0  0  0  0  0999 V3000
M  V30 BEGIN CTAB
M  V30 COUNTS 54 58 0 0 0
M  V30 BEGIN ATOM
M  V30 1 C 0.497275 -0.135258 3.147308 0
M  V30 2 C 1.898664 -0.453679 2.736098 0 CFG=1
M  V30 3 C 1.884621 -1.624880 1.777680 0
M  V30 4 O 1.317318 -2.719351 2.424397 0
M  V30 5 N 2.557390 0.698938 2.174265 0
M  V30 6 C 3.648696 1.359164 2.622260 0
M  V30 7 C 4.393920 1.070030 3.744613 0
M  V30 8 N 5.472868 1.848386 4.048858 0
M  V30 9 C 5.815548 2.901922 3.255826 0
M  V30 10 C 5.055545 3.188714 2.120126 0
M  V30 11 C 3.954520 2.419283 1.782223 0
M  V30 12 C 3.005177 2.401001 0.778919 0
M  V30 13 C 2.846486 3.233872 -0.311163 0
M  V30 14 N 1.807642 2.963455 -1.132811 0
M  V30 15 C 0.964969 1.925698 -0.896240 0
M  V30 16 N -0.126375 1.676095 -1.797447 0
M  V30 17 C -1.001646 0.592534 -1.546989 0
M  V30 18 C -2.063620 0.308985 -2.379218 0
M  V30 19 C -2.908590 -0.735780 -2.139085 0
M  V30 20 C -2.767217 -1.574343 -1.063004 0
M  V30 21 N -3.610504 -2.673879 -0.760109 0
M  V30 22 C -3.498784 -3.581203 0.339380 0
M  V30 23 C -3.404397 -5.033399 -0.033869 0
M  V30 24 N -4.331096 -5.418716 -1.062251 0
M  V30 25 C -4.525689 -4.435965 -2.075242 0
M  V30 26 C -4.745597 -3.046668 -1.549552 0
M  V30 27 C -1.694915 -1.247854 -0.266920 0
M  V30 28 N -0.850957 -0.222079 -0.487260 0
M  V30 29 N 1.148757 1.134263 0.175205 0
M  V30 30 C 2.161721 1.342281 1.037803 0
M  V30 31 H -0.239465 -0.797694 2.631312 0
M  V30 32 H 0.252460 0.926643 2.909180 0
M  V30 33 H 0.355974 -0.301481 4.226385 0
M  V30 34 H 2.470633 -0.761826 3.634558 0
M  V30 35 H 2.909618 -1.940515 1.495233 0
M  V30 36 H 1.268559 -1.435116 0.888902 0
M  V30 37 H 0.728961 -3.249204 1.800299 0
M  V30 38 H 4.149011 0.249460 4.385985 0
M  V30 39 H 6.672783 3.519248 3.498792 0
M  V30 40 H 5.289139 4.020617 1.454022 0
M  V30 41 H 3.531297 4.036601 -0.458580 0
M  V30 42 H -0.271251 2.278408 -2.617273 0
M  V30 43 H -2.193823 0.959370 -3.235882 0
M  V30 44 H -3.698244 -0.877066 -2.834636 0
M  V30 45 H -4.378633 -3.378060 1.006869 0
M  V30 46 H -2.616961 -3.361132 0.969153 0
M  V30 47 H -3.728398 -5.596489 0.881129 0
M  V30 48 H -2.357737 -5.348789 -0.222700 0
M  V30 49 H -3.924064 -6.271433 -1.547058 0
M  V30 50 H -5.478367 -4.715160 -2.604874 0
M  V30 51 H -3.748323 -4.396692 -2.845875 0
M  V30 52 H -4.940111 -2.398506 -2.429131 0
M  V30 53 H -5.644345 -3.058616 -0.865750 0
M  V30 54 H -1.419484 -1.787588 0.624842 0
M  V30 END ATOM
M  V30 BEGIN BOND
M  V30 1 1 1 2
M  V30 2 1 2 3
M  V30 3 1 3 4
M  V30 4 1 2 5
M  V30 5 1 5 6
M  V30 6 2 6 7
M  V30 7 1 7 8
M  V30 8 2 8 9
M  V30 9 1 9 10
M  V30 10 2 10 11
M  V30 11 1 11 12
M  V30 12 2 12 13
M  V30 13 1 13 14
M  V30 14 2 14 15
M  V30 15 1 15 16
M  V30 16 1 16 17
M  V30 17 2 17 18
M  V30 18 1 18 19
M  V30 19 2 19 20
M  V30 20 1 20 21
M  V30 21 1 21 22
M  V30 22 1 22 23
M  V30 23 1 23 24
M  V30 24 1 24 25
M  V30 25 1 25 26
M  V30 26 1 20 27
M  V30 27 2 27 28
M  V30 28 1 15 29
M  V30 29 2 29 30
M  V30 30 1 30 5
M  V30 31 1 11 6
M  V30 32 1 30 12
M  V30 33 1 28 17
M  V30 34 1 26 21
M  V30 35 1 1 31
M  V30 36 1 1 32
M  V30 37 1 1 33
M  V30 38 1 2 34 CFG=1
M  V30 39 1 3 35
M  V30 40 1 3 36
M  V30 41 1 4 37
M  V30 42 1 7 38
M  V30 43 1 9 39
M  V30 44 1 10 40
M  V30 45 1 13 41
M  V30 46 1 16 42
M  V30 47 1 18 43
M  V30 48 1 19 44
M  V30 49 1 22 45
M  V30 50 1 22 46
M  V30 51 1 23 47
M  V30 52 1 23 48
M  V30 53 1 24 49
M  V30 54 1 25 50
M  V30 55 1 25 51
M  V30 56 1 26 52
M  V30 57 1 26 53
M  V30 58 1 27 54
M  V30 END BOND
M  V30 END CTAB
M  END
>  <Dataset>  (304) 
ChEMBL_Kinases

>  <Ligand_Instance>  (304) 
nan

>  <PDB_ID>  (304) 
nan

>  <Standardized_SMILES>  (304) 
C[C@@H](CO)n1c2cnccc2c2cnc(Nc3ccc(N4CCNCC4)cn3)nc21

>  <Name>  (304) 
nan

>  <Pocket>  (304) 
nan

>  <ATP_Site>  (304) 
nan

>  <Peripheral>  (304) 
nan

>  <Num_H_Atoms_ProtBoundConf>  (304) 
nan

>  <Num_Resolved_Atoms>  (304) 
nan

>  <Num_Not_Resolved_Atoms>  (304) 
nan

$$$$
CHEMBL3237451
     RDKit          3D

  0  0  0  0  0  0  0  0  0  0999 V3000
M  V30 BEGIN CTAB
M  V30 COUNTS 60 65 0 0 0
M  V30 BEGIN ATOM
M  V30 1 C -0.650146 -2.949158 6.910684 0
M  V30 2 C 0.389428 -2.372929 6.177148 0
M  V30 3 C 0.263628 -2.468618 4.812204 0
M  V30 4 C 1.070312 -2.031359 3.783989 0
M  V30 5 C 2.270103 -1.356019 3.790459 0
M  V30 6 N 2.889718 -1.031216 2.621010 0
M  V30 7 C 2.329009 -1.370903 1.436431 0
M  V30 8 N 2.710588 -1.191616 0.078502 0
M  V30 9 C 2.376368 -0.045003 -0.693451 0
M  V30 10 C 2.726773 0.103694 -2.014385 0
M  V30 11 C 2.399302 1.233944 -2.764262 0
M  V30 12 C 1.692929 2.198427 -2.075733 0
M  V30 13 N 1.271592 3.407954 -2.717560 0
M  V30 14 C 0.745357 4.619433 -2.114230 0
M  V30 15 C -0.701788 4.839623 -2.514554 0
M  V30 16 N -1.062825 3.992380 -3.638251 0
M  V30 17 C -0.070946 4.133578 -4.663444 0
M  V30 18 C 1.256643 3.696523 -4.141084 0
M  V30 19 C 1.332841 2.069225 -0.754051 0
M  V30 20 N 1.675880 0.942172 -0.059141 0
M  V30 21 N 1.150769 -2.033287 1.454661 0
M  V30 22 C 0.494659 -2.379629 2.581792 0
M  V30 23 N -0.673635 -3.035890 2.849930 0
M  V30 24 C -1.591020 -3.573066 1.875582 0
M  V30 25 C -1.741598 -5.067487 1.977759 0
M  V30 26 C -3.105932 -5.390814 1.375411 0
M  V30 27 C -3.329949 -4.576881 0.120978 0
M  V30 28 C -2.029464 -4.087715 -0.470841 0
M  V30 29 C -1.190401 -3.274161 0.465556 0
M  V30 30 C -0.808256 -3.087300 4.179723 0
M  V30 31 C -1.766928 -3.615579 5.019563 0
M  V30 32 N -1.733350 -3.572432 6.380495 0
M  V30 33 H -0.558450 -2.878401 7.996098 0
M  V30 34 H 1.211389 -1.898054 6.686455 0
M  V30 35 H 2.798148 -1.040946 4.668015 0
M  V30 36 H 3.262121 -2.004758 -0.262825 0
M  V30 37 H 3.272475 -0.712593 -2.434511 0
M  V30 38 H 2.676984 1.334149 -3.782049 0
M  V30 39 H 0.796944 4.577067 -1.007649 0
M  V30 40 H 1.309557 5.520432 -2.412553 0
M  V30 41 H -1.387277 4.583322 -1.682396 0
M  V30 42 H -0.920487 5.884809 -2.807794 0
M  V30 43 H -1.121619 2.978478 -3.336997 0
M  V30 44 H -0.084719 5.176454 -5.043101 0
M  V30 45 H -0.383820 3.505897 -5.524116 0
M  V30 46 H 2.059987 4.441098 -4.420043 0
M  V30 47 H 1.543617 2.752315 -4.670071 0
M  V30 48 H 0.785757 2.759131 -0.133592 0
M  V30 49 H -2.577094 -3.063734 2.041365 0
M  V30 50 H -0.990292 -5.542160 1.289371 0
M  V30 51 H -1.591578 -5.495778 2.960628 0
M  V30 52 H -3.852382 -5.048170 2.125320 0
M  V30 53 H -3.233215 -6.455406 1.184700 0
M  V30 54 H -3.767552 -5.264900 -0.639941 0
M  V30 55 H -4.072711 -3.756066 0.255415 0
M  V30 56 H -1.497081 -4.977804 -0.900758 0
M  V30 57 H -2.324560 -3.445118 -1.345323 0
M  V30 58 H -1.201192 -2.198954 0.204334 0
M  V30 59 H -0.140532 -3.680877 0.354319 0
M  V30 60 H -2.645406 -4.120296 4.631680 0
M  V30 END ATOM
M  V30 BEGIN BOND
M  V30 1 2 1 2
M  V30 2 1 2 3
M  V30 3 1 3 4
M  V30 4 2 4 5
M  V30 5 1 5 6
M  V30 6 2 6 7
M  V30 7 1 7 8
M  V30 8 1 8 9
M  V30 9 2 9 10
M  V30 10 1 10 11
M  V30 11 2 11 12
M  V30 12 1 12 13
M  V30 13 1 13 14
M  V30 14 1 14 15
M  V30 15 1 15 16
M  V30 16 1 16 17
M  V30 17 1 17 18
M  V30 18 1 12 19
M  V30 19 2 19 20
M  V30 20 1 7 21
M  V30 21 2 21 22
M  V30 22 1 22 23
M  V30 23 1 23 24
M  V30 24 1 24 25
M  V30 25 1 25 26
M  V30 26 1 26 27
M  V30 27 1 27 28
M  V30 28 1 28 29
M  V30 29 1 23 30
M  V30 30 1 30 31
M  V30 31 2 31 32
M  V30 32 1 32 1
M  V30 33 2 30 3
M  V30 34 1 22 4
M  V30 35 1 29 24
M  V30 36 1 20 9
M  V30 37 1 18 13
M  V30 38 1 1 33
M  V30 39 1 2 34
M  V30 40 1 5 35
M  V30 41 1 8 36
M  V30 42 1 10 37
M  V30 43 1 11 38
M  V30 44 1 14 39
M  V30 45 1 14 40
M  V30 46 1 15 41
M  V30 47 1 15 42
M  V30 48 1 16 43
M  V30 49 1 17 44
M  V30 50 1 17 45
M  V30 51 1 18 46
M  V30 52 1 18 47
M  V30 53 1 19 48
M  V30 54 1 24 49
M  V30 55 1 25 50
M  V30 56 1 25 51
M  V30 57 1 26 52
M  V30 58 1 26 53
M  V30 59 1 27 54
M  V30 60 1 27 55
M  V30 61 1 28 56
M  V30 62 1 28 57
M  V30 63 1 29 58
M  V30 64 1 29 59
M  V30 65 1 31 60
M  V30 END BOND
M  V30 END CTAB
M  END
>  <Dataset>  (305) 
ChEMBL_Kinases

>  <Ligand_Instance>  (305) 
nan

>  <PDB_ID>  (305) 
nan

>  <Standardized_SMILES>  (305) 
c1cc2c3cnc(Nc4ccc(N5CCNCC5)cn4)nc3n(C3CCCCC3)c2cn1

>  <Name>  (305) 
nan

>  <Pocket>  (305) 
nan

>  <ATP_Site>  (305) 
nan

>  <Peripheral>  (305) 
nan

>  <Num_H_Atoms_ProtBoundConf>  (305) 
nan

>  <Num_Resolved_Atoms>  (305) 
nan

>  <Num_Not_Resolved_Atoms>  (305) 
nan

$$$$
CHEMBL3237702
     RDKit          3D

  0  0  0  0  0  0  0  0  0  0999 V3000
M  V30 BEGIN CTAB
M  V30 COUNTS 63 68 0 0 0
M  V30 BEGIN ATOM
M  V30 1 C 1.746651 1.530551 4.785167 0
M  V30 2 C 2.428587 0.525982 3.871501 0
M  V30 3 C 3.564004 1.206728 3.181144 0
M  V30 4 C 2.949600 2.207166 2.189061 0
M  V30 5 C 2.222603 1.482090 1.085306 0
M  V30 6 N 1.178411 2.246680 0.462129 0
M  V30 7 C 1.382441 3.396015 -0.207792 0
M  V30 8 C 2.453745 4.202368 -0.528938 0
M  V30 9 N 2.379566 5.338553 -1.234012 0
M  V30 10 C 1.175293 5.781020 -1.696116 0
M  V30 11 C 0.035007 5.043390 -1.427981 0
M  V30 12 C 0.158580 3.869922 -0.692294 0
M  V30 13 C -0.813957 2.996763 -0.313356 0
M  V30 14 C -2.195196 2.905871 -0.482255 0
M  V30 15 N -2.884755 1.875417 0.033972 0
M  V30 16 C -2.219894 0.926182 0.721229 0
M  V30 17 N -3.020569 -0.133700 1.225204 0
M  V30 18 C -2.760257 -1.426153 0.694522 0
M  V30 19 C -1.764872 -1.612468 -0.241666 0
M  V30 20 C -1.469371 -2.846503 -0.778095 0
M  V30 21 C -2.161704 -3.976809 -0.403325 0
M  V30 22 N -1.982556 -5.310707 -0.840838 0
M  V30 23 C -2.790708 -6.471846 -0.533424 0
M  V30 24 C -3.381527 -6.974054 -1.829291 0
M  V30 25 N -2.359256 -7.369637 -2.743452 0
M  V30 26 C -1.379776 -6.333158 -2.994352 0
M  V30 27 C -0.887344 -5.707825 -1.705105 0
M  V30 28 C -3.160625 -3.759255 0.541896 0
M  V30 29 N -3.449001 -2.537271 1.069179 0
M  V30 30 N -0.906568 1.016971 0.879353 0
M  V30 31 C -0.144479 2.006646 0.399036 0
M  V30 32 C 1.829043 0.095849 1.469512 0
M  V30 33 C 1.452468 -0.081013 2.910088 0
M  V30 34 H 1.194129 0.932318 5.542175 0
M  V30 35 H 2.476177 2.147759 5.314614 0
M  V30 36 H 0.981949 2.128462 4.240811 0
M  V30 37 H 2.895631 -0.231419 4.565055 0
M  V30 38 H 4.168483 0.489081 2.592354 0
M  V30 39 H 4.149938 1.819977 3.880041 0
M  V30 40 H 3.868419 2.756310 1.825441 0
M  V30 41 H 2.334474 2.955376 2.697984 0
M  V30 42 H 3.003246 1.373758 0.272066 0
M  V30 43 H 3.425139 3.924380 -0.205884 0
M  V30 44 H 1.147725 6.695583 -2.259698 0
M  V30 45 H -0.887615 5.423038 -1.807151 0
M  V30 46 H -2.678273 3.712421 -1.051564 0
M  V30 47 H -3.774309 -0.030950 1.944721 0
M  V30 48 H -1.156118 -0.811519 -0.613265 0
M  V30 49 H -0.701567 -2.986745 -1.502068 0
M  V30 50 H -3.578534 -6.284491 0.224810 0
M  V30 51 H -2.089177 -7.280871 -0.170704 0
M  V30 52 H -4.083373 -6.209372 -2.214349 0
M  V30 53 H -3.931728 -7.920125 -1.553991 0
M  V30 54 H -2.816132 -7.549362 -3.681443 0
M  V30 55 H -1.712331 -5.579423 -3.736106 0
M  V30 56 H -0.497230 -6.827374 -3.458912 0
M  V30 57 H -0.207664 -4.881168 -1.931322 0
M  V30 58 H -0.254259 -6.484449 -1.203126 0
M  V30 59 H -3.833535 -4.465173 0.990396 0
M  V30 60 H 1.048771 -0.323897 0.839249 0
M  V30 61 H 2.711163 -0.596985 1.317593 0
M  V30 62 H 0.455619 0.250558 3.192775 0
M  V30 63 H 1.461937 -1.192037 3.103788 0
M  V30 END ATOM
M  V30 BEGIN BOND
M  V30 1 1 1 2
M  V30 2 1 2 3
M  V30 3 1 3 4
M  V30 4 1 4 5
M  V30 5 1 5 6
M  V30 6 1 6 7
M  V30 7 2 7 8
M  V30 8 1 8 9
M  V30 9 2 9 10
M  V30 10 1 10 11
M  V30 11 2 11 12
M  V30 12 1 12 13
M  V30 13 2 13 14
M  V30 14 1 14 15
M  V30 15 2 15 16
M  V30 16 1 16 17
M  V30 17 1 17 18
M  V30 18 2 18 19
M  V30 19 1 19 20
M  V30 20 2 20 21
M  V30 21 1 21 22
M  V30 22 1 22 23
M  V30 23 1 23 24
M  V30 24 1 24 25
M  V30 25 1 25 26
M  V30 26 1 26 27
M  V30 27 1 21 28
M  V30 28 2 28 29
M  V30 29 1 16 30
M  V30 30 2 30 31
M  V30 31 1 5 32
M  V30 32 1 32 33
M  V30 33 1 33 2
M  V30 34 1 31 6
M  V30 35 1 12 7
M  V30 36 1 31 13
M  V30 37 1 29 18
M  V30 38 1 27 22
M  V30 39 1 1 34
M  V30 40 1 1 35
M  V30 41 1 1 36
M  V30 42 1 2 37
M  V30 43 1 3 38
M  V30 44 1 3 39
M  V30 45 1 4 40
M  V30 46 1 4 41
M  V30 47 1 5 42
M  V30 48 1 8 43
M  V30 49 1 10 44
M  V30 50 1 11 45
M  V30 51 1 14 46
M  V30 52 1 17 47
M  V30 53 1 19 48
M  V30 54 1 20 49
M  V30 55 1 23 50
M  V30 56 1 23 51
M  V30 57 1 24 52
M  V30 58 1 24 53
M  V30 59 1 25 54
M  V30 60 1 26 55
M  V30 61 1 26 56
M  V30 62 1 27 57
M  V30 63 1 27 58
M  V30 64 1 28 59
M  V30 65 1 32 60
M  V30 66 1 32 61
M  V30 67 1 33 62
M  V30 68 1 33 63
M  V30 END BOND
M  V30 END CTAB
M  END
>  <Dataset>  (306) 
ChEMBL_Kinases

>  <Ligand_Instance>  (306) 
nan

>  <PDB_ID>  (306) 
nan

>  <Standardized_SMILES>  (306) 
CC1CCC(n2c3cnccc3c3cnc(Nc4ccc(N5CCNCC5)cn4)nc32)CC1

>  <Name>  (306) 
nan

>  <Pocket>  (306) 
nan

>  <ATP_Site>  (306) 
nan

>  <Peripheral>  (306) 
nan

>  <Num_H_Atoms_ProtBoundConf>  (306) 
nan

>  <Num_Resolved_Atoms>  (306) 
nan

>  <Num_Not_Resolved_Atoms>  (306) 
nan

$$$$
CHEMBL3237704
     RDKit          3D

  0  0  0  0  0  0  0  0  0  0999 V3000
M  V30 BEGIN CTAB
M  V30 COUNTS 66 71 0 0 0
M  V30 BEGIN ATOM
M  V30 1 C 3.658960 -1.563542 -0.595374 0
M  V30 2 C 2.835850 -0.432572 -0.024802 0
M  V30 3 C 3.057307 -0.468002 1.493523 0
M  V30 4 C 3.389411 0.870004 -0.522009 0
M  V30 5 C 2.379879 1.935779 -0.151917 0
M  V30 6 C 1.213877 1.771984 -1.128075 0
M  V30 7 N 0.150299 2.690138 -0.793403 0
M  V30 8 C 0.277906 4.010105 -1.133004 0
M  V30 9 C 1.246372 4.765262 -1.775385 0
M  V30 10 N 1.078731 6.088442 -1.968111 0
M  V30 11 C -0.003256 6.779956 -1.571184 0
M  V30 12 C -0.984811 6.054834 -0.928463 0
M  V30 13 C -0.826618 4.683153 -0.721013 0
M  V30 14 C -1.641731 3.750366 -0.118820 0
M  V30 15 C -2.869217 3.869959 0.470843 0
M  V30 16 N -3.418829 2.756145 0.978468 0
M  V30 17 C -2.807347 1.537207 0.926897 0
M  V30 18 N -3.503814 0.416975 1.507668 0
M  V30 19 C -3.042419 -0.911265 1.527389 0
M  V30 20 C -3.801640 -1.927346 2.123458 0
M  V30 21 C -3.342623 -3.226612 2.133730 0
M  V30 22 C -2.144685 -3.602116 1.576839 0
M  V30 23 N -1.635480 -4.916640 1.561424 0
M  V30 24 C -0.364927 -5.301242 0.969499 0
M  V30 25 C -0.289870 -6.784814 0.712887 0
M  V30 26 N -0.482512 -7.563910 1.913318 0
M  V30 27 C -1.357154 -6.955819 2.870142 0
M  V30 28 C -2.310345 -6.036594 2.127814 0
M  V30 29 C -1.443686 -2.552758 1.005008 0
M  V30 30 N -1.875897 -1.294921 0.988478 0
M  V30 31 N -1.599646 1.415469 0.347752 0
M  V30 32 C -1.027693 2.517006 -0.168612 0
M  V30 33 C 0.799859 0.359923 -1.288032 0
M  V30 34 C 1.358949 -0.578167 -0.256476 0
M  V30 35 H 3.760724 -2.397799 0.159669 0
M  V30 36 H 3.228303 -1.991793 -1.516311 0
M  V30 37 H 4.700679 -1.217019 -0.761232 0
M  V30 38 H 3.043189 -1.503302 1.872555 0
M  V30 39 H 4.087720 -0.082109 1.629586 0
M  V30 40 H 2.309779 0.152603 2.027599 0
M  V30 41 H 3.476026 0.879464 -1.633255 0
M  V30 42 H 4.337087 1.083237 -0.026575 0
M  V30 43 H 2.777441 2.945244 -0.241362 0
M  V30 44 H 1.934627 1.790194 0.847099 0
M  V30 45 H 1.666389 2.077329 -2.121473 0
M  V30 46 H 2.143556 4.290136 -2.124479 0
M  V30 47 H -0.137883 7.840179 -1.725837 0
M  V30 48 H -1.889422 6.501241 -0.568805 0
M  V30 49 H -3.370427 4.810039 0.526247 0
M  V30 50 H -4.421215 0.599237 1.949309 0
M  V30 51 H -4.762887 -1.705399 2.586689 0
M  V30 52 H -3.960190 -3.980616 2.605049 0
M  V30 53 H -0.185297 -4.816357 -0.016903 0
M  V30 54 H 0.446831 -4.939972 1.620572 0
M  V30 55 H -0.978699 -7.059122 -0.111353 0
M  V30 56 H 0.740351 -6.982547 0.351173 0
M  V30 57 H 0.419377 -7.796904 2.388324 0
M  V30 58 H -1.978522 -7.784639 3.306874 0
M  V30 59 H -0.856040 -6.339574 3.628479 0
M  V30 60 H -2.810543 -6.585164 1.290429 0
M  V30 61 H -3.110996 -5.812841 2.846294 0
M  V30 62 H -0.481459 -2.806354 0.549470 0
M  V30 63 H -0.302747 0.289260 -1.254247 0
M  V30 64 H 1.069645 -0.076740 -2.296697 0
M  V30 65 H 1.210220 -1.605805 -0.645109 0
M  V30 66 H 0.777964 -0.504795 0.685001 0
M  V30 END ATOM
M  V30 BEGIN BOND
M  V30 1 1 1 2
M  V30 2 1 2 3
M  V30 3 1 2 4
M  V30 4 1 4 5
M  V30 5 1 5 6
M  V30 6 1 6 7
M  V30 7 1 7 8
M  V30 8 2 8 9
M  V30 9 1 9 10
M  V30 10 2 10 11
M  V30 11 1 11 12
M  V30 12 2 12 13
M  V30 13 1 13 14
M  V30 14 2 14 15
M  V30 15 1 15 16
M  V30 16 2 16 17
M  V30 17 1 17 18
M  V30 18 1 18 19
M  V30 19 2 19 20
M  V30 20 1 20 21
M  V30 21 2 21 22
M  V30 22 1 22 23
M  V30 23 1 23 24
M  V30 24 1 24 25
M  V30 25 1 25 26
M  V30 26 1 26 27
M  V30 27 1 27 28
M  V30 28 1 22 29
M  V30 29 2 29 30
M  V30 30 1 17 31
M  V30 31 2 31 32
M  V30 32 1 6 33
M  V30 33 1 33 34
M  V30 34 1 34 2
M  V30 35 1 32 7
M  V30 36 1 13 8
M  V30 37 1 32 14
M  V30 38 1 30 19
M  V30 39 1 28 23
M  V30 40 1 1 35
M  V30 41 1 1 36
M  V30 42 1 1 37
M  V30 43 1 3 38
M  V30 44 1 3 39
M  V30 45 1 3 40
M  V30 46 1 4 41
M  V30 47 1 4 42
M  V30 48 1 5 43
M  V30 49 1 5 44
M  V30 50 1 6 45
M  V30 51 1 9 46
M  V30 52 1 11 47
M  V30 53 1 12 48
M  V30 54 1 15 49
M  V30 55 1 18 50
M  V30 56 1 20 51
M  V30 57 1 21 52
M  V30 58 1 24 53
M  V30 59 1 24 54
M  V30 60 1 25 55
M  V30 61 1 25 56
M  V30 62 1 26 57
M  V30 63 1 27 58
M  V30 64 1 27 59
M  V30 65 1 28 60
M  V30 66 1 28 61
M  V30 67 1 29 62
M  V30 68 1 33 63
M  V30 69 1 33 64
M  V30 70 1 34 65
M  V30 71 1 34 66
M  V30 END BOND
M  V30 END CTAB
M  END
>  <Dataset>  (307) 
ChEMBL_Kinases

>  <Ligand_Instance>  (307) 
nan

>  <PDB_ID>  (307) 
nan

>  <Standardized_SMILES>  (307) 
CC1(C)CCC(n2c3cnccc3c3cnc(Nc4ccc(N5CCNCC5)cn4)nc32)CC1

>  <Name>  (307) 
nan

>  <Pocket>  (307) 
nan

>  <ATP_Site>  (307) 
nan

>  <Peripheral>  (307) 
nan

>  <Num_H_Atoms_ProtBoundConf>  (307) 
nan

>  <Num_Resolved_Atoms>  (307) 
nan

>  <Num_Not_Resolved_Atoms>  (307) 
nan

$$$$
CHEMBL4214023
     RDKit          3D

  0  0  0  0  0  0  0  0  0  0999 V3000
M  V30 BEGIN CTAB
M  V30 COUNTS 38 40 0 0 0
M  V30 BEGIN ATOM
M  V30 1 C 0.794630 -4.651463 1.544227 0
M  V30 2 C 2.155471 -4.361330 1.029081 0
M  V30 3 N 3.117686 -5.310730 0.837491 0
M  V30 4 N 4.204632 -4.722388 0.371786 0
M  V30 5 C 3.932911 -3.415373 0.269969 0
M  V30 6 C 2.636415 -3.122390 0.676179 0
M  V30 7 C 2.018348 -1.840108 0.699419 0
M  V30 8 C 0.808708 -1.360815 1.052538 0
M  V30 9 C 0.538522 -0.030232 0.946521 0
M  V30 10 C 1.633183 0.779927 0.439274 0
M  V30 11 S 2.916668 -0.371679 0.161951 0
M  V30 12 C 1.431075 2.218873 0.287958 0
M  V30 13 O 2.446147 2.832842 -0.153877 0
M  V30 14 N 0.149673 2.803678 0.640148 0
M  V30 15 C -0.957732 1.854562 0.365961 0
M  V30 16 C -0.868108 1.406864 -1.049054 0
M  V30 17 C -2.255075 2.513187 0.593202 0
M  V30 18 C -3.457311 1.693125 0.285236 0
M  V30 19 F -4.623888 2.435136 0.558823 0
M  V30 20 F -3.566327 1.492754 -1.118308 0
M  V30 21 F -3.505383 0.430808 0.797899 0
M  V30 22 N -0.660166 0.729290 1.272141 0
M  V30 23 C -1.327480 0.218296 2.485598 0
M  V30 24 H 0.022093 -4.362756 0.802616 0
M  V30 25 H 0.655442 -5.770473 1.656986 0
M  V30 26 H 0.556625 -4.137337 2.490794 0
M  V30 27 H 5.085924 -5.206164 0.138399 0
M  V30 28 H 4.695870 -2.713921 -0.100247 0
M  V30 29 H 0.101182 -2.087994 1.415154 0
M  V30 30 H 0.248274 3.769546 1.013431 0
M  V30 31 H -1.181310 0.330412 -1.169514 0
M  V30 32 H -1.431942 2.064749 -1.737913 0
M  V30 33 H 0.182587 1.408120 -1.463233 0
M  V30 34 H -2.334738 3.040099 1.577191 0
M  V30 35 H -2.282946 3.379588 -0.138409 0
M  V30 36 H -0.582621 0.094187 3.335112 0
M  V30 37 H -2.059362 0.913974 2.901714 0
M  V30 38 H -1.762958 -0.765996 2.365935 0
M  V30 END ATOM
M  V30 BEGIN BOND
M  V30 1 1 1 2
M  V30 2 2 2 3
M  V30 3 1 3 4
M  V30 4 1 4 5
M  V30 5 2 5 6
M  V30 6 1 6 7
M  V30 7 2 7 8
M  V30 8 1 8 9
M  V30 9 2 9 10
M  V30 10 1 10 11
M  V30 11 1 10 12
M  V30 12 2 12 13
M  V30 13 1 12 14
M  V30 14 1 14 15
M  V30 15 1 15 16
M  V30 16 1 15 17
M  V30 17 1 17 18
M  V30 18 1 18 19
M  V30 19 1 18 20
M  V30 20 1 18 21
M  V30 21 1 15 22
M  V30 22 1 22 23
M  V30 23 1 6 2
M  V30 24 1 11 7
M  V30 25 1 22 9
M  V30 26 1 1 24
M  V30 27 1 1 25
M  V30 28 1 1 26
M  V30 29 1 4 27
M  V30 30 1 5 28
M  V30 31 1 8 29
M  V30 32 1 14 30
M  V30 33 1 16 31
M  V30 34 1 16 32
M  V30 35 1 16 33
M  V30 36 1 17 34
M  V30 37 1 17 35
M  V30 38 1 23 36
M  V30 39 1 23 37
M  V30 40 1 23 38
M  V30 END BOND
M  V30 END CTAB
M  END
>  <Dataset>  (308) 
ChEMBL_Kinases

>  <Ligand_Instance>  (308) 
nan

>  <PDB_ID>  (308) 
nan

>  <Standardized_SMILES>  (308) 
Cc1n[nH]cc1-c1cc2c(s1)C(=O)NC(C)(CC(F)(F)F)N2C

>  <Name>  (308) 
nan

>  <Pocket>  (308) 
nan

>  <ATP_Site>  (308) 
nan

>  <Peripheral>  (308) 
nan

>  <Num_H_Atoms_ProtBoundConf>  (308) 
nan

>  <Num_Resolved_Atoms>  (308) 
nan

>  <Num_Not_Resolved_Atoms>  (308) 
nan

$$$$
CHEMBL3237445
     RDKit          3D

  0  0  0  0  0  0  0  0  0  0999 V3000
M  V30 BEGIN CTAB
M  V30 COUNTS 60 65 0 0 0
M  V30 BEGIN ATOM
M  V30 1 C 2.233119 -6.246788 1.096145 0
M  V30 2 C 3.055691 -5.317897 1.870106 0
M  V30 3 N 4.124110 -5.822686 2.544423 0
M  V30 4 C 4.960815 -5.106628 3.289282 0
M  V30 5 C 4.743024 -3.753757 3.395797 0
M  V30 6 C 3.656535 -3.243260 2.709497 0
M  V30 7 C 3.214023 -1.915486 2.651829 0
M  V30 8 C 3.728895 -0.783401 3.250373 0
M  V30 9 N 3.104989 0.383604 3.033313 0
M  V30 10 C 1.993977 0.435108 2.240972 0
M  V30 11 N 1.370489 1.695038 2.041796 0
M  V30 12 C 0.243837 2.008191 1.269987 0
M  V30 13 C -0.307470 3.284190 1.131385 0
M  V30 14 C -1.418879 3.480680 0.343224 0
M  V30 15 C -2.047896 2.465873 -0.343905 0
M  V30 16 N -3.191463 2.670872 -1.154635 0
M  V30 17 C -3.888562 1.636684 -1.894282 0
M  V30 18 C -5.186852 1.391807 -1.122489 0
M  V30 19 N -5.776768 2.661675 -0.811470 0
M  V30 20 C -5.251461 3.766811 -1.582645 0
M  V30 21 C -3.763215 3.975155 -1.305917 0
M  V30 22 C -1.461132 1.232031 -0.169763 0
M  V30 23 N -0.376930 1.026734 0.596141 0
M  V30 24 N 1.577165 -0.705780 1.711549 0
M  V30 25 C 2.090688 -1.914696 1.840472 0
M  V30 26 N 1.823902 -3.174267 1.399088 0
M  V30 27 C 0.740076 -3.563778 0.543826 0
M  V30 28 C 1.218424 -4.057860 -0.783588 0
M  V30 29 C 0.719085 -3.112889 -1.861484 0
M  V30 30 C 0.485946 -1.810617 -1.069354 0
M  V30 31 C -0.133846 -2.387879 0.150429 0
M  V30 32 C 2.770642 -3.968870 1.926803 0
M  V30 33 H 1.143465 -6.161067 1.208396 0
M  V30 34 H 2.419581 -7.283740 1.540302 0
M  V30 35 H 2.591746 -6.399137 0.054558 0
M  V30 36 H 5.766537 -5.614235 3.772985 0
M  V30 37 H 5.398927 -3.143744 3.989279 0
M  V30 38 H 4.611961 -0.809302 3.883203 0
M  V30 39 H 1.780007 2.543518 2.524358 0
M  V30 40 H 0.168203 4.092223 1.659720 0
M  V30 41 H -1.789913 4.492722 0.282806 0
M  V30 42 H -3.311934 0.718474 -2.040769 0
M  V30 43 H -4.190153 2.003739 -2.908178 0
M  V30 44 H -5.856062 0.691754 -1.639921 0
M  V30 45 H -4.914412 0.920631 -0.137027 0
M  V30 46 H -6.792072 2.593368 -1.076077 0
M  V30 47 H -5.797909 4.672711 -1.232489 0
M  V30 48 H -5.454291 3.657165 -2.663981 0
M  V30 49 H -3.686797 4.638764 -0.445810 0
M  V30 50 H -3.366105 4.416956 -2.248282 0
M  V30 51 H -1.863377 0.359782 -0.656974 0
M  V30 52 H 0.010950 -4.234758 1.061532 0
M  V30 53 H 0.752570 -5.043827 -1.029177 0
M  V30 54 H 2.317920 -4.176730 -0.873125 0
M  V30 55 H -0.274722 -3.419355 -2.250319 0
M  V30 56 H 1.449365 -2.987979 -2.665245 0
M  V30 57 H -0.186367 -1.138018 -1.626426 0
M  V30 58 H 1.483420 -1.390780 -0.930316 0
M  V30 59 H -1.121275 -2.846968 -0.189730 0
M  V30 60 H -0.383547 -1.725046 0.964675 0
M  V30 END ATOM
M  V30 BEGIN BOND
M  V30 1 1 1 2
M  V30 2 2 2 3
M  V30 3 1 3 4
M  V30 4 2 4 5
M  V30 5 1 5 6
M  V30 6 1 6 7
M  V30 7 2 7 8
M  V30 8 1 8 9
M  V30 9 2 9 10
M  V30 10 1 10 11
M  V30 11 1 11 12
M  V30 12 2 12 13
M  V30 13 1 13 14
M  V30 14 2 14 15
M  V30 15 1 15 16
M  V30 16 1 16 17
M  V30 17 1 17 18
M  V30 18 1 18 19
M  V30 19 1 19 20
M  V30 20 1 20 21
M  V30 21 1 15 22
M  V30 22 2 22 23
M  V30 23 1 10 24
M  V30 24 2 24 25
M  V30 25 1 25 26
M  V30 26 1 26 27
M  V30 27 1 27 28
M  V30 28 1 28 29
M  V30 29 1 29 30
M  V30 30 1 30 31
M  V30 31 1 26 32
M  V30 32 1 32 2
M  V30 33 2 32 6
M  V30 34 1 25 7
M  V30 35 1 31 27
M  V30 36 1 23 12
M  V30 37 1 21 16
M  V30 38 1 1 33
M  V30 39 1 1 34
M  V30 40 1 1 35
M  V30 41 1 4 36
M  V30 42 1 5 37
M  V30 43 1 8 38
M  V30 44 1 11 39
M  V30 45 1 13 40
M  V30 46 1 14 41
M  V30 47 1 17 42
M  V30 48 1 17 43
M  V30 49 1 18 44
M  V30 50 1 18 45
M  V30 51 1 19 46
M  V30 52 1 20 47
M  V30 53 1 20 48
M  V30 54 1 21 49
M  V30 55 1 21 50
M  V30 56 1 22 51
M  V30 57 1 27 52
M  V30 58 1 28 53
M  V30 59 1 28 54
M  V30 60 1 29 55
M  V30 61 1 29 56
M  V30 62 1 30 57
M  V30 63 1 30 58
M  V30 64 1 31 59
M  V30 65 1 31 60
M  V30 END BOND
M  V30 END CTAB
M  END
>  <Dataset>  (309) 
ChEMBL_Kinases

>  <Ligand_Instance>  (309) 
nan

>  <PDB_ID>  (309) 
nan

>  <Standardized_SMILES>  (309) 
Cc1nccc2c3cnc(Nc4ccc(N5CCNCC5)cn4)nc3n(C3CCCC3)c12

>  <Name>  (309) 
nan

>  <Pocket>  (309) 
nan

>  <ATP_Site>  (309) 
nan

>  <Peripheral>  (309) 
nan

>  <Num_H_Atoms_ProtBoundConf>  (309) 
nan

>  <Num_Resolved_Atoms>  (309) 
nan

>  <Num_Not_Resolved_Atoms>  (309) 
nan

$$$$
CHEMBL3675721
     RDKit          3D

  0  0  0  0  0  0  0  0  0  0999 V3000
M  V30 BEGIN CTAB
M  V30 COUNTS 55 58 0 0 0
M  V30 BEGIN ATOM
M  V30 1 C 4.079066 -2.030818 5.893097 0
M  V30 2 C 5.240671 -2.008887 4.958026 0
M  V30 3 N 4.733043 -2.233799 3.593604 0
M  V30 4 C 4.311535 -1.342709 2.680840 0
M  V30 5 C 3.967415 -2.124016 1.598904 0
M  V30 6 N 3.483099 -1.564679 0.385390 0
M  V30 7 C 3.172151 -0.188069 0.086304 0
M  V30 8 N 4.032661 0.855209 -0.019307 0
M  V30 9 C 3.550224 2.071899 -0.327665 0
M  V30 10 C 2.210803 2.313214 -0.544348 0
M  V30 11 C 1.342665 1.246303 -0.435261 0
M  V30 12 C -0.097406 1.314075 -0.646598 0
M  V30 13 C -0.833639 0.159376 -0.513384 0
M  V30 14 C -2.193668 0.101218 -0.710503 0
M  V30 15 N -2.889790 1.198593 -1.052131 0
M  V30 16 C -4.302019 1.088924 -1.264567 0 CFG=2
M  V30 17 C -5.188926 1.855444 -0.366925 0
M  V30 18 O -5.108682 1.579394 0.978524 0
M  V30 19 C -4.646044 -0.351529 -1.417568 0
M  V30 20 C -4.352483 -1.035005 -2.591169 0
M  V30 21 C -4.629693 -2.362461 -2.836819 0
M  V30 22 C -5.251033 -3.062640 -1.827813 0
M  V30 23 Cl -5.669121 -4.774586 -1.996966 0
M  V30 24 C -5.581262 -2.451399 -0.616521 0
M  V30 25 F -6.200676 -3.136975 0.392048 0
M  V30 26 C -5.267397 -1.102623 -0.443574 0
M  V30 27 C -2.181735 2.339546 -1.185904 0
M  V30 28 O -2.830239 3.357776 -1.503077 0
M  V30 29 C -0.814719 2.438517 -0.996142 0
M  V30 30 N 1.887647 0.061951 -0.125221 0
M  V30 31 C 4.174907 -3.459725 1.848912 0
M  V30 32 C 3.911813 -4.594007 0.920757 0
M  V30 33 N 4.652288 -3.465327 3.105700 0
M  V30 34 H 3.201757 -2.517833 5.377084 0
M  V30 35 H 4.265502 -2.627507 6.805499 0
M  V30 36 H 3.834161 -0.999057 6.218343 0
M  V30 37 H 5.740979 -1.022034 4.993107 0
M  V30 38 H 5.981241 -2.796698 5.225734 0
M  V30 39 H 4.292116 -0.284331 2.865984 0
M  V30 40 H 3.308151 -2.179909 -0.441321 0
M  V30 41 H 4.249425 2.884180 -0.404996 0
M  V30 42 H 1.790225 3.276881 -0.792294 0
M  V30 43 H -0.362301 -0.785403 -0.237279 0
M  V30 44 H -2.733811 -0.828439 -0.592675 0
M  V30 45 H -4.471467 1.523660 -2.296889 0
M  V30 46 H -6.241833 1.563464 -0.667769 0
M  V30 47 H -5.144962 2.932175 -0.625431 0
M  V30 48 H -6.005161 1.580272 1.417019 0
M  V30 49 H -3.860719 -0.486400 -3.388845 0
M  V30 50 H -4.381179 -2.847839 -3.763956 0
M  V30 51 H -5.530679 -0.659232 0.488321 0
M  V30 52 H -0.260583 3.356723 -1.106340 0
M  V30 53 H 3.618143 -5.530845 1.460412 0
M  V30 54 H 4.839895 -4.846943 0.357020 0
M  V30 55 H 3.104725 -4.338005 0.195877 0
M  V30 END ATOM
M  V30 BEGIN BOND
M  V30 1 1 1 2
M  V30 2 1 2 3
M  V30 3 1 3 4
M  V30 4 2 4 5
M  V30 5 1 5 6
M  V30 6 1 6 7
M  V30 7 2 7 8
M  V30 8 1 8 9
M  V30 9 2 9 10
M  V30 10 1 10 11
M  V30 11 1 11 12
M  V30 12 1 12 13
M  V30 13 2 13 14
M  V30 14 1 14 15
M  V30 15 1 15 16
M  V30 16 1 16 17
M  V30 17 1 17 18
M  V30 18 1 16 19
M  V30 19 2 19 20
M  V30 20 1 20 21
M  V30 21 2 21 22
M  V30 22 1 22 23
M  V30 23 1 22 24
M  V30 24 1 24 25
M  V30 25 2 24 26
M  V30 26 1 15 27
M  V30 27 2 27 28
M  V30 28 1 27 29
M  V30 29 2 11 30
M  V30 30 1 5 31
M  V30 31 1 31 32
M  V30 32 2 31 33
M  V30 33 1 33 3
M  V30 34 1 30 7
M  V30 35 2 29 12
M  V30 36 1 26 19
M  V30 37 1 1 34
M  V30 38 1 1 35
M  V30 39 1 1 36
M  V30 40 1 2 37
M  V30 41 1 2 38
M  V30 42 1 4 39
M  V30 43 1 6 40
M  V30 44 1 9 41
M  V30 45 1 10 42
M  V30 46 1 13 43
M  V30 47 1 14 44
M  V30 48 1 16 45 CFG=3
M  V30 49 1 17 46
M  V30 50 1 17 47
M  V30 51 1 18 48
M  V30 52 1 20 49
M  V30 53 1 21 50
M  V30 54 1 26 51
M  V30 55 1 29 52
M  V30 56 1 32 53
M  V30 57 1 32 54
M  V30 58 1 32 55
M  V30 END BOND
M  V30 END CTAB
M  END
>  <Dataset>  (310) 
ChEMBL_Kinases

>  <Ligand_Instance>  (310) 
nan

>  <PDB_ID>  (310) 
nan

>  <Standardized_SMILES>  (310) 
CCn1cc(Nc2nccc(-c3ccn([C@H](CO)c4ccc(Cl)c(F)c4)c(=O)c3)n2)c(C)n1

>  <Name>  (310) 
nan

>  <Pocket>  (310) 
nan

>  <ATP_Site>  (310) 
nan

>  <Peripheral>  (310) 
nan

>  <Num_H_Atoms_ProtBoundConf>  (310) 
nan

>  <Num_Resolved_Atoms>  (310) 
nan

>  <Num_Not_Resolved_Atoms>  (310) 
nan

$$$$
CHEMBL3675719
     RDKit          3D

  0  0  0  0  0  0  0  0  0  0999 V3000
M  V30 BEGIN CTAB
M  V30 COUNTS 52 55 0 0 0
M  V30 BEGIN ATOM
M  V30 1 C 1.516026 -1.157373 5.945434 0
M  V30 2 C 2.145382 -2.050326 4.919209 0
M  V30 3 C 2.685449 -1.634863 3.713240 0
M  V30 4 C 3.162932 -2.761361 3.042292 0
M  V30 5 N 3.789218 -2.771804 1.744973 0
M  V30 6 C 3.924302 -1.500895 1.108134 0
M  V30 7 N 5.011246 -0.705112 1.030100 0
M  V30 8 C 4.919785 0.485807 0.375143 0
M  V30 9 C 3.702835 0.862959 -0.204030 0
M  V30 10 C 2.604445 0.049890 -0.120134 0
M  V30 11 C 1.297204 0.403384 -0.689786 0
M  V30 12 C 1.007696 1.553220 -1.389124 0
M  V30 13 C -0.283971 1.767145 -1.855847 0
M  V30 14 N -1.292946 0.905155 -1.664954 0
M  V30 15 C -2.613523 1.143236 -2.139889 0 CFG=2
M  V30 16 C -3.052576 2.533238 -1.667285 0
M  V30 17 O -4.326967 2.828094 -2.089960 0
M  V30 18 C -3.621412 0.167108 -1.671312 0
M  V30 19 C -3.956902 -0.907194 -2.510782 0
M  V30 20 C -4.906217 -1.834556 -2.069746 0
M  V30 21 C -5.516633 -1.724437 -0.844410 0
M  V30 22 Cl -6.688274 -2.952581 -0.409563 0
M  V30 23 C -5.208515 -0.674071 0.011372 0
M  V30 24 F -5.804358 -0.567506 1.204816 0
M  V30 25 C -4.275075 0.208656 -0.461484 0
M  V30 26 C -1.032036 -0.222389 -0.985701 0
M  V30 27 O -1.884429 -1.133289 -0.725376 0
M  V30 28 C 0.238887 -0.484964 -0.498597 0
M  V30 29 N 2.774618 -1.107890 0.541616 0
M  V30 30 N 2.893259 -3.814846 3.871172 0
M  V30 31 C 3.240804 -5.196195 3.526633 0
M  V30 32 N 2.302592 -3.390177 4.957304 0
M  V30 33 H 1.103321 -1.814195 6.745595 0
M  V30 34 H 2.202579 -0.396120 6.311029 0
M  V30 35 H 0.685815 -0.620760 5.419006 0
M  V30 36 H 2.733074 -0.617138 3.346257 0
M  V30 37 H 4.081478 -3.714283 1.407532 0
M  V30 38 H 5.806899 1.099740 0.330338 0
M  V30 39 H 3.644729 1.805793 -0.719021 0
M  V30 40 H 1.832811 2.230527 -1.528978 0
M  V30 41 H -0.433520 2.693445 -2.396947 0
M  V30 42 H -2.587975 1.123999 -3.265845 0
M  V30 43 H -2.345193 3.311203 -2.058860 0
M  V30 44 H -3.010400 2.606772 -0.565355 0
M  V30 45 H -4.956776 2.634589 -1.329296 0
M  V30 46 H -3.457661 -0.968284 -3.474209 0
M  V30 47 H -5.079807 -2.612939 -2.799621 0
M  V30 48 H -4.039477 1.031380 0.215265 0
M  V30 49 H 0.452757 -1.393553 0.050579 0
M  V30 50 H 2.578610 -5.880852 4.100887 0
M  V30 51 H 3.107917 -5.293458 2.422987 0
M  V30 52 H 4.292313 -5.438474 3.778887 0
M  V30 END ATOM
M  V30 BEGIN BOND
M  V30 1 1 1 2
M  V30 2 1 2 3
M  V30 3 2 3 4
M  V30 4 1 4 5
M  V30 5 1 5 6
M  V30 6 2 6 7
M  V30 7 1 7 8
M  V30 8 2 8 9
M  V30 9 1 9 10
M  V30 10 1 10 11
M  V30 11 1 11 12
M  V30 12 2 12 13
M  V30 13 1 13 14
M  V30 14 1 14 15
M  V30 15 1 15 16
M  V30 16 1 16 17
M  V30 17 1 15 18
M  V30 18 2 18 19
M  V30 19 1 19 20
M  V30 20 2 20 21
M  V30 21 1 21 22
M  V30 22 1 21 23
M  V30 23 1 23 24
M  V30 24 2 23 25
M  V30 25 1 14 26
M  V30 26 2 26 27
M  V30 27 1 26 28
M  V30 28 2 10 29
M  V30 29 1 4 30
M  V30 30 1 30 31
M  V30 31 1 30 32
M  V30 32 2 32 2
M  V30 33 1 29 6
M  V30 34 2 28 11
M  V30 35 1 25 18
M  V30 36 1 1 33
M  V30 37 1 1 34
M  V30 38 1 1 35
M  V30 39 1 3 36
M  V30 40 1 5 37
M  V30 41 1 8 38
M  V30 42 1 9 39
M  V30 43 1 12 40
M  V30 44 1 13 41
M  V30 45 1 15 42 CFG=3
M  V30 46 1 16 43
M  V30 47 1 16 44
M  V30 48 1 17 45
M  V30 49 1 19 46
M  V30 50 1 20 47
M  V30 51 1 25 48
M  V30 52 1 28 49
M  V30 53 1 31 50
M  V30 54 1 31 51
M  V30 55 1 31 52
M  V30 END BOND
M  V30 END CTAB
M  END
>  <Dataset>  (311) 
ChEMBL_Kinases

>  <Ligand_Instance>  (311) 
nan

>  <PDB_ID>  (311) 
nan

>  <Standardized_SMILES>  (311) 
Cc1cc(Nc2nccc(-c3ccn([C@H](CO)c4ccc(Cl)c(F)c4)c(=O)c3)n2)n(C)n1

>  <Name>  (311) 
nan

>  <Pocket>  (311) 
nan

>  <ATP_Site>  (311) 
nan

>  <Peripheral>  (311) 
nan

>  <Num_H_Atoms_ProtBoundConf>  (311) 
nan

>  <Num_Resolved_Atoms>  (311) 
nan

>  <Num_Not_Resolved_Atoms>  (311) 
nan

$$$$
CHEMBL4216088
     RDKit          3D

  0  0  0  0  0  0  0  0  0  0999 V3000
M  V30 BEGIN CTAB
M  V30 COUNTS 57 62 0 0 0
M  V30 BEGIN ATOM
M  V30 1 C 2.903394 -1.588708 3.066704 0
M  V30 2 N 2.693956 -1.393754 1.652201 0
M  V30 3 C 3.121968 -0.127369 1.156226 0
M  V30 4 C 2.541911 0.071078 -0.227017 0
M  V30 5 N 1.718800 -1.063648 -0.597190 0
M  V30 6 C 0.351272 -1.003627 -0.977911 0
M  V30 7 N -0.306641 0.166362 -1.012156 0
M  V30 8 C -1.596970 0.270155 -1.366973 0
M  V30 9 N -2.324621 1.482069 -1.417844 0
M  V30 10 C -1.741474 2.767295 -1.081270 0
M  V30 11 C -1.258960 2.811721 0.325374 0
M  V30 12 N -0.104967 2.533111 0.954692 0
M  V30 13 C -0.230859 2.758608 2.273855 0
M  V30 14 C 0.619527 2.639992 3.353932 0
M  V30 15 C 0.260164 2.936693 4.651166 0
M  V30 16 F 1.165773 2.789114 5.650283 0
M  V30 17 C -1.037952 3.376217 4.840502 0
M  V30 18 F -1.408451 3.671811 6.104643 0
M  V30 19 C -1.929286 3.512494 3.793359 0
M  V30 20 C -1.504784 3.198382 2.519676 0
M  V30 21 N -2.103952 3.219808 1.316339 0
M  V30 22 C -2.199469 -0.939057 -1.697727 0
M  V30 23 N -3.472519 -1.172810 -2.091927 0
M  V30 24 C -3.615959 -2.495678 -2.306510 0
M  V30 25 N -2.437115 -3.103140 -2.049622 0
M  V30 26 C -2.023650 -4.475755 -2.111692 0
M  V30 27 C -1.493784 -4.989523 -0.942560 0
M  V30 28 C -1.075046 -6.293346 -0.918819 0
M  V30 29 C -1.198919 -7.045645 -2.066876 0
M  V30 30 N -1.709747 -6.555623 -3.199297 0
M  V30 31 C -2.115032 -5.293073 -3.221658 0
M  V30 32 C -1.546984 -2.155178 -1.671030 0
M  V30 33 N -0.258511 -2.155144 -1.303141 0
M  V30 34 C 2.444341 -2.315764 -0.542030 0
M  V30 35 C 3.053186 -2.509151 0.837512 0
M  V30 36 H 2.215132 -0.899875 3.604670 0
M  V30 37 H 2.577650 -2.616986 3.303446 0
M  V30 38 H 3.950899 -1.459546 3.390152 0
M  V30 39 H 2.767632 0.656091 1.856427 0
M  V30 40 H 4.230277 -0.030231 1.102751 0
M  V30 41 H 3.329651 0.271240 -0.982280 0
M  V30 42 H 1.936432 1.015840 -0.208011 0
M  V30 43 H -3.313802 1.459564 -1.705917 0
M  V30 44 H -2.429515 3.591627 -1.279973 0
M  V30 45 H -0.865531 2.921627 -1.750785 0
M  V30 46 H 1.619060 2.297222 3.176545 0
M  V30 47 H -2.948868 3.861659 3.970260 0
M  V30 48 H -3.116165 3.529440 1.228379 0
M  V30 49 H -4.414479 -3.172697 -2.623396 0
M  V30 50 H -1.400550 -4.380452 -0.035508 0
M  V30 51 H -0.660338 -6.663543 0.028205 0
M  V30 52 H -0.841677 -8.078273 -1.966744 0
M  V30 53 H -2.546551 -4.791592 -4.090485 0
M  V30 54 H 1.783285 -3.167770 -0.828957 0
M  V30 55 H 3.310314 -2.271445 -1.257848 0
M  V30 56 H 2.557543 -3.415506 1.273768 0
M  V30 57 H 4.142976 -2.699065 0.793178 0
M  V30 END ATOM
M  V30 BEGIN BOND
M  V30 1 1 1 2
M  V30 2 1 2 3
M  V30 3 1 3 4
M  V30 4 1 4 5
M  V30 5 1 5 6
M  V30 6 2 6 7
M  V30 7 1 7 8
M  V30 8 1 8 9
M  V30 9 1 9 10
M  V30 10 1 10 11
M  V30 11 2 11 12
M  V30 12 1 12 13
M  V30 13 2 13 14
M  V30 14 1 14 15
M  V30 15 1 15 16
M  V30 16 2 15 17
M  V30 17 1 17 18
M  V30 18 1 17 19
M  V30 19 2 19 20
M  V30 20 1 20 21
M  V30 21 2 8 22
M  V30 22 1 22 23
M  V30 23 2 23 24
M  V30 24 1 24 25
M  V30 25 1 25 26
M  V30 26 2 26 27
M  V30 27 1 27 28
M  V30 28 2 28 29
M  V30 29 1 29 30
M  V30 30 2 30 31
M  V30 31 1 25 32
M  V30 32 2 32 33
M  V30 33 1 5 34
M  V30 34 1 34 35
M  V30 35 1 35 2
M  V30 36 1 33 6
M  V30 37 1 21 11
M  V30 38 1 32 22
M  V30 39 1 20 13
M  V30 40 1 31 26
M  V30 41 1 1 36
M  V30 42 1 1 37
M  V30 43 1 1 38
M  V30 44 1 3 39
M  V30 45 1 3 40
M  V30 46 1 4 41
M  V30 47 1 4 42
M  V30 48 1 9 43
M  V30 49 1 10 44
M  V30 50 1 10 45
M  V30 51 1 14 46
M  V30 52 1 19 47
M  V30 53 1 21 48
M  V30 54 1 24 49
M  V30 55 1 27 50
M  V30 56 1 28 51
M  V30 57 1 29 52
M  V30 58 1 31 53
M  V30 59 1 34 54
M  V30 60 1 34 55
M  V30 61 1 35 56
M  V30 62 1 35 57
M  V30 END BOND
M  V30 END CTAB
M  END
>  <Dataset>  (312) 
ChEMBL_Kinases

>  <Ligand_Instance>  (312) 
nan

>  <PDB_ID>  (312) 
nan

>  <Standardized_SMILES>  (312) 
CN1CCN(c2nc(NCc3nc4cc(F)c(F)cc4[nH]3)c3ncn(-c4cccnc4)c3n2)CC1

>  <Name>  (312) 
nan

>  <Pocket>  (312) 
nan

>  <ATP_Site>  (312) 
nan

>  <Peripheral>  (312) 
nan

>  <Num_H_Atoms_ProtBoundConf>  (312) 
nan

>  <Num_Resolved_Atoms>  (312) 
nan

>  <Num_Not_Resolved_Atoms>  (312) 
nan

$$$$
CHEMBL4216005
     RDKit          3D

  0  0  0  0  0  0  0  0  0  0999 V3000
M  V30 BEGIN CTAB
M  V30 COUNTS 39 42 0 0 0
M  V30 BEGIN ATOM
M  V30 1 C 1.459115 -4.722159 1.745240 0
M  V30 2 C 2.109372 -4.682043 0.411943 0
M  V30 3 N 2.636197 -5.768358 -0.226070 0
M  V30 4 N 3.134532 -5.416666 -1.374683 0
M  V30 5 C 2.931253 -4.095226 -1.485087 0
M  V30 6 C 2.284622 -3.592195 -0.373846 0
M  V30 7 C 1.903241 -2.198548 -0.153151 0
M  V30 8 C 1.286856 -1.575854 0.844501 0
M  V30 9 C 1.063453 -0.230104 0.762929 0
M  V30 10 C 1.510068 0.426504 -0.398145 0
M  V30 11 S 2.250515 -0.953219 -1.346075 0
M  V30 12 C 1.333428 1.878894 -0.631446 0
M  V30 13 O 1.799846 2.285201 -1.727564 0
M  V30 14 N 0.677225 2.644357 0.371869 0
M  V30 15 C -0.270220 1.863224 1.145282 0
M  V30 16 C -1.347961 1.321618 0.231847 0
M  V30 17 C -2.722114 1.856753 0.552450 0
M  V30 18 C -3.048497 1.422694 1.978007 0
M  V30 19 C -1.936259 1.763239 2.915352 0
M  V30 20 C -0.888957 2.642259 2.259528 0
M  V30 21 N 0.442582 0.681801 1.660196 0
M  V30 22 H 2.031630 -4.144061 2.498052 0
M  V30 23 H 0.375221 -4.465396 1.712326 0
M  V30 24 H 1.470573 -5.771232 2.139160 0
M  V30 25 H 3.602416 -6.025189 -2.082129 0
M  V30 26 H 3.259350 -3.531684 -2.372520 0
M  V30 27 H 0.984306 -2.169560 1.693228 0
M  V30 28 H 0.982690 3.650232 0.391161 0
M  V30 29 H -1.437791 0.216599 0.263778 0
M  V30 30 H -1.080073 1.556001 -0.828970 0
M  V30 31 H -2.705182 2.942549 0.425125 0
M  V30 32 H -3.408916 1.345673 -0.163352 0
M  V30 33 H -3.171060 0.302269 1.906748 0
M  V30 34 H -4.046815 1.778118 2.304229 0
M  V30 35 H -1.474622 0.827575 3.295584 0
M  V30 36 H -2.360976 2.266822 3.830791 0
M  V30 37 H -1.363648 3.532894 1.843709 0
M  V30 38 H -0.151070 2.955693 3.011550 0
M  V30 39 H 0.472638 0.539724 2.714567 0
M  V30 END ATOM
M  V30 BEGIN BOND
M  V30 1 1 1 2
M  V30 2 2 2 3
M  V30 3 1 3 4
M  V30 4 1 4 5
M  V30 5 2 5 6
M  V30 6 1 6 7
M  V30 7 2 7 8
M  V30 8 1 8 9
M  V30 9 2 9 10
M  V30 10 1 10 11
M  V30 11 1 10 12
M  V30 12 2 12 13
M  V30 13 1 12 14
M  V30 14 1 14 15
M  V30 15 1 15 16
M  V30 16 1 16 17
M  V30 17 1 17 18
M  V30 18 1 18 19
M  V30 19 1 19 20
M  V30 20 1 15 21
M  V30 21 1 6 2
M  V30 22 1 11 7
M  V30 23 1 20 15
M  V30 24 1 21 9
M  V30 25 1 1 22
M  V30 26 1 1 23
M  V30 27 1 1 24
M  V30 28 1 4 25
M  V30 29 1 5 26
M  V30 30 1 8 27
M  V30 31 1 14 28
M  V30 32 1 16 29
M  V30 33 1 16 30
M  V30 34 1 17 31
M  V30 35 1 17 32
M  V30 36 1 18 33
M  V30 37 1 18 34
M  V30 38 1 19 35
M  V30 39 1 19 36
M  V30 40 1 20 37
M  V30 41 1 20 38
M  V30 42 1 21 39
M  V30 END BOND
M  V30 END CTAB
M  END
>  <Dataset>  (313) 
ChEMBL_Kinases

>  <Ligand_Instance>  (313) 
nan

>  <PDB_ID>  (313) 
nan

>  <Standardized_SMILES>  (313) 
Cc1n[nH]cc1-c1cc2c(s1)C(=O)NC1(CCCCC1)N2

>  <Name>  (313) 
nan

>  <Pocket>  (313) 
nan

>  <ATP_Site>  (313) 
nan

>  <Peripheral>  (313) 
nan

>  <Num_H_Atoms_ProtBoundConf>  (313) 
nan

>  <Num_Resolved_Atoms>  (313) 
nan

>  <Num_Not_Resolved_Atoms>  (313) 
nan

$$$$
CHEMBL4215749
     RDKit          3D

  0  0  0  0  0  0  0  0  0  0999 V3000
M  V30 BEGIN CTAB
M  V30 COUNTS 48 52 0 0 0
M  V30 BEGIN ATOM
M  V30 1 F -0.717581 -6.663040 -2.948591 0
M  V30 2 C -0.298321 -5.920770 -1.899233 0
M  V30 3 C -0.229511 -6.442764 -0.622210 0
M  V30 4 C 0.196034 -5.696141 0.455794 0
M  V30 5 C 0.550404 -4.379483 0.161670 0
M  V30 6 C 0.496902 -3.817142 -1.099940 0
M  V30 7 N 0.901004 -2.442535 -1.196892 0
M  V30 8 C 1.846534 -1.824753 -1.905908 0
M  V30 9 N 1.861195 -0.507303 -1.671834 0
M  V30 10 C 0.897651 -0.205064 -0.774314 0
M  V30 11 C 0.369160 0.922697 -0.109024 0
M  V30 12 N 1.114118 2.047214 -0.535180 0
M  V30 13 C 1.849206 3.157193 -0.955623 0
M  V30 14 C 2.568621 3.894781 0.135637 0
M  V30 15 N 1.932172 4.910803 0.781066 0
M  V30 16 C 2.763511 5.426339 1.714267 0
M  V30 17 C 3.934382 4.695806 1.624350 0
M  V30 18 N 3.801078 3.760082 0.652450 0
M  V30 19 N -0.646222 0.760074 0.739181 0
M  V30 20 C -1.202424 -0.423751 1.002284 0
M  V30 21 N -2.265350 -0.416664 1.931018 0
M  V30 22 C -2.731168 0.763184 2.625685 0
M  V30 23 C -2.656048 0.378914 4.110701 0
M  V30 24 O -3.507823 -0.672001 4.322572 0
M  V30 25 C -3.176603 -1.855321 3.690345 0
M  V30 26 C -2.930965 -1.670286 2.207505 0
M  V30 27 N -0.685889 -1.466824 0.363172 0
M  V30 28 C 0.318296 -1.450552 -0.502709 0
M  V30 29 C 0.063484 -4.612280 -2.139435 0
M  V30 30 H -0.508372 -7.466320 -0.410306 0
M  V30 31 H 0.254901 -6.089661 1.460448 0
M  V30 32 H 0.892504 -3.772147 1.016106 0
M  V30 33 H 2.508433 -2.358783 -2.583941 0
M  V30 34 H 0.558282 2.744005 0.065411 0
M  V30 35 H 1.253727 3.867716 -1.605326 0
M  V30 36 H 2.627785 2.790885 -1.704679 0
M  V30 37 H 2.581332 6.243151 2.405791 0
M  V30 38 H 4.858987 4.799254 2.208972 0
M  V30 39 H 4.480503 3.022779 0.298570 0
M  V30 40 H -2.113675 1.652343 2.419112 0
M  V30 41 H -3.810306 0.909514 2.385006 0
M  V30 42 H -1.588511 0.159233 4.366648 0
M  V30 43 H -3.026869 1.247643 4.651193 0
M  V30 44 H -4.063629 -2.526049 3.798823 0
M  V30 45 H -2.313720 -2.389918 4.128644 0
M  V30 46 H -3.948969 -1.595887 1.748957 0
M  V30 47 H -2.348910 -2.522215 1.809170 0
M  V30 48 H 0.034681 -4.133165 -3.120678 0
M  V30 END ATOM
M  V30 BEGIN BOND
M  V30 1 1 1 2
M  V30 2 2 2 3
M  V30 3 1 3 4
M  V30 4 2 4 5
M  V30 5 1 5 6
M  V30 6 1 6 7
M  V30 7 1 7 8
M  V30 8 2 8 9
M  V30 9 1 9 10
M  V30 10 2 10 11
M  V30 11 1 11 12
M  V30 12 1 12 13
M  V30 13 1 13 14
M  V30 14 2 14 15
M  V30 15 1 15 16
M  V30 16 2 16 17
M  V30 17 1 17 18
M  V30 18 1 11 19
M  V30 19 2 19 20
M  V30 20 1 20 21
M  V30 21 1 21 22
M  V30 22 1 22 23
M  V30 23 1 23 24
M  V30 24 1 24 25
M  V30 25 1 25 26
M  V30 26 1 20 27
M  V30 27 2 27 28
M  V30 28 2 6 29
M  V30 29 1 29 2
M  V30 30 1 28 7
M  V30 31 1 28 10
M  V30 32 1 18 14
M  V30 33 1 26 21
M  V30 34 1 3 30
M  V30 35 1 4 31
M  V30 36 1 5 32
M  V30 37 1 8 33
M  V30 38 1 12 34
M  V30 39 1 13 35
M  V30 40 1 13 36
M  V30 41 1 16 37
M  V30 42 1 17 38
M  V30 43 1 18 39
M  V30 44 1 22 40
M  V30 45 1 22 41
M  V30 46 1 23 42
M  V30 47 1 23 43
M  V30 48 1 25 44
M  V30 49 1 25 45
M  V30 50 1 26 46
M  V30 51 1 26 47
M  V30 52 1 29 48
M  V30 END BOND
M  V30 END CTAB
M  END
>  <Dataset>  (314) 
ChEMBL_Kinases

>  <Ligand_Instance>  (314) 
nan

>  <PDB_ID>  (314) 
nan

>  <Standardized_SMILES>  (314) 
Fc1cccc(-n2cnc3c(NCc4ncc[nH]4)nc(N4CCOCC4)nc32)c1

>  <Name>  (314) 
nan

>  <Pocket>  (314) 
nan

>  <ATP_Site>  (314) 
nan

>  <Peripheral>  (314) 
nan

>  <Num_H_Atoms_ProtBoundConf>  (314) 
nan

>  <Num_Resolved_Atoms>  (314) 
nan

>  <Num_Not_Resolved_Atoms>  (314) 
nan

$$$$
CHEMBL4215702
     RDKit          3D

  0  0  0  0  0  0  0  0  0  0999 V3000
M  V30 BEGIN CTAB
M  V30 COUNTS 67 72 0 0 0
M  V30 BEGIN ATOM
M  V30 1 C 4.143831 -0.825281 4.798584 0
M  V30 2 N 4.150178 -1.930274 3.862374 0
M  V30 3 C 2.973156 -1.939977 3.022227 0
M  V30 4 C 2.899094 -0.766174 2.101297 0
M  V30 5 N 4.101077 -0.309952 1.554596 0
M  V30 6 C 4.168304 1.072097 1.194268 0
M  V30 7 C 3.114707 1.343605 0.173013 0
M  V30 8 C 1.810261 1.752276 0.381015 0
M  V30 9 C 0.987973 1.944772 -0.711645 0
M  V30 10 C 1.383004 1.754736 -2.020964 0
M  V30 11 N 0.458948 1.977393 -3.085688 0
M  V30 12 C -0.845443 2.397438 -2.703981 0
M  V30 13 N -1.227154 3.704161 -2.598760 0
M  V30 14 C -2.492350 4.021003 -2.225092 0
M  V30 15 C -3.398805 3.017846 -1.949592 0
M  V30 16 F -4.680220 3.242340 -1.570493 0
M  V30 17 C -3.017280 1.675139 -2.054431 0
M  V30 18 C -3.866649 0.522572 -1.791246 0
M  V30 19 C -5.164900 0.311741 -2.208240 0
M  V30 20 C -5.830898 -0.847688 -1.863927 0
M  V30 21 F -7.100679 -1.026802 -2.286473 0
M  V30 22 C -5.212934 -1.835165 -1.087724 0
M  V30 23 N -5.596807 -3.034302 -0.606897 0
M  V30 24 C -4.575794 -3.579675 0.099014 0
M  V30 25 N -3.516998 -2.718622 0.072921 0
M  V30 26 C -3.903708 -1.640627 -0.657632 0
M  V30 27 C -3.261146 -0.470389 -1.017331 0
M  V30 28 C -2.398192 -3.271461 0.823816 0
M  V30 29 C -1.695961 -2.212634 1.652980 0
M  V30 30 C -1.481924 -3.961706 -0.137217 0
M  V30 31 C -3.092492 -4.212189 1.778402 0
M  V30 32 C -4.177314 -4.782883 0.900767 0
M  V30 33 N -1.735644 1.429129 -2.433574 0
M  V30 34 N 2.660865 1.354833 -2.220786 0
M  V30 35 C 3.496289 1.156446 -1.163085 0
M  V30 36 C 5.319484 -0.734183 2.125207 0
M  V30 37 C 5.285226 -1.946022 2.998068 0
M  V30 38 H 4.714869 -1.117797 5.697222 0
M  V30 39 H 3.075615 -0.716183 5.126740 0
M  V30 40 H 4.470418 0.127661 4.345837 0
M  V30 41 H 2.995423 -2.891269 2.441097 0
M  V30 42 H 2.081181 -1.983743 3.679870 0
M  V30 43 H 2.159883 -0.993980 1.305481 0
M  V30 44 H 2.429237 0.069782 2.698346 0
M  V30 45 H 3.972326 1.689310 2.112441 0
M  V30 46 H 5.132066 1.390866 0.799107 0
M  V30 47 H 1.549369 1.887036 1.408021 0
M  V30 48 H -0.009472 2.263522 -0.433332 0
M  V30 49 H 0.780174 1.824049 -4.071655 0
M  V30 50 H -2.804049 5.053127 -2.139182 0
M  V30 51 H -5.580839 1.105888 -2.799625 0
M  V30 52 H -2.246984 -0.380100 -0.652260 0
M  V30 53 H -0.900531 -1.684599 1.106654 0
M  V30 54 H -1.217456 -2.707899 2.529268 0
M  V30 55 H -2.492358 -1.542368 2.053014 0
M  V30 56 H -1.011015 -3.211781 -0.771343 0
M  V30 57 H -2.129319 -4.606645 -0.782567 0
M  V30 58 H -0.717778 -4.592246 0.358576 0
M  V30 59 H -3.579622 -3.583395 2.553561 0
M  V30 60 H -2.413805 -4.976917 2.183924 0
M  V30 61 H -3.751963 -5.507362 0.172895 0
M  V30 62 H -5.008813 -5.209211 1.471509 0
M  V30 63 H 4.502336 0.837177 -1.406470 0
M  V30 64 H 6.009980 -0.988062 1.269267 0
M  V30 65 H 5.836661 0.096959 2.647487 0
M  V30 66 H 6.215808 -1.904592 3.635410 0
M  V30 67 H 5.270315 -2.878966 2.421712 0
M  V30 END ATOM
M  V30 BEGIN BOND
M  V30 1 1 1 2
M  V30 2 1 2 3
M  V30 3 1 3 4
M  V30 4 1 4 5
M  V30 5 1 5 6
M  V30 6 1 6 7
M  V30 7 2 7 8
M  V30 8 1 8 9
M  V30 9 2 9 10
M  V30 10 1 10 11
M  V30 11 1 11 12
M  V30 12 2 12 13
M  V30 13 1 13 14
M  V30 14 2 14 15
M  V30 15 1 15 16
M  V30 16 1 15 17
M  V30 17 1 17 18
M  V30 18 2 18 19
M  V30 19 1 19 20
M  V30 20 1 20 21
M  V30 21 2 20 22
M  V30 22 1 22 23
M  V30 23 2 23 24
M  V30 24 1 24 25
M  V30 25 1 25 26
M  V30 26 2 26 27
M  V30 27 1 25 28
M  V30 28 1 28 29
M  V30 29 1 28 30
M  V30 30 1 28 31
M  V30 31 1 31 32
M  V30 32 2 17 33
M  V30 33 1 10 34
M  V30 34 2 34 35
M  V30 35 1 5 36
M  V30 36 1 36 37
M  V30 37 1 37 2
M  V30 38 1 35 7
M  V30 39 1 33 12
M  V30 40 1 27 18
M  V30 41 1 26 22
M  V30 42 1 32 24
M  V30 43 1 1 38
M  V30 44 1 1 39
M  V30 45 1 1 40
M  V30 46 1 3 41
M  V30 47 1 3 42
M  V30 48 1 4 43
M  V30 49 1 4 44
M  V30 50 1 6 45
M  V30 51 1 6 46
M  V30 52 1 8 47
M  V30 53 1 9 48
M  V30 54 1 11 49
M  V30 55 1 14 50
M  V30 56 1 19 51
M  V30 57 1 27 52
M  V30 58 1 29 53
M  V30 59 1 29 54
M  V30 60 1 29 55
M  V30 61 1 30 56
M  V30 62 1 30 57
M  V30 63 1 30 58
M  V30 64 1 31 59
M  V30 65 1 31 60
M  V30 66 1 32 61
M  V30 67 1 32 62
M  V30 68 1 35 63
M  V30 69 1 36 64
M  V30 70 1 36 65
M  V30 71 1 37 66
M  V30 72 1 37 67
M  V30 END BOND
M  V30 END CTAB
M  END
>  <Dataset>  (315) 
ChEMBL_Kinases

>  <Ligand_Instance>  (315) 
nan

>  <PDB_ID>  (315) 
nan

>  <Standardized_SMILES>  (315) 
CN1CCN(Cc2ccc(Nc3ncc(F)c(-c4cc(F)c5nc6n(c5c4)C(C)(C)CC6)n3)nc2)CC1

>  <Name>  (315) 
nan

>  <Pocket>  (315) 
nan

>  <ATP_Site>  (315) 
nan

>  <Peripheral>  (315) 
nan

>  <Num_H_Atoms_ProtBoundConf>  (315) 
nan

>  <Num_Resolved_Atoms>  (315) 
nan

>  <Num_Not_Resolved_Atoms>  (315) 
nan

$$$$
CHEMBL4215691
     RDKit          3D

  0  0  0  0  0  0  0  0  0  0999 V3000
M  V30 BEGIN CTAB
M  V30 COUNTS 53 58 0 0 0
M  V30 BEGIN ATOM
M  V30 1 F 4.742868 -5.595054 1.043620 0
M  V30 2 C 4.760666 -4.512454 0.207942 0
M  V30 3 C 5.614372 -4.544519 -0.898651 0
M  V30 4 C 5.636625 -3.455450 -1.745323 0
M  V30 5 C 4.850273 -2.319734 -1.556068 0
M  V30 6 C 4.020327 -2.344802 -0.437774 0
M  V30 7 N 3.179229 -1.236576 -0.154639 0
M  V30 8 C 3.583757 -0.068758 0.374425 0
M  V30 9 N 2.555925 0.783780 0.524226 0
M  V30 10 C 1.422426 0.192645 0.090572 0
M  V30 11 C 0.043806 0.470174 -0.046398 0
M  V30 12 N -0.159655 1.764010 0.421493 0
M  V30 13 C -0.367722 3.084357 0.898893 0
M  V30 14 C -1.288650 3.203377 2.079314 0
M  V30 15 N -1.040994 3.186075 3.413575 0
M  V30 16 C -2.196166 3.326850 4.075227 0
M  V30 17 C -2.579857 3.383119 5.401432 0
M  V30 18 C -3.925357 3.543149 5.754767 0
M  V30 19 C -4.851120 3.642098 4.708472 0
M  V30 20 C -4.508755 3.590707 3.374807 0
M  V30 21 C -3.164272 3.431649 3.110967 0
M  V30 22 O -2.605369 3.355509 1.900598 0
M  V30 23 N -0.749896 -0.461145 -0.551631 0
M  V30 24 C -0.297532 -1.657812 -0.938730 0
M  V30 25 N -1.292337 -2.525937 -1.451946 0
M  V30 26 C -2.684193 -2.151845 -1.565309 0
M  V30 27 C -3.454961 -3.262827 -0.840186 0
M  V30 28 O -3.090712 -4.502125 -1.367665 0
M  V30 29 C -1.773698 -4.816785 -1.108448 0
M  V30 30 C -0.864092 -3.842504 -1.869364 0
M  V30 31 N 0.996831 -1.926978 -0.813575 0
M  V30 32 C 1.871336 -1.064602 -0.320884 0
M  V30 33 C 3.958808 -3.409654 0.442537 0
M  V30 34 H 6.234193 -5.404597 -1.073186 0
M  V30 35 H 6.287709 -3.439834 -2.618662 0
M  V30 36 H 4.889652 -1.481823 -2.237314 0
M  V30 37 H 4.565978 0.257777 0.677459 0
M  V30 38 H -1.219304 1.784742 0.234520 0
M  V30 39 H 0.625432 3.446585 1.317214 0
M  V30 40 H -0.633854 3.842675 0.129362 0
M  V30 41 H -1.806262 3.299592 6.140019 0
M  V30 42 H -4.224080 3.587206 6.793202 0
M  V30 43 H -5.908300 3.767503 4.979549 0
M  V30 44 H -5.306130 3.676995 2.653006 0
M  V30 45 H -2.956230 -2.154065 -2.644675 0
M  V30 46 H -2.913037 -1.191549 -1.099473 0
M  V30 47 H -3.108490 -3.228104 0.216082 0
M  V30 48 H -4.539830 -3.134481 -0.887724 0
M  V30 49 H -1.557252 -4.665198 -0.018115 0
M  V30 50 H -1.568649 -5.859131 -1.350603 0
M  V30 51 H -1.096571 -3.963526 -2.959662 0
M  V30 52 H 0.187438 -4.040779 -1.638168 0
M  V30 53 H 3.291743 -3.371909 1.298497 0
M  V30 END ATOM
M  V30 BEGIN BOND
M  V30 1 1 1 2
M  V30 2 2 2 3
M  V30 3 1 3 4
M  V30 4 2 4 5
M  V30 5 1 5 6
M  V30 6 1 6 7
M  V30 7 1 7 8
M  V30 8 2 8 9
M  V30 9 1 9 10
M  V30 10 2 10 11
M  V30 11 1 11 12
M  V30 12 1 12 13
M  V30 13 1 13 14
M  V30 14 2 14 15
M  V30 15 1 15 16
M  V30 16 2 16 17
M  V30 17 1 17 18
M  V30 18 2 18 19
M  V30 19 1 19 20
M  V30 20 2 20 21
M  V30 21 1 21 22
M  V30 22 1 11 23
M  V30 23 2 23 24
M  V30 24 1 24 25
M  V30 25 1 25 26
M  V30 26 1 26 27
M  V30 27 1 27 28
M  V30 28 1 28 29
M  V30 29 1 29 30
M  V30 30 1 24 31
M  V30 31 2 31 32
M  V30 32 2 6 33
M  V30 33 1 33 2
M  V30 34 1 32 7
M  V30 35 1 32 10
M  V30 36 1 22 14
M  V30 37 1 30 25
M  V30 38 1 21 16
M  V30 39 1 3 34
M  V30 40 1 4 35
M  V30 41 1 5 36
M  V30 42 1 8 37
M  V30 43 1 12 38
M  V30 44 1 13 39
M  V30 45 1 13 40
M  V30 46 1 17 41
M  V30 47 1 18 42
M  V30 48 1 19 43
M  V30 49 1 20 44
M  V30 50 1 26 45
M  V30 51 1 26 46
M  V30 52 1 27 47
M  V30 53 1 27 48
M  V30 54 1 29 49
M  V30 55 1 29 50
M  V30 56 1 30 51
M  V30 57 1 30 52
M  V30 58 1 33 53
M  V30 END BOND
M  V30 END CTAB
M  END
>  <Dataset>  (316) 
ChEMBL_Kinases

>  <Ligand_Instance>  (316) 
nan

>  <PDB_ID>  (316) 
nan

>  <Standardized_SMILES>  (316) 
Fc1cccc(-n2cnc3c(NCc4nc5ccccc5o4)nc(N4CCOCC4)nc32)c1

>  <Name>  (316) 
nan

>  <Pocket>  (316) 
nan

>  <ATP_Site>  (316) 
nan

>  <Peripheral>  (316) 
nan

>  <Num_H_Atoms_ProtBoundConf>  (316) 
nan

>  <Num_Resolved_Atoms>  (316) 
nan

>  <Num_Not_Resolved_Atoms>  (316) 
nan

$$$$
CHEMBL4215568
     RDKit          3D

  0  0  0  0  0  0  0  0  0  0999 V3000
M  V30 BEGIN CTAB
M  V30 COUNTS 67 72 0 0 0
M  V30 BEGIN ATOM
M  V30 1 C 4.659387 -1.005876 5.888191 0
M  V30 2 C 5.383468 -1.207341 4.577589 0
M  V30 3 N 4.696066 -2.081560 3.679374 0
M  V30 4 C 3.466875 -1.547214 3.167791 0
M  V30 5 C 3.450477 -1.457557 1.661118 0
M  V30 6 N 4.601529 -0.853095 1.084181 0
M  V30 7 C 4.651360 0.573059 1.088904 0
M  V30 8 C 3.496922 1.138281 0.347105 0
M  V30 9 C 2.311110 1.487296 0.958312 0
M  V30 10 C 1.302563 1.995081 0.165682 0
M  V30 11 C 1.365655 2.190704 -1.197774 0
M  V30 12 N 0.280961 2.709720 -1.960151 0
M  V30 13 C -0.864146 2.994281 -1.165894 0
M  V30 14 N -1.271331 4.149190 -0.607681 0
M  V30 15 C -2.409656 4.204248 0.137383 0
M  V30 16 C -3.167252 3.057586 0.329158 0
M  V30 17 F -4.302613 3.092041 1.067195 0
M  V30 18 C -2.754529 1.871642 -0.240421 0
M  V30 19 C -3.501794 0.604885 -0.074251 0
M  V30 20 C -3.911464 0.392516 1.206660 0
M  V30 21 C -4.613247 -0.761745 1.495546 0
M  V30 22 F -5.058447 -1.051978 2.744011 0
M  V30 23 C -4.878306 -1.664560 0.478821 0
M  V30 24 N -5.522577 -2.847332 0.457142 0
M  V30 25 C -5.498504 -3.327893 -0.801532 0
M  V30 26 N -4.830497 -2.438482 -1.588284 0
M  V30 27 C -4.439911 -1.402215 -0.808288 0
M  V30 28 C -3.733526 -0.252307 -1.127987 0
M  V30 29 C -4.784647 -2.926683 -2.963435 0
M  V30 30 C -6.019835 -3.822479 -3.012889 0
M  V30 31 C -5.993547 -4.795612 -4.150290 0
M  V30 32 C -5.937035 -4.485614 -1.656240 0
M  V30 33 N -1.608874 1.874480 -0.975487 0
M  V30 34 N 2.545140 1.834620 -1.746840 0
M  V30 35 C 3.567078 1.334895 -1.037980 0
M  V30 36 C 5.824378 -1.436897 1.611748 0
M  V30 37 C 5.553745 -2.521657 2.622064 0
M  V30 38 H 5.362754 -0.412989 6.533156 0
M  V30 39 H 3.771919 -0.348513 5.783071 0
M  V30 40 H 4.468062 -1.944650 6.426845 0
M  V30 41 H 6.364687 -1.670959 4.806957 0
M  V30 42 H 5.594876 -0.199324 4.169631 0
M  V30 43 H 2.666989 -2.300441 3.432782 0
M  V30 44 H 3.130320 -0.608000 3.600376 0
M  V30 45 H 2.528738 -0.909800 1.384599 0
M  V30 46 H 3.409826 -2.521460 1.304459 0
M  V30 47 H 5.564916 0.942045 0.602506 0
M  V30 48 H 4.680457 0.996636 2.131227 0
M  V30 49 H 2.188083 1.364473 2.027740 0
M  V30 50 H 0.393827 2.252387 0.705545 0
M  V30 51 H 0.443302 2.819603 -2.982072 0
M  V30 52 H -2.680258 5.153183 0.554736 0
M  V30 53 H -3.735519 1.058370 2.041950 0
M  V30 54 H -3.373556 -0.009110 -2.118804 0
M  V30 55 H -4.869903 -2.108065 -3.705553 0
M  V30 56 H -3.894101 -3.551953 -3.067982 0
M  V30 57 H -6.926885 -3.161592 -3.055229 0
M  V30 58 H -6.833936 -4.520008 -4.852829 0
M  V30 59 H -6.238889 -5.840008 -3.847706 0
M  V30 60 H -5.085164 -4.766903 -4.773027 0
M  V30 61 H -5.080594 -5.190442 -1.663577 0
M  V30 62 H -6.879511 -4.914634 -1.302289 0
M  V30 63 H 4.493706 1.063765 -1.530350 0
M  V30 64 H 6.344258 -1.934205 0.758939 0
M  V30 65 H 6.509852 -0.662213 1.980097 0
M  V30 66 H 6.548426 -2.821327 3.021630 0
M  V30 67 H 5.089106 -3.370511 2.085397 0
M  V30 END ATOM
M  V30 BEGIN BOND
M  V30 1 1 1 2
M  V30 2 1 2 3
M  V30 3 1 3 4
M  V30 4 1 4 5
M  V30 5 1 5 6
M  V30 6 1 6 7
M  V30 7 1 7 8
M  V30 8 2 8 9
M  V30 9 1 9 10
M  V30 10 2 10 11
M  V30 11 1 11 12
M  V30 12 1 12 13
M  V30 13 2 13 14
M  V30 14 1 14 15
M  V30 15 2 15 16
M  V30 16 1 16 17
M  V30 17 1 16 18
M  V30 18 1 18 19
M  V30 19 2 19 20
M  V30 20 1 20 21
M  V30 21 1 21 22
M  V30 22 2 21 23
M  V30 23 1 23 24
M  V30 24 2 24 25
M  V30 25 1 25 26
M  V30 26 1 26 27
M  V30 27 2 27 28
M  V30 28 1 26 29
M  V30 29 1 29 30
M  V30 30 1 30 31
M  V30 31 1 30 32
M  V30 32 2 18 33
M  V30 33 1 11 34
M  V30 34 2 34 35
M  V30 35 1 6 36
M  V30 36 1 36 37
M  V30 37 1 37 3
M  V30 38 1 35 8
M  V30 39 1 33 13
M  V30 40 1 28 19
M  V30 41 1 27 23
M  V30 42 1 32 25
M  V30 43 1 1 38
M  V30 44 1 1 39
M  V30 45 1 1 40
M  V30 46 1 2 41
M  V30 47 1 2 42
M  V30 48 1 4 43
M  V30 49 1 4 44
M  V30 50 1 5 45
M  V30 51 1 5 46
M  V30 52 1 7 47
M  V30 53 1 7 48
M  V30 54 1 9 49
M  V30 55 1 10 50
M  V30 56 1 12 51
M  V30 57 1 15 52
M  V30 58 1 20 53
M  V30 59 1 28 54
M  V30 60 1 29 55
M  V30 61 1 29 56
M  V30 62 1 30 57
M  V30 63 1 31 58
M  V30 64 1 31 59
M  V30 65 1 31 60
M  V30 66 1 32 61
M  V30 67 1 32 62
M  V30 68 1 35 63
M  V30 69 1 36 64
M  V30 70 1 36 65
M  V30 71 1 37 66
M  V30 72 1 37 67
M  V30 END BOND
M  V30 END CTAB
M  END
>  <Dataset>  (317) 
ChEMBL_Kinases

>  <Ligand_Instance>  (317) 
nan

>  <PDB_ID>  (317) 
nan

>  <Standardized_SMILES>  (317) 
CCN1CCN(Cc2ccc(Nc3ncc(F)c(-c4cc(F)c5nc6n(c5c4)CC(C)C6)n3)nc2)CC1

>  <Name>  (317) 
nan

>  <Pocket>  (317) 
nan

>  <ATP_Site>  (317) 
nan

>  <Peripheral>  (317) 
nan

>  <Num_H_Atoms_ProtBoundConf>  (317) 
nan

>  <Num_Resolved_Atoms>  (317) 
nan

>  <Num_Not_Resolved_Atoms>  (317) 
nan

$$$$
CHEMBL4215429
     RDKit          3D

  0  0  0  0  0  0  0  0  0  0999 V3000
M  V30 BEGIN CTAB
M  V30 COUNTS 57 62 0 0 0
M  V30 BEGIN ATOM
M  V30 1 C 0.184474 -0.437153 3.403027 0
M  V30 2 N 1.539942 -0.929368 3.376193 0
M  V30 3 C 2.502505 0.008749 2.896842 0
M  V30 4 C 2.492613 0.173720 1.377171 0
M  V30 5 N 1.936957 -1.042389 0.821140 0
M  V30 6 C 1.035389 -1.140689 -0.272521 0
M  V30 7 N 0.597591 -0.050505 -0.925676 0
M  V30 8 C -0.260468 -0.187837 -1.964834 0
M  V30 9 N -0.758412 0.920623 -2.700082 0
M  V30 10 C -0.394067 2.288288 -2.396590 0
M  V30 11 C -0.824473 2.637677 -1.022549 0
M  V30 12 N -0.225904 2.552662 0.174082 0
M  V30 13 C -1.016542 2.997816 1.163631 0
M  V30 14 C -0.909459 3.132731 2.531574 0
M  V30 15 F 0.245741 2.748483 3.132851 0
M  V30 16 C -1.904679 3.633316 3.312204 0
M  V30 17 F -1.788859 3.762233 4.660230 0
M  V30 18 C -3.085962 4.025734 2.686819 0
M  V30 19 C -3.241881 3.910906 1.322676 0
M  V30 20 C -2.198029 3.397424 0.592340 0
M  V30 21 N -2.044189 3.165856 -0.719203 0
M  V30 22 C -0.637898 -1.495519 -2.289430 0
M  V30 23 N -1.472986 -1.924504 -3.269678 0
M  V30 24 C -1.558961 -3.267261 -3.232981 0
M  V30 25 N -0.781677 -3.681906 -2.234345 0
M  V30 26 C -0.486342 -4.983047 -1.733702 0
M  V30 27 C 0.453488 -5.842624 -2.273629 0
M  V30 28 C 0.691999 -7.094784 -1.738883 0
M  V30 29 N -0.028629 -7.472885 -0.651029 0
M  V30 30 C -0.944668 -6.665500 -0.104982 0
M  V30 31 F -1.653144 -7.068329 0.984762 0
M  V30 32 C -1.203425 -5.400618 -0.624349 0
M  V30 33 C -0.201848 -2.626210 -1.634056 0
M  V30 34 N 0.644631 -2.364063 -0.622509 0
M  V30 35 C 2.427128 -2.202984 1.538453 0
M  V30 36 C 1.649252 -2.254179 2.834709 0
M  V30 37 H -0.512829 -1.301078 3.512640 0
M  V30 38 H -0.099342 0.146761 2.500306 0
M  V30 39 H 0.070476 0.204891 4.290852 0
M  V30 40 H 3.515652 -0.324591 3.242161 0
M  V30 41 H 2.310320 0.968213 3.401875 0
M  V30 42 H 1.942670 1.084631 1.142379 0
M  V30 43 H 3.570216 0.247715 1.062017 0
M  V30 44 H -1.418795 0.702548 -3.493438 0
M  V30 45 H 0.703947 2.457126 -2.521936 0
M  V30 46 H -0.945456 2.949746 -3.108884 0
M  V30 47 H -3.862261 4.420739 3.329991 0
M  V30 48 H -4.166718 4.220308 0.850207 0
M  V30 49 H -2.784641 3.371156 -1.425567 0
M  V30 50 H -2.103844 -3.993495 -3.825433 0
M  V30 51 H 1.003814 -5.503135 -3.137293 0
M  V30 52 H 1.439061 -7.707730 -2.213717 0
M  V30 53 H -1.942811 -4.784926 -0.160224 0
M  V30 54 H 3.516682 -2.154281 1.728993 0
M  V30 55 H 2.175249 -3.134348 0.952274 0
M  V30 56 H 0.656746 -2.715944 2.624474 0
M  V30 57 H 2.214674 -2.891924 3.541737 0
M  V30 END ATOM
M  V30 BEGIN BOND
M  V30 1 1 1 2
M  V30 2 1 2 3
M  V30 3 1 3 4
M  V30 4 1 4 5
M  V30 5 1 5 6
M  V30 6 2 6 7
M  V30 7 1 7 8
M  V30 8 1 8 9
M  V30 9 1 9 10
M  V30 10 1 10 11
M  V30 11 2 11 12
M  V30 12 1 12 13
M  V30 13 2 13 14
M  V30 14 1 14 15
M  V30 15 1 14 16
M  V30 16 1 16 17
M  V30 17 2 16 18
M  V30 18 1 18 19
M  V30 19 2 19 20
M  V30 20 1 20 21
M  V30 21 2 8 22
M  V30 22 1 22 23
M  V30 23 2 23 24
M  V30 24 1 24 25
M  V30 25 1 25 26
M  V30 26 2 26 27
M  V30 27 1 27 28
M  V30 28 2 28 29
M  V30 29 1 29 30
M  V30 30 1 30 31
M  V30 31 2 30 32
M  V30 32 1 25 33
M  V30 33 2 33 34
M  V30 34 1 5 35
M  V30 35 1 35 36
M  V30 36 1 36 2
M  V30 37 1 34 6
M  V30 38 1 21 11
M  V30 39 1 33 22
M  V30 40 1 20 13
M  V30 41 1 32 26
M  V30 42 1 1 37
M  V30 43 1 1 38
M  V30 44 1 1 39
M  V30 45 1 3 40
M  V30 46 1 3 41
M  V30 47 1 4 42
M  V30 48 1 4 43
M  V30 49 1 9 44
M  V30 50 1 10 45
M  V30 51 1 10 46
M  V30 52 1 18 47
M  V30 53 1 19 48
M  V30 54 1 21 49
M  V30 55 1 24 50
M  V30 56 1 27 51
M  V30 57 1 28 52
M  V30 58 1 32 53
M  V30 59 1 35 54
M  V30 60 1 35 55
M  V30 61 1 36 56
M  V30 62 1 36 57
M  V30 END BOND
M  V30 END CTAB
M  END
>  <Dataset>  (318) 
ChEMBL_Kinases

>  <Ligand_Instance>  (318) 
nan

>  <PDB_ID>  (318) 
nan

>  <Standardized_SMILES>  (318) 
CN1CCN(c2nc(NCc3nc4c(F)c(F)ccc4[nH]3)c3ncn(-c4ccnc(F)c4)c3n2)CC1

>  <Name>  (318) 
nan

>  <Pocket>  (318) 
nan

>  <ATP_Site>  (318) 
nan

>  <Peripheral>  (318) 
nan

>  <Num_H_Atoms_ProtBoundConf>  (318) 
nan

>  <Num_Resolved_Atoms>  (318) 
nan

>  <Num_Not_Resolved_Atoms>  (318) 
nan

$$$$
CHEMBL3675536
     RDKit          3D

  0  0  0  0  0  0  0  0  0  0999 V3000
M  V30 BEGIN CTAB
M  V30 COUNTS 50 52 0 0 0
M  V30 BEGIN ATOM
M  V30 1 C 0.317631 -5.790645 1.633071 0
M  V30 2 O 1.650930 -5.675978 1.317504 0
M  V30 3 C 2.281500 -4.749000 2.116137 0
M  V30 4 C 1.735539 -3.343514 2.006768 0
M  V30 5 N 1.889446 -2.935208 0.654618 0
M  V30 6 C 1.427673 -1.636263 0.295041 0
M  V30 7 C -0.025470 -1.389229 0.306688 0 CFG=1
M  V30 8 N -0.279873 0.008017 -0.086574 0
M  V30 9 C 0.148394 1.122254 0.686735 0
M  V30 10 N 0.805649 0.921480 1.834369 0
M  V30 11 C 1.232597 1.920458 2.617551 0
M  V30 12 N 0.996900 3.212091 2.246999 0
M  V30 13 C 0.338212 3.440650 1.097795 0
M  V30 14 C 0.100580 4.767360 0.729545 0
M  V30 15 C 0.538026 5.920783 1.535363 0
M  V30 16 N 1.234502 5.596861 2.734225 0
M  V30 17 O 0.299932 7.096420 1.166543 0
M  V30 18 C -0.576496 4.987581 -0.448158 0
M  V30 19 C -1.042314 3.981624 -1.300341 0
M  V30 20 C -0.779871 2.692740 -0.887049 0
M  V30 21 C -0.109204 2.431244 0.277950 0
M  V30 22 C -0.858388 -2.336090 -0.438407 0
M  V30 23 C -2.196634 -1.911266 -0.468871 0
M  V30 24 C -3.177060 -2.636903 -1.116683 0
M  V30 25 C -2.845252 -3.806556 -1.751430 0
M  V30 26 C -1.539209 -4.248917 -1.739024 0
M  V30 27 C -0.571096 -3.516151 -1.089303 0
M  V30 28 H 0.146507 -6.106493 2.688707 0
M  V30 29 H -0.301736 -4.903068 1.434713 0
M  V30 30 H -0.147817 -6.621024 1.025788 0
M  V30 31 H 2.189160 -5.148834 3.168354 0
M  V30 32 H 3.387203 -4.773422 1.935245 0
M  V30 33 H 0.669927 -3.369987 2.285616 0
M  V30 34 H 2.341233 -2.745814 2.726573 0
M  V30 35 H 2.727926 -3.267275 0.171990 0
M  V30 36 H 1.813524 -1.449094 -0.749359 0
M  V30 37 H 1.960858 -0.893603 0.914712 0
M  V30 38 H -0.424974 -1.403661 1.368108 0
M  V30 39 H -0.801007 0.058235 -0.985044 0
M  V30 40 H 1.759457 1.668582 3.532414 0
M  V30 41 H 0.876150 5.348424 3.705021 0
M  V30 42 H 2.151877 5.464964 3.186646 0
M  V30 43 H -0.758065 6.017792 -0.729600 0
M  V30 44 H -1.565012 4.207447 -2.207046 0
M  V30 45 H -1.135516 1.918876 -1.536212 0
M  V30 46 H -2.604794 -1.000670 -0.005921 0
M  V30 47 H -4.202032 -2.360118 -1.169727 0
M  V30 48 H -3.504284 -4.480218 -2.300012 0
M  V30 49 H -1.138041 -5.154935 -2.199401 0
M  V30 50 H 0.464332 -3.771384 -1.023360 0
M  V30 END ATOM
M  V30 BEGIN BOND
M  V30 1 1 1 2
M  V30 2 1 2 3
M  V30 3 1 3 4
M  V30 4 1 4 5
M  V30 5 1 5 6
M  V30 6 1 6 7
M  V30 7 1 7 8
M  V30 8 1 8 9
M  V30 9 2 9 10
M  V30 10 1 10 11
M  V30 11 2 11 12
M  V30 12 1 12 13
M  V30 13 2 13 14
M  V30 14 1 14 15
M  V30 15 1 15 16
M  V30 16 2 15 17
M  V30 17 1 14 18
M  V30 18 2 18 19
M  V30 19 1 19 20
M  V30 20 2 20 21
M  V30 21 1 7 22
M  V30 22 2 22 23
M  V30 23 1 23 24
M  V30 24 2 24 25
M  V30 25 1 25 26
M  V30 26 2 26 27
M  V30 27 1 21 9
M  V30 28 1 27 22
M  V30 29 1 21 13
M  V30 30 1 1 28
M  V30 31 1 1 29
M  V30 32 1 1 30
M  V30 33 1 3 31
M  V30 34 1 3 32
M  V30 35 1 4 33
M  V30 36 1 4 34
M  V30 37 1 5 35
M  V30 38 1 6 36
M  V30 39 1 6 37
M  V30 40 1 7 38 CFG=1
M  V30 41 1 8 39
M  V30 42 1 11 40
M  V30 43 1 16 41
M  V30 44 1 16 42
M  V30 45 1 18 43
M  V30 46 1 19 44
M  V30 47 1 20 45
M  V30 48 1 23 46
M  V30 49 1 24 47
M  V30 50 1 25 48
M  V30 51 1 26 49
M  V30 52 1 27 50
M  V30 END BOND
M  V30 END CTAB
M  END
>  <Dataset>  (319) 
ChEMBL_Kinases

>  <Ligand_Instance>  (319) 
nan

>  <PDB_ID>  (319) 
nan

>  <Standardized_SMILES>  (319) 
COCCNC[C@@H](Nc1ncnc2c(C(N)=O)cccc12)c1ccccc1

>  <Name>  (319) 
nan

>  <Pocket>  (319) 
nan

>  <ATP_Site>  (319) 
nan

>  <Peripheral>  (319) 
nan

>  <Num_H_Atoms_ProtBoundConf>  (319) 
nan

>  <Num_Resolved_Atoms>  (319) 
nan

>  <Num_Not_Resolved_Atoms>  (319) 
nan

$$$$
CHEMBL4215391
     RDKit          3D

  0  0  0  0  0  0  0  0  0  0999 V3000
M  V30 BEGIN CTAB
M  V30 COUNTS 53 58 0 0 0
M  V30 BEGIN ATOM
M  V30 1 C 4.109231 -1.342094 1.695836 0
M  V30 2 O 3.080367 -0.676521 0.988269 0
M  V30 3 C 2.203267 -1.402450 0.200081 0
M  V30 4 C 2.283347 -2.773011 0.066391 0
M  V30 5 C 1.418670 -3.511620 -0.713890 0
M  V30 6 C 0.419221 -2.844336 -1.398111 0
M  V30 7 C 0.319182 -1.463606 -1.278654 0
M  V30 8 C 1.192075 -0.737773 -0.493773 0
M  V30 9 C 1.011807 0.710729 -0.428334 0
M  V30 10 C 1.670357 1.528684 -1.353049 0
M  V30 11 N 1.299411 2.777244 -1.025208 0
M  V30 12 N 0.474204 2.778079 0.017696 0
M  V30 13 C -0.161431 3.739381 0.712290 0
M  V30 14 C -0.981558 3.441008 1.782386 0
M  V30 15 C -1.192217 2.145649 2.194943 0
M  V30 16 C -2.039754 1.739056 3.309938 0
M  V30 17 C -1.497902 0.797214 4.173705 0
M  V30 18 C -2.259640 0.379990 5.247599 0
M  V30 19 N -3.505413 0.838665 5.504312 0
M  V30 20 C -4.042223 1.764838 4.657496 0
M  V30 21 N -5.240526 2.408531 4.637514 0
M  V30 22 C -5.246597 3.228109 3.564073 0
M  V30 23 C -4.055249 3.125392 2.877470 0
M  V30 24 C -3.310772 2.205086 3.574294 0
M  V30 25 C -0.539605 1.132178 1.484865 0
M  V30 26 C 0.261486 1.512339 0.429553 0
M  V30 27 C -0.348554 -3.900113 -2.147467 0
M  V30 28 N 0.733566 -4.811143 -2.461883 0
M  V30 29 C 0.956382 -5.230684 -3.801072 0
M  V30 30 C 2.006202 -6.150076 -4.307449 0
M  V30 31 O 0.128103 -4.723693 -4.600318 0
M  V30 32 C 1.208998 -4.936242 -1.081621 0
M  V30 33 H 4.599777 -2.114342 1.045195 0
M  V30 34 H 3.767279 -1.861085 2.603513 0
M  V30 35 H 4.929873 -0.628169 1.967976 0
M  V30 36 H 3.032565 -3.330518 0.571273 0
M  V30 37 H -0.473809 -0.953437 -1.824283 0
M  V30 38 H 2.336428 1.242663 -2.162646 0
M  V30 39 H -0.010213 4.768906 0.404873 0
M  V30 40 H -1.478114 4.222279 2.322686 0
M  V30 41 H -0.517727 0.343749 4.093559 0
M  V30 42 H -1.984392 -0.353085 6.020929 0
M  V30 43 H -5.971392 2.232227 5.373297 0
M  V30 44 H -6.113134 3.860114 3.330829 0
M  V30 45 H -3.782304 3.660544 1.984981 0
M  V30 46 H -0.644800 0.086308 1.736020 0
M  V30 47 H -1.112356 -4.372154 -1.483460 0
M  V30 48 H -0.836354 -3.444075 -3.006529 0
M  V30 49 H 1.592600 -7.101457 -4.721370 0
M  V30 50 H 2.725548 -6.407995 -3.517704 0
M  V30 51 H 2.594835 -5.680608 -5.136000 0
M  V30 52 H 2.166575 -5.502708 -1.054686 0
M  V30 53 H 0.410744 -5.429949 -0.508734 0
M  V30 END ATOM
M  V30 BEGIN BOND
M  V30 1 1 1 2
M  V30 2 1 2 3
M  V30 3 2 3 4
M  V30 4 1 4 5
M  V30 5 2 5 6
M  V30 6 1 6 7
M  V30 7 2 7 8
M  V30 8 1 8 9
M  V30 9 1 9 10
M  V30 10 2 10 11
M  V30 11 1 11 12
M  V30 12 1 12 13
M  V30 13 2 13 14
M  V30 14 1 14 15
M  V30 15 1 15 16
M  V30 16 2 16 17
M  V30 17 1 17 18
M  V30 18 2 18 19
M  V30 19 1 19 20
M  V30 20 1 20 21
M  V30 21 1 21 22
M  V30 22 2 22 23
M  V30 23 1 23 24
M  V30 24 2 15 25
M  V30 25 1 25 26
M  V30 26 1 6 27
M  V30 27 1 27 28
M  V30 28 1 28 29
M  V30 29 1 29 30
M  V30 30 2 29 31
M  V30 31 1 28 32
M  V30 32 1 8 3
M  V30 33 2 26 9
M  V30 34 1 32 5
M  V30 35 1 26 12
M  V30 36 1 24 16
M  V30 37 2 24 20
M  V30 38 1 1 33
M  V30 39 1 1 34
M  V30 40 1 1 35
M  V30 41 1 4 36
M  V30 42 1 7 37
M  V30 43 1 10 38
M  V30 44 1 13 39
M  V30 45 1 14 40
M  V30 46 1 17 41
M  V30 47 1 18 42
M  V30 48 1 21 43
M  V30 49 1 22 44
M  V30 50 1 23 45
M  V30 51 1 25 46
M  V30 52 1 27 47
M  V30 53 1 27 48
M  V30 54 1 30 49
M  V30 55 1 30 50
M  V30 56 1 30 51
M  V30 57 1 32 52
M  V30 58 1 32 53
M  V30 END BOND
M  V30 END CTAB
M  END
>  <Dataset>  (320) 
ChEMBL_Kinases

>  <Ligand_Instance>  (320) 
nan

>  <PDB_ID>  (320) 
nan

>  <Standardized_SMILES>  (320) 
COc1cc2c(cc1-c1cnn3ccc(-c4ccnc5[nH]ccc45)cc13)CN(C(C)=O)C2

>  <Name>  (320) 
nan

>  <Pocket>  (320) 
nan

>  <ATP_Site>  (320) 
nan

>  <Peripheral>  (320) 
nan

>  <Num_H_Atoms_ProtBoundConf>  (320) 
nan

>  <Num_Resolved_Atoms>  (320) 
nan

>  <Num_Not_Resolved_Atoms>  (320) 
nan

$$$$
CHEMBL3675540
     RDKit          3D

  0  0  0  0  0  0  0  0  0  0999 V3000
M  V30 BEGIN CTAB
M  V30 COUNTS 67 70 0 0 0
M  V30 BEGIN ATOM
M  V30 1 C -2.224142 0.430873 4.657261 0
M  V30 2 C -1.016532 0.460508 4.108901 0
M  V30 3 C -0.715122 0.517207 2.652853 0
M  V30 4 N -1.913832 0.532091 1.872728 0
M  V30 5 C -2.528989 -0.794190 2.041355 0
M  V30 6 C -1.649651 0.678017 0.433182 0
M  V30 7 C -1.119870 2.000969 0.077790 0
M  V30 8 C -0.769555 2.313871 -1.325386 0
M  V30 9 N -1.825586 2.193940 -2.293477 0
M  V30 10 C -2.284035 0.932130 -2.825850 0
M  V30 11 N -1.725720 -0.220354 -2.494020 0
M  V30 12 C -2.116224 -1.396774 -2.997899 0
M  V30 13 N -3.128215 -1.470294 -3.895819 0
M  V30 14 C -3.744423 -0.334323 -4.280437 0
M  V30 15 C -4.774817 -0.391087 -5.190265 0
M  V30 16 C -5.149061 -1.701862 -5.698276 0
M  V30 17 N -4.486259 -2.891974 -5.289675 0
M  V30 18 O -6.025911 -2.033208 -6.504987 0
M  V30 19 C -5.436865 0.739113 -5.614440 0
M  V30 20 C -5.012239 1.944408 -5.077010 0
M  V30 21 C -3.972104 1.969346 -4.162892 0
M  V30 22 C -3.312729 0.854776 -3.738830 0
M  V30 23 C 0.492515 1.647954 -1.808183 0
M  V30 24 C 0.688283 1.840366 -3.167660 0
M  V30 25 C 1.827501 1.277198 -3.710772 0
M  V30 26 C 2.708094 0.567787 -2.930878 0
M  V30 27 C 2.520084 0.372135 -1.577908 0
M  V30 28 N 3.453395 -0.358016 -0.842774 0
M  V30 29 C 3.521396 -0.716658 0.525299 0
M  V30 30 O 2.576110 -0.317348 1.242456 0
M  V30 31 C 4.572583 -1.486387 1.129396 0
M  V30 32 C 5.659613 -1.977458 0.463043 0
M  V30 33 C 6.648923 -2.712763 1.080940 0
M  V30 34 C 6.581149 -2.989876 2.429184 0
M  V30 35 C 5.488921 -2.510602 3.159483 0
M  V30 36 C 4.541216 -1.784122 2.473919 0
M  V30 37 C 1.400434 0.930965 -1.065858 0
M  V30 38 H -3.126160 0.445230 4.094610 0
M  V30 39 H -2.271885 0.390301 5.737985 0
M  V30 40 H -0.107052 0.444408 4.698284 0
M  V30 41 H -0.119719 1.458937 2.525364 0
M  V30 42 H -0.069054 -0.375368 2.426873 0
M  V30 43 H -2.094699 -1.352597 2.892572 0
M  V30 44 H -3.634582 -0.713836 2.058813 0
M  V30 45 H -2.303939 -1.440516 1.145692 0
M  V30 46 H -2.637122 0.440638 -0.028746 0
M  V30 47 H -0.962433 -0.138005 0.171538 0
M  V30 48 H -0.215658 2.295831 0.693129 0
M  V30 49 H -1.880561 2.774064 0.417573 0
M  V30 50 H -0.456219 3.408915 -1.308452 0
M  V30 51 H -2.263298 3.086491 -2.605006 0
M  V30 52 H -1.614146 -2.308659 -2.683543 0
M  V30 53 H -4.553771 -3.501503 -4.433927 0
M  V30 54 H -4.538016 -3.516086 -4.441289 0
M  V30 55 H -6.231564 0.586625 -6.331515 0
M  V30 56 H -5.543597 2.832329 -5.420359 0
M  V30 57 H -3.749874 2.948914 -3.833684 0
M  V30 58 H 0.054228 2.379728 -3.854947 0
M  V30 59 H 2.039773 1.389338 -4.761907 0
M  V30 60 H 3.588076 0.148130 -3.417898 0
M  V30 61 H 4.296426 -0.740054 -1.369985 0
M  V30 62 H 5.801049 -1.818016 -0.574932 0
M  V30 63 H 7.530657 -3.118695 0.574738 0
M  V30 64 H 7.284599 -3.554051 3.043183 0
M  V30 65 H 5.369145 -2.688559 4.219427 0
M  V30 66 H 3.686139 -1.412234 3.058758 0
M  V30 67 H 1.141796 0.865466 -0.044138 0
M  V30 END ATOM
M  V30 BEGIN BOND
M  V30 1 2 1 2
M  V30 2 1 2 3
M  V30 3 1 3 4
M  V30 4 1 4 5
M  V30 5 1 4 6
M  V30 6 1 6 7
M  V30 7 1 7 8
M  V30 8 1 8 9
M  V30 9 1 9 10
M  V30 10 2 10 11
M  V30 11 1 11 12
M  V30 12 2 12 13
M  V30 13 1 13 14
M  V30 14 2 14 15
M  V30 15 1 15 16
M  V30 16 1 16 17
M  V30 17 2 16 18
M  V30 18 1 15 19
M  V30 19 2 19 20
M  V30 20 1 20 21
M  V30 21 2 21 22
M  V30 22 1 8 23
M  V30 23 2 23 24
M  V30 24 1 24 25
M  V30 25 2 25 26
M  V30 26 1 26 27
M  V30 27 1 27 28
M  V30 28 1 28 29
M  V30 29 2 29 30
M  V30 30 1 29 31
M  V30 31 2 31 32
M  V30 32 1 32 33
M  V30 33 2 33 34
M  V30 34 1 34 35
M  V30 35 2 35 36
M  V30 36 2 27 37
M  V30 37 1 22 10
M  V30 38 1 37 23
M  V30 39 1 22 14
M  V30 40 1 36 31
M  V30 41 1 1 38
M  V30 42 1 1 39
M  V30 43 1 2 40
M  V30 44 1 3 41
M  V30 45 1 3 42
M  V30 46 1 5 43
M  V30 47 1 5 44
M  V30 48 1 5 45
M  V30 49 1 6 46
M  V30 50 1 6 47
M  V30 51 1 7 48
M  V30 52 1 7 49
M  V30 53 1 8 50
M  V30 54 1 9 51
M  V30 55 1 12 52
M  V30 56 1 17 53
M  V30 57 1 17 54
M  V30 58 1 19 55
M  V30 59 1 20 56
M  V30 60 1 21 57
M  V30 61 1 24 58
M  V30 62 1 25 59
M  V30 63 1 26 60
M  V30 64 1 28 61
M  V30 65 1 32 62
M  V30 66 1 33 63
M  V30 67 1 34 64
M  V30 68 1 35 65
M  V30 69 1 36 66
M  V30 70 1 37 67
M  V30 END BOND
M  V30 END CTAB
M  END
>  <Dataset>  (321) 
ChEMBL_Kinases

>  <Ligand_Instance>  (321) 
nan

>  <PDB_ID>  (321) 
nan

>  <Standardized_SMILES>  (321) 
C=CCN(C)CCC(Nc1ncnc2c(C(N)=O)cccc12)c1cccc(NC(=O)c2ccccc2)c1

>  <Name>  (321) 
nan

>  <Pocket>  (321) 
nan

>  <ATP_Site>  (321) 
nan

>  <Peripheral>  (321) 
nan

>  <Num_H_Atoms_ProtBoundConf>  (321) 
nan

>  <Num_Resolved_Atoms>  (321) 
nan

>  <Num_Not_Resolved_Atoms>  (321) 
nan

$$$$
CHEMBL4215228
     RDKit          3D

  0  0  0  0  0  0  0  0  0  0999 V3000
M  V30 BEGIN CTAB
M  V30 COUNTS 82 88 0 0 0
M  V30 BEGIN ATOM
M  V30 1 C -1.551282 -3.186950 5.652868 0
M  V30 2 S -3.082955 -2.687144 4.819323 0
M  V30 3 C -2.709177 -2.051092 3.156286 0 CFG=1
M  V30 4 C -1.947222 -0.814672 3.329053 0
M  V30 5 O -0.743238 -0.781835 2.908245 0
M  V30 6 N -2.371931 0.414322 3.925762 0
M  V30 7 C -1.259878 1.333326 3.859445 0
M  V30 8 C -0.486344 1.219156 5.009282 0
M  V30 9 C 0.640752 1.997201 5.180267 0
M  V30 10 C 0.979178 2.888596 4.183724 0
M  V30 11 N 1.972777 3.777505 4.008890 0
M  V30 12 N 1.825857 4.396901 2.836965 0
M  V30 13 C 0.723402 3.930839 2.201046 0
M  V30 14 C 0.219566 4.350514 0.898363 0
M  V30 15 C 0.213779 5.719161 0.720715 0
M  V30 16 C -0.247999 6.218937 -0.487932 0
M  V30 17 C -0.708322 5.419947 -1.538060 0
M  V30 18 F -1.149386 5.959145 -2.699821 0
M  V30 19 C -0.680373 4.044481 -1.304593 0
M  V30 20 C -0.225809 3.524028 -0.111373 0
M  V30 21 C 0.182575 2.979174 3.042706 0
M  V30 22 C -0.940231 2.207950 2.866496 0
M  V30 23 C -1.815068 -3.054485 2.456750 0
M  V30 24 C -2.753793 -3.797209 1.507783 0
M  V30 25 N -3.651209 -2.743433 1.094126 0
M  V30 26 C -3.127076 -2.001240 -0.005972 0
M  V30 27 C -3.102415 -2.862683 -1.214352 0
M  V30 28 O -3.493990 -4.080027 -1.241770 0
M  V30 29 N -2.613598 -2.315304 -2.432833 0
M  V30 30 C -2.149672 -0.963914 -2.529747 0
M  V30 31 C -1.214363 -0.779336 -3.732162 0
M  V30 32 N -0.407629 -1.982057 -3.797947 0
M  V30 33 C 0.960942 -2.020232 -3.464905 0
M  V30 34 C 1.644530 -0.931927 -3.010822 0
M  V30 35 C 2.982375 -0.933755 -2.676349 0
M  V30 36 C 3.719374 -2.089202 -2.792046 0
M  V30 37 C 5.127369 -2.115443 -2.443764 0
M  V30 38 N 5.777233 -1.016676 -1.998212 0
M  V30 39 C 7.080893 -1.046823 -1.675926 0
M  V30 40 C 7.746705 -2.238827 -1.812143 0
M  V30 41 C 7.109929 -3.352929 -2.258298 0
M  V30 42 N 5.795524 -3.264702 -2.568506 0
M  V30 43 C 3.056589 -3.215068 -3.250705 0
M  V30 44 C 1.708374 -3.150423 -3.571538 0
M  V30 45 C -1.157317 -3.137627 -4.237485 0
M  V30 46 C -2.553975 -3.093830 -3.658263 0
M  V30 47 C -3.897474 -2.011665 2.290512 0
M  V30 48 H -1.284631 -4.241004 5.407656 0
M  V30 49 H -0.698380 -2.538150 5.406284 0
M  V30 50 H -1.727983 -3.067245 6.748325 0
M  V30 51 H -3.367099 0.404479 4.278948 0
M  V30 52 H -0.657354 0.551894 5.858225 0
M  V30 53 H 1.287902 1.947245 6.070102 0
M  V30 54 H 2.712612 3.901674 4.737155 0
M  V30 55 H 0.534827 6.493293 1.427396 0
M  V30 56 H -0.278365 7.280584 -0.690677 0
M  V30 57 H -1.024371 3.383530 -2.082076 0
M  V30 58 H -0.189456 2.465091 0.104828 0
M  V30 59 H -1.609035 2.204779 2.035756 0
M  V30 60 H -1.342313 -3.747458 3.179919 0
M  V30 61 H -1.016817 -2.538295 1.855444 0
M  V30 62 H -3.298668 -4.568725 2.103523 0
M  V30 63 H -2.185113 -4.258839 0.673389 0
M  V30 64 H -2.116922 -1.618676 0.174986 0
M  V30 65 H -3.784090 -1.111360 -0.195077 0
M  V30 66 H -1.538840 -0.687339 -1.635872 0
M  V30 67 H -2.972333 -0.201906 -2.571949 0
M  V30 68 H -1.912219 -0.768741 -4.619892 0
M  V30 69 H -0.655745 0.151974 -3.669697 0
M  V30 70 H 1.185177 0.034934 -2.873490 0
M  V30 71 H 3.517773 -0.061813 -2.316428 0
M  V30 72 H 7.536807 -0.114169 -1.321870 0
M  V30 73 H 8.795461 -2.286104 -1.558554 0
M  V30 74 H 7.556907 -4.318846 -2.392095 0
M  V30 75 H 3.666096 -4.116505 -3.332260 0
M  V30 76 H 1.331623 -4.084964 -3.910131 0
M  V30 77 H -0.668022 -4.096923 -4.117944 0
M  V30 78 H -1.298392 -2.991461 -5.348496 0
M  V30 79 H -2.885922 -4.126374 -3.491196 0
M  V30 80 H -3.290136 -2.606014 -4.353469 0
M  V30 81 H -4.340509 -1.011517 2.129439 0
M  V30 82 H -4.714849 -2.576889 2.830435 0
M  V30 END ATOM
M  V30 BEGIN BOND
M  V30 1 1 1 2
M  V30 2 1 3 2 CFG=1
M  V30 3 1 3 4
M  V30 4 2 4 5
M  V30 5 1 4 6
M  V30 6 1 6 7
M  V30 7 2 7 8
M  V30 8 1 8 9
M  V30 9 2 9 10
M  V30 10 1 10 11
M  V30 11 1 11 12
M  V30 12 2 12 13
M  V30 13 1 13 14
M  V30 14 2 14 15
M  V30 15 1 15 16
M  V30 16 2 16 17
M  V30 17 1 17 18
M  V30 18 1 17 19
M  V30 19 2 19 20
M  V30 20 1 13 21
M  V30 21 2 21 22
M  V30 22 1 3 23
M  V30 23 1 23 24
M  V30 24 1 24 25
M  V30 25 1 25 26
M  V30 26 1 26 27
M  V30 27 2 27 28
M  V30 28 1 27 29
M  V30 29 1 29 30
M  V30 30 1 30 31
M  V30 31 1 31 32
M  V30 32 1 32 33
M  V30 33 2 33 34
M  V30 34 1 34 35
M  V30 35 2 35 36
M  V30 36 1 36 37
M  V30 37 2 37 38
M  V30 38 1 38 39
M  V30 39 2 39 40
M  V30 40 1 40 41
M  V30 41 2 41 42
M  V30 42 1 36 43
M  V30 43 2 43 44
M  V30 44 1 32 45
M  V30 45 1 45 46
M  V30 46 1 25 47
M  V30 47 1 47 3
M  V30 48 1 22 7
M  V30 49 1 46 29
M  V30 50 1 21 10
M  V30 51 1 44 33
M  V30 52 1 20 14
M  V30 53 1 42 37
M  V30 54 1 1 48
M  V30 55 1 1 49
M  V30 56 1 1 50
M  V30 57 1 6 51
M  V30 58 1 8 52
M  V30 59 1 9 53
M  V30 60 1 11 54
M  V30 61 1 15 55
M  V30 62 1 16 56
M  V30 63 1 19 57
M  V30 64 1 20 58
M  V30 65 1 22 59
M  V30 66 1 23 60
M  V30 67 1 23 61
M  V30 68 1 24 62
M  V30 69 1 24 63
M  V30 70 1 26 64
M  V30 71 1 26 65
M  V30 72 1 30 66
M  V30 73 1 30 67
M  V30 74 1 31 68
M  V30 75 1 31 69
M  V30 76 1 34 70
M  V30 77 1 35 71
M  V30 78 1 39 72
M  V30 79 1 40 73
M  V30 80 1 41 74
M  V30 81 1 43 75
M  V30 82 1 44 76
M  V30 83 1 45 77
M  V30 84 1 45 78
M  V30 85 1 46 79
M  V30 86 1 46 80
M  V30 87 1 47 81
M  V30 88 1 47 82
M  V30 END BOND
M  V30 END CTAB
M  END
>  <Dataset>  (322) 
ChEMBL_Kinases

>  <Ligand_Instance>  (322) 
nan

>  <PDB_ID>  (322) 
nan

>  <Standardized_SMILES>  (322) 
CS[C@@]1(C(=O)Nc2ccc3[nH]nc(-c4ccc(F)cc4)c3c2)CCN(CC(=O)N2CCN(c3ccc(-c4ncccn4)cc3)CC2)C1

>  <Name>  (322) 
nan

>  <Pocket>  (322) 
nan

>  <ATP_Site>  (322) 
nan

>  <Peripheral>  (322) 
nan

>  <Num_H_Atoms_ProtBoundConf>  (322) 
nan

>  <Num_Resolved_Atoms>  (322) 
nan

>  <Num_Not_Resolved_Atoms>  (322) 
nan

$$$$
CHEMBL4215126
     RDKit          3D

  0  0  0  0  0  0  0  0  0  0999 V3000
M  V30 BEGIN CTAB
M  V30 COUNTS 70 75 0 0 0
M  V30 BEGIN ATOM
M  V30 1 C 4.653270 -0.930591 6.312763 0
M  V30 2 C 4.925319 -1.745990 5.079885 0
M  V30 3 N 3.679594 -2.093241 4.385276 0
M  V30 4 C 4.081463 -2.864418 3.232649 0
M  V30 5 C 4.614723 -2.021535 2.100341 0
M  V30 6 N 3.685794 -0.984702 1.772240 0
M  V30 7 C 3.510464 -0.703504 0.393114 0
M  V30 8 C 2.534721 0.362588 0.075369 0
M  V30 9 C 1.288384 0.036542 -0.416432 0
M  V30 10 C 0.409107 1.057791 -0.702210 0
M  V30 11 C 0.671705 2.397323 -0.536393 0
M  V30 12 N -0.215925 3.463482 -0.824335 0
M  V30 13 C -1.533633 3.372807 -1.338619 0
M  V30 14 N -2.268828 4.466649 -1.552005 0
M  V30 15 C -3.506338 4.508766 -2.028332 0
M  V30 16 C -4.127631 3.327456 -2.345818 0
M  V30 17 F -5.389359 3.316543 -2.834579 0
M  V30 18 C -3.423923 2.164322 -2.149235 0
M  V30 19 C -3.998162 0.867099 -2.458576 0
M  V30 20 C -4.641223 0.883809 -3.694536 0
M  V30 21 C -5.267437 -0.234735 -4.215049 0
M  V30 22 F -5.901815 -0.254919 -5.411519 0
M  V30 23 C -5.228620 -1.386528 -3.447688 0
M  V30 24 N -5.732064 -2.636631 -3.657299 0
M  V30 25 C -5.406271 -3.388408 -2.585180 0
M  V30 26 N -4.707285 -2.664309 -1.686504 0
M  V30 27 C -4.601683 -1.432128 -2.224818 0
M  V30 28 C -3.984417 -0.303250 -1.727302 0
M  V30 29 C -4.356275 -3.460837 -0.534325 0
M  V30 30 C -3.088874 -3.056815 0.122111 0
M  V30 31 C -4.293011 -4.855104 -1.156586 0
M  V30 32 C -5.548559 -4.764888 -2.035164 0
M  V30 33 N -2.202407 2.262352 -1.669817 0
M  V30 34 N 1.896204 2.669230 -0.055513 0
M  V30 35 C 2.787806 1.708371 0.237851 0
M  V30 36 C 4.096019 2.136115 0.758484 0
M  V30 37 C 2.540451 -1.035221 2.593297 0
M  V30 38 C 2.994130 -0.865771 4.048530 0
M  V30 39 H 3.578332 -0.667554 6.375611 0
M  V30 40 H 5.299264 -0.023919 6.342141 0
M  V30 41 H 4.916865 -1.505689 7.224774 0
M  V30 42 H 5.598463 -1.156444 4.404244 0
M  V30 43 H 5.486783 -2.652540 5.367959 0
M  V30 44 H 4.883567 -3.555750 3.604518 0
M  V30 45 H 3.245642 -3.520148 2.919246 0
M  V30 46 H 4.664510 -2.707797 1.223742 0
M  V30 47 H 5.637384 -1.641309 2.312294 0
M  V30 48 H 3.208514 -1.617841 -0.135372 0
M  V30 49 H 4.528577 -0.455016 -0.026400 0
M  V30 50 H 1.034344 -0.999332 -0.563855 0
M  V30 51 H -0.538348 0.746084 -1.079025 0
M  V30 52 H 0.130339 4.431987 -0.639844 0
M  V30 53 H -4.019047 5.446893 -2.166153 0
M  V30 54 H -4.723305 1.748728 -4.371952 0
M  V30 55 H -3.471025 -0.213059 -0.801334 0
M  V30 56 H -5.164298 -3.503611 0.213832 0
M  V30 57 H -2.506556 -4.009448 0.292790 0
M  V30 58 H -2.426159 -2.429010 -0.505122 0
M  V30 59 H -3.292139 -2.643355 1.108890 0
M  V30 60 H -3.433496 -4.919561 -1.853025 0
M  V30 61 H -4.341737 -5.661897 -0.423520 0
M  V30 62 H -5.530269 -5.540305 -2.825819 0
M  V30 63 H -6.451803 -4.772182 -1.405916 0
M  V30 64 H 4.879980 1.551628 0.233020 0
M  V30 65 H 4.161859 2.034742 1.839795 0
M  V30 66 H 4.305391 3.210557 0.498969 0
M  V30 67 H 1.766310 -0.271609 2.350514 0
M  V30 68 H 2.005073 -2.002303 2.537983 0
M  V30 69 H 2.153641 -0.613574 4.722302 0
M  V30 70 H 3.749699 -0.039405 4.019141 0
M  V30 END ATOM
M  V30 BEGIN BOND
M  V30 1 1 1 2
M  V30 2 1 2 3
M  V30 3 1 3 4
M  V30 4 1 4 5
M  V30 5 1 5 6
M  V30 6 1 6 7
M  V30 7 1 7 8
M  V30 8 2 8 9
M  V30 9 1 9 10
M  V30 10 2 10 11
M  V30 11 1 11 12
M  V30 12 1 12 13
M  V30 13 2 13 14
M  V30 14 1 14 15
M  V30 15 2 15 16
M  V30 16 1 16 17
M  V30 17 1 16 18
M  V30 18 1 18 19
M  V30 19 2 19 20
M  V30 20 1 20 21
M  V30 21 1 21 22
M  V30 22 2 21 23
M  V30 23 1 23 24
M  V30 24 2 24 25
M  V30 25 1 25 26
M  V30 26 1 26 27
M  V30 27 2 27 28
M  V30 28 1 26 29
M  V30 29 1 29 30
M  V30 30 1 29 31
M  V30 31 1 31 32
M  V30 32 2 18 33
M  V30 33 1 11 34
M  V30 34 2 34 35
M  V30 35 1 35 36
M  V30 36 1 6 37
M  V30 37 1 37 38
M  V30 38 1 38 3
M  V30 39 1 35 8
M  V30 40 1 33 13
M  V30 41 1 28 19
M  V30 42 1 27 23
M  V30 43 1 32 25
M  V30 44 1 1 39
M  V30 45 1 1 40
M  V30 46 1 1 41
M  V30 47 1 2 42
M  V30 48 1 2 43
M  V30 49 1 4 44
M  V30 50 1 4 45
M  V30 51 1 5 46
M  V30 52 1 5 47
M  V30 53 1 7 48
M  V30 54 1 7 49
M  V30 55 1 9 50
M  V30 56 1 10 51
M  V30 57 1 12 52
M  V30 58 1 15 53
M  V30 59 1 20 54
M  V30 60 1 28 55
M  V30 61 1 29 56
M  V30 62 1 30 57
M  V30 63 1 30 58
M  V30 64 1 30 59
M  V30 65 1 31 60
M  V30 66 1 31 61
M  V30 67 1 32 62
M  V30 68 1 32 63
M  V30 69 1 36 64
M  V30 70 1 36 65
M  V30 71 1 36 66
M  V30 72 1 37 67
M  V30 73 1 37 68
M  V30 74 1 38 69
M  V30 75 1 38 70
M  V30 END BOND
M  V30 END CTAB
M  END
>  <Dataset>  (323) 
ChEMBL_Kinases

>  <Ligand_Instance>  (323) 
nan

>  <PDB_ID>  (323) 
nan

>  <Standardized_SMILES>  (323) 
CCN1CCN(Cc2ccc(Nc3ncc(F)c(-c4cc(F)c5nc6n(c5c4)C(C)CC6)n3)nc2C)CC1

>  <Name>  (323) 
nan

>  <Pocket>  (323) 
nan

>  <ATP_Site>  (323) 
nan

>  <Peripheral>  (323) 
nan

>  <Num_H_Atoms_ProtBoundConf>  (323) 
nan

>  <Num_Resolved_Atoms>  (323) 
nan

>  <Num_Not_Resolved_Atoms>  (323) 
nan

$$$$
CHEMBL323657
     RDKit          3D

  0  0  0  0  0  0  0  0  0  0999 V3000
M  V30 BEGIN CTAB
M  V30 COUNTS 28 31 0 0 0
M  V30 BEGIN ATOM
M  V30 1 O -2.679228 -2.780819 1.645837 0
M  V30 2 C -1.483207 -2.327826 1.709501 0
M  V30 3 C -1.382472 -0.887705 1.697024 0
M  V30 4 C -0.310227 -0.270469 0.927159 0
M  V30 5 C 0.965828 -0.774910 0.790972 0
M  V30 6 N 1.765402 0.008624 0.014693 0
M  V30 7 C 0.957232 1.044639 -0.349399 0
M  V30 8 C 1.194993 2.149793 -1.128349 0
M  V30 9 C 0.215651 3.082652 -1.366831 0
M  V30 10 C -1.031278 2.905303 -0.812600 0
M  V30 11 Br -2.446294 4.142305 -1.087504 0
M  V30 12 C -1.321060 1.801738 -0.016176 0
M  V30 13 C -0.303000 0.895138 0.192058 0
M  V30 14 C 1.564178 -1.992790 1.341838 0
M  V30 15 S 3.269768 -2.177970 1.528044 0
M  V30 16 C 3.116134 -3.921022 2.245285 0
M  V30 17 C 1.697665 -4.178959 2.262595 0
M  V30 18 C 0.946664 -3.150674 1.785763 0
M  V30 19 N -0.479256 -3.354112 1.780832 0
M  V30 20 H -2.342508 -0.424372 1.398536 0
M  V30 21 H -1.229333 -0.552242 2.765015 0
M  V30 22 H 2.764407 -0.138070 -0.247756 0
M  V30 23 H 2.172292 2.263582 -1.546893 0
M  V30 24 H 0.373383 3.959847 -1.974103 0
M  V30 25 H -2.288119 1.627714 0.436582 0
M  V30 26 H 3.929511 -4.732106 2.633980 0
M  V30 27 H 1.404455 -5.137488 2.643474 0
M  V30 28 H -0.835976 -4.332789 1.833032 0
M  V30 END ATOM
M  V30 BEGIN BOND
M  V30 1 2 1 2
M  V30 2 1 2 3
M  V30 3 1 3 4
M  V30 4 2 4 5
M  V30 5 1 5 6
M  V30 6 1 6 7
M  V30 7 2 7 8
M  V30 8 1 8 9
M  V30 9 2 9 10
M  V30 10 1 10 11
M  V30 11 1 10 12
M  V30 12 2 12 13
M  V30 13 1 5 14
M  V30 14 1 14 15
M  V30 15 1 15 16
M  V30 16 2 16 17
M  V30 17 1 17 18
M  V30 18 1 18 19
M  V30 19 1 19 2
M  V30 20 1 13 4
M  V30 21 2 18 14
M  V30 22 1 13 7
M  V30 23 1 3 20
M  V30 24 1 3 21
M  V30 25 1 6 22
M  V30 26 1 8 23
M  V30 27 1 9 24
M  V30 28 1 12 25
M  V30 29 1 16 26
M  V30 30 1 17 27
M  V30 31 1 19 28
M  V30 END BOND
M  V30 END CTAB
M  END
>  <Dataset>  (324) 
ChEMBL_Kinases

>  <Ligand_Instance>  (324) 
nan

>  <PDB_ID>  (324) 
nan

>  <Standardized_SMILES>  (324) 
O=C1Cc2c([nH]c3ccc(Br)cc23)-c2sccc2N1

>  <Name>  (324) 
nan

>  <Pocket>  (324) 
nan

>  <ATP_Site>  (324) 
nan

>  <Peripheral>  (324) 
nan

>  <Num_H_Atoms_ProtBoundConf>  (324) 
nan

>  <Num_Resolved_Atoms>  (324) 
nan

>  <Num_Not_Resolved_Atoms>  (324) 
nan

$$$$
CHEMBL4215056
     RDKit          3D

  0  0  0  0  0  0  0  0  0  0999 V3000
M  V30 BEGIN CTAB
M  V30 COUNTS 50 54 0 0 0
M  V30 BEGIN ATOM
M  V30 1 O 1.985033 -0.236078 5.979641 0
M  V30 2 C 2.356919 -0.734798 4.731749 0
M  V30 3 C 2.156518 -2.239476 4.762269 0
M  V30 4 N 2.533585 -2.830006 3.468569 0
M  V30 5 C 1.852971 -2.463934 2.279570 0
M  V30 6 N 2.366126 -1.336734 1.792219 0
M  V30 7 C 1.944530 -0.729588 0.675014 0
M  V30 8 N 2.306111 0.431572 -0.013790 0
M  V30 9 C 2.674938 1.607264 -0.707905 0
M  V30 10 C 1.490584 2.547031 -0.861616 0
M  V30 11 N 1.102555 3.541467 -0.043245 0
M  V30 12 C -0.009290 4.130587 -0.551021 0
M  V30 13 C -0.748870 5.181793 -0.053634 0
M  V30 14 F -0.437520 5.821228 1.097259 0
M  V30 15 C -1.856317 5.554225 -0.825897 0
M  V30 16 F -2.641755 6.577854 -0.415759 0
M  V30 17 C -2.188783 4.916963 -2.004116 0
M  V30 18 C -1.426393 3.867779 -2.473513 0
M  V30 19 C -0.332194 3.487059 -1.726995 0
M  V30 20 N 0.604759 2.537355 -1.871320 0
M  V30 21 C 0.878005 -1.319870 -0.048622 0
M  V30 22 N 0.145674 -1.108681 -1.154116 0
M  V30 23 C -0.756214 -2.094350 -1.283684 0
M  V30 24 N -0.655278 -2.982255 -0.281137 0
M  V30 25 C -1.501920 -4.118000 -0.187959 0
M  V30 26 C -2.148536 -4.213862 1.015781 0
M  V30 27 C -3.017003 -5.281153 1.236280 0
M  V30 28 C -3.243556 -6.251236 0.263514 0
M  V30 29 C -2.576474 -6.117747 -0.926890 0
M  V30 30 F -2.732449 -7.011987 -1.935907 0
M  V30 31 C -1.704840 -5.067472 -1.177061 0
M  V30 32 C 0.349374 -2.490599 0.462337 0
M  V30 33 N 0.849723 -3.006638 1.586607 0
M  V30 34 H 1.507726 0.643762 5.893732 0
M  V30 35 H 3.443094 -0.516510 4.553575 0
M  V30 36 H 1.755458 -0.257577 3.934626 0
M  V30 37 H 2.810464 -2.643259 5.546220 0
M  V30 38 H 1.109119 -2.474319 5.039031 0
M  V30 39 H 3.302289 -3.528282 3.379819 0
M  V30 40 H 3.047131 0.691408 0.712845 0
M  V30 41 H 3.571305 2.162679 -0.453380 0
M  V30 42 H 2.893212 1.249148 -1.780214 0
M  V30 43 H -3.046798 5.198440 -2.609744 0
M  V30 44 H -1.632875 3.329247 -3.383227 0
M  V30 45 H 0.618165 1.877967 -2.686355 0
M  V30 46 H -1.424853 -2.037368 -2.158967 0
M  V30 47 H -2.066974 -3.530075 1.869057 0
M  V30 48 H -3.542257 -5.391415 2.168821 0
M  V30 49 H -3.909562 -7.069992 0.433606 0
M  V30 50 H -1.153137 -4.913004 -2.096805 0
M  V30 END ATOM
M  V30 BEGIN BOND
M  V30 1 1 1 2
M  V30 2 1 2 3
M  V30 3 1 3 4
M  V30 4 1 4 5
M  V30 5 2 5 6
M  V30 6 1 6 7
M  V30 7 1 7 8
M  V30 8 1 8 9
M  V30 9 1 9 10
M  V30 10 2 10 11
M  V30 11 1 11 12
M  V30 12 2 12 13
M  V30 13 1 13 14
M  V30 14 1 13 15
M  V30 15 1 15 16
M  V30 16 2 15 17
M  V30 17 1 17 18
M  V30 18 2 18 19
M  V30 19 1 19 20
M  V30 20 2 7 21
M  V30 21 1 21 22
M  V30 22 2 22 23
M  V30 23 1 23 24
M  V30 24 1 24 25
M  V30 25 2 25 26
M  V30 26 1 26 27
M  V30 27 2 27 28
M  V30 28 1 28 29
M  V30 29 1 29 30
M  V30 30 2 29 31
M  V30 31 1 24 32
M  V30 32 2 32 33
M  V30 33 1 33 5
M  V30 34 1 20 10
M  V30 35 1 32 21
M  V30 36 1 19 12
M  V30 37 1 31 25
M  V30 38 1 1 34
M  V30 39 1 2 35
M  V30 40 1 2 36
M  V30 41 1 3 37
M  V30 42 1 3 38
M  V30 43 1 4 39
M  V30 44 1 8 40
M  V30 45 1 9 41
M  V30 46 1 9 42
M  V30 47 1 17 43
M  V30 48 1 18 44
M  V30 49 1 20 45
M  V30 50 1 23 46
M  V30 51 1 26 47
M  V30 52 1 27 48
M  V30 53 1 28 49
M  V30 54 1 31 50
M  V30 END BOND
M  V30 END CTAB
M  END
>  <Dataset>  (325) 
ChEMBL_Kinases

>  <Ligand_Instance>  (325) 
nan

>  <PDB_ID>  (325) 
nan

>  <Standardized_SMILES>  (325) 
OCCNc1nc(NCc2nc3c(F)c(F)ccc3[nH]2)c2ncn(-c3cccc(F)c3)c2n1

>  <Name>  (325) 
nan

>  <Pocket>  (325) 
nan

>  <ATP_Site>  (325) 
nan

>  <Peripheral>  (325) 
nan

>  <Num_H_Atoms_ProtBoundConf>  (325) 
nan

>  <Num_Resolved_Atoms>  (325) 
nan

>  <Num_Not_Resolved_Atoms>  (325) 
nan

$$$$
CHEMBL3675537
     RDKit          3D

  0  0  0  0  0  0  0  0  0  0999 V3000
M  V30 BEGIN CTAB
M  V30 COUNTS 50 53 0 0 0
M  V30 BEGIN ATOM
M  V30 1 C -0.480997 -0.726595 1.727498 0
M  V30 2 C -0.698585 -0.021708 0.405518 0 CFG=1
M  V30 3 N 0.462450 0.734652 -0.003301 0
M  V30 4 C 0.904395 1.824409 0.793581 0
M  V30 5 N 0.249099 2.164559 1.912841 0
M  V30 6 C 0.597011 3.182294 2.717726 0
M  V30 7 N 1.670168 3.927189 2.405202 0
M  V30 8 C 2.372725 3.654768 1.312780 0
M  V30 9 C 3.476145 4.411747 0.979122 0
M  V30 10 C 3.939279 5.533197 1.784394 0
M  V30 11 N 3.323116 5.966143 3.011122 0
M  V30 12 O 4.929325 6.256848 1.508433 0
M  V30 13 C 4.218865 4.146167 -0.151436 0
M  V30 14 C 3.843661 3.082190 -0.980268 0
M  V30 15 C 2.737755 2.335388 -0.631971 0
M  V30 16 C 2.002450 2.595224 0.483507 0
M  V30 17 C -1.184415 -0.969119 -0.629057 0
M  V30 18 C -1.321142 -0.592358 -1.947671 0
M  V30 19 C -1.773262 -1.496493 -2.882905 0
M  V30 20 C -2.096736 -2.785414 -2.529847 0
M  V30 21 C -1.981419 -3.233756 -1.210774 0
M  V30 22 N -2.323944 -4.565616 -0.865854 0
M  V30 23 C -2.123521 -5.246436 0.365090 0
M  V30 24 C -2.560884 -6.557665 0.510983 0
M  V30 25 C -2.350785 -7.214086 1.721343 0
M  V30 26 C -2.825760 -8.575698 1.810901 0
M  V30 27 N -3.217536 -9.677660 1.883960 0
M  V30 28 C -1.730964 -6.627764 2.780064 0
M  V30 29 C -1.315077 -5.330577 2.591372 0
M  V30 30 N -1.519267 -4.710080 1.433021 0
M  V30 31 C -1.524077 -2.271750 -0.339459 0
M  V30 32 H -1.481025 -1.043969 2.111424 0
M  V30 33 H 0.188522 -1.629142 1.601458 0
M  V30 34 H -0.021947 -0.093556 2.496410 0
M  V30 35 H -1.538136 0.704612 0.585428 0
M  V30 36 H 0.880637 0.399978 -0.870944 0
M  V30 37 H 0.074370 3.453693 3.610307 0
M  V30 38 H 3.010392 6.928698 3.270585 0
M  V30 39 H 3.179267 5.212123 3.716376 0
M  V30 40 H 5.090974 4.721408 -0.442146 0
M  V30 41 H 4.406367 2.841700 -1.883290 0
M  V30 42 H 2.482607 1.531333 -1.290038 0
M  V30 43 H -1.076675 0.406706 -2.257846 0
M  V30 44 H -1.887772 -1.212804 -3.934679 0
M  V30 45 H -2.449890 -3.461738 -3.308071 0
M  V30 46 H -2.789940 -5.114333 -1.633804 0
M  V30 47 H -3.061135 -7.041398 -0.335135 0
M  V30 48 H -1.581561 -7.150996 3.696591 0
M  V30 49 H -0.817446 -4.784905 3.365329 0
M  V30 50 H -1.404158 -2.520846 0.705394 0
M  V30 END ATOM
M  V30 BEGIN BOND
M  V30 1 1 1 2
M  V30 2 1 2 3
M  V30 3 1 3 4
M  V30 4 2 4 5
M  V30 5 1 5 6
M  V30 6 2 6 7
M  V30 7 1 7 8
M  V30 8 2 8 9
M  V30 9 1 9 10
M  V30 10 1 10 11
M  V30 11 2 10 12
M  V30 12 1 9 13
M  V30 13 2 13 14
M  V30 14 1 14 15
M  V30 15 2 15 16
M  V30 16 1 2 17
M  V30 17 2 17 18
M  V30 18 1 18 19
M  V30 19 2 19 20
M  V30 20 1 20 21
M  V30 21 1 21 22
M  V30 22 1 22 23
M  V30 23 2 23 24
M  V30 24 1 24 25
M  V30 25 1 25 26
M  V30 26 3 26 27
M  V30 27 2 25 28
M  V30 28 1 28 29
M  V30 29 2 29 30
M  V30 30 2 21 31
M  V30 31 1 16 4
M  V30 32 1 31 17
M  V30 33 1 16 8
M  V30 34 1 30 23
M  V30 35 1 1 32
M  V30 36 1 1 33
M  V30 37 1 1 34
M  V30 38 1 2 35 CFG=1
M  V30 39 1 3 36
M  V30 40 1 6 37
M  V30 41 1 11 38
M  V30 42 1 11 39
M  V30 43 1 13 40
M  V30 44 1 14 41
M  V30 45 1 15 42
M  V30 46 1 18 43
M  V30 47 1 19 44
M  V30 48 1 20 45
M  V30 49 1 22 46
M  V30 50 1 24 47
M  V30 51 1 28 48
M  V30 52 1 29 49
M  V30 53 1 31 50
M  V30 END BOND
M  V30 END CTAB
M  END
>  <Dataset>  (326) 
ChEMBL_Kinases

>  <Ligand_Instance>  (326) 
nan

>  <PDB_ID>  (326) 
nan

>  <Standardized_SMILES>  (326) 
C[C@@H](Nc1ncnc2c(C(N)=O)cccc12)c1cccc(Nc2cc(C#N)ccn2)c1

>  <Name>  (326) 
nan

>  <Pocket>  (326) 
nan

>  <ATP_Site>  (326) 
nan

>  <Peripheral>  (326) 
nan

>  <Num_H_Atoms_ProtBoundConf>  (326) 
nan

>  <Num_Resolved_Atoms>  (326) 
nan

>  <Num_Not_Resolved_Atoms>  (326) 
nan

$$$$
CHEMBL4214571
     RDKit          3D

  0  0  0  0  0  0  0  0  0  0999 V3000
M  V30 BEGIN CTAB
M  V30 COUNTS 54 59 0 0 0
M  V30 BEGIN ATOM
M  V30 1 F 5.712638 -5.287698 -0.162737 0
M  V30 2 C 4.927956 -4.853346 0.850069 0
M  V30 3 C 4.750269 -5.644176 1.979140 0
M  V30 4 C 3.946301 -5.179971 2.996785 0
M  V30 5 C 3.304118 -3.960694 2.951172 0
M  V30 6 F 2.514860 -3.511600 3.956250 0
M  V30 7 C 3.479279 -3.167899 1.825005 0
M  V30 8 N 2.867833 -1.889232 1.663476 0
M  V30 9 C 3.179165 -0.717029 2.243950 0
M  V30 10 N 2.361865 0.263997 1.828717 0
M  V30 11 C 1.460133 -0.244300 0.936322 0
M  V30 12 C 0.375647 0.185267 0.147863 0
M  V30 13 N 0.209706 1.562290 0.381415 0
M  V30 14 C 0.043306 2.942359 0.615407 0
M  V30 15 C -1.272031 3.370526 1.181181 0
M  V30 16 N -2.311486 3.702254 0.375760 0
M  V30 17 C -3.372591 4.050406 1.144849 0
M  V30 18 C -4.655464 4.464238 0.880143 0
M  V30 19 F -5.079442 4.593827 -0.400210 0
M  V30 20 C -5.491484 4.741300 1.941717 0
M  V30 21 F -6.775107 5.155044 1.720733 0
M  V30 22 C -5.072434 4.613456 3.249534 0
M  V30 23 C -3.773461 4.194609 3.554342 0
M  V30 24 C -2.957342 3.923762 2.454133 0
M  V30 25 N -1.662812 3.504690 2.461542 0
M  V30 26 N -0.255997 -0.711877 -0.624795 0
M  V30 27 C 0.073140 -1.984762 -0.697774 0
M  V30 28 N -0.696522 -2.788693 -1.564579 0
M  V30 29 C -0.310772 -4.182400 -1.617591 0
M  V30 30 C -0.883301 -4.736034 -2.907552 0
M  V30 31 O -0.803532 -3.854760 -3.951691 0
M  V30 32 C -1.430854 -2.650059 -3.797650 0
M  V30 33 C -1.798609 -2.305885 -2.365435 0
M  V30 34 N 1.101246 -2.354940 0.059952 0
M  V30 35 C 1.822046 -1.595999 0.869500 0
M  V30 36 C 4.284994 -3.633595 0.805551 0
M  V30 37 H 5.270172 -6.594993 1.979071 0
M  V30 38 H 3.836551 -5.828131 3.855926 0
M  V30 39 H 3.984768 -0.558136 2.960807 0
M  V30 40 H -0.619581 1.670653 -0.277914 0
M  V30 41 H 0.298620 3.603195 -0.241591 0
M  V30 42 H 0.780413 3.233281 1.459641 0
M  V30 43 H -5.675503 4.813954 4.126207 0
M  V30 44 H -3.431374 4.090385 4.572626 0
M  V30 45 H -1.028150 3.304664 3.283906 0
M  V30 46 H -0.817245 -4.706721 -0.768730 0
M  V30 47 H 0.782951 -4.341569 -1.595672 0
M  V30 48 H -1.916758 -5.112334 -2.721812 0
M  V30 49 H -0.273113 -5.623446 -3.177591 0
M  V30 50 H -0.672133 -1.863076 -4.085366 0
M  V30 51 H -2.272205 -2.475051 -4.498069 0
M  V30 52 H -2.703070 -2.870208 -2.055837 0
M  V30 53 H -1.924119 -1.220699 -2.291242 0
M  V30 54 H 4.459476 -3.058297 -0.100154 0
M  V30 END ATOM
M  V30 BEGIN BOND
M  V30 1 1 1 2
M  V30 2 2 2 3
M  V30 3 1 3 4
M  V30 4 2 4 5
M  V30 5 1 5 6
M  V30 6 1 5 7
M  V30 7 1 7 8
M  V30 8 1 8 9
M  V30 9 2 9 10
M  V30 10 1 10 11
M  V30 11 2 11 12
M  V30 12 1 12 13
M  V30 13 1 13 14
M  V30 14 1 14 15
M  V30 15 2 15 16
M  V30 16 1 16 17
M  V30 17 2 17 18
M  V30 18 1 18 19
M  V30 19 1 18 20
M  V30 20 1 20 21
M  V30 21 2 20 22
M  V30 22 1 22 23
M  V30 23 2 23 24
M  V30 24 1 24 25
M  V30 25 1 12 26
M  V30 26 2 26 27
M  V30 27 1 27 28
M  V30 28 1 28 29
M  V30 29 1 29 30
M  V30 30 1 30 31
M  V30 31 1 31 32
M  V30 32 1 32 33
M  V30 33 1 27 34
M  V30 34 2 34 35
M  V30 35 2 7 36
M  V30 36 1 36 2
M  V30 37 1 35 8
M  V30 38 1 35 11
M  V30 39 1 25 15
M  V30 40 1 33 28
M  V30 41 1 24 17
M  V30 42 1 3 37
M  V30 43 1 4 38
M  V30 44 1 9 39
M  V30 45 1 13 40
M  V30 46 1 14 41
M  V30 47 1 14 42
M  V30 48 1 22 43
M  V30 49 1 23 44
M  V30 50 1 25 45
M  V30 51 1 29 46
M  V30 52 1 29 47
M  V30 53 1 30 48
M  V30 54 1 30 49
M  V30 55 1 32 50
M  V30 56 1 32 51
M  V30 57 1 33 52
M  V30 58 1 33 53
M  V30 59 1 36 54
M  V30 END BOND
M  V30 END CTAB
M  END
>  <Dataset>  (327) 
ChEMBL_Kinases

>  <Ligand_Instance>  (327) 
nan

>  <PDB_ID>  (327) 
nan

>  <Standardized_SMILES>  (327) 
Fc1ccc(F)c(-n2cnc3c(NCc4nc5c(F)c(F)ccc5[nH]4)nc(N4CCOCC4)nc32)c1

>  <Name>  (327) 
nan

>  <Pocket>  (327) 
nan

>  <ATP_Site>  (327) 
nan

>  <Peripheral>  (327) 
nan

>  <Num_H_Atoms_ProtBoundConf>  (327) 
nan

>  <Num_Resolved_Atoms>  (327) 
nan

>  <Num_Not_Resolved_Atoms>  (327) 
nan

$$$$
CHEMBL4214566
     RDKit          3D

  0  0  0  0  0  0  0  0  0  0999 V3000
M  V30 BEGIN CTAB
M  V30 COUNTS 64 69 0 0 0
M  V30 BEGIN ATOM
M  V30 1 C 4.357726 -2.315343 3.139829 0
M  V30 2 C 5.146924 -2.048079 1.893894 0
M  V30 3 N 4.554289 -1.200405 0.936480 0
M  V30 4 C 5.263981 -0.917015 -0.250979 0
M  V30 5 C 4.576198 -1.474734 -1.444105 0
M  V30 6 N 3.184871 -1.099848 -1.571676 0
M  V30 7 C 3.149068 0.295883 -1.826150 0
M  V30 8 C 1.783891 0.837981 -2.019393 0
M  V30 9 C 0.983245 1.355148 -1.024209 0
M  V30 10 C -0.273267 1.810512 -1.365003 0
M  V30 11 C -0.812272 1.795099 -2.635984 0
M  V30 12 N -2.127121 2.278290 -2.893458 0
M  V30 13 C -2.809536 2.771193 -1.737147 0
M  V30 14 N -2.975562 4.030816 -1.261988 0
M  V30 15 C -3.652863 4.237719 -0.135673 0
M  V30 16 C -4.192995 3.175825 0.561159 0
M  V30 17 F -4.885547 3.407129 1.717068 0
M  V30 18 C -4.037886 1.879030 0.098130 0
M  V30 19 C -4.588600 0.729150 0.824022 0
M  V30 20 C -5.841918 0.550407 1.367688 0
M  V30 21 C -6.102727 -0.636232 2.014846 0
M  V30 22 F -7.355975 -0.743570 2.525198 0
M  V30 23 C -5.150173 -1.625012 2.124182 0
M  V30 24 N -5.230505 -2.812706 2.707816 0
M  V30 25 C -4.061132 -3.431457 2.567220 0
M  V30 26 N -3.233663 -2.612535 1.881159 0
M  V30 27 C -3.875794 -1.474124 1.585739 0
M  V30 28 C -3.612089 -0.268433 0.928510 0
M  V30 29 C -1.922317 -3.199224 1.676026 0
M  V30 30 C -1.943460 -4.504911 2.412184 0
M  V30 31 C -3.371254 -4.687469 2.901171 0
M  V30 32 N -3.353708 1.740340 -1.028842 0
M  V30 33 N -0.001513 1.280858 -3.596872 0
M  V30 34 C 1.240058 0.823839 -3.298238 0
M  V30 35 C 2.507229 -1.540944 -0.385583 0
M  V30 36 C 3.147381 -1.109777 0.878829 0
M  V30 37 H 3.538927 -3.024714 2.995472 0
M  V30 38 H 5.075842 -2.796507 3.860728 0
M  V30 39 H 4.056745 -1.369168 3.661351 0
M  V30 40 H 6.133705 -1.638621 2.229650 0
M  V30 41 H 5.389929 -3.034448 1.446615 0
M  V30 42 H 6.251702 -1.452414 -0.180978 0
M  V30 43 H 5.514466 0.153940 -0.395072 0
M  V30 44 H 5.141120 -1.299297 -2.384361 0
M  V30 45 H 4.560342 -2.595913 -1.304946 0
M  V30 46 H 3.585957 0.824905 -0.932322 0
M  V30 47 H 3.848117 0.529571 -2.653837 0
M  V30 48 H 1.359673 1.387431 -0.030082 0
M  V30 49 H -0.849719 2.208188 -0.515396 0
M  V30 50 H -2.447349 2.223332 -3.874780 0
M  V30 51 H -3.746322 5.267691 0.183107 0
M  V30 52 H -6.473187 1.396087 1.207119 0
M  V30 53 H -2.600880 -0.236932 0.542352 0
M  V30 54 H -1.743875 -3.411328 0.592714 0
M  V30 55 H -1.140522 -2.516614 2.039629 0
M  V30 56 H -1.656523 -5.364344 1.769174 0
M  V30 57 H -1.213604 -4.482111 3.248931 0
M  V30 58 H -3.330395 -4.887753 3.999665 0
M  V30 59 H -3.816827 -5.587998 2.421421 0
M  V30 60 H 1.855742 0.418364 -4.105937 0
M  V30 61 H 2.426232 -2.657280 -0.445603 0
M  V30 62 H 1.443816 -1.197009 -0.340277 0
M  V30 63 H 2.874227 -0.045345 1.124286 0
M  V30 64 H 2.690146 -1.694497 1.709236 0
M  V30 END ATOM
M  V30 BEGIN BOND
M  V30 1 1 1 2
M  V30 2 1 2 3
M  V30 3 1 3 4
M  V30 4 1 4 5
M  V30 5 1 5 6
M  V30 6 1 6 7
M  V30 7 1 7 8
M  V30 8 2 8 9
M  V30 9 1 9 10
M  V30 10 2 10 11
M  V30 11 1 11 12
M  V30 12 1 12 13
M  V30 13 2 13 14
M  V30 14 1 14 15
M  V30 15 2 15 16
M  V30 16 1 16 17
M  V30 17 1 16 18
M  V30 18 1 18 19
M  V30 19 2 19 20
M  V30 20 1 20 21
M  V30 21 1 21 22
M  V30 22 2 21 23
M  V30 23 1 23 24
M  V30 24 2 24 25
M  V30 25 1 25 26
M  V30 26 1 26 27
M  V30 27 2 27 28
M  V30 28 1 26 29
M  V30 29 1 29 30
M  V30 30 1 30 31
M  V30 31 2 18 32
M  V30 32 1 11 33
M  V30 33 2 33 34
M  V30 34 1 6 35
M  V30 35 1 35 36
M  V30 36 1 36 3
M  V30 37 1 34 8
M  V30 38 1 32 13
M  V30 39 1 28 19
M  V30 40 1 27 23
M  V30 41 1 31 25
M  V30 42 1 1 37
M  V30 43 1 1 38
M  V30 44 1 1 39
M  V30 45 1 2 40
M  V30 46 1 2 41
M  V30 47 1 4 42
M  V30 48 1 4 43
M  V30 49 1 5 44
M  V30 50 1 5 45
M  V30 51 1 7 46
M  V30 52 1 7 47
M  V30 53 1 9 48
M  V30 54 1 10 49
M  V30 55 1 12 50
M  V30 56 1 15 51
M  V30 57 1 20 52
M  V30 58 1 28 53
M  V30 59 1 29 54
M  V30 60 1 29 55
M  V30 61 1 30 56
M  V30 62 1 30 57
M  V30 63 1 31 58
M  V30 64 1 31 59
M  V30 65 1 34 60
M  V30 66 1 35 61
M  V30 67 1 35 62
M  V30 68 1 36 63
M  V30 69 1 36 64
M  V30 END BOND
M  V30 END CTAB
M  END
>  <Dataset>  (328) 
ChEMBL_Kinases

>  <Ligand_Instance>  (328) 
nan

>  <PDB_ID>  (328) 
nan

>  <Standardized_SMILES>  (328) 
CCN1CCN(Cc2ccc(Nc3ncc(F)c(-c4cc(F)c5nc6n(c5c4)CCC6)n3)nc2)CC1

>  <Name>  (328) 
nan

>  <Pocket>  (328) 
nan

>  <ATP_Site>  (328) 
nan

>  <Peripheral>  (328) 
nan

>  <Num_H_Atoms_ProtBoundConf>  (328) 
nan

>  <Num_Resolved_Atoms>  (328) 
nan

>  <Num_Not_Resolved_Atoms>  (328) 
nan

$$$$
CHEMBL374795
     RDKit          3D

  0  0  0  0  0  0  0  0  0  0999 V3000
M  V30 BEGIN CTAB
M  V30 COUNTS 57 59 0 0 0
M  V30 BEGIN ATOM
M  V30 1 C -2.581950 -2.661300 3.822093 0
M  V30 2 C -1.476370 -2.135662 2.965049 0
M  V30 3 O -1.194147 -2.906152 1.833815 0
M  V30 4 C -0.195293 -2.586890 0.897954 0
M  V30 5 N 0.489418 -1.468522 1.169809 0
M  V30 6 C 1.490149 -1.027301 0.354784 0
M  V30 7 C 2.271585 0.174247 0.583955 0
M  V30 8 O 3.216162 0.574774 -0.167297 0
M  V30 9 N 2.119060 1.059174 1.632356 0
M  V30 10 C 2.539357 2.243711 2.282973 0
M  V30 11 C 1.952998 3.424846 1.548157 0
M  V30 12 C 0.672326 3.845261 1.928574 0
M  V30 13 C 0.032160 4.927047 1.327448 0
M  V30 14 C 0.715022 5.583689 0.327744 0
M  V30 15 S 0.039362 6.974040 -0.536310 0
M  V30 16 C 0.361387 8.498095 0.270230 0
M  V30 17 O -1.446808 6.836497 -0.726265 0
M  V30 18 O 0.606824 7.053740 -1.943747 0
M  V30 19 C 1.979662 5.205082 -0.079660 0
M  V30 20 C 2.600622 4.133496 0.522178 0
M  V30 21 C 1.769604 -1.775109 -0.756261 0
M  V30 22 C 1.046101 -2.914724 -1.003321 0
M  V30 23 N 1.370459 -3.654853 -2.165730 0
M  V30 24 C 0.032861 -3.400635 -0.218005 0
M  V30 25 C -0.808746 -4.577667 -0.356372 0
M  V30 26 C -0.814852 -5.459597 -1.323742 0
M  V30 27 C -1.688874 -6.622987 -1.405381 0
M  V30 28 C -2.621211 -6.959841 -0.473835 0
M  V30 29 C -3.484856 -8.038888 -0.478513 0
M  V30 30 C -3.370173 -8.878898 -1.593559 0
M  V30 31 C -2.444715 -8.605755 -2.587815 0
M  V30 32 C -1.605569 -7.483355 -2.498795 0
M  V30 33 H -2.641282 -3.781653 3.843386 0
M  V30 34 H -2.476341 -2.292586 4.879272 0
M  V30 35 H -3.585488 -2.307971 3.476888 0
M  V30 36 H -1.787223 -1.123639 2.564883 0
M  V30 37 H -0.552668 -2.039327 3.594679 0
M  V30 38 H 1.306386 0.705647 2.246495 0
M  V30 39 H 3.657681 2.326470 2.071891 0
M  V30 40 H 2.385495 2.323988 3.353751 0
M  V30 41 H 0.150992 3.314543 2.721007 0
M  V30 42 H -0.950126 5.278609 1.586895 0
M  V30 43 H 1.155052 8.383484 1.061170 0
M  V30 44 H 0.579179 9.346710 -0.393779 0
M  V30 45 H -0.544623 8.806668 0.861811 0
M  V30 46 H 2.535090 5.705105 -0.854548 0
M  V30 47 H 3.578217 3.728538 0.309024 0
M  V30 48 H 2.544750 -1.470125 -1.437162 0
M  V30 49 H 2.044016 -4.370893 -1.840909 0
M  V30 50 H 0.965081 -3.446054 -3.115036 0
M  V30 51 H -1.529450 -4.779489 0.417311 0
M  V30 52 H -0.131130 -5.326002 -2.122060 0
M  V30 53 H -2.760040 -6.348296 0.415064 0
M  V30 54 H -4.204231 -8.252957 0.297482 0
M  V30 55 H -4.029122 -9.756891 -1.664355 0
M  V30 56 H -2.338336 -9.248953 -3.464074 0
M  V30 57 H -0.881424 -7.264240 -3.270511 0
M  V30 END ATOM
M  V30 BEGIN BOND
M  V30 1 1 1 2
M  V30 2 1 2 3
M  V30 3 1 3 4
M  V30 4 2 4 5
M  V30 5 1 5 6
M  V30 6 1 6 7
M  V30 7 2 7 8
M  V30 8 1 7 9
M  V30 9 1 9 10
M  V30 10 1 10 11
M  V30 11 2 11 12
M  V30 12 1 12 13
M  V30 13 2 13 14
M  V30 14 1 14 15
M  V30 15 1 15 16
M  V30 16 2 15 17
M  V30 17 2 15 18
M  V30 18 1 14 19
M  V30 19 2 19 20
M  V30 20 2 6 21
M  V30 21 1 21 22
M  V30 22 1 22 23
M  V30 23 2 22 24
M  V30 24 1 24 25
M  V30 25 2 25 26
M  V30 26 1 26 27
M  V30 27 2 27 28
M  V30 28 1 28 29
M  V30 29 2 29 30
M  V30 30 1 30 31
M  V30 31 2 31 32
M  V30 32 1 24 4
M  V30 33 1 32 27
M  V30 34 1 20 11
M  V30 35 1 1 33
M  V30 36 1 1 34
M  V30 37 1 1 35
M  V30 38 1 2 36
M  V30 39 1 2 37
M  V30 40 1 9 38
M  V30 41 1 10 39
M  V30 42 1 10 40
M  V30 43 1 12 41
M  V30 44 1 13 42
M  V30 45 1 16 43
M  V30 46 1 16 44
M  V30 47 1 16 45
M  V30 48 1 19 46
M  V30 49 1 20 47
M  V30 50 1 21 48
M  V30 51 1 23 49
M  V30 52 1 23 50
M  V30 53 1 25 51
M  V30 54 1 26 52
M  V30 55 1 28 53
M  V30 56 1 29 54
M  V30 57 1 30 55
M  V30 58 1 31 56
M  V30 59 1 32 57
M  V30 END BOND
M  V30 END CTAB
M  END
>  <Dataset>  (329) 
ChEMBL_Kinases

>  <Ligand_Instance>  (329) 
nan

>  <PDB_ID>  (329) 
nan

>  <Standardized_SMILES>  (329) 
CCOc1nc(C(=O)NCc2ccc(S(C)(=O)=O)cc2)cc(N)c1/C=C/c1ccccc1

>  <Name>  (329) 
nan

>  <Pocket>  (329) 
nan

>  <ATP_Site>  (329) 
nan

>  <Peripheral>  (329) 
nan

>  <Num_H_Atoms_ProtBoundConf>  (329) 
nan

>  <Num_Resolved_Atoms>  (329) 
nan

>  <Num_Not_Resolved_Atoms>  (329) 
nan

$$$$
CHEMBL3676301
     RDKit          3D

  0  0  0  0  0  0  0  0  0  0999 V3000
M  V30 BEGIN CTAB
M  V30 COUNTS 55 58 0 0 0
M  V30 BEGIN ATOM
M  V30 1 C 1.081030 1.698655 4.682222 0
M  V30 2 C 1.227248 0.855245 3.430855 0
M  V30 3 C 1.038963 -0.591260 3.906423 0
M  V30 4 C 2.647571 0.940701 2.972743 0
M  V30 5 C 2.815294 0.616032 1.503820 0 CFG=2
M  V30 6 N 4.217324 0.665621 1.173398 0
M  V30 7 C 2.018435 1.696471 0.799096 0
M  V30 8 C 0.565168 1.295381 1.032310 0 CFG=2
M  V30 9 C -0.237814 2.239987 0.223293 0
M  V30 10 C -0.703548 3.464671 0.647743 0
M  V30 11 C -1.445979 4.319811 -0.128833 0
M  V30 12 N -1.741040 3.936188 -1.395850 0
M  V30 13 C -1.323779 2.748712 -1.895866 0
M  V30 14 C -0.578177 1.906601 -1.093819 0
M  V30 15 N -0.108554 0.631678 -1.575170 0
M  V30 16 C -1.017324 -0.456310 -1.344547 0
M  V30 17 O -2.025648 0.058133 -0.749344 0
M  V30 18 C -0.645228 -1.822349 -1.796005 0
M  V30 19 C 0.517495 -2.137867 -2.427613 0
M  V30 20 S 0.208663 -3.947394 -2.632918 0
M  V30 21 C -1.364190 -3.944107 -1.861995 0
M  V30 22 C -2.196982 -5.143753 -1.690528 0
M  V30 23 C -1.690789 -6.308785 -2.167983 0
M  V30 24 F -0.491389 -6.432017 -2.779665 0
M  V30 25 C -2.482605 -7.429861 -2.001091 0
M  V30 26 C -3.723173 -7.325808 -1.373024 0
M  V30 27 C -4.181313 -6.108600 -0.908823 0
M  V30 28 C -3.399470 -4.972157 -1.067805 0
M  V30 29 F -3.817737 -3.754301 -0.622999 0
M  V30 30 N -1.647892 -2.645106 -1.467085 0
M  V30 31 C 0.171066 1.161071 2.445521 0
M  V30 32 H 0.025706 1.503137 5.032257 0
M  V30 33 H 1.808833 1.385781 5.460695 0
M  V30 34 H 1.180103 2.780642 4.505778 0
M  V30 35 H 0.281047 -0.685647 4.699521 0
M  V30 36 H 0.688420 -1.238461 3.053806 0
M  V30 37 H 1.967460 -1.053242 4.251298 0
M  V30 38 H 3.088371 1.948556 3.121905 0
M  V30 39 H 3.308694 0.228760 3.509662 0
M  V30 40 H 2.368111 -0.382889 1.317122 0
M  V30 41 H 4.325945 0.104821 0.275420 0
M  V30 42 H 4.725766 0.108205 1.907299 0
M  V30 43 H 2.240857 2.680686 1.259097 0
M  V30 44 H 2.205857 1.652883 -0.278300 0
M  V30 45 H 0.508468 0.277900 0.538908 0
M  V30 46 H -0.473671 3.774756 1.645639 0
M  V30 47 H -1.783215 5.280225 0.276256 0
M  V30 48 H -1.562884 2.451868 -2.904185 0
M  V30 49 H 0.828001 0.497133 -2.060276 0
M  V30 50 H 1.274857 -1.423937 -2.657820 0
M  V30 51 H -2.191621 -8.417099 -2.338154 0
M  V30 52 H -4.412404 -8.147737 -1.197459 0
M  V30 53 H -5.142661 -5.964774 -0.409655 0
M  V30 54 H -0.657361 0.391130 2.494568 0
M  V30 55 H -0.343223 2.091085 2.767404 0
M  V30 END ATOM
M  V30 BEGIN BOND
M  V30 1 1 1 2
M  V30 2 1 2 3
M  V30 3 1 2 4
M  V30 4 1 4 5
M  V30 5 1 5 6
M  V30 6 1 5 7
M  V30 7 1 7 8
M  V30 8 1 8 9
M  V30 9 2 9 10
M  V30 10 1 10 11
M  V30 11 2 11 12
M  V30 12 1 12 13
M  V30 13 2 13 14
M  V30 14 1 14 15
M  V30 15 1 15 16
M  V30 16 2 16 17
M  V30 17 1 16 18
M  V30 18 2 18 19
M  V30 19 1 19 20
M  V30 20 1 20 21
M  V30 21 1 21 22
M  V30 22 2 22 23
M  V30 23 1 23 24
M  V30 24 1 23 25
M  V30 25 2 25 26
M  V30 26 1 26 27
M  V30 27 2 27 28
M  V30 28 1 28 29
M  V30 29 2 21 30
M  V30 30 1 8 31
M  V30 31 1 31 2
M  V30 32 1 14 9
M  V30 33 1 30 18
M  V30 34 1 28 22
M  V30 35 1 1 32
M  V30 36 1 1 33
M  V30 37 1 1 34
M  V30 38 1 3 35
M  V30 39 1 3 36
M  V30 40 1 3 37
M  V30 41 1 4 38
M  V30 42 1 4 39
M  V30 43 1 5 40 CFG=1
M  V30 44 1 6 41
M  V30 45 1 6 42
M  V30 46 1 7 43
M  V30 47 1 7 44
M  V30 48 1 8 45 CFG=3
M  V30 49 1 10 46
M  V30 50 1 11 47
M  V30 51 1 13 48
M  V30 52 1 15 49
M  V30 53 1 19 50
M  V30 54 1 25 51
M  V30 55 1 26 52
M  V30 56 1 27 53
M  V30 57 1 31 54
M  V30 58 1 31 55
M  V30 END BOND
M  V30 END CTAB
M  END
>  <Dataset>  (330) 
ChEMBL_Kinases

>  <Ligand_Instance>  (330) 
nan

>  <PDB_ID>  (330) 
nan

>  <Standardized_SMILES>  (330) 
CC1(C)C[C@H](N)C[C@H](c2ccncc2NC(=O)c2csc(-c3c(F)cccc3F)n2)C1

>  <Name>  (330) 
nan

>  <Pocket>  (330) 
nan

>  <ATP_Site>  (330) 
nan

>  <Peripheral>  (330) 
nan

>  <Num_H_Atoms_ProtBoundConf>  (330) 
nan

>  <Num_Resolved_Atoms>  (330) 
nan

>  <Num_Not_Resolved_Atoms>  (330) 
nan

$$$$
CHEMBL3676300
     RDKit          3D

  0  0  0  0  0  0  0  0  0  0999 V3000
M  V30 BEGIN CTAB
M  V30 COUNTS 52 55 0 0 0
M  V30 BEGIN ATOM
M  V30 1 C 2.370788 -2.168259 -0.241690 0
M  V30 2 C 2.806147 -0.891421 0.443684 0 CFG=2
M  V30 3 C 2.122116 -0.704688 1.777222 0
M  V30 4 C 2.410771 0.602948 2.405512 0 CFG=2
M  V30 5 N 1.236772 1.018872 3.194416 0
M  V30 6 C 2.831331 1.700472 1.496039 0
M  V30 7 C 2.501832 1.603218 0.062635 0 CFG=2
M  V30 8 C 1.493597 2.521589 -0.472569 0
M  V30 9 C 1.783464 3.762541 -1.075386 0
M  V30 10 C 0.854135 4.649847 -1.571128 0
M  V30 11 N -0.456943 4.362795 -1.502397 0
M  V30 12 C -0.778950 3.185833 -0.933607 0
M  V30 13 C 0.149497 2.275325 -0.426660 0
M  V30 14 N -0.521572 1.155955 0.108099 0
M  V30 15 C -1.106381 -0.101071 -0.246592 0
M  V30 16 O -1.001870 -0.319779 -1.501232 0
M  V30 17 C -1.713201 -0.918378 0.828969 0
M  V30 18 C -1.798643 -0.590171 2.148361 0
M  V30 19 S -2.666475 -2.099489 2.789109 0
M  V30 20 C -2.748080 -2.873416 1.183966 0
M  V30 21 C -3.361106 -4.204595 0.933745 0
M  V30 22 C -3.360127 -4.700853 -0.355804 0
M  V30 23 F -2.798240 -3.952042 -1.340924 0
M  V30 24 C -3.930369 -5.947136 -0.613473 0
M  V30 25 C -4.464481 -6.600615 0.474589 0
M  V30 26 C -4.470101 -6.113695 1.763109 0
M  V30 27 C -3.902601 -4.878037 2.008438 0
M  V30 28 F -3.899787 -4.387112 3.263594 0
M  V30 29 N -2.188329 -2.060079 0.348564 0
M  V30 30 C 2.535127 0.224395 -0.509896 0
M  V30 31 H 1.441937 -2.024544 -0.833726 0
M  V30 32 H 3.162090 -2.426055 -0.977152 0
M  V30 33 H 2.315866 -3.030132 0.451382 0
M  V30 34 H 3.905501 -0.965647 0.567989 0
M  V30 35 H 2.515761 -1.515546 2.424738 0
M  V30 36 H 1.037470 -0.948358 1.706550 0
M  V30 37 H 3.178463 0.423065 3.222810 0
M  V30 38 H 1.308223 2.006402 3.503711 0
M  V30 39 H 1.134227 0.356067 4.004475 0
M  V30 40 H 2.519081 2.722407 1.877510 0
M  V30 41 H 3.949285 1.803067 1.678077 0
M  V30 42 H 3.448395 2.049726 -0.430270 0
M  V30 43 H 2.848169 4.040218 -1.153192 0
M  V30 44 H 1.212159 5.572089 -2.011009 0
M  V30 45 H -1.872182 3.059581 -0.932574 0
M  V30 46 H -0.542314 1.465764 1.107350 0
M  V30 47 H -1.400585 0.375079 2.566611 0
M  V30 48 H -3.900639 -6.276966 -1.619720 0
M  V30 49 H -4.897595 -7.575455 0.209377 0
M  V30 50 H -4.911820 -6.689553 2.568441 0
M  V30 51 H 3.357189 0.148894 -1.287887 0
M  V30 52 H 1.627340 -0.019600 -1.098496 0
M  V30 END ATOM
M  V30 BEGIN BOND
M  V30 1 1 1 2
M  V30 2 1 2 3
M  V30 3 1 3 4
M  V30 4 1 4 5
M  V30 5 1 4 6
M  V30 6 1 6 7
M  V30 7 1 7 8
M  V30 8 2 8 9
M  V30 9 1 9 10
M  V30 10 2 10 11
M  V30 11 1 11 12
M  V30 12 2 12 13
M  V30 13 1 13 14
M  V30 14 1 14 15
M  V30 15 2 15 16
M  V30 16 1 15 17
M  V30 17 2 17 18
M  V30 18 1 18 19
M  V30 19 1 19 20
M  V30 20 1 20 21
M  V30 21 2 21 22
M  V30 22 1 22 23
M  V30 23 1 22 24
M  V30 24 2 24 25
M  V30 25 1 25 26
M  V30 26 2 26 27
M  V30 27 1 27 28
M  V30 28 2 20 29
M  V30 29 1 7 30
M  V30 30 1 30 2
M  V30 31 1 13 8
M  V30 32 1 29 17
M  V30 33 1 27 21
M  V30 34 1 1 31
M  V30 35 1 1 32
M  V30 36 1 1 33
M  V30 37 1 2 34 CFG=1
M  V30 38 1 3 35
M  V30 39 1 3 36
M  V30 40 1 4 37 CFG=1
M  V30 41 1 5 38
M  V30 42 1 5 39
M  V30 43 1 6 40
M  V30 44 1 6 41
M  V30 45 1 7 42 CFG=3
M  V30 46 1 9 43
M  V30 47 1 10 44
M  V30 48 1 12 45
M  V30 49 1 14 46
M  V30 50 1 18 47
M  V30 51 1 24 48
M  V30 52 1 25 49
M  V30 53 1 26 50
M  V30 54 1 30 51
M  V30 55 1 30 52
M  V30 END BOND
M  V30 END CTAB
M  END
>  <Dataset>  (331) 
ChEMBL_Kinases

>  <Ligand_Instance>  (331) 
nan

>  <PDB_ID>  (331) 
nan

>  <Standardized_SMILES>  (331) 
C[C@@H]1C[C@H](N)C[C@H](c2ccncc2NC(=O)c2csc(-c3c(F)cccc3F)n2)C1

>  <Name>  (331) 
nan

>  <Pocket>  (331) 
nan

>  <ATP_Site>  (331) 
nan

>  <Peripheral>  (331) 
nan

>  <Num_H_Atoms_ProtBoundConf>  (331) 
nan

>  <Num_Resolved_Atoms>  (331) 
nan

>  <Num_Not_Resolved_Atoms>  (331) 
nan

$$$$
CHEMBL3676299
     RDKit          3D

  0  0  0  0  0  0  0  0  0  0999 V3000
M  V30 BEGIN CTAB
M  V30 COUNTS 53 56 0 0 0
M  V30 BEGIN ATOM
M  V30 1 C -0.020934 -2.692854 -1.834753 0
M  V30 2 C 1.359900 -3.088876 -1.331226 0 CFG=1
M  V30 3 C 2.238649 -1.892903 -1.086497 0
M  V30 4 C 2.495262 -1.663497 0.390698 0 CFG=1
M  V30 5 C 3.088145 -0.379027 0.690783 0
M  V30 6 C 4.489394 -0.269087 0.625104 0
M  V30 7 C 5.240454 0.865373 0.848078 0
M  V30 8 N 4.578950 1.997020 1.163252 0
M  V30 9 C 3.234554 1.981156 1.248326 0
M  V30 10 C 2.529942 0.820162 1.016326 0
M  V30 11 N 1.138776 0.940726 1.128191 0
M  V30 12 C 0.573811 0.853025 2.432305 0
M  V30 13 O 1.440410 0.676377 3.322187 0
M  V30 14 C -0.854741 0.958231 2.692018 0
M  V30 15 C -1.402299 0.867889 4.001157 0
M  V30 16 S -3.202480 1.066193 3.717386 0
M  V30 17 C -2.930384 1.237613 1.895249 0
M  V30 18 C -4.082010 1.444809 0.969505 0
M  V30 19 C -3.812011 1.565257 -0.377620 0
M  V30 20 F -2.535767 1.490502 -0.785132 0
M  V30 21 C -4.897237 1.756798 -1.216154 0
M  V30 22 C -6.204984 1.829044 -0.759172 0
M  V30 23 C -6.411756 1.701614 0.598111 0
M  V30 24 C -5.350493 1.509810 1.459572 0
M  V30 25 F -5.614792 1.391087 2.782325 0
M  V30 26 N -1.772183 1.141807 1.783592 0
M  V30 27 C 1.331025 -2.043468 1.234645 0
M  V30 28 C 1.056774 -3.536467 1.150126 0 CFG=1
M  V30 29 N -0.289420 -3.745139 1.649284 0
M  V30 30 C 1.257435 -4.073564 -0.233711 0 CFG=1
M  V30 31 O 0.178369 -4.912976 -0.511727 0
M  V30 32 H -0.447485 -3.610159 -2.318813 0
M  V30 33 H 0.127418 -1.899669 -2.620208 0
M  V30 34 H -0.662009 -2.291382 -1.051666 0
M  V30 35 H 1.799730 -3.648689 -2.207081 0
M  V30 36 H 1.747813 -1.023541 -1.571423 0
M  V30 37 H 3.210269 -2.013400 -1.608447 0
M  V30 38 H 3.275136 -2.454453 0.638365 0
M  V30 39 H 5.071371 -1.167162 0.371245 0
M  V30 40 H 6.316677 0.834811 0.769956 0
M  V30 41 H 2.753598 2.913211 1.503658 0
M  V30 42 H 0.483151 1.092637 0.304331 0
M  V30 43 H -0.646600 0.692029 4.977165 0
M  V30 44 H -4.680328 1.850340 -2.269582 0
M  V30 45 H -7.011678 1.980757 -1.469165 0
M  V30 46 H -7.434706 1.759200 0.946271 0
M  V30 47 H 0.389910 -1.561235 0.976903 0
M  V30 48 H 1.570357 -1.849273 2.292881 0
M  V30 49 H 1.744081 -4.055560 1.849927 0
M  V30 50 H -0.938417 -4.112132 0.947000 0
M  V30 51 H -0.308474 -4.156527 2.585967 0
M  V30 52 H 2.162854 -4.744307 -0.256814 0
M  V30 53 H 0.213039 -5.346115 -1.385093 0
M  V30 END ATOM
M  V30 BEGIN BOND
M  V30 1 1 1 2
M  V30 2 1 2 3
M  V30 3 1 3 4
M  V30 4 1 4 5
M  V30 5 2 5 6
M  V30 6 1 6 7
M  V30 7 2 7 8
M  V30 8 1 8 9
M  V30 9 2 9 10
M  V30 10 1 10 11
M  V30 11 1 11 12
M  V30 12 2 12 13
M  V30 13 1 12 14
M  V30 14 2 14 15
M  V30 15 1 15 16
M  V30 16 1 16 17
M  V30 17 1 17 18
M  V30 18 2 18 19
M  V30 19 1 19 20
M  V30 20 1 19 21
M  V30 21 2 21 22
M  V30 22 1 22 23
M  V30 23 2 23 24
M  V30 24 1 24 25
M  V30 25 2 17 26
M  V30 26 1 4 27
M  V30 27 1 27 28
M  V30 28 1 28 29
M  V30 29 1 28 30
M  V30 30 1 30 31
M  V30 31 1 30 2
M  V30 32 1 10 5
M  V30 33 1 26 14
M  V30 34 1 24 18
M  V30 35 1 1 32
M  V30 36 1 1 33
M  V30 37 1 1 34
M  V30 38 1 2 35 CFG=3
M  V30 39 1 3 36
M  V30 40 1 3 37
M  V30 41 1 4 38 CFG=1
M  V30 42 1 6 39
M  V30 43 1 7 40
M  V30 44 1 9 41
M  V30 45 1 11 42
M  V30 46 1 15 43
M  V30 47 1 21 44
M  V30 48 1 22 45
M  V30 49 1 23 46
M  V30 50 1 27 47
M  V30 51 1 27 48
M  V30 52 1 28 49 CFG=1
M  V30 53 1 29 50
M  V30 54 1 29 51
M  V30 55 1 30 52 CFG=1
M  V30 56 1 31 53
M  V30 END BOND
M  V30 END CTAB
M  END
>  <Dataset>  (332) 
ChEMBL_Kinases

>  <Ligand_Instance>  (332) 
nan

>  <PDB_ID>  (332) 
nan

>  <Standardized_SMILES>  (332) 
C[C@H]1C[C@@H](c2ccncc2NC(=O)c2csc(-c3c(F)cccc3F)n2)C[C@@H](N)[C@H]1O

>  <Name>  (332) 
nan

>  <Pocket>  (332) 
nan

>  <ATP_Site>  (332) 
nan

>  <Peripheral>  (332) 
nan

>  <Num_H_Atoms_ProtBoundConf>  (332) 
nan

>  <Num_Resolved_Atoms>  (332) 
nan

>  <Num_Not_Resolved_Atoms>  (332) 
nan

$$$$
CHEMBL3676298
     RDKit          3D

  0  0  0  0  0  0  0  0  0  0999 V3000
M  V30 BEGIN CTAB
M  V30 COUNTS 58 61 0 0 0
M  V30 BEGIN ATOM
M  V30 1 N 1.879922 -4.745149 2.706279 0
M  V30 2 C 2.080013 -4.196415 1.382773 0 CFG=2
M  V30 3 C 2.558800 -2.738604 1.492027 0
M  V30 4 C 2.950101 -2.363190 0.091348 0 CFG=2
M  V30 5 C 3.751014 -1.176665 -0.078477 0
M  V30 6 C 5.151202 -1.258962 -0.099810 0
M  V30 7 C 6.019987 -0.198449 -0.252312 0
M  V30 8 N 5.509624 1.041904 -0.396285 0
M  V30 9 C 4.167492 1.225008 -0.388983 0
M  V30 10 C 3.346619 0.128493 -0.233011 0
M  V30 11 N 1.958311 0.431268 -0.233290 0
M  V30 12 C 1.506065 0.666892 1.095894 0
M  V30 13 O 2.397871 0.562563 1.974921 0
M  V30 14 C 0.124860 1.001651 1.417227 0
M  V30 15 C -0.194058 1.203643 2.829280 0
M  V30 16 S -1.979359 1.585361 2.679552 0
M  V30 17 C -1.985986 1.413136 0.810351 0
M  V30 18 C -3.227340 1.616624 0.037756 0
M  V30 19 C -3.775286 3.016082 0.210301 0
M  V30 20 C -5.053967 2.998517 1.015013 0
M  V30 21 C -6.094105 2.215544 0.286133 0
M  V30 22 C -5.526586 1.033774 -0.472487 0
M  V30 23 C -4.287757 0.568567 0.305054 0
M  V30 24 N -0.816793 1.125460 0.504435 0
M  V30 25 C 1.746462 -2.375267 -0.801379 0
M  V30 26 C 1.150428 -3.798811 -0.857505 0 CFG=2
M  V30 27 N -0.017279 -3.712929 -1.695457 0
M  V30 28 C 0.791685 -4.147376 0.592246 0 CFG=1
M  V30 29 O 0.094483 -5.343362 0.667874 0
M  V30 30 H 2.786859 -5.118372 3.051243 0
M  V30 31 H 1.142127 -5.479035 2.683980 0
M  V30 32 H 2.835539 -4.755268 0.784137 0
M  V30 33 H 3.458419 -2.744708 2.100900 0
M  V30 34 H 1.698542 -2.177504 1.870754 0
M  V30 35 H 3.585314 -3.236598 -0.266984 0
M  V30 36 H 5.624785 -2.244525 0.013263 0
M  V30 37 H 7.087879 -0.364538 -0.255735 0
M  V30 38 H 3.802126 2.221452 -0.505710 0
M  V30 39 H 1.237335 0.515233 -1.012793 0
M  V30 40 H 0.379187 1.151896 3.638483 0
M  V30 41 H -2.969139 1.494188 -1.034436 0
M  V30 42 H -3.977777 3.488177 -0.771172 0
M  V30 43 H -3.003964 3.637259 0.710985 0
M  V30 44 H -4.815844 2.574200 2.012433 0
M  V30 45 H -5.370935 4.034159 1.179581 0
M  V30 46 H -6.791847 1.787724 1.044864 0
M  V30 47 H -6.690749 2.874300 -0.377817 0
M  V30 48 H -5.259300 1.297430 -1.506905 0
M  V30 49 H -6.263643 0.201006 -0.470897 0
M  V30 50 H -3.906964 -0.396679 -0.080189 0
M  V30 51 H -4.523736 0.482563 1.367070 0
M  V30 52 H 0.939377 -1.739724 -0.399070 0
M  V30 53 H 2.059113 -2.129173 -1.831726 0
M  V30 54 H 1.913103 -4.524985 -1.206470 0
M  V30 55 H -0.872837 -3.596488 -1.103181 0
M  V30 56 H -0.114199 -4.516399 -2.345251 0
M  V30 57 H 0.211087 -3.268633 0.951334 0
M  V30 58 H -0.681673 -5.284116 0.057109 0
M  V30 END ATOM
M  V30 BEGIN BOND
M  V30 1 1 1 2
M  V30 2 1 2 3
M  V30 3 1 3 4
M  V30 4 1 4 5
M  V30 5 2 5 6
M  V30 6 1 6 7
M  V30 7 2 7 8
M  V30 8 1 8 9
M  V30 9 2 9 10
M  V30 10 1 10 11
M  V30 11 1 11 12
M  V30 12 2 12 13
M  V30 13 1 12 14
M  V30 14 2 14 15
M  V30 15 1 15 16
M  V30 16 1 16 17
M  V30 17 1 17 18
M  V30 18 1 18 19
M  V30 19 1 19 20
M  V30 20 1 20 21
M  V30 21 1 21 22
M  V30 22 1 22 23
M  V30 23 2 17 24
M  V30 24 1 4 25
M  V30 25 1 25 26
M  V30 26 1 26 27
M  V30 27 1 26 28
M  V30 28 1 28 29
M  V30 29 1 28 2
M  V30 30 1 10 5
M  V30 31 1 24 14
M  V30 32 1 23 18
M  V30 33 1 1 30
M  V30 34 1 1 31
M  V30 35 1 2 32 CFG=3
M  V30 36 1 3 33
M  V30 37 1 3 34
M  V30 38 1 4 35 CFG=3
M  V30 39 1 6 36
M  V30 40 1 7 37
M  V30 41 1 9 38
M  V30 42 1 11 39
M  V30 43 1 15 40
M  V30 44 1 18 41
M  V30 45 1 19 42
M  V30 46 1 19 43
M  V30 47 1 20 44
M  V30 48 1 20 45
M  V30 49 1 21 46
M  V30 50 1 21 47
M  V30 51 1 22 48
M  V30 52 1 22 49
M  V30 53 1 23 50
M  V30 54 1 23 51
M  V30 55 1 25 52
M  V30 56 1 25 53
M  V30 57 1 26 54 CFG=3
M  V30 58 1 27 55
M  V30 59 1 27 56
M  V30 60 1 28 57 CFG=1
M  V30 61 1 29 58
M  V30 END BOND
M  V30 END CTAB
M  END
>  <Dataset>  (333) 
ChEMBL_Kinases

>  <Ligand_Instance>  (333) 
nan

>  <PDB_ID>  (333) 
nan

>  <Standardized_SMILES>  (333) 
N[C@@H]1C[C@H](c2ccncc2NC(=O)c2csc(C3CCCCC3)n2)C[C@H](N)[C@H]1O

>  <Name>  (333) 
nan

>  <Pocket>  (333) 
nan

>  <ATP_Site>  (333) 
nan

>  <Peripheral>  (333) 
nan

>  <Num_H_Atoms_ProtBoundConf>  (333) 
nan

>  <Num_Resolved_Atoms>  (333) 
nan

>  <Num_Not_Resolved_Atoms>  (333) 
nan

$$$$
CHEMBL3676297
     RDKit          3D

  0  0  0  0  0  0  0  0  0  0999 V3000
M  V30 BEGIN CTAB
M  V30 COUNTS 53 56 0 0 0
M  V30 BEGIN ATOM
M  V30 1 C -0.589383 -3.473714 -0.961306 0
M  V30 2 C 0.926914 -3.283777 -1.096723 0 CFG=1
M  V30 3 C 1.328367 -1.839996 -1.135464 0
M  V30 4 C 2.243586 -1.551598 0.011278 0 CFG=1
M  V30 5 C 2.869132 -0.253122 0.032194 0
M  V30 6 C 4.119362 -0.029874 -0.565590 0
M  V30 7 C 4.807543 1.163092 -0.621463 0
M  V30 8 N 4.256217 2.245332 -0.056434 0
M  V30 9 C 3.045630 2.131836 0.548907 0
M  V30 10 C 2.397055 0.915392 0.578311 0
M  V30 11 N 1.148513 0.978653 1.235006 0
M  V30 12 C 0.646850 0.895660 2.565060 0
M  V30 13 O 1.482639 0.718061 3.484296 0
M  V30 14 C -0.786622 1.019557 2.781956 0
M  V30 15 C -1.261608 0.931371 4.135197 0
M  V30 16 S -3.124051 1.144759 3.897891 0
M  V30 17 C -2.911861 1.302904 2.116109 0
M  V30 18 C -4.053781 1.512037 1.194893 0
M  V30 19 C -3.812926 1.623021 -0.148317 0
M  V30 20 F -2.514426 1.534556 -0.582008 0
M  V30 21 C -4.867117 1.818897 -1.025976 0
M  V30 22 C -6.166444 1.903645 -0.554716 0
M  V30 23 C -6.375561 1.786771 0.814820 0
M  V30 24 C -5.319800 1.591200 1.687886 0
M  V30 25 F -5.568764 1.484285 2.998905 0
M  V30 26 N -1.718342 1.204152 1.891523 0
M  V30 27 C 1.557430 -1.974836 1.270618 0
M  V30 28 C 1.599197 -3.491834 1.332034 0 CFG=1
M  V30 29 N 0.429695 -3.921483 2.074689 0
M  V30 30 C 1.572113 -4.110240 -0.036280 0 CFG=2
M  V30 31 O 2.841706 -4.588739 -0.437100 0
M  V30 32 H -1.089122 -3.273954 -1.934073 0
M  V30 33 H -0.732118 -4.534609 -0.667147 0
M  V30 34 H -1.020078 -2.825625 -0.175690 0
M  V30 35 H 1.162874 -3.808229 -2.069911 0
M  V30 36 H 0.405148 -1.238498 -1.116200 0
M  V30 37 H 1.923617 -1.682636 -2.064029 0
M  V30 38 H 3.099803 -2.289927 -0.113547 0
M  V30 39 H 4.628632 -0.879939 -1.049309 0
M  V30 40 H 5.758787 1.231495 -1.102199 0
M  V30 41 H 2.683454 3.036380 0.969501 0
M  V30 42 H 0.479440 1.129854 0.433239 0
M  V30 43 H -0.593651 0.762193 5.138852 0
M  V30 44 H -4.551864 1.892279 -2.071475 0
M  V30 45 H -6.885185 2.054684 -1.326322 0
M  V30 46 H -7.395874 1.859657 1.122137 0
M  V30 47 H 0.512451 -1.606934 1.210373 0
M  V30 48 H 2.022969 -1.620079 2.196407 0
M  V30 49 H 2.487592 -3.873348 1.869054 0
M  V30 50 H 0.071785 -4.829203 1.681473 0
M  V30 51 H 0.645097 -4.112382 3.076642 0
M  V30 52 H 0.971375 -5.045345 0.041770 0
M  V30 53 H 2.799674 -4.745784 -1.412142 0
M  V30 END ATOM
M  V30 BEGIN BOND
M  V30 1 1 1 2
M  V30 2 1 2 3
M  V30 3 1 3 4
M  V30 4 1 4 5
M  V30 5 2 5 6
M  V30 6 1 6 7
M  V30 7 2 7 8
M  V30 8 1 8 9
M  V30 9 2 9 10
M  V30 10 1 10 11
M  V30 11 1 11 12
M  V30 12 2 12 13
M  V30 13 1 12 14
M  V30 14 2 14 15
M  V30 15 1 15 16
M  V30 16 1 16 17
M  V30 17 1 17 18
M  V30 18 2 18 19
M  V30 19 1 19 20
M  V30 20 1 19 21
M  V30 21 2 21 22
M  V30 22 1 22 23
M  V30 23 2 23 24
M  V30 24 1 24 25
M  V30 25 2 17 26
M  V30 26 1 4 27
M  V30 27 1 27 28
M  V30 28 1 28 29
M  V30 29 1 28 30
M  V30 30 1 30 31
M  V30 31 1 30 2
M  V30 32 1 10 5
M  V30 33 1 26 14
M  V30 34 1 24 18
M  V30 35 1 1 32
M  V30 36 1 1 33
M  V30 37 1 1 34
M  V30 38 1 2 35 CFG=3
M  V30 39 1 3 36
M  V30 40 1 3 37
M  V30 41 1 4 38 CFG=3
M  V30 42 1 6 39
M  V30 43 1 7 40
M  V30 44 1 9 41
M  V30 45 1 11 42
M  V30 46 1 15 43
M  V30 47 1 21 44
M  V30 48 1 22 45
M  V30 49 1 23 46
M  V30 50 1 27 47
M  V30 51 1 27 48
M  V30 52 1 28 49 CFG=1
M  V30 53 1 29 50
M  V30 54 1 29 51
M  V30 55 1 30 52 CFG=1
M  V30 56 1 31 53
M  V30 END BOND
M  V30 END CTAB
M  END
>  <Dataset>  (334) 
ChEMBL_Kinases

>  <Ligand_Instance>  (334) 
nan

>  <PDB_ID>  (334) 
nan

>  <Standardized_SMILES>  (334) 
C[C@H]1C[C@@H](c2ccncc2NC(=O)c2csc(-c3c(F)cccc3F)n2)C[C@@H](N)[C@@H]1O

>  <Name>  (334) 
nan

>  <Pocket>  (334) 
nan

>  <ATP_Site>  (334) 
nan

>  <Peripheral>  (334) 
nan

>  <Num_H_Atoms_ProtBoundConf>  (334) 
nan

>  <Num_Resolved_Atoms>  (334) 
nan

>  <Num_Not_Resolved_Atoms>  (334) 
nan

$$$$
CHEMBL4218370
     RDKit          3D

  0  0  0  0  0  0  0  0  0  0999 V3000
M  V30 BEGIN CTAB
M  V30 COUNTS 93 99 0 0 0
M  V30 BEGIN ATOM
M  V30 1 C 7.155385 -0.562314 2.188131 0
M  V30 2 C 5.938271 -0.979247 1.371301 0
M  V30 3 C 6.332364 -2.092379 0.463280 0
M  V30 4 O 5.329562 0.123452 0.761830 0
M  V30 5 C 4.098090 0.655893 1.004314 0
M  V30 6 C 4.026709 1.788745 0.172630 0
M  V30 7 C 2.859335 2.564551 0.206218 0
M  V30 8 C 1.757762 2.272067 1.025428 0
M  V30 9 C 0.654615 3.211516 1.006964 0
M  V30 10 N 1.021451 4.522897 1.112901 0
M  V30 11 N -0.030039 5.314287 1.097621 0
M  V30 12 C -1.126459 4.560042 0.981444 0
M  V30 13 C -2.470472 4.813852 0.912463 0
M  V30 14 C -3.324480 3.704864 0.787266 0
M  V30 15 C -2.841643 2.385745 0.732227 0
M  V30 16 N -4.007397 1.603607 0.605538 0
M  V30 17 C -4.313777 1.560218 -0.786296 0
M  V30 18 O -3.301831 2.254831 -1.234597 0
M  V30 19 C -5.270823 1.063501 -1.798489 0 CFG=2
M  V30 20 S -6.735222 2.086056 -1.832648 0
M  V30 21 C -7.865448 1.493054 -3.056224 0
M  V30 22 O -7.418690 2.047999 -0.493209 0
M  V30 23 O -6.311157 3.460473 -2.209713 0
M  V30 24 C -5.686243 -0.349934 -1.725966 0
M  V30 25 C -5.323625 -0.884732 -3.134111 0
M  V30 26 N -4.111838 -0.207007 -3.324249 0
M  V30 27 C -3.144273 -0.494249 -4.256547 0
M  V30 28 C -2.525616 -1.812122 -3.953921 0
M  V30 29 O -3.188034 -2.255574 -3.016364 0
M  V30 30 N -1.904404 -3.038048 -3.716333 0
M  V30 31 C -2.389666 -4.091379 -2.815800 0
M  V30 32 C -1.543923 -3.953601 -1.609206 0
M  V30 33 C -0.254254 -3.671051 -1.790158 0
M  V30 34 C 0.492535 -3.553133 -0.551051 0
M  V30 35 C 0.013556 -3.721077 0.705725 0
M  V30 36 C 0.680104 -3.604373 1.898726 0
M  V30 37 C 2.045293 -3.263882 1.811356 0
M  V30 38 C 2.792392 -3.128968 3.051016 0
M  V30 39 N 3.922653 -3.856037 3.085048 0
M  V30 40 C 4.556532 -3.675662 4.270498 0
M  V30 41 N 3.784294 -2.812911 4.972243 0
M  V30 42 C 4.043082 -2.316830 6.306059 0
M  V30 43 N 2.738725 -2.500660 4.226194 0
M  V30 44 C 2.550636 -3.089162 0.549263 0
M  V30 45 C 1.848944 -3.215870 -0.614846 0
M  V30 46 C 0.409605 -3.485407 -3.107862 0
M  V30 47 C -0.608740 -3.455488 -4.245420 0
M  V30 48 C -4.534526 1.160121 -3.128416 0
M  V30 49 C -1.507059 2.115935 0.799359 0
M  V30 50 C -0.708089 3.220789 0.921669 0
M  V30 51 C 1.911043 1.140603 1.805081 0
M  V30 52 N 3.033719 0.402840 1.767622 0
M  V30 53 H 6.794491 -0.266652 3.192073 0
M  V30 54 H 7.656755 0.338921 1.775471 0
M  V30 55 H 7.825238 -1.417325 2.301568 0
M  V30 56 H 5.204622 -1.364034 2.122426 0
M  V30 57 H 7.454788 -2.139847 0.421447 0
M  V30 58 H 5.943628 -1.899076 -0.571727 0
M  V30 59 H 5.925165 -3.059413 0.878038 0
M  V30 60 H 4.753272 2.211510 -0.542312 0
M  V30 61 H 2.745843 3.468835 -0.427137 0
M  V30 62 H -0.014197 6.374060 1.164200 0
M  V30 63 H -2.719550 5.844567 0.961533 0
M  V30 64 H -4.354282 4.105713 0.748805 0
M  V30 65 H -4.751874 1.041595 1.041951 0
M  V30 66 H -8.117133 0.432937 -2.874237 0
M  V30 67 H -7.411937 1.596953 -4.083323 0
M  V30 68 H -8.796114 2.099452 -3.092920 0
M  V30 69 H -5.228588 -0.978007 -0.951920 0
M  V30 70 H -6.781359 -0.439346 -1.623251 0
M  V30 71 H -6.075664 -0.438074 -3.851517 0
M  V30 72 H -5.409508 -1.943557 -3.234087 0
M  V30 73 H -3.470204 -0.452876 -5.330315 0
M  V30 74 H -2.302446 0.257500 -4.142612 0
M  V30 75 H -2.192966 -5.094452 -3.277480 0
M  V30 76 H -3.459372 -3.989406 -2.560324 0
M  V30 77 H -2.125055 -4.110154 -0.717416 0
M  V30 78 H -1.034164 -3.991947 0.849060 0
M  V30 79 H 0.202203 -3.761087 2.869522 0
M  V30 80 H 5.479211 -4.109453 4.616666 0
M  V30 81 H 3.540766 -2.997540 7.039598 0
M  V30 82 H 3.612422 -1.308071 6.463193 0
M  V30 83 H 5.140745 -2.286772 6.410783 0
M  V30 84 H 3.593085 -2.825699 0.459868 0
M  V30 85 H 2.358757 -3.055230 -1.577048 0
M  V30 86 H 1.118640 -4.321192 -3.240646 0
M  V30 87 H 1.030577 -2.538987 -3.116094 0
M  V30 88 H -0.250760 -2.786268 -5.049616 0
M  V30 89 H -0.700838 -4.467962 -4.676747 0
M  V30 90 H -5.233820 1.466950 -3.940977 0
M  V30 91 H -3.683283 1.856418 -3.052970 0
M  V30 92 H -1.189220 1.115330 0.756644 0
M  V30 93 H 1.091629 0.875697 2.443659 0
M  V30 END ATOM
M  V30 BEGIN BOND
M  V30 1 1 1 2
M  V30 2 1 2 3
M  V30 3 1 2 4
M  V30 4 1 4 5
M  V30 5 2 5 6
M  V30 6 1 6 7
M  V30 7 2 7 8
M  V30 8 1 8 9
M  V30 9 2 9 10
M  V30 10 1 10 11
M  V30 11 1 11 12
M  V30 12 2 12 13
M  V30 13 1 13 14
M  V30 14 2 14 15
M  V30 15 1 15 16
M  V30 16 1 16 17
M  V30 17 2 17 18
M  V30 18 1 19 17 CFG=1
M  V30 19 1 19 20
M  V30 20 1 20 21
M  V30 21 2 20 22
M  V30 22 2 20 23
M  V30 23 1 19 24
M  V30 24 1 24 25
M  V30 25 1 25 26
M  V30 26 1 26 27
M  V30 27 1 27 28
M  V30 28 2 28 29
M  V30 29 1 28 30
M  V30 30 1 30 31
M  V30 31 1 31 32
M  V30 32 2 32 33
M  V30 33 1 33 34
M  V30 34 2 34 35
M  V30 35 1 35 36
M  V30 36 2 36 37
M  V30 37 1 37 38
M  V30 38 1 38 39
M  V30 39 2 39 40
M  V30 40 1 40 41
M  V30 41 1 41 42
M  V30 42 1 41 43
M  V30 43 1 37 44
M  V30 44 2 44 45
M  V30 45 1 33 46
M  V30 46 1 46 47
M  V30 47 1 26 48
M  V30 48 1 15 49
M  V30 49 2 49 50
M  V30 50 1 8 51
M  V30 51 2 51 52
M  V30 52 1 52 5
M  V30 53 1 50 9
M  V30 54 1 50 12
M  V30 55 1 48 19
M  V30 56 1 47 30
M  V30 57 1 45 34
M  V30 58 2 43 38
M  V30 59 1 1 53
M  V30 60 1 1 54
M  V30 61 1 1 55
M  V30 62 1 2 56
M  V30 63 1 3 57
M  V30 64 1 3 58
M  V30 65 1 3 59
M  V30 66 1 6 60
M  V30 67 1 7 61
M  V30 68 1 11 62
M  V30 69 1 13 63
M  V30 70 1 14 64
M  V30 71 1 16 65
M  V30 72 1 21 66
M  V30 73 1 21 67
M  V30 74 1 21 68
M  V30 75 1 24 69
M  V30 76 1 24 70
M  V30 77 1 25 71
M  V30 78 1 25 72
M  V30 79 1 27 73
M  V30 80 1 27 74
M  V30 81 1 31 75
M  V30 82 1 31 76
M  V30 83 1 32 77
M  V30 84 1 35 78
M  V30 85 1 36 79
M  V30 86 1 40 80
M  V30 87 1 42 81
M  V30 88 1 42 82
M  V30 89 1 42 83
M  V30 90 1 44 84
M  V30 91 1 45 85
M  V30 92 1 46 86
M  V30 93 1 46 87
M  V30 94 1 47 88
M  V30 95 1 47 89
M  V30 96 1 48 90
M  V30 97 1 48 91
M  V30 98 1 49 92
M  V30 99 1 51 93
M  V30 END BOND
M  V30 END CTAB
M  END
>  <Dataset>  (335) 
ChEMBL_Kinases

>  <Ligand_Instance>  (335) 
nan

>  <PDB_ID>  (335) 
nan

>  <Standardized_SMILES>  (335) 
CC(C)Oc1ccc(-c2n[nH]c3ccc(NC(=O)[C@]4(S(C)(=O)=O)CCN(CC(=O)N5CC=C(c6ccc(-c7ncn(C)n7)cc6)CC5)C4)cc23)cn1

>  <Name>  (335) 
nan

>  <Pocket>  (335) 
nan

>  <ATP_Site>  (335) 
nan

>  <Peripheral>  (335) 
nan

>  <Num_H_Atoms_ProtBoundConf>  (335) 
nan

>  <Num_Resolved_Atoms>  (335) 
nan

>  <Num_Not_Resolved_Atoms>  (335) 
nan

$$$$
CHEMBL3676296
     RDKit          3D

  0  0  0  0  0  0  0  0  0  0999 V3000
M  V30 BEGIN CTAB
M  V30 COUNTS 58 61 0 0 0
M  V30 BEGIN ATOM
M  V30 1 C -0.089423 -2.287625 3.297872 0
M  V30 2 C 1.305752 -1.697567 3.209182 0 CFG=2
M  V30 3 C 1.464954 -0.772667 4.403754 0
M  V30 4 C 2.837632 -0.154028 4.279509 0 CFG=2
M  V30 5 N 3.244656 0.561841 5.479536 0
M  V30 6 C 2.824351 0.738013 3.057454 0
M  V30 7 C 2.645163 -0.210411 1.858720 0 CFG=2
M  V30 8 C 3.093105 0.385397 0.617708 0
M  V30 9 C 4.418761 0.239851 0.177991 0
M  V30 10 C 4.930588 0.778598 -0.968895 0
M  V30 11 N 4.144552 1.509463 -1.766842 0
M  V30 12 C 2.847893 1.713279 -1.438303 0
M  V30 13 C 2.376801 1.152293 -0.276247 0
M  V30 14 N 1.008926 1.422592 -0.005422 0
M  V30 15 C 0.124528 0.498897 -0.647760 0
M  V30 16 O 0.854079 -0.304074 -1.286501 0
M  V30 17 C -1.343027 0.621310 -0.477690 0
M  V30 18 C -1.979767 1.703193 0.365746 0
M  V30 19 S -3.752638 1.131875 0.032830 0
M  V30 20 C -3.287171 -0.318208 -1.076964 0
M  V30 21 C -4.312666 -1.201201 -1.682996 0
M  V30 22 C -4.154702 -2.647191 -1.252915 0
M  V30 23 C -2.978530 -3.230188 -1.989015 0
M  V30 24 C -3.343096 -3.414950 -3.439691 0
M  V30 25 C -4.333850 -2.386432 -3.911165 0
M  V30 26 C -4.171504 -1.070064 -3.184748 0
M  V30 27 N -1.925806 -0.335544 -1.162537 0
M  V30 28 C 1.310579 -0.839466 1.925096 0
M  V30 29 H -0.344932 -2.586117 4.339341 0
M  V30 30 H -0.235146 -3.125340 2.570872 0
M  V30 31 H -0.831322 -1.515368 3.002570 0
M  V30 32 H 2.091439 -2.449612 3.215503 0
M  V30 33 H 0.735440 0.062862 4.354652 0
M  V30 34 H 1.395315 -1.378170 5.309408 0
M  V30 35 H 3.525902 -1.009935 4.051794 0
M  V30 36 H 4.286724 0.630099 5.448274 0
M  V30 37 H 3.038488 -0.072089 6.282866 0
M  V30 38 H 3.765521 1.285508 2.965947 0
M  V30 39 H 1.938029 1.393058 3.160924 0
M  V30 40 H 3.388630 -1.033892 2.097150 0
M  V30 41 H 5.129599 -0.336155 0.760070 0
M  V30 42 H 5.959324 0.638762 -1.265911 0
M  V30 43 H 2.251523 2.299687 -2.096136 0
M  V30 44 H 0.647772 2.218465 0.605243 0
M  V30 45 H -1.355564 2.381006 0.839622 0
M  V30 46 H -5.332728 -0.906214 -1.406599 0
M  V30 47 H -3.952555 -2.684046 -0.160111 0
M  V30 48 H -5.074861 -3.169947 -1.540102 0
M  V30 49 H -2.762417 -4.223843 -1.515667 0
M  V30 50 H -2.085375 -2.581894 -1.939515 0
M  V30 51 H -3.765486 -4.440436 -3.620827 0
M  V30 52 H -2.388363 -3.385070 -4.036799 0
M  V30 53 H -5.378365 -2.758352 -3.904963 0
M  V30 54 H -4.085078 -2.173739 -4.974524 0
M  V30 55 H -4.980163 -0.393315 -3.573924 0
M  V30 56 H -3.194518 -0.637704 -3.477913 0
M  V30 57 H 0.469931 -0.124280 2.133135 0
M  V30 58 H 1.127704 -1.548767 1.125175 0
M  V30 END ATOM
M  V30 BEGIN BOND
M  V30 1 1 1 2
M  V30 2 1 2 3
M  V30 3 1 3 4
M  V30 4 1 4 5
M  V30 5 1 4 6
M  V30 6 1 6 7
M  V30 7 1 7 8
M  V30 8 2 8 9
M  V30 9 1 9 10
M  V30 10 2 10 11
M  V30 11 1 11 12
M  V30 12 2 12 13
M  V30 13 1 13 14
M  V30 14 1 14 15
M  V30 15 2 15 16
M  V30 16 1 15 17
M  V30 17 2 17 18
M  V30 18 1 18 19
M  V30 19 1 19 20
M  V30 20 1 20 21
M  V30 21 1 21 22
M  V30 22 1 22 23
M  V30 23 1 23 24
M  V30 24 1 24 25
M  V30 25 1 25 26
M  V30 26 2 20 27
M  V30 27 1 7 28
M  V30 28 1 28 2
M  V30 29 1 13 8
M  V30 30 1 27 17
M  V30 31 1 26 21
M  V30 32 1 1 29
M  V30 33 1 1 30
M  V30 34 1 1 31
M  V30 35 1 2 32 CFG=3
M  V30 36 1 3 33
M  V30 37 1 3 34
M  V30 38 1 4 35 CFG=3
M  V30 39 1 5 36
M  V30 40 1 5 37
M  V30 41 1 6 38
M  V30 42 1 6 39
M  V30 43 1 7 40 CFG=1
M  V30 44 1 9 41
M  V30 45 1 10 42
M  V30 46 1 12 43
M  V30 47 1 14 44
M  V30 48 1 18 45
M  V30 49 1 21 46
M  V30 50 1 22 47
M  V30 51 1 22 48
M  V30 52 1 23 49
M  V30 53 1 23 50
M  V30 54 1 24 51
M  V30 55 1 24 52
M  V30 56 1 25 53
M  V30 57 1 25 54
M  V30 58 1 26 55
M  V30 59 1 26 56
M  V30 60 1 28 57
M  V30 61 1 28 58
M  V30 END BOND
M  V30 END CTAB
M  END
>  <Dataset>  (336) 
ChEMBL_Kinases

>  <Ligand_Instance>  (336) 
nan

>  <PDB_ID>  (336) 
nan

>  <Standardized_SMILES>  (336) 
C[C@@H]1C[C@H](N)C[C@H](c2ccncc2NC(=O)c2csc(C3CCCCC3)n2)C1

>  <Name>  (336) 
nan

>  <Pocket>  (336) 
nan

>  <ATP_Site>  (336) 
nan

>  <Peripheral>  (336) 
nan

>  <Num_H_Atoms_ProtBoundConf>  (336) 
nan

>  <Num_Resolved_Atoms>  (336) 
nan

>  <Num_Not_Resolved_Atoms>  (336) 
nan

$$$$
CHEMBL4218233
     RDKit          3D

  0  0  0  0  0  0  0  0  0  0999 V3000
M  V30 BEGIN CTAB
M  V30 COUNTS 57 62 0 0 0
M  V30 BEGIN ATOM
M  V30 1 C 3.543764 -1.867103 1.566133 0
M  V30 2 N 4.015992 -2.853245 0.631662 0
M  V30 3 C 4.125706 -2.356159 -0.726875 0
M  V30 4 C 2.762987 -2.075477 -1.331887 0
M  V30 5 N 1.804415 -2.811264 -0.530026 0
M  V30 6 C 0.602538 -2.253342 -0.016496 0
M  V30 7 N 0.320215 -0.964722 -0.277786 0
M  V30 8 C -0.807584 -0.396459 0.188749 0
M  V30 9 N -1.153165 0.940537 -0.052718 0
M  V30 10 C -0.221448 1.740873 -0.856274 0
M  V30 11 C -0.715051 3.129921 -1.029077 0
M  V30 12 N -0.378882 4.096273 -0.134980 0
M  V30 13 C -0.981407 5.236008 -0.572557 0
M  V30 14 C -0.952494 6.495431 -0.018849 0
M  V30 15 C -1.674755 7.478915 -0.699012 0
M  V30 16 C -2.372294 7.181441 -1.861403 0
M  V30 17 C -2.362850 5.898615 -2.367281 0
M  V30 18 C -1.663006 4.895624 -1.728545 0
M  V30 19 N -1.500080 3.590998 -2.014436 0
M  V30 20 C -1.625096 -1.240149 0.941025 0
M  V30 21 N -2.801161 -0.946448 1.526104 0
M  V30 22 C -3.265021 -2.051544 2.159561 0
M  V30 23 N -2.376792 -3.051549 1.974317 0
M  V30 24 C -2.307214 -4.424403 2.386833 0
M  V30 25 C -2.888035 -5.471964 1.697067 0
M  V30 26 C -2.728772 -6.737999 2.227968 0
M  V30 27 C -2.018366 -6.962266 3.402916 0
M  V30 28 N -1.478445 -5.904210 4.025579 0
M  V30 29 C -1.603206 -4.649162 3.551752 0
M  V30 30 C -1.363980 -2.576748 1.230442 0
M  V30 31 N -0.194905 -3.056161 0.710661 0
M  V30 32 C 2.184815 -4.191111 -0.292322 0
M  V30 33 C 3.324069 -4.112688 0.730597 0
M  V30 34 H 2.620291 -2.154690 2.069266 0
M  V30 35 H 3.436279 -0.861436 1.075320 0
M  V30 36 H 4.301769 -1.717619 2.368402 0
M  V30 37 H 4.652267 -3.150016 -1.294985 0
M  V30 38 H 4.732673 -1.430332 -0.658734 0
M  V30 39 H 2.745064 -2.549996 -2.331123 0
M  V30 40 H 2.520749 -0.996039 -1.379175 0
M  V30 41 H -2.046118 1.305683 0.343650 0
M  V30 42 H 0.805572 1.745637 -0.417129 0
M  V30 43 H -0.170853 1.294792 -1.875737 0
M  V30 44 H -0.393039 6.674621 0.889413 0
M  V30 45 H -1.684058 8.478946 -0.307852 0
M  V30 46 H -2.909599 7.995040 -2.334214 0
M  V30 47 H -2.910491 5.674856 -3.276076 0
M  V30 48 H -1.870072 3.024284 -2.796983 0
M  V30 49 H -4.126484 -2.345355 2.755986 0
M  V30 50 H -3.428113 -5.245959 0.791347 0
M  V30 51 H -3.219076 -7.512364 1.621643 0
M  V30 52 H -1.960649 -7.996851 3.721916 0
M  V30 53 H -1.128422 -3.875862 4.133878 0
M  V30 54 H 1.307109 -4.724662 0.082666 0
M  V30 55 H 2.593643 -4.666000 -1.211172 0
M  V30 56 H 4.005529 -4.961642 0.522253 0
M  V30 57 H 2.937548 -4.249249 1.757686 0
M  V30 END ATOM
M  V30 BEGIN BOND
M  V30 1 1 1 2
M  V30 2 1 2 3
M  V30 3 1 3 4
M  V30 4 1 4 5
M  V30 5 1 5 6
M  V30 6 2 6 7
M  V30 7 1 7 8
M  V30 8 1 8 9
M  V30 9 1 9 10
M  V30 10 1 10 11
M  V30 11 2 11 12
M  V30 12 1 12 13
M  V30 13 2 13 14
M  V30 14 1 14 15
M  V30 15 2 15 16
M  V30 16 1 16 17
M  V30 17 2 17 18
M  V30 18 1 18 19
M  V30 19 2 8 20
M  V30 20 1 20 21
M  V30 21 2 21 22
M  V30 22 1 22 23
M  V30 23 1 23 24
M  V30 24 2 24 25
M  V30 25 1 25 26
M  V30 26 2 26 27
M  V30 27 1 27 28
M  V30 28 2 28 29
M  V30 29 1 23 30
M  V30 30 2 30 31
M  V30 31 1 5 32
M  V30 32 1 32 33
M  V30 33 1 33 2
M  V30 34 1 31 6
M  V30 35 1 19 11
M  V30 36 1 30 20
M  V30 37 1 18 13
M  V30 38 1 29 24
M  V30 39 1 1 34
M  V30 40 1 1 35
M  V30 41 1 1 36
M  V30 42 1 3 37
M  V30 43 1 3 38
M  V30 44 1 4 39
M  V30 45 1 4 40
M  V30 46 1 9 41
M  V30 47 1 10 42
M  V30 48 1 10 43
M  V30 49 1 14 44
M  V30 50 1 15 45
M  V30 51 1 16 46
M  V30 52 1 17 47
M  V30 53 1 19 48
M  V30 54 1 22 49
M  V30 55 1 25 50
M  V30 56 1 26 51
M  V30 57 1 27 52
M  V30 58 1 29 53
M  V30 59 1 32 54
M  V30 60 1 32 55
M  V30 61 1 33 56
M  V30 62 1 33 57
M  V30 END BOND
M  V30 END CTAB
M  END
>  <Dataset>  (337) 
ChEMBL_Kinases

>  <Ligand_Instance>  (337) 
nan

>  <PDB_ID>  (337) 
nan

>  <Standardized_SMILES>  (337) 
CN1CCN(c2nc(NCc3nc4ccccc4[nH]3)c3ncn(-c4cccnc4)c3n2)CC1

>  <Name>  (337) 
nan

>  <Pocket>  (337) 
nan

>  <ATP_Site>  (337) 
nan

>  <Peripheral>  (337) 
nan

>  <Num_H_Atoms_ProtBoundConf>  (337) 
nan

>  <Num_Resolved_Atoms>  (337) 
nan

>  <Num_Not_Resolved_Atoms>  (337) 
nan

$$$$
CHEMBL4218175
     RDKit          3D

  0  0  0  0  0  0  0  0  0  0999 V3000
M  V30 BEGIN CTAB
M  V30 COUNTS 61 65 0 0 0
M  V30 BEGIN ATOM
M  V30 1 C -0.730164 -2.029991 7.108399 0
M  V30 2 N -0.457503 -3.117918 6.194182 0
M  V30 3 C -0.151892 -2.781713 4.845755 0
M  V30 4 N -0.132221 -1.478330 4.506643 0
M  V30 5 C 0.151616 -1.081958 3.235514 0
M  V30 6 C 0.430355 -1.999517 2.244346 0
M  V30 7 C 0.747293 -1.946887 0.902549 0
M  V30 8 C 0.873368 -0.714526 0.129364 0
M  V30 9 C 0.268571 -0.674791 -1.111802 0
M  V30 10 C 0.351343 0.460330 -1.892493 0
M  V30 11 C 1.024015 1.599205 -1.497951 0
M  V30 12 N 1.159293 2.805669 -2.240157 0
M  V30 13 C 1.809127 3.995366 -1.731826 0
M  V30 14 C 1.147709 5.189537 -2.416815 0
M  V30 15 N -0.272192 4.940242 -2.579276 0
M  V30 16 C -0.999375 6.135689 -2.872942 0
M  V30 17 C -0.509524 3.952188 -3.631835 0
M  V30 18 C 0.677698 3.013644 -3.590920 0
M  V30 19 C 1.623954 1.547349 -0.256556 0
M  V30 20 C 1.558075 0.425485 0.546737 0
M  V30 21 N 0.896492 -3.229203 0.526074 0
M  V30 22 N 0.697771 -4.066152 1.525344 0
M  V30 23 C 0.797065 -5.496429 1.383343 0
M  V30 24 C -0.465187 -6.187070 1.003792 0
M  V30 25 C -1.609620 -6.040750 1.939317 0
M  V30 26 C -2.493785 -4.970992 1.297074 0
M  V30 27 C -2.281283 -5.102589 -0.182100 0
M  V30 28 C -0.935230 -5.764073 -0.365390 0
M  V30 29 C 0.405181 -3.328179 2.610820 0
M  V30 30 N 0.119552 -3.663446 3.877691 0
M  V30 31 H -1.025043 -1.098830 6.562988 0
M  V30 32 H -1.596289 -2.261320 7.776072 0
M  V30 33 H 0.157719 -1.740399 7.717805 0
M  V30 34 H -0.490309 -4.102976 6.535607 0
M  V30 35 H 0.156279 -0.025482 3.003907 0
M  V30 36 H -0.285814 -1.513992 -1.519115 0
M  V30 37 H -0.126553 0.479414 -2.859999 0
M  V30 38 H 1.820513 4.097063 -0.650127 0
M  V30 39 H 2.844539 3.972350 -2.154487 0
M  V30 40 H 1.240933 6.094199 -1.780262 0
M  V30 41 H 1.597381 5.403731 -3.403417 0
M  V30 42 H -0.255951 6.968092 -3.007229 0
M  V30 43 H -1.635091 6.427961 -1.989307 0
M  V30 44 H -1.713692 6.060884 -3.714127 0
M  V30 45 H -1.423613 3.379212 -3.378954 0
M  V30 46 H -0.613225 4.415830 -4.615465 0
M  V30 47 H 0.323422 2.059636 -4.028988 0
M  V30 48 H 1.546255 3.421130 -4.184169 0
M  V30 49 H 2.189331 2.317661 0.227926 0
M  V30 50 H 2.002458 0.315513 1.522484 0
M  V30 51 H 1.561794 -5.794430 0.621660 0
M  V30 52 H 1.165553 -5.972326 2.329182 0
M  V30 53 H -0.215441 -7.282349 0.962741 0
M  V30 54 H -2.219126 -6.992299 1.948681 0
M  V30 55 H -1.377744 -5.844471 2.983455 0
M  V30 56 H -3.553682 -5.207934 1.578603 0
M  V30 57 H -2.251697 -3.954731 1.634092 0
M  V30 58 H -2.332379 -4.154870 -0.743736 0
M  V30 59 H -3.041703 -5.809588 -0.613238 0
M  V30 60 H -0.985277 -6.631601 -1.048471 0
M  V30 61 H -0.191863 -5.075881 -0.785564 0
M  V30 END ATOM
M  V30 BEGIN BOND
M  V30 1 1 1 2
M  V30 2 1 2 3
M  V30 3 2 3 4
M  V30 4 1 4 5
M  V30 5 2 5 6
M  V30 6 1 6 7
M  V30 7 1 7 8
M  V30 8 2 8 9
M  V30 9 1 9 10
M  V30 10 2 10 11
M  V30 11 1 11 12
M  V30 12 1 12 13
M  V30 13 1 13 14
M  V30 14 1 14 15
M  V30 15 1 15 16
M  V30 16 1 15 17
M  V30 17 1 17 18
M  V30 18 1 11 19
M  V30 19 2 19 20
M  V30 20 2 7 21
M  V30 21 1 21 22
M  V30 22 1 22 23
M  V30 23 1 23 24
M  V30 24 1 24 25
M  V30 25 1 25 26
M  V30 26 1 26 27
M  V30 27 1 27 28
M  V30 28 1 22 29
M  V30 29 2 29 30
M  V30 30 1 30 3
M  V30 31 1 29 6
M  V30 32 1 20 8
M  V30 33 1 28 24
M  V30 34 1 18 12
M  V30 35 1 1 31
M  V30 36 1 1 32
M  V30 37 1 1 33
M  V30 38 1 2 34
M  V30 39 1 5 35
M  V30 40 1 9 36
M  V30 41 1 10 37
M  V30 42 1 13 38
M  V30 43 1 13 39
M  V30 44 1 14 40
M  V30 45 1 14 41
M  V30 46 1 16 42
M  V30 47 1 16 43
M  V30 48 1 16 44
M  V30 49 1 17 45
M  V30 50 1 17 46
M  V30 51 1 18 47
M  V30 52 1 18 48
M  V30 53 1 19 49
M  V30 54 1 20 50
M  V30 55 1 23 51
M  V30 56 1 23 52
M  V30 57 1 24 53
M  V30 58 1 25 54
M  V30 59 1 25 55
M  V30 60 1 26 56
M  V30 61 1 26 57
M  V30 62 1 27 58
M  V30 63 1 27 59
M  V30 64 1 28 60
M  V30 65 1 28 61
M  V30 END BOND
M  V30 END CTAB
M  END
>  <Dataset>  (338) 
ChEMBL_Kinases

>  <Ligand_Instance>  (338) 
nan

>  <PDB_ID>  (338) 
nan

>  <Standardized_SMILES>  (338) 
CNc1ncc2c(-c3ccc(N4CCN(C)CC4)cc3)nn(CC3CCCC3)c2n1

>  <Name>  (338) 
nan

>  <Pocket>  (338) 
nan

>  <ATP_Site>  (338) 
nan

>  <Peripheral>  (338) 
nan

>  <Num_H_Atoms_ProtBoundConf>  (338) 
nan

>  <Num_Resolved_Atoms>  (338) 
nan

>  <Num_Not_Resolved_Atoms>  (338) 
nan

$$$$
CHEMBL3220492
     RDKit          3D

  0  0  0  0  0  0  0  0  0  0999 V3000
M  V30 BEGIN CTAB
M  V30 COUNTS 55 58 0 0 0
M  V30 BEGIN ATOM
M  V30 1 C -3.294259 -2.781260 -1.909958 0
M  V30 2 C -2.556283 -2.569142 -0.641112 0
M  V30 3 C -1.700109 -1.494345 -0.482495 0
M  V30 4 C -0.987211 -1.205115 0.643334 0
M  V30 5 N -0.105654 -0.105689 0.796605 0
M  V30 6 C 0.325220 0.797962 -0.208729 0
M  V30 7 C 1.175731 1.824851 0.124474 0
M  V30 8 C 1.672967 2.759388 -0.744170 0
M  V30 9 N 2.548011 3.801163 -0.338214 0
M  V30 10 C 3.198099 4.144290 0.871538 0
M  V30 11 C 2.889098 5.368259 1.474062 0
M  V30 12 C 3.463144 5.795042 2.643572 0
M  V30 13 C 4.379319 4.978885 3.241081 0
M  V30 14 C 4.739190 3.759461 2.713067 0
M  V30 15 C 4.119144 3.402607 1.537508 0
M  V30 16 C 4.518557 2.133183 0.976179 0
M  V30 17 N 5.454282 1.264205 1.595181 0
M  V30 18 O 4.336244 1.372486 0.001788 0
M  V30 19 C 1.309503 2.691214 -2.065450 0
M  V30 20 C 0.458527 1.661538 -2.391153 0
M  V30 21 N 0.000614 0.774049 -1.506356 0
M  V30 22 C -1.172660 -2.092920 1.683196 0
M  V30 23 C -2.012786 -3.175068 1.571243 0
M  V30 24 C -2.718861 -3.440083 0.421002 0
M  V30 25 N -3.540000 -4.617217 0.413226 0
M  V30 26 C -3.846372 -5.306783 1.651651 0
M  V30 27 C -2.955538 -6.525037 1.688832 0
M  V30 28 O -3.012585 -7.136324 0.438533 0
M  V30 29 C -4.141060 -6.804550 -0.269764 0
M  V30 30 C -4.151909 -5.322749 -0.700572 0
M  V30 31 H -3.350554 -1.737089 -2.369960 0
M  V30 32 H -4.335853 -3.065222 -1.790480 0
M  V30 33 H -2.715937 -3.345381 -2.672942 0
M  V30 34 H -1.624088 -0.859125 -1.348563 0
M  V30 35 H 0.278341 0.068127 1.771866 0
M  V30 36 H 1.514426 1.953301 1.145372 0
M  V30 37 H 2.840485 4.538489 -1.030289 0
M  V30 38 H 2.165234 6.025779 1.013905 0
M  V30 39 H 3.170255 6.770520 3.058064 0
M  V30 40 H 4.844088 5.299592 4.168081 0
M  V30 41 H 5.463444 3.135429 3.203613 0
M  V30 42 H 6.458528 0.989869 1.368009 0
M  V30 43 H 5.380773 0.663876 2.450735 0
M  V30 44 H 1.664196 3.393077 -2.803125 0
M  V30 45 H 0.148419 1.575573 -3.429255 0
M  V30 46 H -0.619955 -1.892843 2.594959 0
M  V30 47 H -2.029072 -3.765974 2.483744 0
M  V30 48 H -4.895833 -5.661255 1.621069 0
M  V30 49 H -3.780761 -4.670985 2.553242 0
M  V30 50 H -1.883951 -6.281674 1.839979 0
M  V30 51 H -3.237954 -7.223695 2.509917 0
M  V30 52 H -4.096275 -7.385652 -1.218613 0
M  V30 53 H -5.091533 -7.099337 0.209917 0
M  V30 54 H -5.210826 -5.044553 -0.871292 0
M  V30 55 H -3.502881 -5.274085 -1.578807 0
M  V30 END ATOM
M  V30 BEGIN BOND
M  V30 1 1 1 2
M  V30 2 2 2 3
M  V30 3 1 3 4
M  V30 4 1 4 5
M  V30 5 1 5 6
M  V30 6 2 6 7
M  V30 7 1 7 8
M  V30 8 1 8 9
M  V30 9 1 9 10
M  V30 10 2 10 11
M  V30 11 1 11 12
M  V30 12 2 12 13
M  V30 13 1 13 14
M  V30 14 2 14 15
M  V30 15 1 15 16
M  V30 16 1 16 17
M  V30 17 2 16 18
M  V30 18 2 8 19
M  V30 19 1 19 20
M  V30 20 2 20 21
M  V30 21 2 4 22
M  V30 22 1 22 23
M  V30 23 2 23 24
M  V30 24 1 24 25
M  V30 25 1 25 26
M  V30 26 1 26 27
M  V30 27 1 27 28
M  V30 28 1 28 29
M  V30 29 1 29 30
M  V30 30 1 24 2
M  V30 31 1 30 25
M  V30 32 1 21 6
M  V30 33 1 15 10
M  V30 34 1 1 31
M  V30 35 1 1 32
M  V30 36 1 1 33
M  V30 37 1 3 34
M  V30 38 1 5 35
M  V30 39 1 7 36
M  V30 40 1 9 37
M  V30 41 1 11 38
M  V30 42 1 12 39
M  V30 43 1 13 40
M  V30 44 1 14 41
M  V30 45 1 17 42
M  V30 46 1 17 43
M  V30 47 1 19 44
M  V30 48 1 20 45
M  V30 49 1 22 46
M  V30 50 1 23 47
M  V30 51 1 26 48
M  V30 52 1 26 49
M  V30 53 1 27 50
M  V30 54 1 27 51
M  V30 55 1 29 52
M  V30 56 1 29 53
M  V30 57 1 30 54
M  V30 58 1 30 55
M  V30 END BOND
M  V30 END CTAB
M  END
>  <Dataset>  (339) 
ChEMBL_Kinases

>  <Ligand_Instance>  (339) 
nan

>  <PDB_ID>  (339) 
nan

>  <Standardized_SMILES>  (339) 
Cc1cc(Nc2cc(Nc3ccccc3C(N)=O)ccn2)ccc1N1CCOCC1

>  <Name>  (339) 
nan

>  <Pocket>  (339) 
nan

>  <ATP_Site>  (339) 
nan

>  <Peripheral>  (339) 
nan

>  <Num_H_Atoms_ProtBoundConf>  (339) 
nan

>  <Num_Resolved_Atoms>  (339) 
nan

>  <Num_Not_Resolved_Atoms>  (339) 
nan

$$$$
CHEMBL3219058
     RDKit          3D

  0  0  0  0  0  0  0  0  0  0999 V3000
M  V30 BEGIN CTAB
M  V30 COUNTS 39 42 0 0 0
M  V30 BEGIN ATOM
M  V30 1 C 0.010743 -5.455267 2.906272 0
M  V30 2 O 1.309808 -4.911750 3.046594 0
M  V30 3 C 1.574199 -3.649176 2.547062 0
M  V30 4 C 2.868583 -3.212195 2.735109 0
M  V30 5 C 3.242862 -1.955148 2.271071 0
M  V30 6 C 2.306444 -1.149682 1.620747 0
M  V30 7 N 2.398894 0.087377 1.082129 0
M  V30 8 C 1.187827 0.432128 0.561033 0
M  V30 9 C 0.820365 1.674675 -0.118582 0
M  V30 10 C 0.437178 1.454838 -1.439227 0
M  V30 11 C 0.051866 2.528677 -2.251522 0
M  V30 12 C 0.072585 3.790423 -1.681505 0
M  V30 13 C 0.453765 4.017597 -0.364361 0
M  V30 14 C 0.832927 2.955815 0.432392 0
M  V30 15 O 1.240781 2.977846 1.753805 0
M  V30 16 C 0.341376 -0.631630 0.794329 0
M  V30 17 C -1.066185 -0.793211 0.447568 0
M  V30 18 C -1.607292 -1.742962 -0.396378 0
M  V30 19 C -2.971825 -1.716473 -0.583255 0
M  V30 20 N -3.775906 -0.826254 0.008147 0
M  V30 21 C -3.255083 0.104331 0.833856 0
M  V30 22 C -1.892123 0.140697 1.070584 0
M  V30 23 C 1.026352 -1.628552 1.456154 0
M  V30 24 N 0.703190 -2.843013 1.915916 0
M  V30 25 H -0.132644 -6.317801 3.587451 0
M  V30 26 H -0.745840 -4.668239 3.069259 0
M  V30 27 H -0.085624 -5.811950 1.845202 0
M  V30 28 H 3.647289 -3.805568 3.240400 0
M  V30 29 H 4.266706 -1.608773 2.419161 0
M  V30 30 H 3.246597 0.713686 1.050008 0
M  V30 31 H 0.402192 0.507839 -1.929269 0
M  V30 32 H -0.252314 2.400243 -3.280814 0
M  V30 33 H -0.216254 4.651171 -2.270510 0
M  V30 34 H 0.486167 4.968374 0.116595 0
M  V30 35 H 1.436238 3.831038 2.279513 0
M  V30 36 H -0.915607 -2.423679 -0.836231 0
M  V30 37 H -3.391481 -2.454479 -1.238808 0
M  V30 38 H -3.933097 0.807845 1.296209 0
M  V30 39 H -1.536697 0.920396 1.750008 0
M  V30 END ATOM
M  V30 BEGIN BOND
M  V30 1 1 1 2
M  V30 2 1 2 3
M  V30 3 2 3 4
M  V30 4 1 4 5
M  V30 5 2 5 6
M  V30 6 1 6 7
M  V30 7 1 7 8
M  V30 8 1 8 9
M  V30 9 2 9 10
M  V30 10 1 10 11
M  V30 11 2 11 12
M  V30 12 1 12 13
M  V30 13 2 13 14
M  V30 14 1 14 15
M  V30 15 2 8 16
M  V30 16 1 16 17
M  V30 17 2 17 18
M  V30 18 1 18 19
M  V30 19 2 19 20
M  V30 20 1 20 21
M  V30 21 2 21 22
M  V30 22 1 16 23
M  V30 23 2 23 24
M  V30 24 1 24 3
M  V30 25 1 23 6
M  V30 26 1 14 9
M  V30 27 1 22 17
M  V30 28 1 1 25
M  V30 29 1 1 26
M  V30 30 1 1 27
M  V30 31 1 4 28
M  V30 32 1 5 29
M  V30 33 1 7 30
M  V30 34 1 10 31
M  V30 35 1 11 32
M  V30 36 1 12 33
M  V30 37 1 13 34
M  V30 38 1 15 35
M  V30 39 1 18 36
M  V30 40 1 19 37
M  V30 41 1 21 38
M  V30 42 1 22 39
M  V30 END BOND
M  V30 END CTAB
M  END
>  <Dataset>  (340) 
ChEMBL_Kinases

>  <Ligand_Instance>  (340) 
nan

>  <PDB_ID>  (340) 
nan

>  <Standardized_SMILES>  (340) 
COc1ccc2[nH]c(-c3ccccc3O)c(-c3ccncc3)c2n1

>  <Name>  (340) 
nan

>  <Pocket>  (340) 
nan

>  <ATP_Site>  (340) 
nan

>  <Peripheral>  (340) 
nan

>  <Num_H_Atoms_ProtBoundConf>  (340) 
nan

>  <Num_Resolved_Atoms>  (340) 
nan

>  <Num_Not_Resolved_Atoms>  (340) 
nan

$$$$
CHEMBL3219059
     RDKit          3D

  0  0  0  0  0  0  0  0  0  0999 V3000
M  V30 BEGIN CTAB
M  V30 COUNTS 39 42 0 0 0
M  V30 BEGIN ATOM
M  V30 1 C -0.083696 -5.518703 2.893212 0
M  V30 2 O 1.254634 -5.060346 2.928912 0
M  V30 3 C 1.558292 -3.804427 2.420863 0
M  V30 4 C 2.888925 -3.429384 2.492422 0
M  V30 5 C 3.321713 -2.202787 2.020823 0
M  V30 6 C 2.375306 -1.349853 1.468209 0
M  V30 7 N 2.506060 -0.112376 0.937273 0
M  V30 8 C 1.286864 0.319350 0.524253 0
M  V30 9 C 0.917148 1.586171 -0.109927 0
M  V30 10 C 0.400688 1.442348 -1.395768 0
M  V30 11 C 0.011208 2.585320 -2.103414 0
M  V30 12 C 0.156188 3.824502 -1.491445 0
M  V30 13 C 0.671323 3.936099 -0.215653 0
M  V30 14 O 0.840826 5.147703 0.450493 0
M  V30 15 C 1.063110 2.816947 0.502556 0
M  V30 16 C 0.370465 -0.696540 0.814404 0
M  V30 17 C -1.077782 -0.731324 0.569322 0
M  V30 18 C -1.702765 -1.662636 -0.248606 0
M  V30 19 C -3.085433 -1.572028 -0.386263 0
M  V30 20 N -3.782835 -0.630698 0.240519 0
M  V30 21 C -3.166185 0.255202 1.021852 0
M  V30 22 C -1.799424 0.255591 1.227796 0
M  V30 23 C 1.048722 -1.738605 1.403548 0
M  V30 24 N 0.652978 -2.942705 1.871879 0
M  V30 25 H -0.257431 -6.308180 3.651923 0
M  V30 26 H -0.768109 -4.658227 3.079179 0
M  V30 27 H -0.238561 -5.976831 1.903861 0
M  V30 28 H 3.655769 -4.064479 2.915171 0
M  V30 29 H 4.365198 -1.918612 2.081353 0
M  V30 30 H 3.395822 0.455334 0.843222 0
M  V30 31 H 0.275771 0.509629 -1.894703 0
M  V30 32 H -0.387320 2.481987 -3.094044 0
M  V30 33 H -0.136640 4.744433 -2.011288 0
M  V30 34 H 0.249373 5.265146 1.278919 0
M  V30 35 H 1.474645 2.801765 1.500575 0
M  V30 36 H -1.044418 -2.387823 -0.712994 0
M  V30 37 H -3.508454 -2.321422 -1.032283 0
M  V30 38 H -3.750058 1.013893 1.523684 0
M  V30 39 H -1.364950 1.005762 1.876276 0
M  V30 END ATOM
M  V30 BEGIN BOND
M  V30 1 1 1 2
M  V30 2 1 2 3
M  V30 3 2 3 4
M  V30 4 1 4 5
M  V30 5 2 5 6
M  V30 6 1 6 7
M  V30 7 1 7 8
M  V30 8 1 8 9
M  V30 9 2 9 10
M  V30 10 1 10 11
M  V30 11 2 11 12
M  V30 12 1 12 13
M  V30 13 1 13 14
M  V30 14 2 13 15
M  V30 15 2 8 16
M  V30 16 1 16 17
M  V30 17 2 17 18
M  V30 18 1 18 19
M  V30 19 2 19 20
M  V30 20 1 20 21
M  V30 21 2 21 22
M  V30 22 1 16 23
M  V30 23 2 23 24
M  V30 24 1 24 3
M  V30 25 1 23 6
M  V30 26 1 15 9
M  V30 27 1 22 17
M  V30 28 1 1 25
M  V30 29 1 1 26
M  V30 30 1 1 27
M  V30 31 1 4 28
M  V30 32 1 5 29
M  V30 33 1 7 30
M  V30 34 1 10 31
M  V30 35 1 11 32
M  V30 36 1 12 33
M  V30 37 1 14 34
M  V30 38 1 15 35
M  V30 39 1 18 36
M  V30 40 1 19 37
M  V30 41 1 21 38
M  V30 42 1 22 39
M  V30 END BOND
M  V30 END CTAB
M  END
>  <Dataset>  (341) 
ChEMBL_Kinases

>  <Ligand_Instance>  (341) 
nan

>  <PDB_ID>  (341) 
nan

>  <Standardized_SMILES>  (341) 
COc1ccc2[nH]c(-c3cccc(O)c3)c(-c3ccncc3)c2n1

>  <Name>  (341) 
nan

>  <Pocket>  (341) 
nan

>  <ATP_Site>  (341) 
nan

>  <Peripheral>  (341) 
nan

>  <Num_H_Atoms_ProtBoundConf>  (341) 
nan

>  <Num_Resolved_Atoms>  (341) 
nan

>  <Num_Not_Resolved_Atoms>  (341) 
nan

$$$$
CHEMBL3219060
     RDKit          3D

  0  0  0  0  0  0  0  0  0  0999 V3000
M  V30 BEGIN CTAB
M  V30 COUNTS 39 42 0 0 0
M  V30 BEGIN ATOM
M  V30 1 C 0.058078 -5.334271 3.414406 0
M  V30 2 O 1.412658 -4.975241 3.213697 0
M  V30 3 C 1.693123 -3.768558 2.575716 0
M  V30 4 C 3.025583 -3.450427 2.396739 0
M  V30 5 C 3.426288 -2.283984 1.779064 0
M  V30 6 C 2.430119 -1.437286 1.341813 0
M  V30 7 N 2.430264 -0.249382 0.715440 0
M  V30 8 C 1.189120 0.214680 0.481621 0
M  V30 9 C 0.912892 1.485250 -0.183517 0
M  V30 10 C 0.208458 1.446189 -1.370641 0
M  V30 11 C -0.099394 2.601909 -2.075095 0
M  V30 12 C 0.321259 3.807520 -1.553609 0
M  V30 13 O 0.010310 4.959218 -2.262897 0
M  V30 14 C 1.034349 3.902846 -0.361143 0
M  V30 15 C 1.327016 2.718665 0.322525 0
M  V30 16 C 0.295128 -0.729494 0.987021 0
M  V30 17 C -1.158975 -0.613348 0.937587 0
M  V30 18 C -1.760637 -1.641422 0.202971 0
M  V30 19 C -3.142723 -1.625068 0.093312 0
M  V30 20 N -3.931122 -0.666480 0.660696 0
M  V30 21 C -3.312481 0.315274 1.365981 0
M  V30 22 C -1.948158 0.360346 1.514823 0
M  V30 23 C 1.090632 -1.747585 1.516711 0
M  V30 24 N 0.757358 -2.888769 2.120475 0
M  V30 25 H -0.071143 -6.122074 4.160746 0
M  V30 26 H -0.530837 -4.408962 3.659681 0
M  V30 27 H -0.305588 -5.652588 2.396777 0
M  V30 28 H 3.808508 -4.134978 2.750627 0
M  V30 29 H 4.476215 -2.025534 1.633683 0
M  V30 30 H 3.335513 0.234368 0.453097 0
M  V30 31 H -0.112636 0.477453 -1.761121 0
M  V30 32 H -0.650475 2.575754 -3.004800 0
M  V30 33 H -0.799896 5.074963 -2.825189 0
M  V30 34 H 1.363670 4.861719 0.044535 0
M  V30 35 H 1.877873 2.724647 1.255640 0
M  V30 36 H -1.207162 -2.446556 -0.282874 0
M  V30 37 H -3.615011 -2.432611 -0.483550 0
M  V30 38 H -3.848666 1.117976 1.851893 0
M  V30 39 H -1.402546 1.115039 2.063272 0
M  V30 END ATOM
M  V30 BEGIN BOND
M  V30 1 1 1 2
M  V30 2 1 2 3
M  V30 3 2 3 4
M  V30 4 1 4 5
M  V30 5 2 5 6
M  V30 6 1 6 7
M  V30 7 1 7 8
M  V30 8 1 8 9
M  V30 9 2 9 10
M  V30 10 1 10 11
M  V30 11 2 11 12
M  V30 12 1 12 13
M  V30 13 1 12 14
M  V30 14 2 14 15
M  V30 15 2 8 16
M  V30 16 1 16 17
M  V30 17 2 17 18
M  V30 18 1 18 19
M  V30 19 2 19 20
M  V30 20 1 20 21
M  V30 21 2 21 22
M  V30 22 1 16 23
M  V30 23 2 23 24
M  V30 24 1 24 3
M  V30 25 1 23 6
M  V30 26 1 15 9
M  V30 27 1 22 17
M  V30 28 1 1 25
M  V30 29 1 1 26
M  V30 30 1 1 27
M  V30 31 1 4 28
M  V30 32 1 5 29
M  V30 33 1 7 30
M  V30 34 1 10 31
M  V30 35 1 11 32
M  V30 36 1 13 33
M  V30 37 1 14 34
M  V30 38 1 15 35
M  V30 39 1 18 36
M  V30 40 1 19 37
M  V30 41 1 21 38
M  V30 42 1 22 39
M  V30 END BOND
M  V30 END CTAB
M  END
>  <Dataset>  (342) 
ChEMBL_Kinases

>  <Ligand_Instance>  (342) 
nan

>  <PDB_ID>  (342) 
nan

>  <Standardized_SMILES>  (342) 
COc1ccc2[nH]c(-c3ccc(O)cc3)c(-c3ccncc3)c2n1

>  <Name>  (342) 
nan

>  <Pocket>  (342) 
nan

>  <ATP_Site>  (342) 
nan

>  <Peripheral>  (342) 
nan

>  <Num_H_Atoms_ProtBoundConf>  (342) 
nan

>  <Num_Resolved_Atoms>  (342) 
nan

>  <Num_Not_Resolved_Atoms>  (342) 
nan

$$$$
CHEMBL3676295
     RDKit          3D

  0  0  0  0  0  0  0  0  0  0999 V3000
M  V30 BEGIN CTAB
M  V30 COUNTS 50 53 0 0 0
M  V30 BEGIN ATOM
M  V30 1 N -0.782336 -2.942980 2.950644 0
M  V30 2 C 0.136691 -3.231613 1.863842 0 CFG=2
M  V30 3 C 1.502199 -2.717234 2.186008 0
M  V30 4 C 2.411540 -2.514327 1.027802 0 CFG=2
M  V30 5 C 3.417062 -1.488217 1.405791 0
M  V30 6 C 4.703881 -1.903513 1.795506 0
M  V30 7 C 5.766585 -1.109673 2.171643 0
M  V30 8 N 5.506266 0.225456 2.152559 0
M  V30 9 C 4.264511 0.653119 1.778005 0
M  V30 10 C 3.211177 -0.125281 1.405819 0
M  V30 11 N 1.977214 0.395215 1.048235 0
M  V30 12 C 1.493180 1.728317 0.967404 0
M  V30 13 O 2.335301 2.636861 1.289810 0
M  V30 14 C 0.156073 2.148875 0.560112 0
M  V30 15 C 0.004488 3.536005 0.722889 0
M  V30 16 S -1.727697 3.790922 0.130852 0
M  V30 17 C -1.925445 1.945702 -0.232159 0
M  V30 18 C -3.246090 1.537739 -0.779583 0
M  V30 19 C -3.511566 0.241551 -1.126668 0
M  V30 20 F -2.486869 -0.618350 -0.949836 0
M  V30 21 C -4.700848 -0.227912 -1.631066 0
M  V30 22 C -5.702924 0.698262 -1.796262 0
M  V30 23 C -5.510435 2.020952 -1.469574 0
M  V30 24 C -4.295039 2.419809 -0.969851 0
M  V30 25 F -4.153976 3.716259 -0.665916 0
M  V30 26 N -0.896344 1.529007 0.078292 0
M  V30 27 C 1.882298 -2.382532 -0.336630 0
M  V30 28 C 0.435422 -2.635791 -0.565800 0
M  V30 29 C -0.454004 -2.623493 0.618926 0 CFG=1
M  V30 30 O -1.628875 -3.301842 0.296002 0
M  V30 31 H -0.824367 -3.705458 3.659381 0
M  V30 32 H -0.446439 -2.094865 3.491338 0
M  V30 33 H 0.120055 -4.331584 1.727656 0
M  V30 34 H 1.396924 -1.777382 2.773530 0
M  V30 35 H 1.933641 -3.421312 2.928267 0
M  V30 36 H 3.004071 -3.496176 0.994309 0
M  V30 37 H 4.949006 -2.979440 1.822614 0
M  V30 38 H 6.721477 -1.522727 2.455825 0
M  V30 39 H 4.277222 1.730116 1.833182 0
M  V30 40 H 1.189652 -0.223077 0.788555 0
M  V30 41 H 0.454601 4.488923 1.037328 0
M  V30 42 H -4.789321 -1.266699 -1.865909 0
M  V30 43 H -6.650075 0.377553 -2.187511 0
M  V30 44 H -6.310837 2.726586 -1.608354 0
M  V30 45 H 2.198933 -1.442856 -0.894319 0
M  V30 46 H 2.377667 -3.139401 -1.047161 0
M  V30 47 H 0.027392 -1.851849 -1.274212 0
M  V30 48 H 0.228740 -3.594702 -1.121118 0
M  V30 49 H -0.780209 -1.564086 0.845650 0
M  V30 50 H -2.358052 -2.954292 0.883417 0
M  V30 END ATOM
M  V30 BEGIN BOND
M  V30 1 1 1 2
M  V30 2 1 2 3
M  V30 3 1 3 4
M  V30 4 1 4 5
M  V30 5 2 5 6
M  V30 6 1 6 7
M  V30 7 2 7 8
M  V30 8 1 8 9
M  V30 9 2 9 10
M  V30 10 1 10 11
M  V30 11 1 11 12
M  V30 12 2 12 13
M  V30 13 1 12 14
M  V30 14 2 14 15
M  V30 15 1 15 16
M  V30 16 1 16 17
M  V30 17 1 17 18
M  V30 18 2 18 19
M  V30 19 1 19 20
M  V30 20 1 19 21
M  V30 21 2 21 22
M  V30 22 1 22 23
M  V30 23 2 23 24
M  V30 24 1 24 25
M  V30 25 2 17 26
M  V30 26 1 4 27
M  V30 27 1 27 28
M  V30 28 1 28 29
M  V30 29 1 29 30
M  V30 30 1 29 2
M  V30 31 1 10 5
M  V30 32 1 26 14
M  V30 33 1 24 18
M  V30 34 1 1 31
M  V30 35 1 1 32
M  V30 36 1 2 33 CFG=3
M  V30 37 1 3 34
M  V30 38 1 3 35
M  V30 39 1 4 36 CFG=3
M  V30 40 1 6 37
M  V30 41 1 7 38
M  V30 42 1 9 39
M  V30 43 1 11 40
M  V30 44 1 15 41
M  V30 45 1 21 42
M  V30 46 1 22 43
M  V30 47 1 23 44
M  V30 48 1 27 45
M  V30 49 1 27 46
M  V30 50 1 28 47
M  V30 51 1 28 48
M  V30 52 1 29 49 CFG=1
M  V30 53 1 30 50
M  V30 END BOND
M  V30 END CTAB
M  END
>  <Dataset>  (343) 
ChEMBL_Kinases

>  <Ligand_Instance>  (343) 
nan

>  <PDB_ID>  (343) 
nan

>  <Standardized_SMILES>  (343) 
N[C@@H]1C[C@H](c2ccncc2NC(=O)c2csc(-c3c(F)cccc3F)n2)CC[C@H]1O

>  <Name>  (343) 
nan

>  <Pocket>  (343) 
nan

>  <ATP_Site>  (343) 
nan

>  <Peripheral>  (343) 
nan

>  <Num_H_Atoms_ProtBoundConf>  (343) 
nan

>  <Num_Resolved_Atoms>  (343) 
nan

>  <Num_Not_Resolved_Atoms>  (343) 
nan

$$$$
CHEMBL3219061
     RDKit          3D

  0  0  0  0  0  0  0  0  0  0999 V3000
M  V30 BEGIN CTAB
M  V30 COUNTS 38 41 0 0 0
M  V30 BEGIN ATOM
M  V30 1 C 0.225946 -5.461326 2.514228 0
M  V30 2 O 1.494014 -4.877616 2.757051 0
M  V30 3 C 1.743839 -3.563945 2.379354 0
M  V30 4 C 3.007776 -3.060057 2.649243 0
M  V30 5 C 3.331235 -1.762094 2.302762 0
M  V30 6 C 2.407801 -0.942564 1.683230 0
M  V30 7 N 2.414415 0.317219 1.237828 0
M  V30 8 C 1.209093 0.641638 0.694350 0
M  V30 9 C 0.713733 1.867515 0.081386 0
M  V30 10 C 0.371258 1.683401 -1.259853 0
M  V30 11 C -0.120804 2.706265 -2.042444 0
M  V30 12 C -0.267107 3.946849 -1.443327 0
M  V30 13 C 0.063118 4.158074 -0.120135 0
M  V30 14 F -0.052770 5.326916 0.520351 0
M  V30 15 C 0.553970 3.119666 0.644745 0
M  V30 16 C 0.417738 -0.487649 0.814614 0
M  V30 17 C -0.976977 -0.675636 0.386943 0
M  V30 18 C -1.384946 -1.608708 -0.555476 0
M  V30 19 C -2.722255 -1.695942 -0.878339 0
M  V30 20 N -3.638955 -0.892732 -0.296045 0
M  V30 21 C -3.241408 0.020126 0.625597 0
M  V30 22 C -1.908642 0.150916 0.988236 0
M  V30 23 C 1.151602 -1.483474 1.429250 0
M  V30 24 N 0.864967 -2.732390 1.771524 0
M  V30 25 H -0.137700 -6.090070 3.350934 0
M  V30 26 H -0.505504 -4.613371 2.461048 0
M  V30 27 H 0.211531 -5.969973 1.527643 0
M  V30 28 H 3.797042 -3.649181 3.139894 0
M  V30 29 H 4.285498 -1.305656 2.479272 0
M  V30 30 H 3.202173 0.995539 1.276521 0
M  V30 31 H 0.457598 0.739877 -1.801858 0
M  V30 32 H -0.397766 2.609842 -3.079956 0
M  V30 33 H -0.649037 4.780679 -2.014898 0
M  V30 34 H 0.856871 3.126547 1.692581 0
M  V30 35 H -0.617151 -2.223870 -0.989541 0
M  V30 36 H -2.918772 -2.464508 -1.629765 0
M  V30 37 H -4.030854 0.641614 1.061173 0
M  V30 38 H -1.735850 0.906944 1.724059 0
M  V30 END ATOM
M  V30 BEGIN BOND
M  V30 1 1 1 2
M  V30 2 1 2 3
M  V30 3 2 3 4
M  V30 4 1 4 5
M  V30 5 2 5 6
M  V30 6 1 6 7
M  V30 7 1 7 8
M  V30 8 1 8 9
M  V30 9 2 9 10
M  V30 10 1 10 11
M  V30 11 2 11 12
M  V30 12 1 12 13
M  V30 13 1 13 14
M  V30 14 2 13 15
M  V30 15 2 8 16
M  V30 16 1 16 17
M  V30 17 2 17 18
M  V30 18 1 18 19
M  V30 19 2 19 20
M  V30 20 1 20 21
M  V30 21 2 21 22
M  V30 22 1 16 23
M  V30 23 2 23 24
M  V30 24 1 24 3
M  V30 25 1 23 6
M  V30 26 1 15 9
M  V30 27 1 22 17
M  V30 28 1 1 25
M  V30 29 1 1 26
M  V30 30 1 1 27
M  V30 31 1 4 28
M  V30 32 1 5 29
M  V30 33 1 7 30
M  V30 34 1 10 31
M  V30 35 1 11 32
M  V30 36 1 12 33
M  V30 37 1 15 34
M  V30 38 1 18 35
M  V30 39 1 19 36
M  V30 40 1 21 37
M  V30 41 1 22 38
M  V30 END BOND
M  V30 END CTAB
M  END
>  <Dataset>  (344) 
ChEMBL_Kinases

>  <Ligand_Instance>  (344) 
nan

>  <PDB_ID>  (344) 
nan

>  <Standardized_SMILES>  (344) 
COc1ccc2[nH]c(-c3cccc(F)c3)c(-c3ccncc3)c2n1

>  <Name>  (344) 
nan

>  <Pocket>  (344) 
nan

>  <ATP_Site>  (344) 
nan

>  <Peripheral>  (344) 
nan

>  <Num_H_Atoms_ProtBoundConf>  (344) 
nan

>  <Num_Resolved_Atoms>  (344) 
nan

>  <Num_Not_Resolved_Atoms>  (344) 
nan

$$$$
CHEMBL3676294
     RDKit          3D

  0  0  0  0  0  0  0  0  0  0999 V3000
M  V30 BEGIN CTAB
M  V30 COUNTS 52 55 0 0 0
M  V30 BEGIN ATOM
M  V30 1 N -0.527692 1.750525 4.002660 0
M  V30 2 C 0.468187 1.643527 2.938573 0
M  V30 3 S 2.311496 1.966591 3.038957 0
M  V30 4 C 2.488376 1.533343 1.204761 0
M  V30 5 C 3.870848 1.616657 0.648429 0
M  V30 6 C 4.968742 1.974830 1.365771 0
M  V30 7 F 4.833336 2.280138 2.664703 0
M  V30 8 C 6.176678 1.993161 0.663522 0
M  V30 9 C 6.232162 1.661651 -0.687984 0
M  V30 10 C 5.091020 1.304565 -1.373257 0
M  V30 11 C 3.884257 1.283554 -0.682398 0
M  V30 12 F 2.801442 0.925911 -1.407354 0
M  V30 13 N 1.431862 1.289026 0.912329 0
M  V30 14 C 0.320237 1.285900 1.613137 0
M  V30 15 C -1.010856 0.948255 1.125693 0
M  V30 16 O -2.029137 0.969175 1.861412 0
M  V30 17 N -1.308545 0.563432 -0.211483 0
M  V30 18 C -2.700645 0.303278 -0.352457 0
M  V30 19 C -3.493832 1.377434 -0.700488 0
M  V30 20 N -4.821673 1.200071 -0.850605 0
M  V30 21 C -5.330250 -0.028953 -0.653912 0
M  V30 22 C -4.526602 -1.096988 -0.305782 0
M  V30 23 C -3.140128 -0.985898 -0.132861 0
M  V30 24 C -2.332359 -2.131811 0.230543 0 CFG=2
M  V30 25 C -2.132077 -2.383913 1.698793 0
M  V30 26 C -1.716653 -3.819010 1.890332 0
M  V30 27 C -0.743738 -4.366976 0.923784 0 CFG=2
M  V30 28 O 0.527910 -4.527461 1.512865 0
M  V30 29 C -0.582546 -3.684862 -0.386626 0 CFG=2
M  V30 30 N 0.809625 -3.734072 -0.804097 0
M  V30 31 C -0.977474 -2.229766 -0.390116 0
M  V30 32 H -1.129356 2.611175 4.055247 0
M  V30 33 H -0.713874 1.041300 4.742374 0
M  V30 34 H 7.065996 2.273116 1.204142 0
M  V30 35 H 7.204291 1.693245 -1.186313 0
M  V30 36 H 5.136771 1.046314 -2.427659 0
M  V30 37 H -0.502794 0.519119 -0.905244 0
M  V30 38 H -3.060274 2.359659 -0.853847 0
M  V30 39 H -6.406580 -0.210537 -0.767274 0
M  V30 40 H -5.010586 -2.067763 -0.162129 0
M  V30 41 H -2.894603 -3.044028 -0.137079 0
M  V30 42 H -3.084714 -2.244752 2.214130 0
M  V30 43 H -1.294342 -1.776409 2.063486 0
M  V30 44 H -2.653037 -4.441947 1.944532 0
M  V30 45 H -1.290361 -3.890875 2.914612 0
M  V30 46 H -1.051244 -5.424231 0.696020 0
M  V30 47 H 0.469158 -5.281932 2.153456 0
M  V30 48 H -1.167171 -4.183478 -1.193613 0
M  V30 49 H 1.160068 -4.678386 -0.573112 0
M  V30 50 H 0.961839 -3.528489 -1.801938 0
M  V30 51 H -0.187539 -1.631131 0.107323 0
M  V30 52 H -1.029283 -1.917825 -1.460270 0
M  V30 END ATOM
M  V30 BEGIN BOND
M  V30 1 1 1 2
M  V30 2 1 2 3
M  V30 3 1 3 4
M  V30 4 1 4 5
M  V30 5 2 5 6
M  V30 6 1 6 7
M  V30 7 1 6 8
M  V30 8 2 8 9
M  V30 9 1 9 10
M  V30 10 2 10 11
M  V30 11 1 11 12
M  V30 12 2 4 13
M  V30 13 1 13 14
M  V30 14 1 14 15
M  V30 15 2 15 16
M  V30 16 1 15 17
M  V30 17 1 17 18
M  V30 18 2 18 19
M  V30 19 1 19 20
M  V30 20 2 20 21
M  V30 21 1 21 22
M  V30 22 2 22 23
M  V30 23 1 23 24
M  V30 24 1 24 25
M  V30 25 1 25 26
M  V30 26 1 26 27
M  V30 27 1 27 28
M  V30 28 1 27 29
M  V30 29 1 29 30
M  V30 30 1 29 31
M  V30 31 2 14 2
M  V30 32 1 23 18
M  V30 33 1 31 24
M  V30 34 1 11 5
M  V30 35 1 1 32
M  V30 36 1 1 33
M  V30 37 1 8 34
M  V30 38 1 9 35
M  V30 39 1 10 36
M  V30 40 1 17 37
M  V30 41 1 19 38
M  V30 42 1 21 39
M  V30 43 1 22 40
M  V30 44 1 24 41 CFG=3
M  V30 45 1 25 42
M  V30 46 1 25 43
M  V30 47 1 26 44
M  V30 48 1 26 45
M  V30 49 1 27 46 CFG=3
M  V30 50 1 28 47
M  V30 51 1 29 48 CFG=3
M  V30 52 1 30 49
M  V30 53 1 30 50
M  V30 54 1 31 51
M  V30 55 1 31 52
M  V30 END BOND
M  V30 END CTAB
M  END
>  <Dataset>  (345) 
ChEMBL_Kinases

>  <Ligand_Instance>  (345) 
nan

>  <PDB_ID>  (345) 
nan

>  <Standardized_SMILES>  (345) 
Nc1sc(-c2c(F)cccc2F)nc1C(=O)Nc1cnccc1[C@@H]1CC[C@H](O)[C@H](N)C1

>  <Name>  (345) 
nan

>  <Pocket>  (345) 
nan

>  <ATP_Site>  (345) 
nan

>  <Peripheral>  (345) 
nan

>  <Num_H_Atoms_ProtBoundConf>  (345) 
nan

>  <Num_Resolved_Atoms>  (345) 
nan

>  <Num_Not_Resolved_Atoms>  (345) 
nan

$$$$
CHEMBL3676293
     RDKit          3D

  0  0  0  0  0  0  0  0  0  0999 V3000
M  V30 BEGIN CTAB
M  V30 COUNTS 50 53 0 0 0
M  V30 BEGIN ATOM
M  V30 1 N -1.152133 -2.730628 1.553226 0
M  V30 2 C 0.123705 -3.397068 1.255173 0 CFG=2
M  V30 3 C 1.224287 -2.725721 1.990253 0
M  V30 4 C 2.377421 -2.261757 1.160517 0 CFG=2
M  V30 5 C 3.246077 -1.244432 1.786842 0
M  V30 6 C 4.509822 -1.605123 2.302896 0
M  V30 7 C 5.462450 -0.798487 2.891249 0
M  V30 8 N 5.112399 0.519882 2.973583 0
M  V30 9 C 3.928978 0.905151 2.499947 0
M  V30 10 C 2.973999 0.102776 1.911938 0
M  V30 11 N 1.749281 0.602411 1.447587 0
M  V30 12 C 1.267476 1.934520 1.355218 0
M  V30 13 O 2.039496 2.851081 1.737678 0
M  V30 14 C -0.052241 2.299208 0.849788 0
M  V30 15 C -0.160998 3.695360 0.831894 0
M  V30 16 S -1.919442 3.927845 0.163241 0
M  V30 17 C -2.125668 2.082688 0.053422 0
M  V30 18 C -3.425262 1.490240 -0.453079 0
M  V30 19 C -3.667044 0.156056 -0.545972 0
M  V30 20 F -2.615954 -0.583969 -0.125524 0
M  V30 21 C -4.877874 -0.293171 -1.023149 0
M  V30 22 C -5.867352 0.569970 -1.415290 0
M  V30 23 C -5.646286 1.927716 -1.330439 0
M  V30 24 C -4.434707 2.374725 -0.853048 0
M  V30 25 F -4.299627 3.719150 -0.802129 0
M  V30 26 N -1.132635 1.688195 0.426348 0
M  V30 27 C 2.166867 -2.132688 -0.300432 0
M  V30 28 C 1.648950 -3.514019 -0.752525 0
M  V30 29 C 0.234864 -3.527246 -0.214344 0 CFG=2
M  V30 30 O -0.435306 -2.513780 -0.931346 0
M  V30 31 H -1.047437 -1.739404 1.798939 0
M  V30 32 H -1.904746 -2.982179 0.905957 0
M  V30 33 H -0.065163 -4.442497 1.649853 0
M  V30 34 H 0.830968 -1.872641 2.572556 0
M  V30 35 H 1.562986 -3.424164 2.807517 0
M  V30 36 H 3.052620 -3.208502 1.171509 0
M  V30 37 H 4.840360 -2.657597 2.261406 0
M  V30 38 H 6.404108 -1.180712 3.254750 0
M  V30 39 H 3.833230 1.967982 2.656116 0
M  V30 40 H 1.006221 -0.039776 1.103893 0
M  V30 41 H 0.304061 4.711774 1.026582 0
M  V30 42 H -4.966078 -1.376789 -1.056040 0
M  V30 43 H -6.777635 0.113567 -1.773816 0
M  V30 44 H -6.440499 2.560734 -1.645010 0
M  V30 45 H 1.568512 -1.344319 -0.701017 0
M  V30 46 H 3.187110 -2.061158 -0.777484 0
M  V30 47 H 2.291171 -4.258456 -0.232219 0
M  V30 48 H 1.629383 -3.622204 -1.834055 0
M  V30 49 H -0.212658 -4.487629 -0.591332 0
M  V30 50 H -0.448534 -2.816350 -1.872365 0
M  V30 END ATOM
M  V30 BEGIN BOND
M  V30 1 1 1 2
M  V30 2 1 2 3
M  V30 3 1 3 4
M  V30 4 1 4 5
M  V30 5 2 5 6
M  V30 6 1 6 7
M  V30 7 2 7 8
M  V30 8 1 8 9
M  V30 9 2 9 10
M  V30 10 1 10 11
M  V30 11 1 11 12
M  V30 12 2 12 13
M  V30 13 1 12 14
M  V30 14 2 14 15
M  V30 15 1 15 16
M  V30 16 1 16 17
M  V30 17 1 17 18
M  V30 18 2 18 19
M  V30 19 1 19 20
M  V30 20 1 19 21
M  V30 21 2 21 22
M  V30 22 1 22 23
M  V30 23 2 23 24
M  V30 24 1 24 25
M  V30 25 2 17 26
M  V30 26 1 4 27
M  V30 27 1 27 28
M  V30 28 1 28 29
M  V30 29 1 29 30
M  V30 30 1 29 2
M  V30 31 1 10 5
M  V30 32 1 26 14
M  V30 33 1 24 18
M  V30 34 1 1 31
M  V30 35 1 1 32
M  V30 36 1 2 33 CFG=1
M  V30 37 1 3 34
M  V30 38 1 3 35
M  V30 39 1 4 36 CFG=3
M  V30 40 1 6 37
M  V30 41 1 7 38
M  V30 42 1 9 39
M  V30 43 1 11 40
M  V30 44 1 15 41
M  V30 45 1 21 42
M  V30 46 1 22 43
M  V30 47 1 23 44
M  V30 48 1 27 45
M  V30 49 1 27 46
M  V30 50 1 28 47
M  V30 51 1 28 48
M  V30 52 1 29 49 CFG=3
M  V30 53 1 30 50
M  V30 END BOND
M  V30 END CTAB
M  END
>  <Dataset>  (346) 
ChEMBL_Kinases

>  <Ligand_Instance>  (346) 
nan

>  <PDB_ID>  (346) 
nan

>  <Standardized_SMILES>  (346) 
N[C@@H]1C[C@H](c2ccncc2NC(=O)c2csc(-c3c(F)cccc3F)n2)CC[C@@H]1O

>  <Name>  (346) 
nan

>  <Pocket>  (346) 
nan

>  <ATP_Site>  (346) 
nan

>  <Peripheral>  (346) 
nan

>  <Num_H_Atoms_ProtBoundConf>  (346) 
nan

>  <Num_Resolved_Atoms>  (346) 
nan

>  <Num_Not_Resolved_Atoms>  (346) 
nan

$$$$
CHEMBL3676292
     RDKit          3D

  0  0  0  0  0  0  0  0  0  0999 V3000
M  V30 BEGIN CTAB
M  V30 COUNTS 52 55 0 0 0
M  V30 BEGIN ATOM
M  V30 1 C -0.342549 -2.084782 3.357358 0
M  V30 2 C 0.316681 -1.905953 1.982971 0 CFG=1
M  V30 3 C 1.730462 -1.541846 2.237646 0
M  V30 4 N 2.504069 -1.722571 1.023326 0
M  V30 5 C 3.210638 -0.803976 0.200022 0
M  V30 6 C 4.562424 -1.160772 0.169140 0
M  V30 7 C 5.494258 -0.431117 -0.568280 0
M  V30 8 N 5.030133 0.642814 -1.256018 0
M  V30 9 C 3.737485 1.002581 -1.240057 0
M  V30 10 C 2.806024 0.295263 -0.519083 0
M  V30 11 N 1.413727 0.536089 -0.399201 0
M  V30 12 C 1.067708 1.420467 0.673245 0
M  V30 13 O 2.080325 1.824616 1.317310 0
M  V30 14 C -0.282288 1.845740 1.033275 0
M  V30 15 C -0.457738 2.704510 2.096122 0
M  V30 16 S -2.240869 2.902564 2.111400 0
M  V30 17 C -2.465507 1.748532 0.622398 0
M  V30 18 C -3.838997 1.530048 0.164769 0
M  V30 19 C -4.966447 2.091010 0.724878 0
M  V30 20 F -4.795944 2.913318 1.786899 0
M  V30 21 C -6.182617 1.759318 0.144856 0
M  V30 22 C -6.233771 0.901722 -0.945982 0
M  V30 23 C -5.094859 0.344488 -1.499852 0
M  V30 24 C -3.867777 0.678167 -0.915875 0
M  V30 25 F -2.794444 0.108531 -1.494097 0
M  V30 26 N -1.372196 1.462719 0.405160 0
M  V30 27 C 2.539834 -3.130122 0.597903 0
M  V30 28 C 1.149100 -3.502229 0.212604 0 CFG=1
M  V30 29 N 1.133918 -4.969963 0.094254 0
M  V30 30 C 0.080467 -3.117074 1.168062 0 CFG=2
M  V30 31 O -1.090637 -2.941640 0.424652 0
M  V30 32 H -0.720052 -1.121115 3.743290 0
M  V30 33 H -1.157543 -2.851277 3.270791 0
M  V30 34 H 0.365253 -2.486507 4.108327 0
M  V30 35 H -0.202877 -1.037934 1.528693 0
M  V30 36 H 2.173720 -2.273480 2.969771 0
M  V30 37 H 1.792662 -0.543834 2.672177 0
M  V30 38 H 5.052097 -2.000542 0.679495 0
M  V30 39 H 6.535703 -0.647736 -0.634837 0
M  V30 40 H 3.337598 1.851966 -1.776872 0
M  V30 41 H 0.597349 0.168638 -0.971991 0
M  V30 42 H 0.251032 3.159360 2.764817 0
M  V30 43 H -7.050718 2.213093 0.603707 0
M  V30 44 H -7.215934 0.702806 -1.327248 0
M  V30 45 H -5.167640 -0.319694 -2.349050 0
M  V30 46 H 2.841404 -3.707603 1.506162 0
M  V30 47 H 3.211569 -3.280323 -0.243154 0
M  V30 48 H 0.960990 -3.148357 -0.821887 0
M  V30 49 H 1.903013 -5.297517 -0.514235 0
M  V30 50 H 0.234922 -5.208964 -0.381285 0
M  V30 51 H -0.132446 -3.976438 1.863545 0
M  V30 52 H -1.076371 -3.491538 -0.416330 0
M  V30 END ATOM
M  V30 BEGIN BOND
M  V30 1 1 1 2
M  V30 2 1 2 3
M  V30 3 1 3 4
M  V30 4 1 4 5
M  V30 5 2 5 6
M  V30 6 1 6 7
M  V30 7 2 7 8
M  V30 8 1 8 9
M  V30 9 2 9 10
M  V30 10 1 10 11
M  V30 11 1 11 12
M  V30 12 2 12 13
M  V30 13 1 12 14
M  V30 14 2 14 15
M  V30 15 1 15 16
M  V30 16 1 16 17
M  V30 17 1 17 18
M  V30 18 2 18 19
M  V30 19 1 19 20
M  V30 20 1 19 21
M  V30 21 2 21 22
M  V30 22 1 22 23
M  V30 23 2 23 24
M  V30 24 1 24 25
M  V30 25 2 17 26
M  V30 26 1 4 27
M  V30 27 1 27 28
M  V30 28 1 28 29
M  V30 29 1 28 30
M  V30 30 1 30 31
M  V30 31 1 30 2
M  V30 32 1 10 5
M  V30 33 1 26 14
M  V30 34 1 24 18
M  V30 35 1 1 32
M  V30 36 1 1 33
M  V30 37 1 1 34
M  V30 38 1 2 35 CFG=3
M  V30 39 1 3 36
M  V30 40 1 3 37
M  V30 41 1 6 38
M  V30 42 1 7 39
M  V30 43 1 9 40
M  V30 44 1 11 41
M  V30 45 1 15 42
M  V30 46 1 21 43
M  V30 47 1 22 44
M  V30 48 1 23 45
M  V30 49 1 27 46
M  V30 50 1 27 47
M  V30 51 1 28 48 CFG=3
M  V30 52 1 29 49
M  V30 53 1 29 50
M  V30 54 1 30 51 CFG=1
M  V30 55 1 31 52
M  V30 END BOND
M  V30 END CTAB
M  END
>  <Dataset>  (347) 
ChEMBL_Kinases

>  <Ligand_Instance>  (347) 
nan

>  <PDB_ID>  (347) 
nan

>  <Standardized_SMILES>  (347) 
C[C@H]1CN(c2ccncc2NC(=O)c2csc(-c3c(F)cccc3F)n2)C[C@@H](N)[C@@H]1O

>  <Name>  (347) 
nan

>  <Pocket>  (347) 
nan

>  <ATP_Site>  (347) 
nan

>  <Peripheral>  (347) 
nan

>  <Num_H_Atoms_ProtBoundConf>  (347) 
nan

>  <Num_Resolved_Atoms>  (347) 
nan

>  <Num_Not_Resolved_Atoms>  (347) 
nan

$$$$
CHEMBL3676291
     RDKit          3D

  0  0  0  0  0  0  0  0  0  0999 V3000
M  V30 BEGIN CTAB
M  V30 COUNTS 52 55 0 0 0
M  V30 BEGIN ATOM
M  V30 1 C 3.386833 -4.962436 1.707969 0
M  V30 2 C 2.493134 -3.981937 0.980379 0 CFG=2
M  V30 3 C 2.677495 -2.660238 1.703628 0
M  V30 4 N 2.061068 -1.568621 0.980448 0
M  V30 5 C 2.809769 -0.478868 0.535410 0
M  V30 6 C 4.185472 -0.438151 0.496317 0
M  V30 7 C 4.946339 0.618662 0.044189 0
M  V30 8 N 4.345511 1.732929 -0.410080 0
M  V30 9 C 2.996363 1.771021 -0.404117 0
M  V30 10 C 2.248220 0.683060 0.061079 0
M  V30 11 N 0.874401 0.945077 -0.005210 0
M  V30 12 C 0.476667 1.527790 1.255543 0
M  V30 13 O 1.418603 1.656346 2.079321 0
M  V30 14 C -0.892007 1.931762 1.550399 0
M  V30 15 C -1.199319 2.496977 2.814870 0
M  V30 16 S -3.056895 2.811794 2.625481 0
M  V30 17 C -3.022200 2.122663 0.903615 0
M  V30 18 C -4.302638 2.091048 0.145202 0
M  V30 19 C -5.473382 2.550766 0.685888 0
M  V30 20 F -5.520731 3.056074 1.937199 0
M  V30 21 C -6.593369 2.458448 -0.140933 0
M  V30 22 C -6.484490 1.931926 -1.413189 0
M  V30 23 C -5.272389 1.476567 -1.920941 0
M  V30 24 C -4.161388 1.561985 -1.116309 0
M  V30 25 F -2.984341 1.115083 -1.621275 0
M  V30 26 N -1.889553 1.808628 0.710820 0
M  V30 27 C 0.684987 -1.820927 0.816962 0
M  V30 28 C 0.173374 -3.197190 0.806766 0 CFG=1
M  V30 29 N -0.331817 -3.570931 -0.535771 0
M  V30 30 C 1.052118 -4.316221 1.213671 0 CFG=1
M  V30 31 O 0.786369 -5.499298 0.518383 0
M  V30 32 H 4.441609 -4.623279 1.650797 0
M  V30 33 H 3.116047 -4.897490 2.787822 0
M  V30 34 H 3.245834 -5.999076 1.348014 0
M  V30 35 H 2.739421 -3.906635 -0.094990 0
M  V30 36 H 3.761082 -2.555005 1.865836 0
M  V30 37 H 2.123946 -2.751772 2.671813 0
M  V30 38 H 4.803702 -1.258357 0.823554 0
M  V30 39 H 6.033906 0.618627 0.026751 0
M  V30 40 H 2.584855 2.697034 -0.783143 0
M  V30 41 H 0.045803 0.866850 -0.669726 0
M  V30 42 H -0.462895 2.680635 3.668911 0
M  V30 43 H -7.535862 2.816056 0.262801 0
M  V30 44 H -7.384169 1.884954 -2.008706 0
M  V30 45 H -5.186745 1.064783 -2.915694 0
M  V30 46 H 0.133848 -1.298739 1.655770 0
M  V30 47 H 0.407688 -1.369095 -0.185888 0
M  V30 48 H -0.767934 -3.320474 1.432610 0
M  V30 49 H -0.546953 -4.573016 -0.592908 0
M  V30 50 H 0.325988 -3.253901 -1.266248 0
M  V30 51 H 0.926773 -4.497790 2.310697 0
M  V30 52 H 0.126191 -6.074641 0.989900 0
M  V30 END ATOM
M  V30 BEGIN BOND
M  V30 1 1 1 2
M  V30 2 1 2 3
M  V30 3 1 3 4
M  V30 4 1 4 5
M  V30 5 2 5 6
M  V30 6 1 6 7
M  V30 7 2 7 8
M  V30 8 1 8 9
M  V30 9 2 9 10
M  V30 10 1 10 11
M  V30 11 1 11 12
M  V30 12 2 12 13
M  V30 13 1 12 14
M  V30 14 2 14 15
M  V30 15 1 15 16
M  V30 16 1 16 17
M  V30 17 1 17 18
M  V30 18 2 18 19
M  V30 19 1 19 20
M  V30 20 1 19 21
M  V30 21 2 21 22
M  V30 22 1 22 23
M  V30 23 2 23 24
M  V30 24 1 24 25
M  V30 25 2 17 26
M  V30 26 1 4 27
M  V30 27 1 27 28
M  V30 28 1 28 29
M  V30 29 1 28 30
M  V30 30 1 30 31
M  V30 31 1 30 2
M  V30 32 1 10 5
M  V30 33 1 26 14
M  V30 34 1 24 18
M  V30 35 1 1 32
M  V30 36 1 1 33
M  V30 37 1 1 34
M  V30 38 1 2 35 CFG=3
M  V30 39 1 3 36
M  V30 40 1 3 37
M  V30 41 1 6 38
M  V30 42 1 7 39
M  V30 43 1 9 40
M  V30 44 1 11 41
M  V30 45 1 15 42
M  V30 46 1 21 43
M  V30 47 1 22 44
M  V30 48 1 23 45
M  V30 49 1 27 46
M  V30 50 1 27 47
M  V30 51 1 28 48 CFG=1
M  V30 52 1 29 49
M  V30 53 1 29 50
M  V30 54 1 30 51 CFG=1
M  V30 55 1 31 52
M  V30 END BOND
M  V30 END CTAB
M  END
>  <Dataset>  (348) 
ChEMBL_Kinases

>  <Ligand_Instance>  (348) 
nan

>  <PDB_ID>  (348) 
nan

>  <Standardized_SMILES>  (348) 
C[C@@H]1CN(c2ccncc2NC(=O)c2csc(-c3c(F)cccc3F)n2)C[C@@H](N)[C@H]1O

>  <Name>  (348) 
nan

>  <Pocket>  (348) 
nan

>  <ATP_Site>  (348) 
nan

>  <Peripheral>  (348) 
nan

>  <Num_H_Atoms_ProtBoundConf>  (348) 
nan

>  <Num_Resolved_Atoms>  (348) 
nan

>  <Num_Not_Resolved_Atoms>  (348) 
nan

$$$$
CHEMBL3219057
     RDKit          3D

  0  0  0  0  0  0  0  0  0  0999 V3000
M  V30 BEGIN CTAB
M  V30 COUNTS 38 41 0 0 0
M  V30 BEGIN ATOM
M  V30 1 C -0.507979 -5.075243 3.237963 0
M  V30 2 O 0.713068 -4.517402 3.684353 0
M  V30 3 C 1.173530 -3.305785 3.186780 0
M  V30 4 C 2.367059 -2.737242 3.607797 0
M  V30 5 C 2.811173 -1.523457 3.097723 0
M  V30 6 C 2.017528 -0.887733 2.143458 0
M  V30 7 N 2.207954 0.280171 1.494399 0
M  V30 8 C 1.177063 0.499454 0.658487 0
M  V30 9 C 0.981402 1.645729 -0.234658 0
M  V30 10 C 0.930208 1.456055 -1.618753 0
M  V30 11 C 0.745914 2.539988 -2.449650 0
M  V30 12 C 0.607541 3.833301 -1.947267 0
M  V30 13 C 0.659828 4.011580 -0.571170 0
M  V30 14 C 0.843983 2.930477 0.264232 0
M  V30 15 C 0.336428 -0.581812 0.814534 0
M  V30 16 C -0.933943 -0.798586 0.108292 0
M  V30 17 C -1.226083 -1.848585 -0.736266 0
M  V30 18 C -2.461860 -1.929600 -1.334099 0
M  V30 19 N -3.417591 -1.004343 -1.122410 0
M  V30 20 C -3.111769 0.004268 -0.300011 0
M  V30 21 C -1.902879 0.165708 0.340798 0
M  V30 22 C 0.844516 -1.466810 1.743159 0
M  V30 23 N 0.447606 -2.651830 2.265648 0
M  V30 24 H -0.388163 -6.086621 2.805128 0
M  V30 25 H -1.219737 -5.036574 4.086150 0
M  V30 26 H -0.951636 -4.440233 2.443317 0
M  V30 27 H 2.936727 -3.295770 4.360863 0
M  V30 28 H 3.752577 -1.094601 3.442518 0
M  V30 29 H 3.037250 0.931182 1.616486 0
M  V30 30 H 1.034740 0.460464 -2.036689 0
M  V30 31 H 0.704806 2.406050 -3.515504 0
M  V30 32 H 0.460286 4.695346 -2.619435 0
M  V30 33 H 0.547915 5.033721 -0.215914 0
M  V30 34 H 0.879242 3.113059 1.333862 0
M  V30 35 H -0.415150 -2.543732 -0.854316 0
M  V30 36 H -2.613143 -2.787090 -1.985999 0
M  V30 37 H -3.870884 0.775519 -0.107013 0
M  V30 38 H -1.722803 1.009842 0.995390 0
M  V30 END ATOM
M  V30 BEGIN BOND
M  V30 1 1 1 2
M  V30 2 1 2 3
M  V30 3 2 3 4
M  V30 4 1 4 5
M  V30 5 2 5 6
M  V30 6 1 6 7
M  V30 7 1 7 8
M  V30 8 1 8 9
M  V30 9 2 9 10
M  V30 10 1 10 11
M  V30 11 2 11 12
M  V30 12 1 12 13
M  V30 13 2 13 14
M  V30 14 2 8 15
M  V30 15 1 15 16
M  V30 16 2 16 17
M  V30 17 1 17 18
M  V30 18 2 18 19
M  V30 19 1 19 20
M  V30 20 2 20 21
M  V30 21 1 15 22
M  V30 22 2 22 23
M  V30 23 1 23 3
M  V30 24 1 22 6
M  V30 25 1 14 9
M  V30 26 1 21 16
M  V30 27 1 1 24
M  V30 28 1 1 25
M  V30 29 1 1 26
M  V30 30 1 4 27
M  V30 31 1 5 28
M  V30 32 1 7 29
M  V30 33 1 10 30
M  V30 34 1 11 31
M  V30 35 1 12 32
M  V30 36 1 13 33
M  V30 37 1 14 34
M  V30 38 1 17 35
M  V30 39 1 18 36
M  V30 40 1 20 37
M  V30 41 1 21 38
M  V30 END BOND
M  V30 END CTAB
M  END
>  <Dataset>  (349) 
ChEMBL_Kinases

>  <Ligand_Instance>  (349) 
nan

>  <PDB_ID>  (349) 
nan

>  <Standardized_SMILES>  (349) 
COc1ccc2[nH]c(-c3ccccc3)c(-c3ccncc3)c2n1

>  <Name>  (349) 
nan

>  <Pocket>  (349) 
nan

>  <ATP_Site>  (349) 
nan

>  <Peripheral>  (349) 
nan

>  <Num_H_Atoms_ProtBoundConf>  (349) 
nan

>  <Num_Resolved_Atoms>  (349) 
nan

>  <Num_Not_Resolved_Atoms>  (349) 
nan

$$$$
CHEMBL4218947
     RDKit          3D

  0  0  0  0  0  0  0  0  0  0999 V3000
M  V30 BEGIN CTAB
M  V30 COUNTS 55 59 0 0 0
M  V30 BEGIN ATOM
M  V30 1 C 2.489296 -2.527943 4.490873 0
M  V30 2 C 2.690322 -1.623344 3.299504 0
M  V30 3 C 2.430779 -2.392251 2.014783 0
M  V30 4 C 2.647895 -1.433629 0.857771 0
M  V30 5 N 1.750513 -0.302875 0.934830 0
M  V30 6 C 0.345491 -0.389120 0.917761 0
M  V30 7 N -0.495115 0.659166 0.990312 0
M  V30 8 C -1.822230 0.522648 0.969770 0
M  V30 9 N -2.635598 1.684753 1.051046 0
M  V30 10 C -2.034969 3.016592 1.156064 0
M  V30 11 C -1.171934 3.347499 0.008758 0
M  V30 12 N 0.163581 3.082692 -0.060686 0
M  V30 13 C 0.664866 3.503995 -1.230100 0
M  V30 14 C 1.929583 3.470858 -1.773766 0
M  V30 15 F 2.945827 2.921873 -1.063532 0
M  V30 16 C 2.128947 3.999728 -3.032302 0
M  V30 17 F 3.403352 3.949590 -3.543374 0
M  V30 18 C 1.098575 4.571560 -3.785791 0
M  V30 19 C -0.144146 4.574671 -3.186894 0
M  V30 20 C -0.388345 4.056422 -1.929830 0
M  V30 21 N -1.493477 3.947563 -1.152163 0
M  V30 22 C -2.422378 -0.726413 0.870959 0
M  V30 23 N -3.684652 -1.172702 0.827570 0
M  V30 24 C -3.628600 -2.530361 0.725637 0
M  V30 25 N -2.312533 -2.878003 0.709583 0
M  V30 26 C -1.912542 -4.244244 0.609638 0
M  V30 27 C -1.547026 -5.067751 1.664608 0
M  V30 28 C -1.182386 -6.379149 1.395980 0
M  V30 29 C -1.168603 -6.898951 0.117713 0
M  V30 30 C -1.533857 -6.079708 -0.946446 0
M  V30 31 F -1.523872 -6.579899 -2.206008 0
M  V30 32 C -1.896792 -4.770092 -0.667340 0
M  V30 33 C -1.525268 -1.773128 0.798963 0
M  V30 34 N -0.199071 -1.615418 0.821086 0
M  V30 35 H 3.435626 -2.583684 5.102929 0
M  V30 36 H 1.708450 -2.130888 5.196113 0
M  V30 37 H 2.198498 -3.536605 4.135575 0
M  V30 38 H 2.063391 -0.714822 3.331166 0
M  V30 39 H 3.760205 -1.276531 3.282558 0
M  V30 40 H 1.435791 -2.847056 2.031393 0
M  V30 41 H 3.157936 -3.219760 1.973318 0
M  V30 42 H 2.483400 -1.965412 -0.115971 0
M  V30 43 H 3.687362 -1.062754 0.922150 0
M  V30 44 H 2.131351 0.687413 1.011164 0
M  V30 45 H -3.695578 1.590164 1.035682 0
M  V30 46 H -1.407149 3.020878 2.069938 0
M  V30 47 H -2.835461 3.753666 1.319566 0
M  V30 48 H 1.300363 4.974585 -4.769165 0
M  V30 49 H -0.967600 5.003773 -3.727831 0
M  V30 50 H -2.457173 4.273305 -1.397746 0
M  V30 51 H -4.478291 -3.197832 0.668717 0
M  V30 52 H -1.573181 -4.617106 2.645604 0
M  V30 53 H -0.918249 -6.924031 2.293344 0
M  V30 54 H -0.876094 -7.918321 -0.009267 0
M  V30 55 H -2.174149 -4.174546 -1.546969 0
M  V30 END ATOM
M  V30 BEGIN BOND
M  V30 1 1 1 2
M  V30 2 1 2 3
M  V30 3 1 3 4
M  V30 4 1 4 5
M  V30 5 1 5 6
M  V30 6 2 6 7
M  V30 7 1 7 8
M  V30 8 1 8 9
M  V30 9 1 9 10
M  V30 10 1 10 11
M  V30 11 2 11 12
M  V30 12 1 12 13
M  V30 13 2 13 14
M  V30 14 1 14 15
M  V30 15 1 14 16
M  V30 16 1 16 17
M  V30 17 2 16 18
M  V30 18 1 18 19
M  V30 19 2 19 20
M  V30 20 1 20 21
M  V30 21 2 8 22
M  V30 22 1 22 23
M  V30 23 2 23 24
M  V30 24 1 24 25
M  V30 25 1 25 26
M  V30 26 2 26 27
M  V30 27 1 27 28
M  V30 28 2 28 29
M  V30 29 1 29 30
M  V30 30 1 30 31
M  V30 31 2 30 32
M  V30 32 1 25 33
M  V30 33 2 33 34
M  V30 34 1 34 6
M  V30 35 1 21 11
M  V30 36 1 33 22
M  V30 37 1 20 13
M  V30 38 1 32 26
M  V30 39 1 1 35
M  V30 40 1 1 36
M  V30 41 1 1 37
M  V30 42 1 2 38
M  V30 43 1 2 39
M  V30 44 1 3 40
M  V30 45 1 3 41
M  V30 46 1 4 42
M  V30 47 1 4 43
M  V30 48 1 5 44
M  V30 49 1 9 45
M  V30 50 1 10 46
M  V30 51 1 10 47
M  V30 52 1 18 48
M  V30 53 1 19 49
M  V30 54 1 21 50
M  V30 55 1 24 51
M  V30 56 1 27 52
M  V30 57 1 28 53
M  V30 58 1 29 54
M  V30 59 1 32 55
M  V30 END BOND
M  V30 END CTAB
M  END
>  <Dataset>  (350) 
ChEMBL_Kinases

>  <Ligand_Instance>  (350) 
nan

>  <PDB_ID>  (350) 
nan

>  <Standardized_SMILES>  (350) 
CCCCNc1nc(NCc2nc3c(F)c(F)ccc3[nH]2)c2ncn(-c3cccc(F)c3)c2n1

>  <Name>  (350) 
nan

>  <Pocket>  (350) 
nan

>  <ATP_Site>  (350) 
nan

>  <Peripheral>  (350) 
nan

>  <Num_H_Atoms_ProtBoundConf>  (350) 
nan

>  <Num_Resolved_Atoms>  (350) 
nan

>  <Num_Not_Resolved_Atoms>  (350) 
nan

$$$$
CHEMBL374431
     RDKit          3D

  0  0  0  0  0  0  0  0  0  0999 V3000
M  V30 BEGIN CTAB
M  V30 COUNTS 54 56 0 0 0
M  V30 BEGIN ATOM
M  V30 1 C 5.152841 -5.041291 0.601653 0
M  V30 2 S 5.927754 -3.965012 -0.610276 0
M  V30 3 O 7.365865 -3.730972 -0.244379 0
M  V30 4 O 5.858390 -4.700589 -1.931968 0
M  V30 5 C 5.026921 -2.468681 -0.711623 0
M  V30 6 C 5.324435 -1.375190 0.070067 0
M  V30 7 C 4.605855 -0.204832 -0.024421 0
M  V30 8 C 3.563738 -0.130689 -0.925116 0
M  V30 9 C 2.664289 1.016392 -1.195665 0
M  V30 10 N 1.481408 1.017896 -0.369338 0
M  V30 11 C 1.368578 1.389371 0.988456 0
M  V30 12 O 2.456939 1.767915 1.531982 0
M  V30 13 C 0.108692 1.348121 1.725547 0
M  V30 14 C 0.150693 1.746894 3.047770 0
M  V30 15 C -0.951636 1.771292 3.893777 0
M  V30 16 N -0.888438 2.183818 5.250928 0
M  V30 17 C -2.132288 1.347198 3.273337 0
M  V30 18 C -3.294754 1.366967 4.142200 0
M  V30 19 N -4.223372 1.390392 4.854204 0
M  V30 20 C -2.220435 0.936966 1.943808 0
M  V30 21 O -3.357410 0.584915 1.537224 0
M  V30 22 C -4.490866 0.197251 1.007945 0
M  V30 23 C -4.504680 -1.255198 0.475360 0
M  V30 24 C -5.837433 -1.593472 -0.103697 0
M  V30 25 C -5.743583 -1.303376 -1.565154 0
M  V30 26 C -4.293622 -1.622760 -1.914020 0
M  V30 27 C -3.524074 -1.460896 -0.628007 0
M  V30 28 N -1.082116 0.959165 1.231314 0
M  V30 29 C 3.252006 -1.220261 -1.717520 0
M  V30 30 C 3.975935 -2.398532 -1.622089 0
M  V30 31 H 4.800901 -4.474799 1.486538 0
M  V30 32 H 4.316465 -5.583868 0.111239 0
M  V30 33 H 5.853791 -5.820543 0.962902 0
M  V30 34 H 6.133635 -1.409265 0.781240 0
M  V30 35 H 4.774520 0.693679 0.548716 0
M  V30 36 H 2.433826 1.142207 -2.266052 0
M  V30 37 H 3.259275 1.929505 -0.888616 0
M  V30 38 H 0.601432 0.694601 -0.870016 0
M  V30 39 H 1.086443 2.067580 3.487917 0
M  V30 40 H -0.166541 1.525354 5.666244 0
M  V30 41 H -1.576665 2.969421 5.290800 0
M  V30 42 H -4.892338 0.854436 0.158961 0
M  V30 43 H -5.351197 0.182706 1.748005 0
M  V30 44 H -4.298942 -1.956814 1.302541 0
M  V30 45 H -6.601072 -0.957775 0.422389 0
M  V30 46 H -6.158140 -2.635218 0.103620 0
M  V30 47 H -6.434876 -1.979886 -2.097769 0
M  V30 48 H -5.920043 -0.227429 -1.744005 0
M  V30 49 H -4.219847 -2.641171 -2.343997 0
M  V30 50 H -3.910387 -0.870522 -2.633360 0
M  V30 51 H -2.981974 -2.435742 -0.455167 0
M  V30 52 H -2.803703 -0.601723 -0.686563 0
M  V30 53 H 2.445992 -1.273834 -2.466146 0
M  V30 54 H 3.760772 -3.267158 -2.223021 0
M  V30 END ATOM
M  V30 BEGIN BOND
M  V30 1 1 1 2
M  V30 2 2 2 3
M  V30 3 2 2 4
M  V30 4 1 2 5
M  V30 5 2 5 6
M  V30 6 1 6 7
M  V30 7 2 7 8
M  V30 8 1 8 9
M  V30 9 1 9 10
M  V30 10 1 10 11
M  V30 11 2 11 12
M  V30 12 1 11 13
M  V30 13 2 13 14
M  V30 14 1 14 15
M  V30 15 1 15 16
M  V30 16 2 15 17
M  V30 17 1 17 18
M  V30 18 3 18 19
M  V30 19 1 17 20
M  V30 20 1 20 21
M  V30 21 1 21 22
M  V30 22 1 22 23
M  V30 23 1 23 24
M  V30 24 1 24 25
M  V30 25 1 25 26
M  V30 26 1 26 27
M  V30 27 2 20 28
M  V30 28 1 8 29
M  V30 29 2 29 30
M  V30 30 1 30 5
M  V30 31 1 28 13
M  V30 32 1 27 23
M  V30 33 1 1 31
M  V30 34 1 1 32
M  V30 35 1 1 33
M  V30 36 1 6 34
M  V30 37 1 7 35
M  V30 38 1 9 36
M  V30 39 1 9 37
M  V30 40 1 10 38
M  V30 41 1 14 39
M  V30 42 1 16 40
M  V30 43 1 16 41
M  V30 44 1 22 42
M  V30 45 1 22 43
M  V30 46 1 23 44
M  V30 47 1 24 45
M  V30 48 1 24 46
M  V30 49 1 25 47
M  V30 50 1 25 48
M  V30 51 1 26 49
M  V30 52 1 26 50
M  V30 53 1 27 51
M  V30 54 1 27 52
M  V30 55 1 29 53
M  V30 56 1 30 54
M  V30 END BOND
M  V30 END CTAB
M  END
>  <Dataset>  (351) 
ChEMBL_Kinases

>  <Ligand_Instance>  (351) 
nan

>  <PDB_ID>  (351) 
nan

>  <Standardized_SMILES>  (351) 
CS(=O)(=O)c1ccc(CNC(=O)c2cc(N)c(C#N)c(OCC3CCCC3)n2)cc1

>  <Name>  (351) 
nan

>  <Pocket>  (351) 
nan

>  <ATP_Site>  (351) 
nan

>  <Peripheral>  (351) 
nan

>  <Num_H_Atoms_ProtBoundConf>  (351) 
nan

>  <Num_Resolved_Atoms>  (351) 
nan

>  <Num_Not_Resolved_Atoms>  (351) 
nan

$$$$
CHEMBL374447
     RDKit          3D

  0  0  0  0  0  0  0  0  0  0999 V3000
M  V30 BEGIN CTAB
M  V30 COUNTS 46 48 0 0 0
M  V30 BEGIN ATOM
M  V30 1 C 1.497686 -4.489252 5.238954 0
M  V30 2 S 3.133122 -4.350045 4.548370 0
M  V30 3 O 4.068936 -4.011878 5.675357 0
M  V30 4 O 3.537716 -5.652795 3.964974 0
M  V30 5 C 3.212478 -3.145666 3.279010 0
M  V30 6 C 2.926956 -3.558465 1.983292 0
M  V30 7 C 2.986357 -2.619016 0.978775 0
M  V30 8 C 3.315168 -1.268925 1.165238 0
M  V30 9 C 3.321910 -0.427560 -0.057209 0
M  V30 10 N 1.964723 0.100252 -0.216331 0
M  V30 11 C 1.421476 1.167625 0.526101 0
M  V30 12 O 2.062259 1.784148 1.411768 0
M  V30 13 C 0.037881 1.594498 0.263799 0
M  V30 14 C -0.537500 2.638401 0.958961 0
M  V30 15 C -1.856762 3.005331 0.671204 0
M  V30 16 N -2.475064 4.092159 1.385754 0
M  V30 17 C -2.590276 2.331338 -0.303976 0
M  V30 18 C -3.958999 2.698312 -0.614139 0
M  V30 19 N -5.053307 2.986650 -0.851139 0
M  V30 20 C -1.964186 1.282798 -0.979277 0
M  V30 21 C -2.673393 0.525465 -2.017244 0
M  V30 22 C -2.484607 -0.852651 -1.866738 0
M  V30 23 C -3.046052 -1.755318 -2.714002 0
M  V30 24 N -3.806614 -1.285726 -3.726361 0
M  V30 25 C -4.011395 0.030101 -3.903846 0
M  V30 26 C -3.452928 0.967463 -3.057999 0
M  V30 27 N -0.711802 0.970199 -0.673001 0
M  V30 28 C 3.588272 -0.914794 2.462459 0
M  V30 29 C 3.538916 -1.824620 3.490797 0
M  V30 30 H 1.488011 -4.387775 6.347685 0
M  V30 31 H 0.847976 -3.736435 4.754432 0
M  V30 32 H 1.070009 -5.513117 5.043659 0
M  V30 33 H 2.665141 -4.583473 1.760102 0
M  V30 34 H 2.752484 -2.989258 -0.032203 0
M  V30 35 H 4.058815 0.400245 0.014135 0
M  V30 36 H 3.563973 -1.044990 -0.934431 0
M  V30 37 H 1.331993 -0.348909 -0.944362 0
M  V30 38 H 0.032714 3.168557 1.722979 0
M  V30 39 H -3.099080 3.922669 2.211270 0
M  V30 40 H -2.473497 5.119945 1.299050 0
M  V30 41 H -1.883648 -1.326871 -1.074799 0
M  V30 42 H -2.918376 -2.841459 -2.624729 0
M  V30 43 H -4.611304 0.448598 -4.698332 0
M  V30 44 H -3.529429 2.043650 -3.077605 0
M  V30 45 H 3.842589 0.107981 2.610267 0
M  V30 46 H 3.758954 -1.503855 4.487232 0
M  V30 END ATOM
M  V30 BEGIN BOND
M  V30 1 1 1 2
M  V30 2 2 2 3
M  V30 3 2 2 4
M  V30 4 1 2 5
M  V30 5 2 5 6
M  V30 6 1 6 7
M  V30 7 2 7 8
M  V30 8 1 8 9
M  V30 9 1 9 10
M  V30 10 1 10 11
M  V30 11 2 11 12
M  V30 12 1 11 13
M  V30 13 2 13 14
M  V30 14 1 14 15
M  V30 15 1 15 16
M  V30 16 2 15 17
M  V30 17 1 17 18
M  V30 18 3 18 19
M  V30 19 1 17 20
M  V30 20 1 20 21
M  V30 21 2 21 22
M  V30 22 1 22 23
M  V30 23 2 23 24
M  V30 24 1 24 25
M  V30 25 2 25 26
M  V30 26 2 20 27
M  V30 27 1 8 28
M  V30 28 2 28 29
M  V30 29 1 29 5
M  V30 30 1 27 13
M  V30 31 1 26 21
M  V30 32 1 1 30
M  V30 33 1 1 31
M  V30 34 1 1 32
M  V30 35 1 6 33
M  V30 36 1 7 34
M  V30 37 1 9 35
M  V30 38 1 9 36
M  V30 39 1 10 37
M  V30 40 1 14 38
M  V30 41 1 16 39
M  V30 42 1 16 40
M  V30 43 1 22 41
M  V30 44 1 23 42
M  V30 45 1 25 43
M  V30 46 1 26 44
M  V30 47 1 28 45
M  V30 48 1 29 46
M  V30 END BOND
M  V30 END CTAB
M  END
>  <Dataset>  (352) 
ChEMBL_Kinases

>  <Ligand_Instance>  (352) 
nan

>  <PDB_ID>  (352) 
nan

>  <Standardized_SMILES>  (352) 
CS(=O)(=O)c1ccc(CNC(=O)c2cc(N)c(C#N)c(-c3ccncc3)n2)cc1

>  <Name>  (352) 
nan

>  <Pocket>  (352) 
nan

>  <ATP_Site>  (352) 
nan

>  <Peripheral>  (352) 
nan

>  <Num_H_Atoms_ProtBoundConf>  (352) 
nan

>  <Num_Resolved_Atoms>  (352) 
nan

>  <Num_Not_Resolved_Atoms>  (352) 
nan

$$$$
CHEMBL374611
     RDKit          3D

  0  0  0  0  0  0  0  0  0  0999 V3000
M  V30 BEGIN CTAB
M  V30 COUNTS 49 52 0 0 0
M  V30 BEGIN ATOM
M  V30 1 C 2.905045 -6.386527 -0.937613 0
M  V30 2 C 3.348863 -5.086775 -1.506555 0
M  V30 3 O 3.294898 -4.983279 -2.756448 0
M  V30 4 N 3.792252 -4.071871 -0.634865 0
M  V30 5 C 4.275954 -2.741944 -0.768206 0
M  V30 6 C 5.602151 -2.349873 -0.932551 0
M  V30 7 C 5.906027 -1.007044 -1.049787 0
M  V30 8 C 4.915199 -0.028445 -1.007966 0
M  V30 9 C 3.612368 -0.372189 -0.849461 0
M  V30 10 C 2.454851 0.539602 -0.799753 0
M  V30 11 C 2.258543 1.741622 -1.447227 0
M  V30 12 N 1.055234 2.239965 -1.115814 0
M  V30 13 C 0.434467 1.406013 -0.260816 0
M  V30 14 C -0.879642 1.381627 0.380549 0
M  V30 15 C -1.105016 1.267560 1.667699 0
M  V30 16 C -0.138125 1.150748 2.722139 0
M  V30 17 O 1.105876 1.162457 2.567138 0
M  V30 18 N -0.867707 1.028471 3.922005 0
M  V30 19 C -2.272052 1.065983 3.650964 0
M  V30 20 C -3.291990 0.970217 4.573393 0
M  V30 21 C -4.582889 1.022707 4.094200 0
M  V30 22 C -4.768603 1.166362 2.736620 0
M  V30 23 N -6.073198 1.225061 2.118057 0
M  V30 24 C -6.331985 -0.165146 1.835597 0
M  V30 25 N -7.468318 -0.794748 1.219930 0
M  V30 26 O -5.421342 -0.984032 2.177859 0
M  V30 27 C -3.724575 1.261026 1.829318 0
M  V30 28 C -2.424724 1.210487 2.288619 0
M  V30 29 C 1.295839 0.319175 -0.041493 0
M  V30 30 C 3.313401 -1.737696 -0.730861 0
M  V30 31 H 1.891490 -6.683571 -1.289945 0
M  V30 32 H 3.622138 -7.205419 -1.142984 0
M  V30 33 H 2.832373 -6.311301 0.185456 0
M  V30 34 H 3.846132 -4.137390 0.404762 0
M  V30 35 H 6.320585 -3.153243 -0.957484 0
M  V30 36 H 6.932939 -0.729379 -1.174638 0
M  V30 37 H 5.121517 1.021319 -1.096018 0
M  V30 38 H 2.965005 2.210767 -2.117707 0
M  V30 39 H 0.576455 3.120227 -1.411871 0
M  V30 40 H -1.684509 1.472552 -0.348323 0
M  V30 41 H -0.397458 0.926523 4.858848 0
M  V30 42 H -3.148035 0.859054 5.631753 0
M  V30 43 H -5.469008 0.962160 4.678300 0
M  V30 44 H -6.873309 1.815862 1.802522 0
M  V30 45 H -7.281355 -1.504808 0.474123 0
M  V30 46 H -8.484142 -0.969476 1.074047 0
M  V30 47 H -3.870968 1.373772 0.767056 0
M  V30 48 H 1.214621 -0.599676 0.563451 0
M  V30 49 H 2.257625 -2.024937 -0.600420 0
M  V30 END ATOM
M  V30 BEGIN BOND
M  V30 1 1 1 2
M  V30 2 2 2 3
M  V30 3 1 2 4
M  V30 4 1 4 5
M  V30 5 2 5 6
M  V30 6 1 6 7
M  V30 7 2 7 8
M  V30 8 1 8 9
M  V30 9 1 9 10
M  V30 10 2 10 11
M  V30 11 1 11 12
M  V30 12 1 12 13
M  V30 13 1 13 14
M  V30 14 2 14 15
M  V30 15 1 15 16
M  V30 16 2 16 17
M  V30 17 1 16 18
M  V30 18 1 18 19
M  V30 19 2 19 20
M  V30 20 1 20 21
M  V30 21 2 21 22
M  V30 22 1 22 23
M  V30 23 1 23 24
M  V30 24 1 24 25
M  V30 25 2 24 26
M  V30 26 1 22 27
M  V30 27 2 27 28
M  V30 28 2 13 29
M  V30 29 2 9 30
M  V30 30 1 30 5
M  V30 31 1 29 10
M  V30 32 1 28 15
M  V30 33 1 28 19
M  V30 34 1 1 31
M  V30 35 1 1 32
M  V30 36 1 1 33
M  V30 37 1 4 34
M  V30 38 1 6 35
M  V30 39 1 7 36
M  V30 40 1 8 37
M  V30 41 1 11 38
M  V30 42 1 12 39
M  V30 43 1 14 40
M  V30 44 1 18 41
M  V30 45 1 20 42
M  V30 46 1 21 43
M  V30 47 1 23 44
M  V30 48 1 25 45
M  V30 49 1 25 46
M  V30 50 1 27 47
M  V30 51 1 29 48
M  V30 52 1 30 49
M  V30 END BOND
M  V30 END CTAB
M  END
>  <Dataset>  (353) 
ChEMBL_Kinases

>  <Ligand_Instance>  (353) 
nan

>  <PDB_ID>  (353) 
nan

>  <Standardized_SMILES>  (353) 
CC(=O)Nc1cccc(-c2c[nH]c(/C=C3\C(=O)Nc4ccc(NC(N)=O)cc43)c2)c1

>  <Name>  (353) 
nan

>  <Pocket>  (353) 
nan

>  <ATP_Site>  (353) 
nan

>  <Peripheral>  (353) 
nan

>  <Num_H_Atoms_ProtBoundConf>  (353) 
nan

>  <Num_Resolved_Atoms>  (353) 
nan

>  <Num_Not_Resolved_Atoms>  (353) 
nan

$$$$
CHEMBL4218827
     RDKit          3D

  0  0  0  0  0  0  0  0  0  0999 V3000
M  V30 BEGIN CTAB
M  V30 COUNTS 53 58 0 0 0
M  V30 BEGIN ATOM
M  V30 1 Cl 5.301611 -2.333802 7.540549 0
M  V30 2 C 4.560111 -2.740382 5.994307 0
M  V30 3 C 4.744528 -1.934425 4.880862 0
M  V30 4 C 4.103760 -2.379148 3.743252 0
M  V30 5 N 4.061679 -1.852443 2.489242 0
M  V30 6 C 3.306396 -2.635559 1.698923 0
M  V30 7 C 3.062657 -2.325599 0.248105 0
M  V30 8 N 1.938049 -1.528284 -0.017116 0
M  V30 9 C 0.824962 -0.739085 -0.279597 0
M  V30 10 N 0.464235 0.500094 0.089325 0
M  V30 11 C -0.682912 1.069123 -0.289066 0
M  V30 12 N -0.870096 2.374008 0.213386 0
M  V30 13 C 0.090248 3.047757 1.058631 0
M  V30 14 C -0.663178 3.330781 2.366916 0
M  V30 15 O -1.804880 4.045000 2.064943 0
M  V30 16 C -2.723660 3.370358 1.282853 0
M  V30 17 C -2.057810 3.142413 -0.081590 0
M  V30 18 N -1.480854 0.345452 -1.067132 0
M  V30 19 C -1.247324 -0.896950 -1.508276 0
M  V30 20 C -0.041650 -1.488462 -1.107617 0
M  V30 21 N -0.093279 -2.701086 -1.694871 0
M  V30 22 C -1.244618 -2.788624 -2.378208 0
M  V30 23 N -1.992053 -1.677224 -2.283626 0
M  V30 24 C -3.257187 -1.438501 -2.882711 0
M  V30 25 C -4.025028 -2.519377 -3.306133 0
M  V30 26 C -5.255040 -2.211577 -3.886187 0
M  V30 27 C -5.662299 -0.899672 -4.019996 0
M  V30 28 N -4.908707 0.124103 -3.606053 0
M  V30 29 C -3.698068 -0.126493 -3.032587 0
M  V30 30 N 2.843825 -3.678847 2.411284 0
M  V30 31 C 3.332050 -3.518064 3.654589 0
M  V30 32 C 3.168821 -4.297631 4.780596 0
M  V30 33 C 3.793561 -3.886973 5.938902 0
M  V30 34 Cl 3.560555 -4.913833 7.362224 0
M  V30 35 H 5.341167 -1.042867 4.925726 0
M  V30 36 H 2.931124 -3.328930 -0.290415 0
M  V30 37 H 4.040693 -1.977472 -0.202188 0
M  V30 38 H 2.439858 -0.800682 0.582216 0
M  V30 39 H 0.230299 4.065264 0.609574 0
M  V30 40 H 1.015423 2.502163 1.235184 0
M  V30 41 H -0.822420 2.413601 2.950663 0
M  V30 42 H -0.021194 3.997793 2.974962 0
M  V30 43 H -3.629876 3.989448 1.211837 0
M  V30 44 H -2.932578 2.347265 1.710355 0
M  V30 45 H -1.809717 4.160885 -0.483634 0
M  V30 46 H -2.735975 2.641121 -0.797983 0
M  V30 47 H -1.471052 -3.710747 -2.929328 0
M  V30 48 H -3.624213 -3.515452 -3.161102 0
M  V30 49 H -5.866420 -3.049037 -4.222788 0
M  V30 50 H -6.607670 -0.649394 -4.466135 0
M  V30 51 H -3.139283 0.737384 -2.721137 0
M  V30 52 H 2.232412 -4.448435 2.059142 0
M  V30 53 H 2.567081 -5.182938 4.704530 0
M  V30 END ATOM
M  V30 BEGIN BOND
M  V30 1 1 1 2
M  V30 2 2 2 3
M  V30 3 1 3 4
M  V30 4 1 4 5
M  V30 5 2 5 6
M  V30 6 1 6 7
M  V30 7 1 7 8
M  V30 8 1 8 9
M  V30 9 2 9 10
M  V30 10 1 10 11
M  V30 11 1 11 12
M  V30 12 1 12 13
M  V30 13 1 13 14
M  V30 14 1 14 15
M  V30 15 1 15 16
M  V30 16 1 16 17
M  V30 17 2 11 18
M  V30 18 1 18 19
M  V30 19 2 19 20
M  V30 20 1 20 21
M  V30 21 2 21 22
M  V30 22 1 22 23
M  V30 23 1 23 24
M  V30 24 2 24 25
M  V30 25 1 25 26
M  V30 26 2 26 27
M  V30 27 1 27 28
M  V30 28 2 28 29
M  V30 29 1 6 30
M  V30 30 1 30 31
M  V30 31 1 31 32
M  V30 32 2 32 33
M  V30 33 1 33 34
M  V30 34 1 33 2
M  V30 35 2 31 4
M  V30 36 1 20 9
M  V30 37 1 29 24
M  V30 38 1 17 12
M  V30 39 1 23 19
M  V30 40 1 3 35
M  V30 41 1 7 36
M  V30 42 1 7 37
M  V30 43 1 8 38
M  V30 44 1 13 39
M  V30 45 1 13 40
M  V30 46 1 14 41
M  V30 47 1 14 42
M  V30 48 1 16 43
M  V30 49 1 16 44
M  V30 50 1 17 45
M  V30 51 1 17 46
M  V30 52 1 22 47
M  V30 53 1 25 48
M  V30 54 1 26 49
M  V30 55 1 27 50
M  V30 56 1 29 51
M  V30 57 1 30 52
M  V30 58 1 32 53
M  V30 END BOND
M  V30 END CTAB
M  END
>  <Dataset>  (354) 
ChEMBL_Kinases

>  <Ligand_Instance>  (354) 
nan

>  <PDB_ID>  (354) 
nan

>  <Standardized_SMILES>  (354) 
Clc1cc2nc(CNc3nc(N4CCOCC4)nc4c3ncn4-c3cccnc3)[nH]c2cc1Cl

>  <Name>  (354) 
nan

>  <Pocket>  (354) 
nan

>  <ATP_Site>  (354) 
nan

>  <Peripheral>  (354) 
nan

>  <Num_H_Atoms_ProtBoundConf>  (354) 
nan

>  <Num_Resolved_Atoms>  (354) 
nan

>  <Num_Not_Resolved_Atoms>  (354) 
nan

$$$$
CHEMBL4218717
     RDKit          3D

  0  0  0  0  0  0  0  0  0  0999 V3000
M  V30 BEGIN CTAB
M  V30 COUNTS 53 58 0 0 0
M  V30 BEGIN ATOM
M  V30 1 F 5.404646 -6.762864 0.177177 0
M  V30 2 C 4.391777 -5.987854 0.634108 0
M  V30 3 C 4.408769 -4.640148 0.338830 0
M  V30 4 C 3.387900 -3.816812 0.790447 0
M  V30 5 N 3.257493 -2.415314 0.574132 0
M  V30 6 C 4.233375 -1.499863 0.737431 0
M  V30 7 N 3.668440 -0.314952 0.424018 0
M  V30 8 C 2.379906 -0.482656 0.075529 0
M  V30 9 C 1.417217 0.453540 -0.320195 0
M  V30 10 N 1.769929 1.824938 -0.400279 0
M  V30 11 C 0.879869 2.901000 -0.787916 0
M  V30 12 C -0.262074 3.033363 0.177164 0
M  V30 13 N -0.122391 3.843449 1.268014 0
M  V30 14 C -1.245985 3.831131 2.005078 0
M  V30 15 C -1.592056 4.474438 3.178519 0
M  V30 16 F -0.706917 5.292003 3.779380 0
M  V30 17 C -2.861215 4.243079 3.693086 0
M  V30 18 F -3.194348 4.876823 4.843845 0
M  V30 19 C -3.720932 3.388481 3.020971 0
M  V30 20 C -3.390191 2.740046 1.850330 0
M  V30 21 C -2.123807 2.986887 1.360274 0
M  V30 22 N -1.502083 2.522602 0.263389 0
M  V30 23 N 0.200329 -0.040429 -0.606548 0
M  V30 24 C -0.092694 -1.348694 -0.523932 0
M  V30 25 N -1.368000 -1.892955 -0.828168 0
M  V30 26 C -2.505149 -1.180032 -1.338171 0
M  V30 27 C -3.595440 -1.301920 -0.295925 0
M  V30 28 O -3.978574 -2.653173 -0.321688 0
M  V30 29 C -2.980241 -3.518151 0.052116 0
M  V30 30 C -1.656107 -3.286336 -0.639332 0
M  V30 31 N 0.871471 -2.202363 -0.138103 0
M  V30 32 C 2.117697 -1.828207 0.171995 0
M  V30 33 C 2.383220 -4.421882 1.534064 0
M  V30 34 C 2.386725 -5.777540 1.818461 0
M  V30 35 N 3.400206 -6.553428 1.361342 0
M  V30 36 H 5.178467 -4.140992 -0.238390 0
M  V30 37 H 5.266562 -1.669999 1.055743 0
M  V30 38 H 2.750920 2.096045 -0.162245 0
M  V30 39 H 1.404923 3.849470 -0.873585 0
M  V30 40 H 0.444427 2.655589 -1.793851 0
M  V30 41 H -4.705976 3.217441 3.432820 0
M  V30 42 H -4.050723 2.076500 1.323775 0
M  V30 43 H -1.830901 1.879207 -0.458558 0
M  V30 44 H -2.279644 -0.144216 -1.632717 0
M  V30 45 H -2.898237 -1.753670 -2.229367 0
M  V30 46 H -4.501742 -0.723355 -0.552691 0
M  V30 47 H -3.225881 -1.058741 0.730348 0
M  V30 48 H -3.311246 -4.536511 -0.290084 0
M  V30 49 H -2.899530 -3.596512 1.150490 0
M  V30 50 H -1.648854 -3.774808 -1.639780 0
M  V30 51 H -0.880173 -3.794547 -0.026785 0
M  V30 52 H 1.537530 -3.852231 1.931945 0
M  V30 53 H 1.575384 -6.228859 2.411092 0
M  V30 END ATOM
M  V30 BEGIN BOND
M  V30 1 1 1 2
M  V30 2 2 2 3
M  V30 3 1 3 4
M  V30 4 1 4 5
M  V30 5 1 5 6
M  V30 6 2 6 7
M  V30 7 1 7 8
M  V30 8 2 8 9
M  V30 9 1 9 10
M  V30 10 1 10 11
M  V30 11 1 11 12
M  V30 12 2 12 13
M  V30 13 1 13 14
M  V30 14 2 14 15
M  V30 15 1 15 16
M  V30 16 1 15 17
M  V30 17 1 17 18
M  V30 18 2 17 19
M  V30 19 1 19 20
M  V30 20 2 20 21
M  V30 21 1 21 22
M  V30 22 1 9 23
M  V30 23 2 23 24
M  V30 24 1 24 25
M  V30 25 1 25 26
M  V30 26 1 26 27
M  V30 27 1 27 28
M  V30 28 1 28 29
M  V30 29 1 29 30
M  V30 30 1 24 31
M  V30 31 2 31 32
M  V30 32 2 4 33
M  V30 33 1 33 34
M  V30 34 2 34 35
M  V30 35 1 35 2
M  V30 36 1 32 5
M  V30 37 1 32 8
M  V30 38 1 22 12
M  V30 39 1 30 25
M  V30 40 1 21 14
M  V30 41 1 3 36
M  V30 42 1 6 37
M  V30 43 1 10 38
M  V30 44 1 11 39
M  V30 45 1 11 40
M  V30 46 1 19 41
M  V30 47 1 20 42
M  V30 48 1 22 43
M  V30 49 1 26 44
M  V30 50 1 26 45
M  V30 51 1 27 46
M  V30 52 1 27 47
M  V30 53 1 29 48
M  V30 54 1 29 49
M  V30 55 1 30 50
M  V30 56 1 30 51
M  V30 57 1 33 52
M  V30 58 1 34 53
M  V30 END BOND
M  V30 END CTAB
M  END
>  <Dataset>  (355) 
ChEMBL_Kinases

>  <Ligand_Instance>  (355) 
nan

>  <PDB_ID>  (355) 
nan

>  <Standardized_SMILES>  (355) 
Fc1cc(-n2cnc3c(NCc4nc5c(F)c(F)ccc5[nH]4)nc(N4CCOCC4)nc32)ccn1

>  <Name>  (355) 
nan

>  <Pocket>  (355) 
nan

>  <ATP_Site>  (355) 
nan

>  <Peripheral>  (355) 
nan

>  <Num_H_Atoms_ProtBoundConf>  (355) 
nan

>  <Num_Resolved_Atoms>  (355) 
nan

>  <Num_Not_Resolved_Atoms>  (355) 
nan

$$$$
CHEMBL4218705
     RDKit          3D

  0  0  0  0  0  0  0  0  0  0999 V3000
M  V30 BEGIN CTAB
M  V30 COUNTS 68 72 0 0 0
M  V30 BEGIN ATOM
M  V30 1 C 1.955862 -4.388263 3.229884 0
M  V30 2 C 3.334992 -4.104839 3.741509 0
M  V30 3 N 4.125808 -3.238527 2.924453 0
M  V30 4 C 3.657624 -1.882967 2.878925 0
M  V30 5 C 3.340630 -1.405860 1.488964 0
M  V30 6 N 4.426681 -1.615839 0.559952 0
M  V30 7 C 3.937344 -1.576298 -0.824132 0
M  V30 8 C 3.293842 -0.246581 -1.048244 0
M  V30 9 C 3.962489 0.873833 -1.484971 0
M  V30 10 C 3.249920 2.036253 -1.651025 0
M  V30 11 C 1.901723 2.177241 -1.414031 0
M  V30 12 N 1.262612 3.427133 -1.610560 0
M  V30 13 C -0.108012 3.735787 -1.442091 0
M  V30 14 C -1.100305 2.865571 -1.098495 0
M  V30 15 C -2.427059 3.172777 -0.926973 0
M  V30 16 C -3.471497 2.228723 -0.558460 0
M  V30 17 C -4.752311 2.723977 -0.425786 0
M  V30 18 C -5.808721 1.894687 -0.082701 0
M  V30 19 F -7.072455 2.351176 0.055424 0
M  V30 20 C -5.627690 0.546672 0.139962 0
M  V30 21 N -6.487226 -0.454930 0.479803 0
M  V30 22 C -5.704578 -1.566159 0.550334 0
M  V30 23 C -6.324637 -2.862577 0.902499 0
M  V30 24 N -4.421156 -1.278708 0.270007 0
M  V30 25 C -3.327508 -2.211645 0.249380 0
M  V30 26 C -2.523278 -2.085707 -1.044427 0
M  V30 27 C -2.435673 -2.119509 1.469844 0
M  V30 28 C -4.329501 0.039787 0.006485 0
M  V30 29 C -3.288667 0.881992 -0.336242 0
M  V30 30 N -2.780438 4.474541 -1.119923 0
M  V30 31 C -1.808249 5.370054 -1.465040 0
M  V30 32 N -0.529262 5.004019 -1.617033 0
M  V30 33 N 1.322583 1.044517 -0.992431 0
M  V30 34 N 1.980388 -0.084369 -0.824057 0
M  V30 35 C 5.193798 -2.794739 0.799497 0
M  V30 36 C 4.431864 -3.793096 1.638663 0
M  V30 37 H 1.598792 -5.332475 3.726848 0
M  V30 38 H 1.885438 -4.564369 2.153038 0
M  V30 39 H 1.233368 -3.594544 3.538307 0
M  V30 40 H 3.869857 -5.092043 3.758272 0
M  V30 41 H 3.259223 -3.779560 4.789139 0
M  V30 42 H 4.392227 -1.189634 3.340334 0
M  V30 43 H 2.732330 -1.817413 3.485591 0
M  V30 44 H 3.174565 -0.308800 1.545134 0
M  V30 45 H 2.431692 -1.849857 1.060245 0
M  V30 46 H 4.745624 -1.773405 -1.536619 0
M  V30 47 H 3.198430 -2.398729 -0.910349 0
M  V30 48 H 5.009935 0.805849 -1.680823 0
M  V30 49 H 3.836676 2.879456 -1.997688 0
M  V30 50 H 1.884978 4.214104 -1.917246 0
M  V30 51 H -0.870182 1.834885 -0.937167 0
M  V30 52 H -5.001574 3.760661 -0.576233 0
M  V30 53 H -6.955827 -2.730626 1.814324 0
M  V30 54 H -5.581116 -3.669638 1.043422 0
M  V30 55 H -7.015196 -3.194111 0.086117 0
M  V30 56 H -3.743800 -3.260041 0.263646 0
M  V30 57 H -3.079053 -1.404049 -1.723215 0
M  V30 58 H -1.484082 -1.731503 -0.860768 0
M  V30 59 H -2.469063 -3.061659 -1.594806 0
M  V30 60 H -3.120725 -1.972091 2.343791 0
M  V30 61 H -1.742244 -1.250718 1.416659 0
M  V30 62 H -1.886695 -3.041601 1.667978 0
M  V30 63 H -2.306365 0.486322 -0.435955 0
M  V30 64 H -2.105175 6.410021 -1.617029 0
M  V30 65 H 6.213065 -2.595782 1.175746 0
M  V30 66 H 5.348721 -3.309233 -0.188800 0
M  V30 67 H 3.558164 -4.125307 1.069102 0
M  V30 68 H 5.120852 -4.663098 1.814810 0
M  V30 END ATOM
M  V30 BEGIN BOND
M  V30 1 1 1 2
M  V30 2 1 2 3
M  V30 3 1 3 4
M  V30 4 1 4 5
M  V30 5 1 5 6
M  V30 6 1 6 7
M  V30 7 1 7 8
M  V30 8 2 8 9
M  V30 9 1 9 10
M  V30 10 2 10 11
M  V30 11 1 11 12
M  V30 12 1 12 13
M  V30 13 2 13 14
M  V30 14 1 14 15
M  V30 15 1 15 16
M  V30 16 2 16 17
M  V30 17 1 17 18
M  V30 18 1 18 19
M  V30 19 2 18 20
M  V30 20 1 20 21
M  V30 21 2 21 22
M  V30 22 1 22 23
M  V30 23 1 22 24
M  V30 24 1 24 25
M  V30 25 1 25 26
M  V30 26 1 25 27
M  V30 27 1 24 28
M  V30 28 2 28 29
M  V30 29 2 15 30
M  V30 30 1 30 31
M  V30 31 2 31 32
M  V30 32 1 11 33
M  V30 33 2 33 34
M  V30 34 1 6 35
M  V30 35 1 35 36
M  V30 36 1 36 3
M  V30 37 1 34 8
M  V30 38 1 32 13
M  V30 39 1 29 16
M  V30 40 1 28 20
M  V30 41 1 1 37
M  V30 42 1 1 38
M  V30 43 1 1 39
M  V30 44 1 2 40
M  V30 45 1 2 41
M  V30 46 1 4 42
M  V30 47 1 4 43
M  V30 48 1 5 44
M  V30 49 1 5 45
M  V30 50 1 7 46
M  V30 51 1 7 47
M  V30 52 1 9 48
M  V30 53 1 10 49
M  V30 54 1 12 50
M  V30 55 1 14 51
M  V30 56 1 17 52
M  V30 57 1 23 53
M  V30 58 1 23 54
M  V30 59 1 23 55
M  V30 60 1 25 56
M  V30 61 1 26 57
M  V30 62 1 26 58
M  V30 63 1 26 59
M  V30 64 1 27 60
M  V30 65 1 27 61
M  V30 66 1 27 62
M  V30 67 1 29 63
M  V30 68 1 31 64
M  V30 69 1 35 65
M  V30 70 1 35 66
M  V30 71 1 36 67
M  V30 72 1 36 68
M  V30 END BOND
M  V30 END CTAB
M  END
>  <Dataset>  (356) 
ChEMBL_Kinases

>  <Ligand_Instance>  (356) 
nan

>  <PDB_ID>  (356) 
nan

>  <Standardized_SMILES>  (356) 
CCN1CCN(Cc2ccc(Nc3cc(-c4cc(F)c5nc(C)n(C(C)C)c5c4)ncn3)nn2)CC1

>  <Name>  (356) 
nan

>  <Pocket>  (356) 
nan

>  <ATP_Site>  (356) 
nan

>  <Peripheral>  (356) 
nan

>  <Num_H_Atoms_ProtBoundConf>  (356) 
nan

>  <Num_Resolved_Atoms>  (356) 
nan

>  <Num_Not_Resolved_Atoms>  (356) 
nan

$$$$
CHEMBL4218701
     RDKit          3D

  0  0  0  0  0  0  0  0  0  0999 V3000
M  V30 BEGIN CTAB
M  V30 COUNTS 84 91 0 0 0
M  V30 BEGIN ATOM
M  V30 1 C 2.907614 -6.652699 -1.951959 0
M  V30 2 S 1.601422 -6.045073 -0.889170 0
M  V30 3 C 0.192385 -5.375339 -1.778844 0 CFG=1
M  V30 4 C 0.614079 -4.166615 -2.492635 0
M  V30 5 O 0.451809 -4.433315 -3.700910 0
M  V30 6 N 1.103443 -2.928539 -2.075195 0
M  V30 7 C 1.476790 -1.835486 -2.883946 0
M  V30 8 C 1.496454 -1.788253 -4.254787 0
M  V30 9 C 1.846283 -0.715524 -5.028234 0
M  V30 10 C 2.224835 0.459519 -4.389935 0
M  V30 11 N 2.607917 1.643765 -4.886491 0
M  V30 12 N 2.859422 2.435782 -3.844221 0
M  V30 13 C 2.632047 1.743055 -2.702581 0
M  V30 14 C 2.786661 2.264723 -1.352286 0
M  V30 15 C 3.383239 1.689864 -0.255890 0
M  V30 16 C 3.434794 2.335466 0.941024 0
M  V30 17 C 2.890381 3.597181 1.106922 0
M  V30 18 C 2.290543 4.184067 0.018786 0
M  V30 19 C 2.231069 3.540937 -1.200017 0
M  V30 20 O 1.815991 5.437653 0.408857 0
M  V30 21 C 1.996908 5.617026 1.810298 0
M  V30 22 O 2.769994 4.498318 2.128014 0
M  V30 23 C 2.220810 0.461477 -2.996205 0
M  V30 24 C 1.855879 -0.658452 -2.286558 0
M  V30 25 C -0.429703 -6.374993 -2.732370 0
M  V30 26 C -1.780724 -5.742497 -2.946746 0
M  V30 27 N -2.164913 -5.258021 -1.655594 0
M  V30 28 C -2.708893 -3.894116 -1.818065 0
M  V30 29 C -3.241678 -3.403797 -0.545253 0
M  V30 30 O -3.021439 -4.471683 0.124116 0
M  V30 31 N -3.824965 -2.227737 -0.031663 0
M  V30 32 C -4.164574 -0.880319 -0.536900 0
M  V30 33 C -3.221897 -0.004568 0.269265 0
M  V30 34 C -3.236565 -0.053113 1.595403 0
M  V30 35 C -2.383362 0.734167 2.459838 0
M  V30 36 C -1.456787 1.635544 1.993436 0
M  V30 37 C -0.638447 2.384882 2.839996 0
M  V30 38 C -0.724087 2.252043 4.209348 0
M  V30 39 C 0.115625 3.021887 5.119919 0
M  V30 40 N 1.025969 3.906140 4.681016 0
M  V30 41 C 1.818946 4.637821 5.494632 0
M  V30 42 C 1.687017 4.467794 6.864707 0
M  V30 43 C 0.750866 3.557810 7.331292 0
M  V30 44 N -0.007120 2.861900 6.443603 0
M  V30 45 C -1.666434 1.335331 4.687370 0
M  V30 46 C -2.448922 0.621254 3.807948 0
M  V30 47 C -4.253401 -1.016142 2.083188 0
M  V30 48 C -4.208888 -2.345076 1.358563 0
M  V30 49 C -0.960922 -5.168000 -0.828824 0
M  V30 50 H 2.560233 -7.183149 -2.862328 0
M  V30 51 H 3.486276 -7.410535 -1.356553 0
M  V30 52 H 3.650395 -5.890153 -2.243139 0
M  V30 53 H 1.174679 -2.872950 -1.046184 0
M  V30 54 H 1.218497 -2.656252 -4.828860 0
M  V30 55 H 1.843055 -0.733689 -6.110565 0
M  V30 56 H 2.690382 1.887465 -5.910056 0
M  V30 57 H 3.787391 0.699042 -0.461284 0
M  V30 58 H 3.914162 1.839388 1.764998 0
M  V30 59 H 1.735987 4.078409 -2.015572 0
M  V30 60 H 2.487381 6.585167 1.956934 0
M  V30 61 H 1.015588 5.669782 2.331614 0
M  V30 62 H 1.866796 -0.613657 -1.187800 0
M  V30 63 H 0.118446 -6.359785 -3.674246 0
M  V30 64 H -0.485031 -7.386130 -2.319955 0
M  V30 65 H -2.529322 -6.514694 -3.289482 0
M  V30 66 H -1.779597 -4.925597 -3.672546 0
M  V30 67 H -1.901542 -3.224812 -2.184614 0
M  V30 68 H -3.545515 -3.996407 -2.539679 0
M  V30 69 H -3.843057 -0.833810 -1.596375 0
M  V30 70 H -5.211689 -0.646908 -0.355298 0
M  V30 71 H -2.522804 0.672847 -0.233351 0
M  V30 72 H -1.320298 1.804551 0.936339 0
M  V30 73 H 0.094818 3.098074 2.450938 0
M  V30 74 H 2.519140 5.321855 5.021243 0
M  V30 75 H 2.361042 5.091821 7.448800 0
M  V30 76 H 0.695380 3.472741 8.413815 0
M  V30 77 H -1.696344 1.266771 5.769381 0
M  V30 78 H -3.108646 -0.029874 4.344285 0
M  V30 79 H -5.246928 -0.524644 1.836682 0
M  V30 80 H -4.254210 -1.152460 3.178508 0
M  V30 81 H -5.246251 -2.787599 1.331890 0
M  V30 82 H -3.600789 -3.093018 1.916153 0
M  V30 83 H -0.959937 -5.932680 -0.049082 0
M  V30 84 H -0.846890 -4.118320 -0.426540 0
M  V30 END ATOM
M  V30 BEGIN BOND
M  V30 1 1 1 2
M  V30 2 1 3 2 CFG=1
M  V30 3 1 3 4
M  V30 4 2 4 5
M  V30 5 1 4 6
M  V30 6 1 6 7
M  V30 7 2 7 8
M  V30 8 1 8 9
M  V30 9 2 9 10
M  V30 10 1 10 11
M  V30 11 1 11 12
M  V30 12 2 12 13
M  V30 13 1 13 14
M  V30 14 2 14 15
M  V30 15 1 15 16
M  V30 16 2 16 17
M  V30 17 1 17 18
M  V30 18 2 18 19
M  V30 19 1 18 20
M  V30 20 1 20 21
M  V30 21 1 21 22
M  V30 22 1 13 23
M  V30 23 2 23 24
M  V30 24 1 3 25
M  V30 25 1 25 26
M  V30 26 1 26 27
M  V30 27 1 27 28
M  V30 28 1 28 29
M  V30 29 2 29 30
M  V30 30 1 29 31
M  V30 31 1 31 32
M  V30 32 1 32 33
M  V30 33 2 33 34
M  V30 34 1 34 35
M  V30 35 2 35 36
M  V30 36 1 36 37
M  V30 37 2 37 38
M  V30 38 1 38 39
M  V30 39 2 39 40
M  V30 40 1 40 41
M  V30 41 2 41 42
M  V30 42 1 42 43
M  V30 43 2 43 44
M  V30 44 1 38 45
M  V30 45 2 45 46
M  V30 46 1 34 47
M  V30 47 1 47 48
M  V30 48 1 27 49
M  V30 49 1 49 3
M  V30 50 1 24 7
M  V30 51 1 48 31
M  V30 52 1 23 10
M  V30 53 1 46 35
M  V30 54 1 19 14
M  V30 55 1 44 39
M  V30 56 1 22 17
M  V30 57 1 1 50
M  V30 58 1 1 51
M  V30 59 1 1 52
M  V30 60 1 6 53
M  V30 61 1 8 54
M  V30 62 1 9 55
M  V30 63 1 11 56
M  V30 64 1 15 57
M  V30 65 1 16 58
M  V30 66 1 19 59
M  V30 67 1 21 60
M  V30 68 1 21 61
M  V30 69 1 24 62
M  V30 70 1 25 63
M  V30 71 1 25 64
M  V30 72 1 26 65
M  V30 73 1 26 66
M  V30 74 1 28 67
M  V30 75 1 28 68
M  V30 76 1 32 69
M  V30 77 1 32 70
M  V30 78 1 33 71
M  V30 79 1 36 72
M  V30 80 1 37 73
M  V30 81 1 41 74
M  V30 82 1 42 75
M  V30 83 1 43 76
M  V30 84 1 45 77
M  V30 85 1 46 78
M  V30 86 1 47 79
M  V30 87 1 47 80
M  V30 88 1 48 81
M  V30 89 1 48 82
M  V30 90 1 49 83
M  V30 91 1 49 84
M  V30 END BOND
M  V30 END CTAB
M  END
>  <Dataset>  (357) 
ChEMBL_Kinases

>  <Ligand_Instance>  (357) 
nan

>  <PDB_ID>  (357) 
nan

>  <Standardized_SMILES>  (357) 
CS[C@@]1(C(=O)Nc2ccc3[nH]nc(-c4ccc5c(c4)OCO5)c3c2)CCN(CC(=O)N2CC=C(c3ccc(-c4ncccn4)cc3)CC2)C1

>  <Name>  (357) 
nan

>  <Pocket>  (357) 
nan

>  <ATP_Site>  (357) 
nan

>  <Peripheral>  (357) 
nan

>  <Num_H_Atoms_ProtBoundConf>  (357) 
nan

>  <Num_Resolved_Atoms>  (357) 
nan

>  <Num_Not_Resolved_Atoms>  (357) 
nan

$$$$
CHEMBL3746157
     RDKit          3D

  0  0  0  0  0  0  0  0  0  0999 V3000
M  V30 BEGIN CTAB
M  V30 COUNTS 25 27 0 0 0
M  V30 BEGIN ATOM
M  V30 1 N 1.300225 -4.189817 1.784341 0
M  V30 2 C 0.611209 -3.090126 2.361208 0
M  V30 3 O 0.104384 -3.232414 3.506195 0
M  V30 4 C 0.487116 -1.825612 1.657111 0
M  V30 5 N 0.985045 -1.567239 0.442417 0
M  V30 6 C 0.708628 -0.300655 0.048467 0
M  V30 7 C 1.153166 0.228500 -1.262117 0
M  V30 8 C 0.952720 1.479574 -1.799626 0
M  V30 9 C 1.493930 1.641033 -3.029516 0
M  V30 10 N 2.176684 0.662892 -3.685786 0
M  V30 11 S 2.029072 -0.661117 -2.380729 0
M  V30 12 C 0.006924 0.170308 1.127595 0
M  V30 13 C -0.539324 1.414715 1.302600 0
M  V30 14 C -1.222140 1.749414 2.446291 0
M  V30 15 C -1.380664 0.834957 3.463510 0
M  V30 16 C -0.808020 -0.389880 3.219662 0
M  V30 17 N -0.138354 -0.729077 2.106285 0
M  V30 18 H 1.915372 -4.087981 0.945946 0
M  V30 19 H 1.215287 -5.146966 2.181543 0
M  V30 20 H 0.448749 2.337482 -1.418130 0
M  V30 21 H 1.537233 2.456311 -3.735741 0
M  V30 22 H -0.483283 2.201746 0.591630 0
M  V30 23 H -1.666660 2.743982 2.602393 0
M  V30 24 H -1.912991 1.062939 4.380099 0
M  V30 25 H -0.888859 -1.167604 3.974314 0
M  V30 END ATOM
M  V30 BEGIN BOND
M  V30 1 1 1 2
M  V30 2 2 2 3
M  V30 3 1 2 4
M  V30 4 2 4 5
M  V30 5 1 5 6
M  V30 6 1 6 7
M  V30 7 2 7 8
M  V30 8 1 8 9
M  V30 9 2 9 10
M  V30 10 1 10 11
M  V30 11 2 6 12
M  V30 12 1 12 13
M  V30 13 2 13 14
M  V30 14 1 14 15
M  V30 15 2 15 16
M  V30 16 1 16 17
M  V30 17 1 17 4
M  V30 18 1 11 7
M  V30 19 1 17 12
M  V30 20 1 1 18
M  V30 21 1 1 19
M  V30 22 1 8 20
M  V30 23 1 9 21
M  V30 24 1 13 22
M  V30 25 1 14 23
M  V30 26 1 15 24
M  V30 27 1 16 25
M  V30 END BOND
M  V30 END CTAB
M  END
>  <Dataset>  (358) 
ChEMBL_Kinases

>  <Ligand_Instance>  (358) 
nan

>  <PDB_ID>  (358) 
nan

>  <Standardized_SMILES>  (358) 
NC(=O)c1nc(-c2ccns2)c2ccccn12

>  <Name>  (358) 
nan

>  <Pocket>  (358) 
nan

>  <ATP_Site>  (358) 
nan

>  <Peripheral>  (358) 
nan

>  <Num_H_Atoms_ProtBoundConf>  (358) 
nan

>  <Num_Resolved_Atoms>  (358) 
nan

>  <Num_Not_Resolved_Atoms>  (358) 
nan

$$$$
CHEMBL3676302
     RDKit          3D

  0  0  0  0  0  0  0  0  0  0999 V3000
M  V30 BEGIN CTAB
M  V30 COUNTS 48 51 0 0 0
M  V30 BEGIN ATOM
M  V30 1 N 0.781055 -2.882999 3.696078 0
M  V30 2 C 1.981927 -2.514964 2.932020 0 CFG=1
M  V30 3 C 1.775584 -3.023391 1.548458 0
M  V30 4 C 2.525619 -2.320282 0.472490 0
M  V30 5 C 3.427456 -1.223940 0.932806 0
M  V30 6 N 2.827726 -0.428164 1.957296 0
M  V30 7 C 2.875271 0.992411 1.908882 0
M  V30 8 C 3.465566 1.765469 2.891644 0
M  V30 9 C 3.447459 3.133592 2.730779 0
M  V30 10 N 2.888776 3.756505 1.673429 0
M  V30 11 C 2.299743 3.028645 0.688683 0
M  V30 12 C 2.308109 1.644745 0.833612 0
M  V30 13 N 1.666310 0.972785 -0.250708 0
M  V30 14 C 0.294612 0.806533 0.029466 0
M  V30 15 O 0.005729 1.298733 1.166936 0
M  V30 16 C -0.627388 0.138160 -0.920843 0
M  V30 17 C -0.211439 -0.357939 -2.124116 0
M  V30 18 S -1.762904 -1.027193 -2.791316 0
M  V30 19 C -2.724001 -0.497569 -1.272740 0
M  V30 20 C -4.176897 -0.739780 -1.110769 0
M  V30 21 C -4.743337 -0.290812 0.064300 0
M  V30 22 C -6.096363 -0.526631 0.194198 0
M  V30 23 C -6.844310 -1.164855 -0.773182 0
M  V30 24 C -6.218489 -1.590394 -1.927187 0
M  V30 25 C -4.865949 -1.373404 -2.095399 0
M  V30 26 N -1.900096 -0.006201 -0.640246 0
M  V30 27 C 2.160871 -1.040659 3.063363 0
M  V30 28 H 0.780014 -3.913984 3.899728 0
M  V30 29 H -0.030533 -2.684036 3.038152 0
M  V30 30 H 2.806056 -3.076715 3.430562 0
M  V30 31 H 0.673031 -3.071438 1.313048 0
M  V30 32 H 2.077196 -4.110689 1.563791 0
M  V30 33 H 3.174399 -3.049034 -0.095376 0
M  V30 34 H 1.794256 -1.971064 -0.305407 0
M  V30 35 H 3.745345 -0.640080 0.047196 0
M  V30 36 H 4.364411 -1.697195 1.319814 0
M  V30 37 H 3.916951 1.290572 3.743265 0
M  V30 38 H 3.887656 3.790865 3.456066 0
M  V30 39 H 1.868930 3.556238 -0.131101 0
M  V30 40 H 2.079386 0.621682 -1.155690 0
M  V30 41 H 0.797683 -0.324915 -2.513234 0
M  V30 42 H -4.120224 0.204813 0.796401 0
M  V30 43 H -6.534725 -0.162781 1.137131 0
M  V30 44 H -7.907585 -1.287597 -0.543040 0
M  V30 45 H -6.840839 -2.085598 -2.658762 0
M  V30 46 H -4.382142 -1.711819 -3.006850 0
M  V30 47 H 2.821036 -0.871567 3.962614 0
M  V30 48 H 1.213084 -0.501271 3.318480 0
M  V30 END ATOM
M  V30 BEGIN BOND
M  V30 1 1 1 2
M  V30 2 1 2 3
M  V30 3 1 3 4
M  V30 4 1 4 5
M  V30 5 1 5 6
M  V30 6 1 6 7
M  V30 7 2 7 8
M  V30 8 1 8 9
M  V30 9 2 9 10
M  V30 10 1 10 11
M  V30 11 2 11 12
M  V30 12 1 12 13
M  V30 13 1 13 14
M  V30 14 2 14 15
M  V30 15 1 14 16
M  V30 16 2 16 17
M  V30 17 1 17 18
M  V30 18 1 18 19
M  V30 19 1 19 20
M  V30 20 2 20 21
M  V30 21 1 21 22
M  V30 22 2 22 23
M  V30 23 1 23 24
M  V30 24 2 24 25
M  V30 25 2 19 26
M  V30 26 1 6 27
M  V30 27 1 27 2
M  V30 28 1 12 7
M  V30 29 1 26 16
M  V30 30 1 25 20
M  V30 31 1 1 28
M  V30 32 1 1 29
M  V30 33 1 2 30 CFG=1
M  V30 34 1 3 31
M  V30 35 1 3 32
M  V30 36 1 4 33
M  V30 37 1 4 34
M  V30 38 1 5 35
M  V30 39 1 5 36
M  V30 40 1 8 37
M  V30 41 1 9 38
M  V30 42 1 11 39
M  V30 43 1 13 40
M  V30 44 1 17 41
M  V30 45 1 21 42
M  V30 46 1 22 43
M  V30 47 1 23 44
M  V30 48 1 24 45
M  V30 49 1 25 46
M  V30 50 1 27 47
M  V30 51 1 27 48
M  V30 END BOND
M  V30 END CTAB
M  END
>  <Dataset>  (359) 
ChEMBL_Kinases

>  <Ligand_Instance>  (359) 
nan

>  <PDB_ID>  (359) 
nan

>  <Standardized_SMILES>  (359) 
N[C@H]1CCCN(c2ccncc2NC(=O)c2csc(-c3ccccc3)n2)C1

>  <Name>  (359) 
nan

>  <Pocket>  (359) 
nan

>  <ATP_Site>  (359) 
nan

>  <Peripheral>  (359) 
nan

>  <Num_H_Atoms_ProtBoundConf>  (359) 
nan

>  <Num_Resolved_Atoms>  (359) 
nan

>  <Num_Not_Resolved_Atoms>  (359) 
nan

$$$$
CHEMBL3676310
     RDKit          3D

  0  0  0  0  0  0  0  0  0  0999 V3000
M  V30 BEGIN CTAB
M  V30 COUNTS 53 56 0 0 0
M  V30 BEGIN ATOM
M  V30 1 C 1.580127 -2.578617 0.193517 0
M  V30 2 C 2.408108 -1.401991 0.708749 0 CFG=2
M  V30 3 C 1.795110 -0.817703 1.942213 0
M  V30 4 C 2.210585 0.540535 2.303285 0 CFG=2
M  V30 5 N 1.046741 1.153376 2.977031 0
M  V30 6 C 2.616180 1.476028 1.220336 0
M  V30 7 C 2.711882 0.979032 -0.156759 0 CFG=2
M  V30 8 C 2.022441 1.776740 -1.210809 0
M  V30 9 C 2.563780 2.800537 -2.004634 0
M  V30 10 C 1.814227 3.455064 -2.957578 0
M  V30 11 N 0.522420 3.132590 -3.163471 0
M  V30 12 C -0.015087 2.136403 -2.395110 0
M  V30 13 C 0.719731 1.451698 -1.417884 0
M  V30 14 N -0.143846 0.497418 -0.819091 0
M  V30 15 C -0.845496 1.100098 0.280794 0
M  V30 16 O -0.599420 2.309041 0.528405 0
M  V30 17 C -1.806953 0.350533 1.084495 0
M  V30 18 C -2.448915 1.029927 2.159838 0
M  V30 19 S -3.557201 -0.334776 2.855215 0
M  V30 20 C -2.914913 -1.536879 1.540310 0
M  V30 21 C -3.400153 -2.946703 1.473288 0
M  V30 22 C -2.875924 -3.741660 0.478582 0
M  V30 23 F -1.967012 -3.199602 -0.364200 0
M  V30 24 C -3.330796 -5.029646 0.432578 0
M  V30 25 C -4.254867 -5.539910 1.307279 0
M  V30 26 O -4.648438 -6.870292 1.168261 0
M  V30 27 C -4.757144 -4.702445 2.295153 0
M  V30 28 C -4.329982 -3.380776 2.389914 0
M  V30 29 F -4.833544 -2.582333 3.361500 0
M  V30 30 N -2.161629 -0.923963 0.923695 0
M  V30 31 C 2.717019 -0.489001 -0.395934 0
M  V30 32 H 0.503061 -2.427550 0.395509 0
M  V30 33 H 1.694051 -2.702104 -0.905787 0
M  V30 34 H 1.833295 -3.534803 0.694206 0
M  V30 35 H 3.353657 -1.908906 1.051466 0
M  V30 36 H 1.966902 -1.503815 2.807978 0
M  V30 37 H 0.694981 -0.897525 1.802376 0
M  V30 38 H 2.947271 0.474258 3.162253 0
M  V30 39 H 0.843418 0.714442 3.882553 0
M  V30 40 H 1.100485 2.179873 2.998341 0
M  V30 41 H 3.596693 1.916409 1.605805 0
M  V30 42 H 2.032873 2.452452 1.251226 0
M  V30 43 H 3.789006 1.243334 -0.456240 0
M  V30 44 H 3.621137 3.002667 -1.774733 0
M  V30 45 H 2.377434 4.226659 -3.492691 0
M  V30 46 H -1.068796 2.006112 -2.694529 0
M  V30 47 H -0.405910 -0.503119 -0.958029 0
M  V30 48 H -2.365634 2.042129 2.523944 0
M  V30 49 H -2.911155 -5.651916 -0.357154 0
M  V30 50 H -3.972282 -7.593686 0.949492 0
M  V30 51 H -5.478964 -5.128569 2.965829 0
M  V30 52 H 1.947334 -0.652732 -1.213855 0
M  V30 53 H 3.650175 -0.880315 -0.909325 0
M  V30 END ATOM
M  V30 BEGIN BOND
M  V30 1 1 1 2
M  V30 2 1 2 3
M  V30 3 1 3 4
M  V30 4 1 4 5
M  V30 5 1 4 6
M  V30 6 1 6 7
M  V30 7 1 7 8
M  V30 8 2 8 9
M  V30 9 1 9 10
M  V30 10 2 10 11
M  V30 11 1 11 12
M  V30 12 2 12 13
M  V30 13 1 13 14
M  V30 14 1 14 15
M  V30 15 2 15 16
M  V30 16 1 15 17
M  V30 17 2 17 18
M  V30 18 1 18 19
M  V30 19 1 19 20
M  V30 20 1 20 21
M  V30 21 2 21 22
M  V30 22 1 22 23
M  V30 23 1 22 24
M  V30 24 2 24 25
M  V30 25 1 25 26
M  V30 26 1 25 27
M  V30 27 2 27 28
M  V30 28 1 28 29
M  V30 29 2 20 30
M  V30 30 1 7 31
M  V30 31 1 31 2
M  V30 32 1 13 8
M  V30 33 1 30 17
M  V30 34 1 28 21
M  V30 35 1 1 32
M  V30 36 1 1 33
M  V30 37 1 1 34
M  V30 38 1 2 35 CFG=1
M  V30 39 1 3 36
M  V30 40 1 3 37
M  V30 41 1 4 38 CFG=1
M  V30 42 1 5 39
M  V30 43 1 5 40
M  V30 44 1 6 41
M  V30 45 1 6 42
M  V30 46 1 7 43 CFG=3
M  V30 47 1 9 44
M  V30 48 1 10 45
M  V30 49 1 12 46
M  V30 50 1 14 47
M  V30 51 1 18 48
M  V30 52 1 24 49
M  V30 53 1 26 50
M  V30 54 1 27 51
M  V30 55 1 31 52
M  V30 56 1 31 53
M  V30 END BOND
M  V30 END CTAB
M  END
>  <Dataset>  (360) 
ChEMBL_Kinases

>  <Ligand_Instance>  (360) 
nan

>  <PDB_ID>  (360) 
nan

>  <Standardized_SMILES>  (360) 
C[C@@H]1C[C@H](N)C[C@H](c2ccncc2NC(=O)c2csc(-c3c(F)cc(O)cc3F)n2)C1

>  <Name>  (360) 
nan

>  <Pocket>  (360) 
nan

>  <ATP_Site>  (360) 
nan

>  <Peripheral>  (360) 
nan

>  <Num_H_Atoms_ProtBoundConf>  (360) 
nan

>  <Num_Resolved_Atoms>  (360) 
nan

>  <Num_Not_Resolved_Atoms>  (360) 
nan

$$$$
CHEMBL3676309
     RDKit          3D

  0  0  0  0  0  0  0  0  0  0999 V3000
M  V30 BEGIN CTAB
M  V30 COUNTS 52 55 0 0 0
M  V30 BEGIN ATOM
M  V30 1 C 1.866446 -2.674444 0.571644 0
M  V30 2 C 2.393822 -1.428213 1.257965 0 CFG=2
M  V30 3 C 1.449504 -0.932383 2.306684 0
M  V30 4 C 1.706883 0.429558 2.817743 0 CFG=2
M  V30 5 N 0.453475 0.960951 3.333590 0
M  V30 6 C 2.270894 1.431748 1.869448 0
M  V30 7 C 2.725000 0.994058 0.550321 0 CFG=2
M  V30 8 C 2.258997 1.805874 -0.618296 0
M  V30 9 C 2.913088 2.878235 -1.227743 0
M  V30 10 C 2.375411 3.536119 -2.313331 0
M  V30 11 N 1.182246 3.159465 -2.829543 0
M  V30 12 C 0.537615 2.109498 -2.235559 0
M  V30 13 C 1.056757 1.421602 -1.132642 0
M  V30 14 N 0.132093 0.403950 -0.779957 0
M  V30 15 C -0.840903 0.925470 0.126041 0
M  V30 16 O -0.781803 2.140944 0.489231 0
M  V30 17 C -1.940782 0.151022 0.692079 0
M  V30 18 C -2.829038 0.792779 1.575785 0
M  V30 19 S -3.996915 -0.638556 1.971195 0
M  V30 20 C -3.022672 -1.795203 0.849358 0
M  V30 21 C -3.417056 -3.250802 0.655036 0
M  V30 22 C -2.598331 -3.968959 -0.201844 0
M  V30 23 F -1.543624 -3.360674 -0.788656 0
M  V30 24 C -2.974417 -5.277640 -0.360671 0
M  V30 25 C -4.065006 -5.834732 0.270418 0
M  V30 26 C -4.806981 -5.021484 1.101745 0
M  V30 27 Cl -6.209697 -5.731332 1.915484 0
M  V30 28 C -4.518765 -3.698563 1.331336 0
M  V30 29 F -5.235379 -2.896763 2.139759 0
M  V30 30 N -2.199705 -1.134869 0.453405 0
M  V30 31 C 2.866246 -0.458443 0.267474 0
M  V30 32 H 2.739115 -3.278571 0.183281 0
M  V30 33 H 1.384928 -3.279095 1.367781 0
M  V30 34 H 1.243398 -2.491225 -0.298508 0
M  V30 35 H 3.287137 -1.835598 1.825270 0
M  V30 36 H 0.424315 -1.002110 1.884212 0
M  V30 37 H 1.414569 -1.647854 3.155868 0
M  V30 38 H 2.320149 0.302687 3.763554 0
M  V30 39 H 0.239315 1.923888 3.030997 0
M  V30 40 H -0.374811 0.370130 3.119877 0
M  V30 41 H 1.608058 2.354208 1.790384 0
M  V30 42 H 3.097934 1.935145 2.473933 0
M  V30 43 H 3.827823 1.316198 0.518131 0
M  V30 44 H 3.869832 3.122193 -0.753978 0
M  V30 45 H 2.961489 4.341132 -2.698672 0
M  V30 46 H -0.406904 1.942935 -2.779896 0
M  V30 47 H -0.068569 -0.602876 -0.971494 0
M  V30 48 H -2.962781 1.751150 1.999171 0
M  V30 49 H -2.330436 -5.858316 -1.040010 0
M  V30 50 H -4.306373 -6.883128 0.098160 0
M  V30 51 H 3.905841 -0.780764 -0.052724 0
M  V30 52 H 2.282908 -0.634886 -0.689145 0
M  V30 END ATOM
M  V30 BEGIN BOND
M  V30 1 1 1 2
M  V30 2 1 2 3
M  V30 3 1 3 4
M  V30 4 1 4 5
M  V30 5 1 4 6
M  V30 6 1 6 7
M  V30 7 1 7 8
M  V30 8 2 8 9
M  V30 9 1 9 10
M  V30 10 2 10 11
M  V30 11 1 11 12
M  V30 12 2 12 13
M  V30 13 1 13 14
M  V30 14 1 14 15
M  V30 15 2 15 16
M  V30 16 1 15 17
M  V30 17 2 17 18
M  V30 18 1 18 19
M  V30 19 1 19 20
M  V30 20 1 20 21
M  V30 21 2 21 22
M  V30 22 1 22 23
M  V30 23 1 22 24
M  V30 24 2 24 25
M  V30 25 1 25 26
M  V30 26 1 26 27
M  V30 27 2 26 28
M  V30 28 1 28 29
M  V30 29 2 20 30
M  V30 30 1 7 31
M  V30 31 1 31 2
M  V30 32 1 13 8
M  V30 33 1 30 17
M  V30 34 1 28 21
M  V30 35 1 1 32
M  V30 36 1 1 33
M  V30 37 1 1 34
M  V30 38 1 2 35 CFG=1
M  V30 39 1 3 36
M  V30 40 1 3 37
M  V30 41 1 4 38 CFG=1
M  V30 42 1 5 39
M  V30 43 1 5 40
M  V30 44 1 6 41
M  V30 45 1 6 42
M  V30 46 1 7 43 CFG=1
M  V30 47 1 9 44
M  V30 48 1 10 45
M  V30 49 1 12 46
M  V30 50 1 14 47
M  V30 51 1 18 48
M  V30 52 1 24 49
M  V30 53 1 25 50
M  V30 54 1 31 51
M  V30 55 1 31 52
M  V30 END BOND
M  V30 END CTAB
M  END
>  <Dataset>  (361) 
ChEMBL_Kinases

>  <Ligand_Instance>  (361) 
nan

>  <PDB_ID>  (361) 
nan

>  <Standardized_SMILES>  (361) 
C[C@@H]1C[C@H](N)C[C@H](c2ccncc2NC(=O)c2csc(-c3c(F)ccc(Cl)c3F)n2)C1

>  <Name>  (361) 
nan

>  <Pocket>  (361) 
nan

>  <ATP_Site>  (361) 
nan

>  <Peripheral>  (361) 
nan

>  <Num_H_Atoms_ProtBoundConf>  (361) 
nan

>  <Num_Resolved_Atoms>  (361) 
nan

>  <Num_Not_Resolved_Atoms>  (361) 
nan

$$$$
CHEMBL3676308
     RDKit          3D

  0  0  0  0  0  0  0  0  0  0999 V3000
M  V30 BEGIN CTAB
M  V30 COUNTS 52 55 0 0 0
M  V30 BEGIN ATOM
M  V30 1 C 1.729608 -2.632255 0.348273 0
M  V30 2 C 2.359157 -1.497973 1.150914 0 CFG=2
M  V30 3 C 1.471531 -1.048035 2.268514 0
M  V30 4 C 1.776408 0.264979 2.855210 0 CFG=2
M  V30 5 N 0.547142 0.763642 3.462220 0
M  V30 6 C 2.322039 1.326144 1.968805 0
M  V30 7 C 2.771654 0.961536 0.620609 0 CFG=2
M  V30 8 C 2.312793 1.822910 -0.516440 0
M  V30 9 C 2.971844 2.909221 -1.078339 0
M  V30 10 C 2.452346 3.618613 -2.138838 0
M  V30 11 N 1.247856 3.262220 -2.676174 0
M  V30 12 C 0.603820 2.192182 -2.118398 0
M  V30 13 C 1.113701 1.458627 -1.041181 0
M  V30 14 N 0.183346 0.436633 -0.734071 0
M  V30 15 C -0.784632 0.957466 0.183692 0
M  V30 16 O -0.710356 2.151733 0.579315 0
M  V30 17 C -1.909525 0.172616 0.724560 0
M  V30 18 C -2.786795 0.794546 1.621095 0
M  V30 19 S -3.964959 -0.584545 1.971087 0
M  V30 20 C -3.026465 -1.751803 0.818338 0
M  V30 21 C -3.468986 -3.185903 0.596226 0
M  V30 22 C -2.678002 -3.908413 -0.277446 0
M  V30 23 F -1.607104 -3.325677 -0.857862 0
M  V30 24 C -3.092886 -5.197225 -0.463582 0
M  V30 25 C -4.204041 -5.722315 0.168693 0
M  V30 26 C -4.949470 -4.939625 1.031362 0
M  V30 27 F -6.028841 -5.511241 1.621538 0
M  V30 28 C -4.588157 -3.638247 1.262612 0
M  V30 29 F -5.296696 -2.857301 2.096848 0
M  V30 30 N -2.190238 -1.101841 0.443126 0
M  V30 31 C 2.886433 -0.472707 0.251156 0
M  V30 32 H 1.874435 -3.624600 0.823775 0
M  V30 33 H 0.634144 -2.459559 0.368481 0
M  V30 34 H 2.141659 -2.721739 -0.661056 0
M  V30 35 H 3.220596 -2.026898 1.663266 0
M  V30 36 H 0.438144 -1.065196 1.861097 0
M  V30 37 H 1.429155 -1.813613 3.074296 0
M  V30 38 H 2.429291 0.066667 3.760311 0
M  V30 39 H 0.254383 1.695287 3.111886 0
M  V30 40 H -0.265434 0.123506 3.344755 0
M  V30 41 H 1.641954 2.239538 1.959399 0
M  V30 42 H 3.149808 1.806405 2.590384 0
M  V30 43 H 3.877242 1.270368 0.607532 0
M  V30 44 H 3.930845 3.134711 -0.594663 0
M  V30 45 H 3.048603 4.437209 -2.489557 0
M  V30 46 H -0.337986 2.057259 -2.676859 0
M  V30 47 H -0.029943 -0.559376 -0.953483 0
M  V30 48 H -2.899682 1.748240 2.073273 0
M  V30 49 H -2.475391 -5.790408 -1.156900 0
M  V30 50 H -4.424539 -6.762992 -0.067568 0
M  V30 51 H 3.928235 -0.800492 -0.059053 0
M  V30 52 H 2.336298 -0.568822 -0.737488 0
M  V30 END ATOM
M  V30 BEGIN BOND
M  V30 1 1 1 2
M  V30 2 1 2 3
M  V30 3 1 3 4
M  V30 4 1 4 5
M  V30 5 1 4 6
M  V30 6 1 6 7
M  V30 7 1 7 8
M  V30 8 2 8 9
M  V30 9 1 9 10
M  V30 10 2 10 11
M  V30 11 1 11 12
M  V30 12 2 12 13
M  V30 13 1 13 14
M  V30 14 1 14 15
M  V30 15 2 15 16
M  V30 16 1 15 17
M  V30 17 2 17 18
M  V30 18 1 18 19
M  V30 19 1 19 20
M  V30 20 1 20 21
M  V30 21 2 21 22
M  V30 22 1 22 23
M  V30 23 1 22 24
M  V30 24 2 24 25
M  V30 25 1 25 26
M  V30 26 1 26 27
M  V30 27 2 26 28
M  V30 28 1 28 29
M  V30 29 2 20 30
M  V30 30 1 7 31
M  V30 31 1 31 2
M  V30 32 1 13 8
M  V30 33 1 30 17
M  V30 34 1 28 21
M  V30 35 1 1 32
M  V30 36 1 1 33
M  V30 37 1 1 34
M  V30 38 1 2 35 CFG=1
M  V30 39 1 3 36
M  V30 40 1 3 37
M  V30 41 1 4 38 CFG=1
M  V30 42 1 5 39
M  V30 43 1 5 40
M  V30 44 1 6 41
M  V30 45 1 6 42
M  V30 46 1 7 43 CFG=1
M  V30 47 1 9 44
M  V30 48 1 10 45
M  V30 49 1 12 46
M  V30 50 1 14 47
M  V30 51 1 18 48
M  V30 52 1 24 49
M  V30 53 1 25 50
M  V30 54 1 31 51
M  V30 55 1 31 52
M  V30 END BOND
M  V30 END CTAB
M  END
>  <Dataset>  (362) 
ChEMBL_Kinases

>  <Ligand_Instance>  (362) 
nan

>  <PDB_ID>  (362) 
nan

>  <Standardized_SMILES>  (362) 
C[C@@H]1C[C@H](N)C[C@H](c2ccncc2NC(=O)c2csc(-c3c(F)ccc(F)c3F)n2)C1

>  <Name>  (362) 
nan

>  <Pocket>  (362) 
nan

>  <ATP_Site>  (362) 
nan

>  <Peripheral>  (362) 
nan

>  <Num_H_Atoms_ProtBoundConf>  (362) 
nan

>  <Num_Resolved_Atoms>  (362) 
nan

>  <Num_Not_Resolved_Atoms>  (362) 
nan

$$$$
CHEMBL3676307
     RDKit          3D

  0  0  0  0  0  0  0  0  0  0999 V3000
M  V30 BEGIN CTAB
M  V30 COUNTS 59 62 0 0 0
M  V30 BEGIN ATOM
M  V30 1 C 3.201639 -6.897514 2.835824 0
M  V30 2 C 1.842334 -6.474932 2.343881 0
M  V30 3 O 1.891031 -5.160574 1.908386 0
M  V30 4 C 2.648052 -4.611369 0.911810 0
M  V30 5 C 3.555922 -5.298144 0.105060 0
M  V30 6 C 4.299866 -4.702158 -0.890563 0
M  V30 7 C 4.131752 -3.348203 -1.095448 0
M  V30 8 F 4.857095 -2.766986 -2.066615 0
M  V30 9 C 3.247068 -2.682947 -0.308392 0
M  V30 10 C 3.087567 -1.173512 -0.566799 0
M  V30 11 N 2.351558 -0.360782 -0.001852 0
M  V30 12 C 2.324298 0.922712 -0.341893 0
M  V30 13 C 1.453758 1.888023 0.319596 0
M  V30 14 O 1.429950 3.101756 0.013966 0
M  V30 15 N 0.558706 1.529592 1.367223 0
M  V30 16 C -0.332452 2.374477 2.078865 0
M  V30 17 C 0.244362 3.001109 3.175179 0
M  V30 18 N -0.512434 3.825355 3.932756 0
M  V30 19 C -1.795010 3.996114 3.581270 0
M  V30 20 C -2.345050 3.362223 2.487585 0
M  V30 21 C -1.619769 2.493652 1.657046 0
M  V30 22 C -2.274855 1.867231 0.544438 0 CFG=2
M  V30 23 C -2.867325 0.524793 0.996681 0
M  V30 24 C -3.886841 0.134768 -0.035221 0 CFG=2
M  V30 25 C -3.817153 -1.351361 -0.330222 0
M  V30 26 C -3.911018 0.979830 -1.258696 0
M  V30 27 C -2.577118 1.360668 -1.817925 0 CFG=2
M  V30 28 N -2.125275 0.344192 -2.745742 0
M  V30 29 C -1.550925 1.622757 -0.709890 0
M  V30 30 C 3.201633 1.315715 -1.407081 0
M  V30 31 S 4.000903 -0.342135 -1.797612 0
M  V30 32 C 2.502584 -3.237829 0.675932 0
M  V30 33 F 1.643875 -2.516950 1.418126 0
M  V30 34 H 3.182552 -7.195016 3.909562 0
M  V30 35 H 3.913874 -6.080115 2.640756 0
M  V30 36 H 3.524060 -7.770566 2.207848 0
M  V30 37 H 1.533179 -7.091408 1.448313 0
M  V30 38 H 1.041851 -6.676477 3.082596 0
M  V30 39 H 3.674192 -6.362433 0.278678 0
M  V30 40 H 4.996554 -5.270229 -1.497454 0
M  V30 41 H 0.540806 0.510407 1.667314 0
M  V30 42 H 1.278638 2.863386 3.458480 0
M  V30 43 H -2.355822 4.660334 4.213424 0
M  V30 44 H -3.395413 3.597505 2.327149 0
M  V30 45 H -3.196228 2.472819 0.280687 0
M  V30 46 H -2.022168 -0.196561 0.970115 0
M  V30 47 H -3.300832 0.618245 2.028414 0
M  V30 48 H -4.888223 0.281787 0.466231 0
M  V30 49 H -2.765019 -1.734490 -0.213147 0
M  V30 50 H -4.392434 -1.916876 0.460432 0
M  V30 51 H -4.265605 -1.595579 -1.307906 0
M  V30 52 H -4.558085 1.892707 -1.144515 0
M  V30 53 H -4.433343 0.389059 -2.062571 0
M  V30 54 H -2.754011 2.271608 -2.439303 0
M  V30 55 H -2.329830 0.579954 -3.738081 0
M  V30 56 H -2.476778 -0.600566 -2.559888 0
M  V30 57 H -0.978776 0.695688 -0.640445 0
M  V30 58 H -1.028082 2.522799 -1.018982 0
M  V30 59 H 3.265084 2.399510 -1.787831 0
M  V30 END ATOM
M  V30 BEGIN BOND
M  V30 1 1 1 2
M  V30 2 1 2 3
M  V30 3 1 3 4
M  V30 4 2 4 5
M  V30 5 1 5 6
M  V30 6 2 6 7
M  V30 7 1 7 8
M  V30 8 1 7 9
M  V30 9 1 9 10
M  V30 10 2 10 11
M  V30 11 1 11 12
M  V30 12 1 12 13
M  V30 13 2 13 14
M  V30 14 1 13 15
M  V30 15 1 15 16
M  V30 16 2 16 17
M  V30 17 1 17 18
M  V30 18 2 18 19
M  V30 19 1 19 20
M  V30 20 2 20 21
M  V30 21 1 21 22
M  V30 22 1 22 23
M  V30 23 1 23 24
M  V30 24 1 24 25
M  V30 25 1 24 26
M  V30 26 1 26 27
M  V30 27 1 27 28
M  V30 28 1 27 29
M  V30 29 2 12 30
M  V30 30 1 30 31
M  V30 31 2 9 32
M  V30 32 1 32 33
M  V30 33 1 32 4
M  V30 34 1 31 10
M  V30 35 1 21 16
M  V30 36 1 29 22
M  V30 37 1 1 34
M  V30 38 1 1 35
M  V30 39 1 1 36
M  V30 40 1 2 37
M  V30 41 1 2 38
M  V30 42 1 5 39
M  V30 43 1 6 40
M  V30 44 1 15 41
M  V30 45 1 17 42
M  V30 46 1 19 43
M  V30 47 1 20 44
M  V30 48 1 22 45 CFG=3
M  V30 49 1 23 46
M  V30 50 1 23 47
M  V30 51 1 24 48 CFG=1
M  V30 52 1 25 49
M  V30 53 1 25 50
M  V30 54 1 25 51
M  V30 55 1 26 52
M  V30 56 1 26 53
M  V30 57 1 27 54 CFG=3
M  V30 58 1 28 55
M  V30 59 1 28 56
M  V30 60 1 29 57
M  V30 61 1 29 58
M  V30 62 1 30 59
M  V30 END BOND
M  V30 END CTAB
M  END
>  <Dataset>  (363) 
ChEMBL_Kinases

>  <Ligand_Instance>  (363) 
nan

>  <PDB_ID>  (363) 
nan

>  <Standardized_SMILES>  (363) 
CCOc1ccc(F)c(-c2nc(C(=O)Nc3cnccc3[C@@H]3C[C@H](C)C[C@H](N)C3)cs2)c1F

>  <Name>  (363) 
nan

>  <Pocket>  (363) 
nan

>  <ATP_Site>  (363) 
nan

>  <Peripheral>  (363) 
nan

>  <Num_H_Atoms_ProtBoundConf>  (363) 
nan

>  <Num_Resolved_Atoms>  (363) 
nan

>  <Num_Not_Resolved_Atoms>  (363) 
nan

$$$$
CHEMBL3676306
     RDKit          3D

  0  0  0  0  0  0  0  0  0  0999 V3000
M  V30 BEGIN CTAB
M  V30 COUNTS 62 65 0 0 0
M  V30 BEGIN ATOM
M  V30 1 C 6.031953 -0.060350 2.953774 0
M  V30 2 C 5.330623 1.228192 3.326376 0
M  V30 3 C 5.248773 1.261983 4.836443 0
M  V30 4 O 4.107453 1.386888 2.684390 0
M  V30 5 C 3.716999 2.384919 1.835078 0
M  V30 6 C 4.450269 3.471437 1.416815 0
M  V30 7 C 3.888990 4.383536 0.551712 0
M  V30 8 C 2.611047 4.312381 0.041921 0
M  V30 9 F 2.088689 5.217545 -0.801790 0
M  V30 10 C 1.927169 3.205520 0.495428 0
M  V30 11 C 0.490928 2.996609 0.009901 0
M  V30 12 N -0.331167 2.177178 0.203172 0
M  V30 13 C -1.545416 2.133713 -0.298758 0
M  V30 14 C -2.522449 1.090406 -0.023544 0
M  V30 15 O -3.672323 1.062170 -0.512580 0
M  V30 16 N -2.244621 -0.001322 0.838966 0
M  V30 17 C -2.793377 -1.153402 1.374587 0
M  V30 18 C -3.482900 -0.965288 2.570167 0
M  V30 19 N -4.047134 -2.056993 3.165293 0
M  V30 20 C -3.939285 -3.275857 2.612060 0
M  V30 21 C -3.250032 -3.426223 1.428472 0
M  V30 22 C -2.642587 -2.392540 0.743934 0
M  V30 23 C -1.882108 -2.506722 -0.527792 0 CFG=2
M  V30 24 C -2.661214 -2.223050 -1.753717 0
M  V30 25 C -3.152263 -3.370356 -2.556483 0 CFG=2
M  V30 26 C -4.624100 -3.226383 -2.943761 0
M  V30 27 C -3.014470 -4.718732 -1.929558 0
M  V30 28 C -1.607190 -4.858493 -1.464876 0 CFG=2
M  V30 29 N -1.535084 -6.144274 -0.749567 0
M  V30 30 C -1.070651 -3.730567 -0.662083 0
M  V30 31 C -1.870904 3.192235 -1.155658 0
M  V30 32 S -0.249714 4.186960 -1.117680 0
M  V30 33 C 2.407550 2.254764 1.351453 0
M  V30 34 F 1.609147 1.198143 1.720535 0
M  V30 35 H 6.570018 0.132685 1.994428 0
M  V30 36 H 5.323651 -0.916833 2.869570 0
M  V30 37 H 6.772562 -0.341268 3.711670 0
M  V30 38 H 6.015000 2.054852 3.046589 0
M  V30 39 H 4.904624 2.250352 5.219307 0
M  V30 40 H 6.296127 1.172711 5.206310 0
M  V30 41 H 4.668076 0.406650 5.239915 0
M  V30 42 H 5.447117 3.551425 1.797073 0
M  V30 43 H 4.533374 5.226896 0.260015 0
M  V30 44 H -1.277078 -0.022217 1.284765 0
M  V30 45 H -3.591720 -0.013400 3.041939 0
M  V30 46 H -4.387420 -4.139029 3.086024 0
M  V30 47 H -3.180254 -4.410315 1.023611 0
M  V30 48 H -1.131146 -1.645724 -0.446860 0
M  V30 49 H -1.988431 -1.630072 -2.452379 0
M  V30 50 H -3.486599 -1.458127 -1.569044 0
M  V30 51 H -2.630490 -3.454391 -3.557849 0
M  V30 52 H -4.842372 -3.832734 -3.851871 0
M  V30 53 H -4.833952 -2.162043 -3.173730 0
M  V30 54 H -5.280991 -3.622457 -2.141961 0
M  V30 55 H -3.143664 -5.495492 -2.749053 0
M  V30 56 H -3.774441 -4.955494 -1.186427 0
M  V30 57 H -0.976621 -5.055999 -2.390263 0
M  V30 58 H -1.413425 -6.930437 -1.421919 0
M  V30 59 H -2.457424 -6.279173 -0.281699 0
M  V30 60 H -0.740214 -4.168788 0.309444 0
M  V30 61 H -0.082260 -3.453186 -1.150634 0
M  V30 62 H -2.883832 3.335346 -1.695895 0
M  V30 END ATOM
M  V30 BEGIN BOND
M  V30 1 1 1 2
M  V30 2 1 2 3
M  V30 3 1 2 4
M  V30 4 1 4 5
M  V30 5 2 5 6
M  V30 6 1 6 7
M  V30 7 2 7 8
M  V30 8 1 8 9
M  V30 9 1 8 10
M  V30 10 1 10 11
M  V30 11 2 11 12
M  V30 12 1 12 13
M  V30 13 1 13 14
M  V30 14 2 14 15
M  V30 15 1 14 16
M  V30 16 1 16 17
M  V30 17 2 17 18
M  V30 18 1 18 19
M  V30 19 2 19 20
M  V30 20 1 20 21
M  V30 21 2 21 22
M  V30 22 1 22 23
M  V30 23 1 23 24
M  V30 24 1 24 25
M  V30 25 1 25 26
M  V30 26 1 25 27
M  V30 27 1 27 28
M  V30 28 1 28 29
M  V30 29 1 28 30
M  V30 30 2 13 31
M  V30 31 1 31 32
M  V30 32 2 10 33
M  V30 33 1 33 34
M  V30 34 1 33 5
M  V30 35 1 32 11
M  V30 36 1 22 17
M  V30 37 1 30 23
M  V30 38 1 1 35
M  V30 39 1 1 36
M  V30 40 1 1 37
M  V30 41 1 2 38
M  V30 42 1 3 39
M  V30 43 1 3 40
M  V30 44 1 3 41
M  V30 45 1 6 42
M  V30 46 1 7 43
M  V30 47 1 16 44
M  V30 48 1 18 45
M  V30 49 1 20 46
M  V30 50 1 21 47
M  V30 51 1 23 48 CFG=1
M  V30 52 1 24 49
M  V30 53 1 24 50
M  V30 54 1 25 51 CFG=3
M  V30 55 1 26 52
M  V30 56 1 26 53
M  V30 57 1 26 54
M  V30 58 1 27 55
M  V30 59 1 27 56
M  V30 60 1 28 57 CFG=3
M  V30 61 1 29 58
M  V30 62 1 29 59
M  V30 63 1 30 60
M  V30 64 1 30 61
M  V30 65 1 31 62
M  V30 END BOND
M  V30 END CTAB
M  END
>  <Dataset>  (364) 
ChEMBL_Kinases

>  <Ligand_Instance>  (364) 
nan

>  <PDB_ID>  (364) 
nan

>  <Standardized_SMILES>  (364) 
CC(C)Oc1ccc(F)c(-c2nc(C(=O)Nc3cnccc3[C@@H]3C[C@H](C)C[C@H](N)C3)cs2)c1F

>  <Name>  (364) 
nan

>  <Pocket>  (364) 
nan

>  <ATP_Site>  (364) 
nan

>  <Peripheral>  (364) 
nan

>  <Num_H_Atoms_ProtBoundConf>  (364) 
nan

>  <Num_Resolved_Atoms>  (364) 
nan

>  <Num_Not_Resolved_Atoms>  (364) 
nan

$$$$
CHEMBL3676305
     RDKit          3D

  0  0  0  0  0  0  0  0  0  0999 V3000
M  V30 BEGIN CTAB
M  V30 COUNTS 56 59 0 0 0
M  V30 BEGIN ATOM
M  V30 1 C 7.724833 -2.322201 1.400221 0
M  V30 2 O 6.462084 -1.734960 1.220223 0
M  V30 3 C 6.026786 -1.187811 0.013816 0
M  V30 4 C 6.791803 -1.163343 -1.139406 0
M  V30 5 C 6.268594 -0.593195 -2.299052 0
M  V30 6 C 5.002191 -0.046232 -2.340374 0
M  V30 7 F 4.497075 0.506219 -3.466696 0
M  V30 8 C 4.316520 -0.110584 -1.165965 0
M  V30 9 C 2.908513 0.464819 -1.103912 0
M  V30 10 N 2.091837 0.547745 -0.234750 0
M  V30 11 C 0.894003 1.101543 -0.395546 0
M  V30 12 C -0.013556 1.139594 0.750345 0
M  V30 13 O 0.192681 0.702361 1.912239 0
M  V30 14 N -1.311689 1.715469 0.658881 0
M  V30 15 C -1.994665 1.621526 1.927911 0
M  V30 16 C -1.937173 2.582946 2.923755 0
M  V30 17 N -2.626909 2.371854 4.070188 0
M  V30 18 C -3.361126 1.258279 4.262739 0
M  V30 19 C -3.437291 0.275858 3.280256 0
M  V30 20 C -2.745127 0.451222 2.087572 0
M  V30 21 C -2.814597 -0.586881 1.025808 0 CFG=2
M  V30 22 C -3.970712 -0.300010 0.096394 0
M  V30 23 C -4.381241 -1.518590 -0.663488 0 CFG=2
M  V30 24 C -5.642217 -2.154710 -0.107385 0
M  V30 25 C -3.290514 -2.522095 -0.884563 0
M  V30 26 C -2.570616 -2.903596 0.372891 0 CFG=2
M  V30 27 N -2.693037 -4.297399 0.719928 0
M  V30 28 C -2.942928 -1.980907 1.534644 0
M  V30 29 C 0.575781 1.605723 -1.624407 0
M  V30 30 S 2.184418 1.207048 -2.554608 0
M  V30 31 C 4.754155 -0.652529 0.020009 0
M  V30 32 F 3.988447 -0.666558 1.139437 0
M  V30 33 H 7.983305 -2.281777 2.495622 0
M  V30 34 H 8.487064 -1.688448 0.913916 0
M  V30 35 H 7.756350 -3.378848 1.043130 0
M  V30 36 H 7.790085 -1.593194 -1.111042 0
M  V30 37 H 6.907142 -0.600076 -3.170979 0
M  V30 38 H -1.633405 2.129355 -0.263716 0
M  V30 39 H -1.339413 3.455461 2.727553 0
M  V30 40 H -3.901720 1.136112 5.211389 0
M  V30 41 H -4.033801 -0.632154 3.432799 0
M  V30 42 H -1.895068 -0.554277 0.378482 0
M  V30 43 H -4.878778 0.063990 0.648987 0
M  V30 44 H -3.713320 0.560923 -0.573900 0
M  V30 45 H -4.668780 -1.154085 -1.693532 0
M  V30 46 H -6.496127 -2.125986 -0.802164 0
M  V30 47 H -5.965800 -1.553067 0.777066 0
M  V30 48 H -5.459983 -3.188371 0.283804 0
M  V30 49 H -2.611496 -2.117530 -1.665915 0
M  V30 50 H -3.778267 -3.418527 -1.339849 0
M  V30 51 H -1.472855 -2.713521 0.185458 0
M  V30 52 H -3.035062 -4.856597 -0.113090 0
M  V30 53 H -1.746183 -4.738142 0.925288 0
M  V30 54 H -3.958523 -2.239999 1.897567 0
M  V30 55 H -2.259800 -2.220303 2.375227 0
M  V30 56 H -0.398384 2.092589 -1.876361 0
M  V30 END ATOM
M  V30 BEGIN BOND
M  V30 1 1 1 2
M  V30 2 1 2 3
M  V30 3 2 3 4
M  V30 4 1 4 5
M  V30 5 2 5 6
M  V30 6 1 6 7
M  V30 7 1 6 8
M  V30 8 1 8 9
M  V30 9 2 9 10
M  V30 10 1 10 11
M  V30 11 1 11 12
M  V30 12 2 12 13
M  V30 13 1 12 14
M  V30 14 1 14 15
M  V30 15 2 15 16
M  V30 16 1 16 17
M  V30 17 2 17 18
M  V30 18 1 18 19
M  V30 19 2 19 20
M  V30 20 1 20 21
M  V30 21 1 21 22
M  V30 22 1 22 23
M  V30 23 1 23 24
M  V30 24 1 23 25
M  V30 25 1 25 26
M  V30 26 1 26 27
M  V30 27 1 26 28
M  V30 28 2 11 29
M  V30 29 1 29 30
M  V30 30 2 8 31
M  V30 31 1 31 32
M  V30 32 1 31 3
M  V30 33 1 30 9
M  V30 34 1 20 15
M  V30 35 1 28 21
M  V30 36 1 1 33
M  V30 37 1 1 34
M  V30 38 1 1 35
M  V30 39 1 4 36
M  V30 40 1 5 37
M  V30 41 1 14 38
M  V30 42 1 16 39
M  V30 43 1 18 40
M  V30 44 1 19 41
M  V30 45 1 21 42 CFG=3
M  V30 46 1 22 43
M  V30 47 1 22 44
M  V30 48 1 23 45 CFG=3
M  V30 49 1 24 46
M  V30 50 1 24 47
M  V30 51 1 24 48
M  V30 52 1 25 49
M  V30 53 1 25 50
M  V30 54 1 26 51 CFG=3
M  V30 55 1 27 52
M  V30 56 1 27 53
M  V30 57 1 28 54
M  V30 58 1 28 55
M  V30 59 1 29 56
M  V30 END BOND
M  V30 END CTAB
M  END
>  <Dataset>  (365) 
ChEMBL_Kinases

>  <Ligand_Instance>  (365) 
nan

>  <PDB_ID>  (365) 
nan

>  <Standardized_SMILES>  (365) 
COc1ccc(F)c(-c2nc(C(=O)Nc3cnccc3[C@@H]3C[C@H](C)C[C@H](N)C3)cs2)c1F

>  <Name>  (365) 
nan

>  <Pocket>  (365) 
nan

>  <ATP_Site>  (365) 
nan

>  <Peripheral>  (365) 
nan

>  <Num_H_Atoms_ProtBoundConf>  (365) 
nan

>  <Num_Resolved_Atoms>  (365) 
nan

>  <Num_Not_Resolved_Atoms>  (365) 
nan

$$$$
CHEMBL3676304
     RDKit          3D

  0  0  0  0  0  0  0  0  0  0999 V3000
M  V30 BEGIN CTAB
M  V30 COUNTS 61 64 0 0 0
M  V30 BEGIN ATOM
M  V30 1 C 3.971375 -2.214920 3.174249 0
M  V30 2 C 4.104361 -0.844582 3.806784 0
M  V30 3 C 3.279742 -0.825420 5.090859 0
M  V30 4 N 3.565103 0.099762 2.860324 0
M  V30 5 C 4.203429 1.233811 2.286736 0
M  V30 6 O 5.389643 1.526736 2.586150 0
M  V30 7 C 3.512770 2.096336 1.335016 0
M  V30 8 C 4.204782 3.183409 0.822554 0
M  V30 9 C 3.611844 4.041877 -0.083446 0
M  V30 10 C 2.304744 3.861136 -0.522677 0
M  V30 11 F 1.728256 4.698289 -1.405457 0
M  V30 12 C 1.695027 2.772350 0.027301 0
M  V30 13 C 0.251946 2.477450 -0.386606 0
M  V30 14 N -0.519020 1.624065 -0.085576 0
M  V30 15 C -1.742912 1.478449 -0.515576 0
M  V30 16 C -2.650081 0.415092 -0.117191 0
M  V30 17 O -3.822713 0.291720 -0.542105 0
M  V30 18 N -2.265946 -0.592960 0.809488 0
M  V30 19 C -3.089284 -1.648111 1.238481 0
M  V30 20 C -3.807385 -1.328091 2.371078 0
M  V30 21 N -4.654067 -2.265729 2.891784 0
M  V30 22 C -4.741196 -3.461569 2.264444 0
M  V30 23 C -4.013427 -3.736613 1.147267 0
M  V30 24 C -3.140544 -2.844779 0.563806 0
M  V30 25 N -2.402262 -3.180406 -0.582637 0
M  V30 26 C -2.738359 -4.436899 -1.232194 0
M  V30 27 C -2.376917 -4.323524 -2.697638 0
M  V30 28 C -2.640462 -2.974752 -3.288588 0
M  V30 29 C -1.707926 -1.996282 -2.640267 0 CFG=2
M  V30 30 N -0.510084 -1.783456 -3.436775 0
M  V30 31 C -1.339347 -2.535596 -1.271290 0
M  V30 32 C -2.147594 2.499308 -1.460292 0
M  V30 33 S -0.571123 3.548942 -1.553735 0
M  V30 34 C 2.218144 1.884686 0.924513 0
M  V30 35 H 4.866695 -2.346730 2.535827 0
M  V30 36 H 3.029790 -2.209922 2.569521 0
M  V30 37 H 3.921144 -2.988776 3.966135 0
M  V30 38 H 5.145951 -0.595998 4.073935 0
M  V30 39 H 3.072202 0.205696 5.439144 0
M  V30 40 H 2.299062 -1.351011 4.902345 0
M  V30 41 H 3.846008 -1.359263 5.880522 0
M  V30 42 H 2.591566 -0.162720 2.631409 0
M  V30 43 H 5.242232 3.400907 1.115455 0
M  V30 44 H 4.188165 4.891390 -0.468354 0
M  V30 45 H -1.288617 -0.556767 1.230466 0
M  V30 46 H -3.758350 -0.387058 2.890441 0
M  V30 47 H -5.430832 -4.144346 2.738935 0
M  V30 48 H -4.201023 -4.730850 0.783954 0
M  V30 49 H -3.826124 -4.682532 -1.167457 0
M  V30 50 H -2.119290 -5.214374 -0.737386 0
M  V30 51 H -2.896775 -5.111888 -3.302479 0
M  V30 52 H -1.299753 -4.548888 -2.816966 0
M  V30 53 H -2.432077 -3.062894 -4.379753 0
M  V30 54 H -3.685695 -2.633493 -3.160575 0
M  V30 55 H -2.225583 -1.012476 -2.598391 0
M  V30 56 H -0.597616 -2.300701 -4.336531 0
M  V30 57 H 0.323803 -2.055358 -2.876887 0
M  V30 58 H -0.832686 -1.708941 -0.753140 0
M  V30 59 H -0.520800 -3.280079 -1.461415 0
M  V30 60 H -3.259550 2.486347 -1.940516 0
M  V30 61 H 1.659822 1.060380 1.298409 0
M  V30 END ATOM
M  V30 BEGIN BOND
M  V30 1 1 1 2
M  V30 2 1 2 3
M  V30 3 1 2 4
M  V30 4 1 4 5
M  V30 5 2 5 6
M  V30 6 1 5 7
M  V30 7 2 7 8
M  V30 8 1 8 9
M  V30 9 2 9 10
M  V30 10 1 10 11
M  V30 11 1 10 12
M  V30 12 1 12 13
M  V30 13 2 13 14
M  V30 14 1 14 15
M  V30 15 1 15 16
M  V30 16 2 16 17
M  V30 17 1 16 18
M  V30 18 1 18 19
M  V30 19 2 19 20
M  V30 20 1 20 21
M  V30 21 2 21 22
M  V30 22 1 22 23
M  V30 23 2 23 24
M  V30 24 1 24 25
M  V30 25 1 25 26
M  V30 26 1 26 27
M  V30 27 1 27 28
M  V30 28 1 28 29
M  V30 29 1 29 30
M  V30 30 1 29 31
M  V30 31 2 15 32
M  V30 32 1 32 33
M  V30 33 2 12 34
M  V30 34 1 34 7
M  V30 35 1 33 13
M  V30 36 1 24 19
M  V30 37 1 31 25
M  V30 38 1 1 35
M  V30 39 1 1 36
M  V30 40 1 1 37
M  V30 41 1 2 38
M  V30 42 1 3 39
M  V30 43 1 3 40
M  V30 44 1 3 41
M  V30 45 1 4 42
M  V30 46 1 8 43
M  V30 47 1 9 44
M  V30 48 1 18 45
M  V30 49 1 20 46
M  V30 50 1 22 47
M  V30 51 1 23 48
M  V30 52 1 26 49
M  V30 53 1 26 50
M  V30 54 1 27 51
M  V30 55 1 27 52
M  V30 56 1 28 53
M  V30 57 1 28 54
M  V30 58 1 29 55 CFG=1
M  V30 59 1 30 56
M  V30 60 1 30 57
M  V30 61 1 31 58
M  V30 62 1 31 59
M  V30 63 1 32 60
M  V30 64 1 34 61
M  V30 END BOND
M  V30 END CTAB
M  END
>  <Dataset>  (366) 
ChEMBL_Kinases

>  <Ligand_Instance>  (366) 
nan

>  <PDB_ID>  (366) 
nan

>  <Standardized_SMILES>  (366) 
CC(C)NC(=O)c1ccc(F)c(-c2nc(C(=O)Nc3cnccc3N3CCC[C@H](N)C3)cs2)c1

>  <Name>  (366) 
nan

>  <Pocket>  (366) 
nan

>  <ATP_Site>  (366) 
nan

>  <Peripheral>  (366) 
nan

>  <Num_H_Atoms_ProtBoundConf>  (366) 
nan

>  <Num_Resolved_Atoms>  (366) 
nan

>  <Num_Not_Resolved_Atoms>  (366) 
nan

$$$$
CHEMBL4218574
     RDKit          3D

  0  0  0  0  0  0  0  0  0  0999 V3000
M  V30 BEGIN CTAB
M  V30 COUNTS 57 62 0 0 0
M  V30 BEGIN ATOM
M  V30 1 C 2.451217 -1.312709 3.366865 0
M  V30 2 N 3.188703 -1.401035 2.141339 0
M  V30 3 C 3.469103 -0.159184 1.500533 0
M  V30 4 C 2.647598 0.172322 0.304846 0
M  V30 5 N 1.910765 -0.945988 -0.220046 0
M  V30 6 C 0.606034 -0.901897 -0.782089 0
M  V30 7 N -0.099213 0.231794 -0.874008 0
M  V30 8 C -1.331527 0.294302 -1.403113 0
M  V30 9 N -2.096713 1.482425 -1.514131 0
M  V30 10 C -1.638608 2.763112 -1.065297 0
M  V30 11 C -1.371743 2.753674 0.402158 0
M  V30 12 N -0.294567 2.484414 1.156013 0
M  V30 13 C -0.579920 2.622406 2.459330 0
M  V30 14 C 0.130648 2.474688 3.628553 0
M  V30 15 F 1.429480 2.106655 3.555372 0
M  V30 16 C -0.428350 2.687621 4.886891 0
M  V30 17 F 0.251438 2.548174 6.049415 0
M  V30 18 C -1.771664 3.067419 4.940443 0
M  V30 19 C -2.508279 3.223097 3.785246 0
M  V30 20 C -1.901701 2.998625 2.567900 0
M  V30 21 N -2.342014 3.066477 1.307945 0
M  V30 22 C -1.831924 -0.931098 -1.858109 0
M  V30 23 N -3.024684 -1.193681 -2.432218 0
M  V30 24 C -3.087773 -2.523537 -2.715208 0
M  V30 25 N -1.931286 -3.081577 -2.314567 0
M  V30 26 C -1.562998 -4.452114 -2.415940 0
M  V30 27 C -0.560545 -4.989284 -1.634894 0
M  V30 28 C -0.278226 -6.335954 -1.810496 0
M  V30 29 N -0.935083 -7.129154 -2.701231 0
M  V30 30 C -1.921487 -6.611605 -3.473422 0
M  V30 31 C -2.216368 -5.274309 -3.312938 0
M  V30 32 C -1.145601 -2.125096 -1.785991 0
M  V30 33 N 0.069940 -2.038168 -1.235605 0
M  V30 34 C 2.646979 -2.187334 -0.123971 0
M  V30 35 C 2.860534 -2.501141 1.313783 0
M  V30 36 H 1.652052 -0.566580 3.251833 0
M  V30 37 H 2.061840 -2.325883 3.616267 0
M  V30 38 H 3.154194 -0.987708 4.174561 0
M  V30 39 H 3.293567 0.636795 2.270453 0
M  V30 40 H 4.564571 -0.082201 1.288108 0
M  V30 41 H 3.352674 0.476605 -0.524346 0
M  V30 42 H 2.014060 1.067009 0.467273 0
M  V30 43 H -3.042599 1.412526 -1.946682 0
M  V30 44 H -0.686979 3.076595 -1.558119 0
M  V30 45 H -2.362788 3.553865 -1.286866 0
M  V30 46 H -2.244325 3.242699 5.898084 0
M  V30 47 H -3.555266 3.518350 3.808613 0
M  V30 48 H -3.332305 3.334732 1.083411 0
M  V30 49 H -3.929656 -3.025507 -3.181221 0
M  V30 50 H -0.018387 -4.395780 -0.919965 0
M  V30 51 H 0.507154 -6.818721 -1.219037 0
M  V30 52 H -2.479806 -7.212190 -4.206220 0
M  V30 53 H -3.014433 -4.877449 -3.944919 0
M  V30 54 H 3.603817 -2.113822 -0.669704 0
M  V30 55 H 2.039174 -3.025709 -0.552151 0
M  V30 56 H 3.696116 -3.255316 1.379648 0
M  V30 57 H 1.987173 -3.028398 1.768712 0
M  V30 END ATOM
M  V30 BEGIN BOND
M  V30 1 1 1 2
M  V30 2 1 2 3
M  V30 3 1 3 4
M  V30 4 1 4 5
M  V30 5 1 5 6
M  V30 6 2 6 7
M  V30 7 1 7 8
M  V30 8 1 8 9
M  V30 9 1 9 10
M  V30 10 1 10 11
M  V30 11 2 11 12
M  V30 12 1 12 13
M  V30 13 2 13 14
M  V30 14 1 14 15
M  V30 15 1 14 16
M  V30 16 1 16 17
M  V30 17 2 16 18
M  V30 18 1 18 19
M  V30 19 2 19 20
M  V30 20 1 20 21
M  V30 21 2 8 22
M  V30 22 1 22 23
M  V30 23 2 23 24
M  V30 24 1 24 25
M  V30 25 1 25 26
M  V30 26 2 26 27
M  V30 27 1 27 28
M  V30 28 2 28 29
M  V30 29 1 29 30
M  V30 30 2 30 31
M  V30 31 1 25 32
M  V30 32 2 32 33
M  V30 33 1 5 34
M  V30 34 1 34 35
M  V30 35 1 35 2
M  V30 36 1 33 6
M  V30 37 1 21 11
M  V30 38 1 32 22
M  V30 39 1 20 13
M  V30 40 1 31 26
M  V30 41 1 1 36
M  V30 42 1 1 37
M  V30 43 1 1 38
M  V30 44 1 3 39
M  V30 45 1 3 40
M  V30 46 1 4 41
M  V30 47 1 4 42
M  V30 48 1 9 43
M  V30 49 1 10 44
M  V30 50 1 10 45
M  V30 51 1 18 46
M  V30 52 1 19 47
M  V30 53 1 21 48
M  V30 54 1 24 49
M  V30 55 1 27 50
M  V30 56 1 28 51
M  V30 57 1 30 52
M  V30 58 1 31 53
M  V30 59 1 34 54
M  V30 60 1 34 55
M  V30 61 1 35 56
M  V30 62 1 35 57
M  V30 END BOND
M  V30 END CTAB
M  END
>  <Dataset>  (367) 
ChEMBL_Kinases

>  <Ligand_Instance>  (367) 
nan

>  <PDB_ID>  (367) 
nan

>  <Standardized_SMILES>  (367) 
CN1CCN(c2nc(NCc3nc4c(F)c(F)ccc4[nH]3)c3ncn(-c4ccncc4)c3n2)CC1

>  <Name>  (367) 
nan

>  <Pocket>  (367) 
nan

>  <ATP_Site>  (367) 
nan

>  <Peripheral>  (367) 
nan

>  <Num_H_Atoms_ProtBoundConf>  (367) 
nan

>  <Num_Resolved_Atoms>  (367) 
nan

>  <Num_Not_Resolved_Atoms>  (367) 
nan

$$$$
CHEMBL3676303
     RDKit          3D

  0  0  0  0  0  0  0  0  0  0999 V3000
M  V30 BEGIN CTAB
M  V30 COUNTS 48 51 0 0 0
M  V30 BEGIN ATOM
M  V30 1 N 0.917591 -3.163470 2.851480 0
M  V30 2 C 0.844594 -1.782404 2.415214 0 CFG=1
M  V30 3 C 0.129759 -0.998170 3.481570 0
M  V30 4 C 0.980305 -0.573335 4.632516 0
M  V30 5 C 2.392180 -0.185410 4.195631 0
M  V30 6 N 2.287851 0.042681 2.764447 0
M  V30 7 C 2.265779 1.348924 2.269947 0
M  V30 8 C 2.364429 2.442689 3.097451 0
M  V30 9 C 2.347306 3.739813 2.649046 0
M  V30 10 N 2.231835 4.056990 1.355034 0
M  V30 11 C 2.130368 3.026230 0.488453 0
M  V30 12 C 2.149478 1.737450 0.956851 0
M  V30 13 N 2.022139 0.781770 -0.083882 0
M  V30 14 C 0.624286 0.481505 -0.301784 0
M  V30 15 O -0.114921 1.136428 0.477788 0
M  V30 16 C 0.221945 -0.480792 -1.327674 0
M  V30 17 C 1.099876 -1.159204 -2.144070 0
M  V30 18 S -0.115770 -2.187641 -3.177505 0
M  V30 19 C -1.527351 -1.485720 -2.292473 0
M  V30 20 C -2.953071 -1.864704 -2.594909 0
M  V30 21 C -3.960540 -1.270531 -1.860707 0
M  V30 22 C -5.265289 -1.619224 -2.139527 0
M  V30 23 C -5.548569 -2.529115 -3.117411 0
M  V30 24 C -4.512442 -3.082068 -3.808583 0
M  V30 25 C -3.182681 -2.786762 -3.590479 0
M  V30 26 F -2.171905 -3.351980 -4.293115 0
M  V30 27 N -1.057824 -0.735515 -1.505168 0
M  V30 28 C 2.210876 -1.201503 2.081606 0
M  V30 29 H 1.134479 -3.110595 3.889615 0
M  V30 30 H -0.042118 -3.575825 2.705217 0
M  V30 31 H 0.189757 -1.764275 1.510758 0
M  V30 32 H -0.365464 -0.100998 3.064862 0
M  V30 33 H -0.662225 -1.673279 3.911844 0
M  V30 34 H 0.539221 0.342891 5.075878 0
M  V30 35 H 1.015947 -1.328457 5.453690 0
M  V30 36 H 3.005328 -1.121298 4.395326 0
M  V30 37 H 2.825573 0.628117 4.769340 0
M  V30 38 H 2.460354 2.421046 4.168786 0
M  V30 39 H 2.425706 4.623933 3.301831 0
M  V30 40 H 2.036989 3.296616 -0.560145 0
M  V30 41 H 2.775043 0.313312 -0.674327 0
M  V30 42 H 2.231702 -1.031666 -2.094562 0
M  V30 43 H -3.678169 -0.548454 -1.089288 0
M  V30 44 H -6.014703 -1.114777 -1.524699 0
M  V30 45 H -6.584074 -2.780033 -3.310304 0
M  V30 46 H -4.755571 -3.810485 -4.590125 0
M  V30 47 H 2.461595 -1.244060 1.035420 0
M  V30 48 H 2.934421 -1.925860 2.575863 0
M  V30 END ATOM
M  V30 BEGIN BOND
M  V30 1 1 1 2
M  V30 2 1 2 3
M  V30 3 1 3 4
M  V30 4 1 4 5
M  V30 5 1 5 6
M  V30 6 1 6 7
M  V30 7 2 7 8
M  V30 8 1 8 9
M  V30 9 2 9 10
M  V30 10 1 10 11
M  V30 11 2 11 12
M  V30 12 1 12 13
M  V30 13 1 13 14
M  V30 14 2 14 15
M  V30 15 1 14 16
M  V30 16 2 16 17
M  V30 17 1 17 18
M  V30 18 1 18 19
M  V30 19 1 19 20
M  V30 20 2 20 21
M  V30 21 1 21 22
M  V30 22 2 22 23
M  V30 23 1 23 24
M  V30 24 2 24 25
M  V30 25 1 25 26
M  V30 26 2 19 27
M  V30 27 1 6 28
M  V30 28 1 28 2
M  V30 29 1 12 7
M  V30 30 1 27 16
M  V30 31 1 25 20
M  V30 32 1 1 29
M  V30 33 1 1 30
M  V30 34 1 2 31 CFG=3
M  V30 35 1 3 32
M  V30 36 1 3 33
M  V30 37 1 4 34
M  V30 38 1 4 35
M  V30 39 1 5 36
M  V30 40 1 5 37
M  V30 41 1 8 38
M  V30 42 1 9 39
M  V30 43 1 11 40
M  V30 44 1 13 41
M  V30 45 1 17 42
M  V30 46 1 21 43
M  V30 47 1 22 44
M  V30 48 1 23 45
M  V30 49 1 24 46
M  V30 50 1 28 47
M  V30 51 1 28 48
M  V30 END BOND
M  V30 END CTAB
M  END
>  <Dataset>  (368) 
ChEMBL_Kinases

>  <Ligand_Instance>  (368) 
nan

>  <PDB_ID>  (368) 
nan

>  <Standardized_SMILES>  (368) 
N[C@H]1CCCN(c2ccncc2NC(=O)c2csc(-c3ccccc3F)n2)C1

>  <Name>  (368) 
nan

>  <Pocket>  (368) 
nan

>  <ATP_Site>  (368) 
nan

>  <Peripheral>  (368) 
nan

>  <Num_H_Atoms_ProtBoundConf>  (368) 
nan

>  <Num_Resolved_Atoms>  (368) 
nan

>  <Num_Not_Resolved_Atoms>  (368) 
nan

$$$$
CHEMBL3676311
     RDKit          3D

  0  0  0  0  0  0  0  0  0  0999 V3000
M  V30 BEGIN CTAB
M  V30 COUNTS 52 55 0 0 0
M  V30 BEGIN ATOM
M  V30 1 C -0.380072 -3.534959 -0.644832 0
M  V30 2 C 1.076464 -3.749821 -0.320792 0 CFG=1
M  V30 3 C 1.907972 -2.521588 -0.629797 0
M  V30 4 C 2.425779 -1.891994 0.658844 0 CFG=1
M  V30 5 C 3.146262 -0.653909 0.439475 0
M  V30 6 C 4.525877 -0.678384 0.177184 0
M  V30 7 C 5.348768 0.394646 -0.068864 0
M  V30 8 N 4.782965 1.617842 -0.061242 0
M  V30 9 C 3.466955 1.753560 0.179962 0
M  V30 10 C 2.689394 0.641093 0.420841 0
M  V30 11 N 1.318072 0.916446 0.653735 0
M  V30 12 C 0.770444 1.273740 1.943235 0
M  V30 13 O 1.449425 1.378894 2.996119 0
M  V30 14 C -0.666127 1.517443 1.970597 0
M  V30 15 C -1.124407 1.855800 3.240164 0
M  V30 16 S -2.992299 2.117361 3.004178 0
M  V30 17 C -2.750734 1.698693 1.171765 0
M  V30 18 C -3.908689 1.688263 0.190279 0
M  V30 19 C -3.576117 1.365158 -1.105538 0
M  V30 20 F -2.292028 1.087767 -1.417889 0
M  V30 21 C -4.648308 1.365558 -1.965263 0
M  V30 22 C -5.931155 1.663052 -1.556532 0
M  V30 23 C -6.176972 1.977733 -0.231567 0
M  V30 24 C -5.155174 1.997265 0.683437 0
M  V30 25 F -5.360363 2.300427 1.984502 0
M  V30 26 N -1.619393 1.491470 1.078457 0
M  V30 27 C 1.399321 -1.916807 1.738825 0
M  V30 28 C 1.252069 -3.362171 2.179031 0 CFG=1
M  V30 29 N 0.033157 -3.573236 2.936936 0
M  V30 30 C 1.337884 -4.322843 1.031691 0 CFG=1
M  V30 31 F 0.475685 -5.389996 1.199594 0
M  V30 32 H -0.507865 -3.561070 -1.767169 0
M  V30 33 H -1.007050 -4.295800 -0.184744 0
M  V30 34 H -0.773412 -2.543636 -0.352374 0
M  V30 35 H 1.413841 -4.531035 -1.051272 0
M  V30 36 H 2.791549 -2.760825 -1.257811 0
M  V30 37 H 1.270325 -1.842555 -1.220415 0
M  V30 38 H 3.204544 -2.646247 1.003312 0
M  V30 39 H 5.023127 -1.663941 0.163126 0
M  V30 40 H 6.398589 0.249165 -0.257735 0
M  V30 41 H 3.061280 2.754301 0.175120 0
M  V30 42 H 0.695551 0.845512 -0.185827 0
M  V30 43 H -0.786729 2.023804 4.326024 0
M  V30 44 H -4.440760 1.116537 -3.001593 0
M  V30 45 H -6.725836 1.640596 -2.300923 0
M  V30 46 H -7.176964 2.214068 0.114451 0
M  V30 47 H 1.775479 -1.339231 2.599913 0
M  V30 48 H 0.424243 -1.488278 1.441129 0
M  V30 49 H 2.099834 -3.558762 2.868338 0
M  V30 50 H -0.723153 -3.945622 2.322323 0
M  V30 51 H 0.157064 -4.283410 3.690653 0
M  V30 52 H 2.366030 -4.786616 0.982628 0
M  V30 END ATOM
M  V30 BEGIN BOND
M  V30 1 1 1 2
M  V30 2 1 2 3
M  V30 3 1 3 4
M  V30 4 1 4 5
M  V30 5 2 5 6
M  V30 6 1 6 7
M  V30 7 2 7 8
M  V30 8 1 8 9
M  V30 9 2 9 10
M  V30 10 1 10 11
M  V30 11 1 11 12
M  V30 12 2 12 13
M  V30 13 1 12 14
M  V30 14 2 14 15
M  V30 15 1 15 16
M  V30 16 1 16 17
M  V30 17 1 17 18
M  V30 18 2 18 19
M  V30 19 1 19 20
M  V30 20 1 19 21
M  V30 21 2 21 22
M  V30 22 1 22 23
M  V30 23 2 23 24
M  V30 24 1 24 25
M  V30 25 2 17 26
M  V30 26 1 4 27
M  V30 27 1 27 28
M  V30 28 1 28 29
M  V30 29 1 28 30
M  V30 30 1 30 31
M  V30 31 1 30 2
M  V30 32 1 10 5
M  V30 33 1 26 14
M  V30 34 1 24 18
M  V30 35 1 1 32
M  V30 36 1 1 33
M  V30 37 1 1 34
M  V30 38 1 2 35 CFG=3
M  V30 39 1 3 36
M  V30 40 1 3 37
M  V30 41 1 4 38 CFG=1
M  V30 42 1 6 39
M  V30 43 1 7 40
M  V30 44 1 9 41
M  V30 45 1 11 42
M  V30 46 1 15 43
M  V30 47 1 21 44
M  V30 48 1 22 45
M  V30 49 1 23 46
M  V30 50 1 27 47
M  V30 51 1 27 48
M  V30 52 1 28 49 CFG=1
M  V30 53 1 29 50
M  V30 54 1 29 51
M  V30 55 1 30 52 CFG=3
M  V30 END BOND
M  V30 END CTAB
M  END
>  <Dataset>  (369) 
ChEMBL_Kinases

>  <Ligand_Instance>  (369) 
nan

>  <PDB_ID>  (369) 
nan

>  <Standardized_SMILES>  (369) 
C[C@H]1C[C@@H](c2ccncc2NC(=O)c2csc(-c3c(F)cccc3F)n2)C[C@@H](N)[C@H]1F

>  <Name>  (369) 
nan

>  <Pocket>  (369) 
nan

>  <ATP_Site>  (369) 
nan

>  <Peripheral>  (369) 
nan

>  <Num_H_Atoms_ProtBoundConf>  (369) 
nan

>  <Num_Resolved_Atoms>  (369) 
nan

>  <Num_Not_Resolved_Atoms>  (369) 
nan

$$$$
CHEMBL3676274
     RDKit          3D

  0  0  0  0  0  0  0  0  0  0999 V3000
M  V30 BEGIN CTAB
M  V30 COUNTS 48 51 0 0 0
M  V30 BEGIN ATOM
M  V30 1 N -2.301949 -1.843820 -0.539201 0
M  V30 2 C -1.208348 -1.524329 -1.403306 0
M  V30 3 C 0.084908 -2.203839 -0.983586 0
M  V30 4 N 1.147933 -1.610180 -1.761767 0
M  V30 5 C 2.365669 -0.908672 -1.604072 0
M  V30 6 C 3.563663 -1.427753 -2.099855 0
M  V30 7 C 4.699509 -0.651929 -1.887329 0
M  V30 8 N 4.652762 0.529472 -1.242904 0
M  V30 9 C 3.515252 1.058358 -0.752769 0
M  V30 10 C 2.364616 0.307437 -0.949217 0
M  V30 11 N 1.174490 0.911528 -0.409113 0
M  V30 12 C 0.993330 0.482547 0.935961 0
M  V30 13 O 1.919982 -0.298853 1.269442 0
M  V30 14 C -0.165342 0.961920 1.725437 0
M  V30 15 C -1.153108 1.866164 1.197150 0
M  V30 16 S -2.240376 1.986832 2.736013 0
M  V30 17 C -1.193860 0.858989 3.707386 0
M  V30 18 C -1.535647 0.529167 5.082606 0
M  V30 19 C -0.674971 -0.346378 5.755456 0
M  V30 20 F 0.426778 -0.846800 5.112955 0
M  V30 21 C -0.952728 -0.700262 7.081102 0
M  V30 22 C -2.076575 -0.164371 7.674840 0
M  V30 23 C -2.939284 0.701953 7.027768 0
M  V30 24 C -2.649632 1.043669 5.711585 0
M  V30 25 F -3.469262 1.884107 5.054735 0
M  V30 26 N -0.195850 0.469846 2.969710 0
M  V30 27 C 0.933968 -1.762021 -3.190474 0
M  V30 28 C -0.329622 -2.523061 -3.498054 0
M  V30 29 C -1.553045 -1.935285 -2.816388 0
M  V30 30 Cl -2.061910 -0.530159 -3.806040 0
M  V30 31 H -1.992156 -2.124430 0.415250 0
M  V30 32 H -3.036170 -1.114909 -0.532886 0
M  V30 33 H -1.065770 -0.430234 -1.419238 0
M  V30 34 H -0.023559 -3.297101 -1.244948 0
M  V30 35 H 0.222998 -2.183719 0.095453 0
M  V30 36 H 3.572417 -2.376897 -2.612386 0
M  V30 37 H 5.646124 -1.048742 -2.271901 0
M  V30 38 H 3.512762 2.010487 -0.239771 0
M  V30 39 H 0.508748 1.569460 -0.882739 0
M  V30 40 H -1.094703 2.230329 0.215978 0
M  V30 41 H -0.275602 -1.382095 7.593507 0
M  V30 42 H -2.289072 -0.446810 8.717417 0
M  V30 43 H -3.805509 1.089021 7.548366 0
M  V30 44 H 1.767897 -2.408025 -3.563931 0
M  V30 45 H 1.011667 -0.815373 -3.753936 0
M  V30 46 H -0.499214 -2.441382 -4.595296 0
M  V30 47 H -0.227975 -3.583869 -3.254449 0
M  V30 48 H -2.330207 -2.727200 -2.817836 0
M  V30 END ATOM
M  V30 BEGIN BOND
M  V30 1 1 1 2
M  V30 2 1 2 3
M  V30 3 1 3 4
M  V30 4 1 4 5
M  V30 5 2 5 6
M  V30 6 1 6 7
M  V30 7 2 7 8
M  V30 8 1 8 9
M  V30 9 2 9 10
M  V30 10 1 10 11
M  V30 11 1 11 12
M  V30 12 2 12 13
M  V30 13 1 12 14
M  V30 14 2 14 15
M  V30 15 1 15 16
M  V30 16 1 16 17
M  V30 17 1 17 18
M  V30 18 2 18 19
M  V30 19 1 19 20
M  V30 20 1 19 21
M  V30 21 2 21 22
M  V30 22 1 22 23
M  V30 23 2 23 24
M  V30 24 1 24 25
M  V30 25 2 17 26
M  V30 26 1 4 27
M  V30 27 1 27 28
M  V30 28 1 28 29
M  V30 29 1 29 30
M  V30 30 1 29 2
M  V30 31 1 10 5
M  V30 32 1 26 14
M  V30 33 1 24 18
M  V30 34 1 1 31
M  V30 35 1 1 32
M  V30 36 1 2 33
M  V30 37 1 3 34
M  V30 38 1 3 35
M  V30 39 1 6 36
M  V30 40 1 7 37
M  V30 41 1 9 38
M  V30 42 1 11 39
M  V30 43 1 15 40
M  V30 44 1 21 41
M  V30 45 1 22 42
M  V30 46 1 23 43
M  V30 47 1 27 44
M  V30 48 1 27 45
M  V30 49 1 28 46
M  V30 50 1 28 47
M  V30 51 1 29 48
M  V30 END BOND
M  V30 END CTAB
M  END
>  <Dataset>  (370) 
ChEMBL_Kinases

>  <Ligand_Instance>  (370) 
nan

>  <PDB_ID>  (370) 
nan

>  <Standardized_SMILES>  (370) 
NC1CN(c2ccncc2NC(=O)c2csc(-c3c(F)cccc3F)n2)CCC1Cl

>  <Name>  (370) 
nan

>  <Pocket>  (370) 
nan

>  <ATP_Site>  (370) 
nan

>  <Peripheral>  (370) 
nan

>  <Num_H_Atoms_ProtBoundConf>  (370) 
nan

>  <Num_Resolved_Atoms>  (370) 
nan

>  <Num_Not_Resolved_Atoms>  (370) 
nan

$$$$
CHEMBL3220473
     RDKit          3D

  0  0  0  0  0  0  0  0  0  0999 V3000
M  V30 BEGIN CTAB
M  V30 COUNTS 58 61 0 0 0
M  V30 BEGIN ATOM
M  V30 1 C 2.983289 -1.578004 5.105672 0
M  V30 2 N 3.782589 -0.781771 4.185412 0
M  V30 3 C 3.210561 -0.058452 3.106351 0
M  V30 4 O 1.980206 -0.260023 3.144680 0
M  V30 5 C 4.067053 0.709885 2.237595 0
M  V30 6 C 5.419568 0.769872 2.439054 0
M  V30 7 C 6.246429 1.498286 1.628931 0
M  V30 8 C 5.794636 2.222880 0.555614 0
M  V30 9 C 4.417141 2.157206 0.354663 0
M  V30 10 C 3.563144 1.418847 1.173168 0
M  V30 11 N 2.215931 1.502678 0.782292 0
M  V30 12 C 0.918431 1.864348 1.145846 0
M  V30 13 C -0.144181 0.960859 1.128458 0
M  V30 14 C -1.442931 1.212636 1.477319 0
M  V30 15 N -2.465274 0.257743 1.399989 0
M  V30 16 C -2.775975 -0.709255 0.412477 0
M  V30 17 C -2.086747 -0.844061 -0.772158 0
M  V30 18 C -2.451910 -1.832189 -1.681259 0
M  V30 19 C -3.488285 -2.720587 -1.483945 0
M  V30 20 N -3.824410 -3.705429 -2.423486 0
M  V30 21 C -3.156033 -3.911680 -3.692004 0
M  V30 22 C -2.368916 -5.214271 -3.512907 0
M  V30 23 O -3.147835 -6.194004 -2.929512 0
M  V30 24 C -4.498204 -5.932222 -2.982993 0
M  V30 25 C -4.898970 -4.660701 -2.235841 0
M  V30 26 C -4.142838 -2.544916 -0.290014 0
M  V30 27 C -3.807944 -1.579223 0.630754 0
M  V30 28 F -4.516659 -1.476103 1.795798 0
M  V30 29 N -1.642573 2.480965 1.868019 0
M  V30 30 C -0.685974 3.418683 1.917665 0
M  V30 31 C 0.619315 3.162213 1.564858 0
M  V30 32 C 1.656352 4.220448 1.623809 0
M  V30 33 F 2.200034 4.448593 0.382882 0
M  V30 34 F 1.039479 5.390951 2.025213 0
M  V30 35 F 2.691359 3.952852 2.476865 0
M  V30 36 H 3.495995 -2.545587 5.381556 0
M  V30 37 H 1.984471 -1.807497 4.737415 0
M  V30 38 H 2.934366 -0.992220 6.042934 0
M  V30 39 H 4.793699 -0.835222 4.447700 0
M  V30 40 H 5.935436 0.263110 3.235274 0
M  V30 41 H 7.322155 1.541891 1.796479 0
M  V30 42 H 6.419004 2.806219 -0.103420 0
M  V30 43 H 4.066117 2.742535 -0.514775 0
M  V30 44 H 2.092442 1.143055 -0.215188 0
M  V30 45 H 0.171342 -0.039754 0.800518 0
M  V30 46 H -3.065266 0.330370 2.259916 0
M  V30 47 H -1.280192 -0.195973 -1.008220 0
M  V30 48 H -1.854431 -1.857919 -2.577358 0
M  V30 49 H -2.507623 -3.092979 -4.001191 0
M  V30 50 H -3.919298 -4.117726 -4.502188 0
M  V30 51 H -1.859539 -5.501270 -4.440885 0
M  V30 52 H -1.555643 -4.963139 -2.778524 0
M  V30 53 H -5.022100 -6.769874 -2.464288 0
M  V30 54 H -4.909457 -5.948075 -4.018074 0
M  V30 55 H -5.095679 -4.854933 -1.179980 0
M  V30 56 H -5.790477 -4.228296 -2.782078 0
M  V30 57 H -4.977932 -3.191752 -0.026799 0
M  V30 58 H -0.892639 4.430130 2.239174 0
M  V30 END ATOM
M  V30 BEGIN BOND
M  V30 1 1 1 2
M  V30 2 1 2 3
M  V30 3 2 3 4
M  V30 4 1 3 5
M  V30 5 2 5 6
M  V30 6 1 6 7
M  V30 7 2 7 8
M  V30 8 1 8 9
M  V30 9 2 9 10
M  V30 10 1 10 11
M  V30 11 1 11 12
M  V30 12 2 12 13
M  V30 13 1 13 14
M  V30 14 1 14 15
M  V30 15 1 15 16
M  V30 16 2 16 17
M  V30 17 1 17 18
M  V30 18 2 18 19
M  V30 19 1 19 20
M  V30 20 1 20 21
M  V30 21 1 21 22
M  V30 22 1 22 23
M  V30 23 1 23 24
M  V30 24 1 24 25
M  V30 25 1 19 26
M  V30 26 2 26 27
M  V30 27 1 27 28
M  V30 28 2 14 29
M  V30 29 1 29 30
M  V30 30 2 30 31
M  V30 31 1 31 32
M  V30 32 1 32 33
M  V30 33 1 32 34
M  V30 34 1 32 35
M  V30 35 1 10 5
M  V30 36 1 31 12
M  V30 37 1 27 16
M  V30 38 1 25 20
M  V30 39 1 1 36
M  V30 40 1 1 37
M  V30 41 1 1 38
M  V30 42 1 2 39
M  V30 43 1 6 40
M  V30 44 1 7 41
M  V30 45 1 8 42
M  V30 46 1 9 43
M  V30 47 1 11 44
M  V30 48 1 13 45
M  V30 49 1 15 46
M  V30 50 1 17 47
M  V30 51 1 18 48
M  V30 52 1 21 49
M  V30 53 1 21 50
M  V30 54 1 22 51
M  V30 55 1 22 52
M  V30 56 1 24 53
M  V30 57 1 24 54
M  V30 58 1 25 55
M  V30 59 1 25 56
M  V30 60 1 26 57
M  V30 61 1 30 58
M  V30 END BOND
M  V30 END CTAB
M  END
>  <Dataset>  (371) 
ChEMBL_Kinases

>  <Ligand_Instance>  (371) 
nan

>  <PDB_ID>  (371) 
nan

>  <Standardized_SMILES>  (371) 
CNC(=O)c1ccccc1Nc1cc(Nc2ccc(N3CCOCC3)cc2F)ncc1C(F)(F)F

>  <Name>  (371) 
nan

>  <Pocket>  (371) 
nan

>  <ATP_Site>  (371) 
nan

>  <Peripheral>  (371) 
nan

>  <Num_H_Atoms_ProtBoundConf>  (371) 
nan

>  <Num_Resolved_Atoms>  (371) 
nan

>  <Num_Not_Resolved_Atoms>  (371) 
nan

$$$$
CHEMBL3220474
     RDKit          3D

  0  0  0  0  0  0  0  0  0  0999 V3000
M  V30 BEGIN CTAB
M  V30 COUNTS 48 51 0 0 0
M  V30 BEGIN ATOM
M  V30 1 C 5.680083 2.978497 -0.332933 0
M  V30 2 N 5.587338 2.032358 0.778497 0
M  V30 3 C 4.422150 1.253667 0.834764 0
M  V30 4 O 3.775645 1.639898 -0.158411 0
M  V30 5 C 4.184049 0.273330 1.874370 0
M  V30 6 C 5.159738 0.120446 2.823980 0
M  V30 7 C 5.073667 -0.770863 3.866729 0
M  V30 8 C 3.965188 -1.575307 4.005826 0
M  V30 9 C 2.989776 -1.419297 3.052702 0
M  V30 10 C 3.077262 -0.525123 2.007284 0
M  V30 11 N 2.037156 -0.427359 1.064459 0
M  V30 12 C 0.804051 -0.982953 0.668139 0
M  V30 13 C -0.386572 -0.272832 0.802259 0
M  V30 14 C -1.634016 -0.667389 0.420625 0
M  V30 15 N -2.749858 0.177713 0.629127 0
M  V30 16 C -4.095354 -0.095013 0.287376 0
M  V30 17 C -5.073143 0.838444 0.560254 0
M  V30 18 C -6.399578 0.643581 0.257357 0
M  V30 19 C -6.830135 -0.516582 -0.346250 0
M  V30 20 C -5.886976 -1.478343 -0.637731 0
M  V30 21 C -4.576694 -1.234993 -0.315092 0
M  V30 22 O -6.553019 -2.539412 -1.233538 0
M  V30 23 C -7.942886 -2.407441 -1.000929 0
M  V30 24 O -8.063271 -1.008604 -0.771038 0
M  V30 25 N -1.621339 -1.885139 -0.136197 0
M  V30 26 C -0.527800 -2.632420 -0.303874 0
M  V30 27 C 0.731198 -2.225140 0.085036 0
M  V30 28 C 1.839982 -3.161089 -0.195937 0
M  V30 29 F 1.343527 -4.296223 -0.861017 0
M  V30 30 F 2.477730 -3.536240 0.944870 0
M  V30 31 F 2.799786 -2.613075 -1.040571 0
M  V30 32 H 4.901367 3.765850 -0.167299 0
M  V30 33 H 5.450333 2.526810 -1.307930 0
M  V30 34 H 6.657811 3.501396 -0.310410 0
M  V30 35 H 6.389948 1.983611 1.472446 0
M  V30 36 H 6.087350 0.653876 2.881308 0
M  V30 37 H 5.827559 -0.916455 4.634560 0
M  V30 38 H 3.816453 -2.299606 4.791841 0
M  V30 39 H 2.093278 -2.049002 3.145211 0
M  V30 40 H 2.094606 0.280383 0.328937 0
M  V30 41 H -0.262503 0.701055 1.268946 0
M  V30 42 H -2.560826 1.099081 1.082606 0
M  V30 43 H -4.844626 1.801004 1.040376 0
M  V30 44 H -7.156773 1.384744 0.477106 0
M  V30 45 H -3.895986 -2.020085 -0.567405 0
M  V30 46 H -8.317290 -3.002656 -0.152792 0
M  V30 47 H -8.427906 -2.657364 -1.971384 0
M  V30 48 H -0.716459 -3.606950 -0.781529 0
M  V30 END ATOM
M  V30 BEGIN BOND
M  V30 1 1 1 2
M  V30 2 1 2 3
M  V30 3 2 3 4
M  V30 4 1 3 5
M  V30 5 2 5 6
M  V30 6 1 6 7
M  V30 7 2 7 8
M  V30 8 1 8 9
M  V30 9 2 9 10
M  V30 10 1 10 11
M  V30 11 1 11 12
M  V30 12 2 12 13
M  V30 13 1 13 14
M  V30 14 1 14 15
M  V30 15 1 15 16
M  V30 16 2 16 17
M  V30 17 1 17 18
M  V30 18 2 18 19
M  V30 19 1 19 20
M  V30 20 2 20 21
M  V30 21 1 20 22
M  V30 22 1 22 23
M  V30 23 1 23 24
M  V30 24 2 14 25
M  V30 25 1 25 26
M  V30 26 2 26 27
M  V30 27 1 27 28
M  V30 28 1 28 29
M  V30 29 1 28 30
M  V30 30 1 28 31
M  V30 31 1 10 5
M  V30 32 1 27 12
M  V30 33 1 21 16
M  V30 34 1 24 19
M  V30 35 1 1 32
M  V30 36 1 1 33
M  V30 37 1 1 34
M  V30 38 1 2 35
M  V30 39 1 6 36
M  V30 40 1 7 37
M  V30 41 1 8 38
M  V30 42 1 9 39
M  V30 43 1 11 40
M  V30 44 1 13 41
M  V30 45 1 15 42
M  V30 46 1 17 43
M  V30 47 1 18 44
M  V30 48 1 21 45
M  V30 49 1 23 46
M  V30 50 1 23 47
M  V30 51 1 26 48
M  V30 END BOND
M  V30 END CTAB
M  END
>  <Dataset>  (372) 
ChEMBL_Kinases

>  <Ligand_Instance>  (372) 
nan

>  <PDB_ID>  (372) 
nan

>  <Standardized_SMILES>  (372) 
CNC(=O)c1ccccc1Nc1cc(Nc2ccc3c(c2)OCO3)ncc1C(F)(F)F

>  <Name>  (372) 
nan

>  <Pocket>  (372) 
nan

>  <ATP_Site>  (372) 
nan

>  <Peripheral>  (372) 
nan

>  <Num_H_Atoms_ProtBoundConf>  (372) 
nan

>  <Num_Resolved_Atoms>  (372) 
nan

>  <Num_Not_Resolved_Atoms>  (372) 
nan

$$$$
CHEMBL3220475
     RDKit          3D

  0  0  0  0  0  0  0  0  0  0999 V3000
M  V30 BEGIN CTAB
M  V30 COUNTS 51 54 0 0 0
M  V30 BEGIN ATOM
M  V30 1 C 3.860293 -5.004025 0.643177 0
M  V30 2 N 4.317706 -3.714537 1.170919 0
M  V30 3 C 3.408964 -2.678789 1.447740 0
M  V30 4 O 2.304575 -3.168573 1.135296 0
M  V30 5 C 3.823003 -1.396010 1.973772 0
M  V30 6 C 5.157980 -1.230985 2.238087 0
M  V30 7 C 5.711118 -0.084222 2.760647 0
M  V30 8 C 4.889191 0.992494 3.049922 0
M  V30 9 C 3.549496 0.839876 2.789103 0
M  V30 10 C 3.025760 -0.321559 2.264368 0
M  V30 11 N 1.639856 -0.422701 2.012179 0
M  V30 12 C 0.425746 0.276873 2.177805 0
M  V30 13 C -0.268504 0.802044 1.076851 0
M  V30 14 C -1.484244 1.441615 1.160672 0
M  V30 15 N -2.189542 1.993278 0.062855 0
M  V30 16 C -2.958673 1.336416 -0.933366 0
M  V30 17 C -3.760216 2.087971 -1.763041 0
M  V30 18 C -4.493500 1.457175 -2.745252 0
M  V30 19 C -4.390219 0.068368 -2.855228 0
M  V30 20 C -5.112028 -0.590985 -3.833887 0
M  V30 21 C -4.994181 -1.979965 -3.931599 0
M  V30 22 C -4.189286 -2.716450 -3.094078 0
M  V30 23 C -3.459389 -2.061826 -2.106727 0
M  V30 24 C -3.579744 -0.691457 -2.014880 0
M  V30 25 C -2.860064 -0.032624 -1.045347 0
M  V30 26 N -1.994567 1.542802 2.393491 0
M  V30 27 C -1.353837 1.050694 3.461042 0
M  V30 28 C -0.123251 0.394575 3.441883 0
M  V30 29 C 0.434203 -0.098333 4.716521 0
M  V30 30 F -0.493408 0.201827 5.732767 0
M  V30 31 F 0.568457 -1.478622 4.752318 0
M  V30 32 F 1.577568 0.560904 5.127812 0
M  V30 33 H 2.991856 -5.270978 1.313621 0
M  V30 34 H 4.609184 -5.802104 0.778502 0
M  V30 35 H 3.519049 -4.908208 -0.395781 0
M  V30 36 H 5.357873 -3.659147 1.309990 0
M  V30 37 H 5.935432 -1.950971 2.079754 0
M  V30 38 H 6.754690 0.080268 2.979873 0
M  V30 39 H 5.162555 1.958806 3.461346 0
M  V30 40 H 2.835239 1.648234 2.991090 0
M  V30 41 H 1.235961 -1.266710 1.550338 0
M  V30 42 H 0.185565 0.692528 0.112282 0
M  V30 43 H -2.051420 3.031129 0.096241 0
M  V30 44 H -3.825745 3.171854 -1.659570 0
M  V30 45 H -5.140015 2.002439 -3.428023 0
M  V30 46 H -5.763989 -0.032661 -4.519043 0
M  V30 47 H -5.564492 -2.450697 -4.697311 0
M  V30 48 H -4.092375 -3.801498 -3.166881 0
M  V30 49 H -2.790851 -2.577657 -1.397132 0
M  V30 50 H -2.206044 -0.573115 -0.354949 0
M  V30 51 H -1.894034 1.206532 4.404494 0
M  V30 END ATOM
M  V30 BEGIN BOND
M  V30 1 1 1 2
M  V30 2 1 2 3
M  V30 3 2 3 4
M  V30 4 1 3 5
M  V30 5 2 5 6
M  V30 6 1 6 7
M  V30 7 2 7 8
M  V30 8 1 8 9
M  V30 9 2 9 10
M  V30 10 1 10 11
M  V30 11 1 11 12
M  V30 12 2 12 13
M  V30 13 1 13 14
M  V30 14 1 14 15
M  V30 15 1 15 16
M  V30 16 2 16 17
M  V30 17 1 17 18
M  V30 18 2 18 19
M  V30 19 1 19 20
M  V30 20 2 20 21
M  V30 21 1 21 22
M  V30 22 2 22 23
M  V30 23 1 23 24
M  V30 24 2 24 25
M  V30 25 2 14 26
M  V30 26 1 26 27
M  V30 27 2 27 28
M  V30 28 1 28 29
M  V30 29 1 29 30
M  V30 30 1 29 31
M  V30 31 1 29 32
M  V30 32 1 10 5
M  V30 33 1 28 12
M  V30 34 1 25 16
M  V30 35 1 24 19
M  V30 36 1 1 33
M  V30 37 1 1 34
M  V30 38 1 1 35
M  V30 39 1 2 36
M  V30 40 1 6 37
M  V30 41 1 7 38
M  V30 42 1 8 39
M  V30 43 1 9 40
M  V30 44 1 11 41
M  V30 45 1 13 42
M  V30 46 1 15 43
M  V30 47 1 17 44
M  V30 48 1 18 45
M  V30 49 1 20 46
M  V30 50 1 21 47
M  V30 51 1 22 48
M  V30 52 1 23 49
M  V30 53 1 25 50
M  V30 54 1 27 51
M  V30 END BOND
M  V30 END CTAB
M  END
>  <Dataset>  (373) 
ChEMBL_Kinases

>  <Ligand_Instance>  (373) 
nan

>  <PDB_ID>  (373) 
nan

>  <Standardized_SMILES>  (373) 
CNC(=O)c1ccccc1Nc1cc(Nc2ccc3ccccc3c2)ncc1C(F)(F)F

>  <Name>  (373) 
nan

>  <Pocket>  (373) 
nan

>  <ATP_Site>  (373) 
nan

>  <Peripheral>  (373) 
nan

>  <Num_H_Atoms_ProtBoundConf>  (373) 
nan

>  <Num_Resolved_Atoms>  (373) 
nan

>  <Num_Not_Resolved_Atoms>  (373) 
nan

$$$$
CHEMBL3220476
     RDKit          3D

  0  0  0  0  0  0  0  0  0  0999 V3000
M  V30 BEGIN CTAB
M  V30 COUNTS 57 59 0 0 0
M  V30 BEGIN ATOM
M  V30 1 C 1.906715 -3.249248 4.815019 0
M  V30 2 N 3.098815 -2.478106 4.521268 0
M  V30 3 C 3.013323 -1.432077 3.539355 0
M  V30 4 O 1.826380 -1.472307 3.170582 0
M  V30 5 C 4.179550 -0.655067 3.229608 0
M  V30 6 C 5.364607 -0.873855 3.850824 0
M  V30 7 C 6.440501 -0.108770 3.523537 0
M  V30 8 C 6.420942 0.911080 2.573600 0
M  V30 9 C 5.188232 1.108063 1.955640 0
M  V30 10 C 4.077022 0.329336 2.282754 0
M  V30 11 N 2.949901 0.709207 1.521250 0
M  V30 12 C 1.985679 0.259293 0.588715 0
M  V30 13 C 0.633119 0.292014 0.814526 0
M  V30 14 C -0.315930 -0.144878 -0.062159 0
M  V30 15 N -1.688949 -0.056616 0.277453 0
M  V30 16 C -2.802678 -0.476886 -0.490664 0
M  V30 17 C -4.096660 -0.193631 -0.080000 0
M  V30 18 C -5.197964 -0.591987 -0.802765 0
M  V30 19 O -6.477163 -0.291545 -0.362732 0
M  V30 20 C -6.730588 0.419344 0.814309 0
M  V30 21 C -5.076109 -1.298088 -1.980412 0
M  V30 22 O -6.170645 -1.710845 -2.726597 0
M  V30 23 C -6.769386 -0.949627 -3.755248 0
M  V30 24 C -3.808276 -1.601923 -2.426551 0
M  V30 25 O -3.629731 -2.317348 -3.617316 0
M  V30 26 C -2.376307 -2.658185 -4.118723 0
M  V30 27 C -2.734954 -1.183276 -1.671315 0
M  V30 28 N 0.216033 -0.622428 -1.198060 0
M  V30 29 C 1.498133 -0.693421 -1.502856 0
M  V30 30 C 2.439956 -0.252213 -0.615105 0
M  V30 31 C 3.865779 -0.359535 -1.020982 0
M  V30 32 F 4.000355 -0.924292 -2.297573 0
M  V30 33 F 4.595689 -1.181040 -0.186207 0
M  V30 34 F 4.444221 0.907313 -1.156595 0
M  V30 35 H 1.264617 -2.738731 5.554962 0
M  V30 36 H 1.341625 -3.496895 3.879279 0
M  V30 37 H 2.219401 -4.230055 5.251023 0
M  V30 38 H 3.971251 -2.740364 5.059770 0
M  V30 39 H 5.548844 -1.610424 4.597649 0
M  V30 40 H 7.408509 -0.248417 3.994434 0
M  V30 41 H 7.288642 1.509001 2.328304 0
M  V30 42 H 5.202534 1.910193 1.220940 0
M  V30 43 H 2.668622 1.726511 1.668410 0
M  V30 44 H 0.383521 0.709570 1.787510 0
M  V30 45 H -1.917454 0.372585 1.214132 0
M  V30 46 H -4.228577 0.358993 0.838383 0
M  V30 47 H -6.575223 1.491046 0.599087 0
M  V30 48 H -6.074529 0.144920 1.661950 0
M  V30 49 H -7.782137 0.320270 1.157498 0
M  V30 50 H -7.882679 -1.071342 -3.797069 0
M  V30 51 H -6.491989 0.142450 -3.699391 0
M  V30 52 H -6.409603 -1.281582 -4.771110 0
M  V30 53 H -2.513170 -3.270043 -5.027071 0
M  V30 54 H -1.866277 -3.318614 -3.379586 0
M  V30 55 H -1.715747 -1.775022 -4.284976 0
M  V30 56 H -1.774922 -1.455786 -2.077241 0
M  V30 57 H 1.727145 -1.120472 -2.492381 0
M  V30 END ATOM
M  V30 BEGIN BOND
M  V30 1 1 1 2
M  V30 2 1 2 3
M  V30 3 2 3 4
M  V30 4 1 3 5
M  V30 5 2 5 6
M  V30 6 1 6 7
M  V30 7 2 7 8
M  V30 8 1 8 9
M  V30 9 2 9 10
M  V30 10 1 10 11
M  V30 11 1 11 12
M  V30 12 2 12 13
M  V30 13 1 13 14
M  V30 14 1 14 15
M  V30 15 1 15 16
M  V30 16 2 16 17
M  V30 17 1 17 18
M  V30 18 1 18 19
M  V30 19 1 19 20
M  V30 20 2 18 21
M  V30 21 1 21 22
M  V30 22 1 22 23
M  V30 23 1 21 24
M  V30 24 1 24 25
M  V30 25 1 25 26
M  V30 26 2 24 27
M  V30 27 2 14 28
M  V30 28 1 28 29
M  V30 29 2 29 30
M  V30 30 1 30 31
M  V30 31 1 31 32
M  V30 32 1 31 33
M  V30 33 1 31 34
M  V30 34 1 10 5
M  V30 35 1 30 12
M  V30 36 1 27 16
M  V30 37 1 1 35
M  V30 38 1 1 36
M  V30 39 1 1 37
M  V30 40 1 2 38
M  V30 41 1 6 39
M  V30 42 1 7 40
M  V30 43 1 8 41
M  V30 44 1 9 42
M  V30 45 1 11 43
M  V30 46 1 13 44
M  V30 47 1 15 45
M  V30 48 1 17 46
M  V30 49 1 20 47
M  V30 50 1 20 48
M  V30 51 1 20 49
M  V30 52 1 23 50
M  V30 53 1 23 51
M  V30 54 1 23 52
M  V30 55 1 26 53
M  V30 56 1 26 54
M  V30 57 1 26 55
M  V30 58 1 27 56
M  V30 59 1 29 57
M  V30 END BOND
M  V30 END CTAB
M  END
>  <Dataset>  (374) 
ChEMBL_Kinases

>  <Ligand_Instance>  (374) 
nan

>  <PDB_ID>  (374) 
nan

>  <Standardized_SMILES>  (374) 
CNC(=O)c1ccccc1Nc1cc(Nc2cc(OC)c(OC)c(OC)c2)ncc1C(F)(F)F

>  <Name>  (374) 
nan

>  <Pocket>  (374) 
nan

>  <ATP_Site>  (374) 
nan

>  <Peripheral>  (374) 
nan

>  <Num_H_Atoms_ProtBoundConf>  (374) 
nan

>  <Num_Resolved_Atoms>  (374) 
nan

>  <Num_Not_Resolved_Atoms>  (374) 
nan

$$$$
CHEMBL3220477
     RDKit          3D

  0  0  0  0  0  0  0  0  0  0999 V3000
M  V30 BEGIN CTAB
M  V30 COUNTS 61 64 0 0 0
M  V30 BEGIN ATOM
M  V30 1 C 3.210563 -1.340808 5.344021 0
M  V30 2 N 3.889087 -0.519638 4.378130 0
M  V30 3 C 3.339574 0.170264 3.299342 0
M  V30 4 O 2.084365 -0.079609 3.341496 0
M  V30 5 C 3.984787 1.003609 2.310581 0
M  V30 6 C 5.327235 1.177180 2.436279 0
M  V30 7 C 5.894277 1.989653 1.476235 0
M  V30 8 C 5.226210 2.616759 0.435019 0
M  V30 9 C 3.868165 2.373548 0.399688 0
M  V30 10 C 3.205727 1.561688 1.333886 0
M  V30 11 N 1.847056 1.467314 1.088070 0
M  V30 12 C 0.536255 1.661232 1.537766 0
M  V30 13 C -0.433633 0.690202 1.668508 0
M  V30 14 C -1.733980 0.792032 2.110608 0
M  V30 15 N -2.297002 -0.510665 2.070396 0
M  V30 16 C -2.722497 -1.122787 0.854217 0
M  V30 17 C -3.485528 -0.681972 -0.196632 0
M  V30 18 C -3.639437 -1.532434 -1.262820 0
M  V30 19 C -3.072462 -2.776563 -1.317197 0
M  V30 20 N -3.238641 -3.606223 -2.462221 0
M  V30 21 C -2.038252 -3.819406 -3.276919 0
M  V30 22 C -2.485928 -3.666438 -4.723293 0
M  V30 23 O -3.536939 -4.480873 -5.054455 0
M  V30 24 C -4.018080 -5.229046 -4.001700 0
M  V30 25 C -4.458982 -4.260503 -2.893442 0
M  V30 26 C -2.297429 -3.248499 -0.268804 0
M  V30 27 C -1.694900 -4.603941 -0.366733 0
M  V30 28 C -2.134334 -2.398854 0.816714 0
M  V30 29 N -2.012908 2.059919 2.442711 0
M  V30 30 C -1.166700 3.088183 2.364357 0
M  V30 31 C 0.124913 2.940983 1.916381 0
M  V30 32 C 1.001787 4.136757 1.869548 0
M  V30 33 F 1.412906 4.410222 0.589188 0
M  V30 34 F 0.353846 5.221390 2.403965 0
M  V30 35 F 2.142976 3.925423 2.646292 0
M  V30 36 H 3.606976 -2.382559 5.345939 0
M  V30 37 H 2.126225 -1.422115 5.092198 0
M  V30 38 H 3.312071 -0.895122 6.367666 0
M  V30 39 H 4.932985 -0.439912 4.514956 0
M  V30 40 H 5.937113 0.739821 3.202132 0
M  V30 41 H 6.967715 2.158716 1.535775 0
M  V30 42 H 5.734702 3.232812 -0.278249 0
M  V30 43 H 3.370642 2.879095 -0.433810 0
M  V30 44 H 1.638566 1.065803 0.129903 0
M  V30 45 H 0.031791 -0.252497 1.337635 0
M  V30 46 H -2.359546 -0.952554 3.008572 0
M  V30 47 H -3.855082 0.295564 -0.010823 0
M  V30 48 H -4.253721 -1.127498 -2.060011 0
M  V30 49 H -1.328019 -2.993503 -3.089867 0
M  V30 50 H -1.573597 -4.790884 -3.139750 0
M  V30 51 H -2.751135 -2.584844 -4.838175 0
M  V30 52 H -1.620228 -3.901386 -5.360489 0
M  V30 53 H -3.215682 -5.872905 -3.633030 0
M  V30 54 H -4.849087 -5.873505 -4.350559 0
M  V30 55 H -4.940052 -4.821152 -2.063421 0
M  V30 56 H -5.135197 -3.485558 -3.277416 0
M  V30 57 H -2.357275 -5.258778 -0.929415 0
M  V30 58 H -0.713959 -4.525370 -0.881871 0
M  V30 59 H -1.580802 -4.992505 0.667720 0
M  V30 60 H -1.506146 -2.875295 1.582099 0
M  V30 61 H -1.629168 4.007413 2.688540 0
M  V30 END ATOM
M  V30 BEGIN BOND
M  V30 1 1 1 2
M  V30 2 1 2 3
M  V30 3 2 3 4
M  V30 4 1 3 5
M  V30 5 2 5 6
M  V30 6 1 6 7
M  V30 7 2 7 8
M  V30 8 1 8 9
M  V30 9 2 9 10
M  V30 10 1 10 11
M  V30 11 1 11 12
M  V30 12 2 12 13
M  V30 13 1 13 14
M  V30 14 1 14 15
M  V30 15 1 15 16
M  V30 16 2 16 17
M  V30 17 1 17 18
M  V30 18 2 18 19
M  V30 19 1 19 20
M  V30 20 1 20 21
M  V30 21 1 21 22
M  V30 22 1 22 23
M  V30 23 1 23 24
M  V30 24 1 24 25
M  V30 25 1 19 26
M  V30 26 1 26 27
M  V30 27 2 26 28
M  V30 28 2 14 29
M  V30 29 1 29 30
M  V30 30 2 30 31
M  V30 31 1 31 32
M  V30 32 1 32 33
M  V30 33 1 32 34
M  V30 34 1 32 35
M  V30 35 1 10 5
M  V30 36 1 31 12
M  V30 37 1 28 16
M  V30 38 1 25 20
M  V30 39 1 1 36
M  V30 40 1 1 37
M  V30 41 1 1 38
M  V30 42 1 2 39
M  V30 43 1 6 40
M  V30 44 1 7 41
M  V30 45 1 8 42
M  V30 46 1 9 43
M  V30 47 1 11 44
M  V30 48 1 13 45
M  V30 49 1 15 46
M  V30 50 1 17 47
M  V30 51 1 18 48
M  V30 52 1 21 49
M  V30 53 1 21 50
M  V30 54 1 22 51
M  V30 55 1 22 52
M  V30 56 1 24 53
M  V30 57 1 24 54
M  V30 58 1 25 55
M  V30 59 1 25 56
M  V30 60 1 27 57
M  V30 61 1 27 58
M  V30 62 1 27 59
M  V30 63 1 28 60
M  V30 64 1 30 61
M  V30 END BOND
M  V30 END CTAB
M  END
>  <Dataset>  (375) 
ChEMBL_Kinases

>  <Ligand_Instance>  (375) 
nan

>  <PDB_ID>  (375) 
nan

>  <Standardized_SMILES>  (375) 
CNC(=O)c1ccccc1Nc1cc(Nc2ccc(N3CCOCC3)c(C)c2)ncc1C(F)(F)F

>  <Name>  (375) 
nan

>  <Pocket>  (375) 
nan

>  <ATP_Site>  (375) 
nan

>  <Peripheral>  (375) 
nan

>  <Num_H_Atoms_ProtBoundConf>  (375) 
nan

>  <Num_Resolved_Atoms>  (375) 
nan

>  <Num_Not_Resolved_Atoms>  (375) 
nan

$$$$
CHEMBL3676273
     RDKit          3D

  0  0  0  0  0  0  0  0  0  0999 V3000
M  V30 BEGIN CTAB
M  V30 COUNTS 48 51 0 0 0
M  V30 BEGIN ATOM
M  V30 1 N 3.852451 -3.376952 -0.576113 0
M  V30 2 C 3.290258 -2.490649 0.404485 0 CFG=1
M  V30 3 C 4.380748 -1.902716 1.290685 0
M  V30 4 C 3.673105 -1.307038 2.481512 0 CFG=2
M  V30 5 F 2.829694 -2.304184 2.984790 0
M  V30 6 C 2.880452 -0.102953 2.027035 0
M  V30 7 N 2.640726 -0.119719 0.597053 0
M  V30 8 C 2.460610 1.133492 -0.051990 0
M  V30 9 C 3.292366 1.586399 -1.079172 0
M  V30 10 C 3.047977 2.833870 -1.667599 0
M  V30 11 N 2.025237 3.612080 -1.265497 0
M  V30 12 C 1.196640 3.204185 -0.270138 0
M  V30 13 C 1.427546 1.968559 0.322566 0
M  V30 14 N 0.500216 1.615133 1.369975 0
M  V30 15 C -0.597565 0.917328 0.797032 0
M  V30 16 O -0.447575 0.808826 -0.447254 0
M  V30 17 C -1.709851 0.431449 1.651331 0
M  V30 18 C -1.778473 0.598943 2.985347 0
M  V30 19 S -3.415890 -0.255872 3.337672 0
M  V30 20 C -3.660992 -0.659486 1.601749 0
M  V30 21 C -4.853601 -1.394654 1.127959 0
M  V30 22 C -4.931807 -1.646603 -0.225660 0
M  V30 23 F -3.930044 -1.218834 -1.059493 0
M  V30 24 C -6.036596 -2.335808 -0.717586 0
M  V30 25 C -7.052506 -2.771494 0.115835 0
M  V30 26 C -6.888005 -2.474146 1.453131 0
M  V30 27 C -5.826505 -1.797560 2.019167 0
M  V30 28 F -5.737654 -1.546103 3.331233 0
M  V30 29 N -2.684239 -0.204427 1.035660 0
M  V30 30 C 2.569198 -1.297093 -0.223577 0
M  V30 31 H 3.133599 -4.082059 -0.862752 0
M  V30 32 H 4.272934 -2.889104 -1.395851 0
M  V30 33 H 2.627980 -3.075099 1.063292 0
M  V30 34 H 4.959036 -1.106491 0.791199 0
M  V30 35 H 5.023121 -2.760502 1.622166 0
M  V30 36 H 4.407999 -0.996102 3.252064 0
M  V30 37 H 3.410209 0.834312 2.331587 0
M  V30 38 H 1.930891 -0.148043 2.621831 0
M  V30 39 H 4.113915 0.960236 -1.401492 0
M  V30 40 H 3.674591 3.192704 -2.452822 0
M  V30 41 H 0.376200 3.835984 0.047569 0
M  V30 42 H 0.549802 1.803773 2.415200 0
M  V30 43 H -0.992265 1.127743 3.584224 0
M  V30 44 H -6.090701 -2.530765 -1.788127 0
M  V30 45 H -7.918607 -3.307195 -0.239932 0
M  V30 46 H -7.696344 -2.822349 2.106321 0
M  V30 47 H 1.498965 -1.579050 -0.300304 0
M  V30 48 H 2.946780 -1.129181 -1.249584 0
M  V30 END ATOM
M  V30 BEGIN BOND
M  V30 1 1 1 2
M  V30 2 1 2 3
M  V30 3 1 3 4
M  V30 4 1 4 5
M  V30 5 1 4 6
M  V30 6 1 6 7
M  V30 7 1 7 8
M  V30 8 2 8 9
M  V30 9 1 9 10
M  V30 10 2 10 11
M  V30 11 1 11 12
M  V30 12 2 12 13
M  V30 13 1 13 14
M  V30 14 1 14 15
M  V30 15 2 15 16
M  V30 16 1 15 17
M  V30 17 2 17 18
M  V30 18 1 18 19
M  V30 19 1 19 20
M  V30 20 1 20 21
M  V30 21 2 21 22
M  V30 22 1 22 23
M  V30 23 1 22 24
M  V30 24 2 24 25
M  V30 25 1 25 26
M  V30 26 2 26 27
M  V30 27 1 27 28
M  V30 28 2 20 29
M  V30 29 1 7 30
M  V30 30 1 30 2
M  V30 31 1 13 8
M  V30 32 1 29 17
M  V30 33 1 27 21
M  V30 34 1 1 31
M  V30 35 1 1 32
M  V30 36 1 2 33 CFG=1
M  V30 37 1 3 34
M  V30 38 1 3 35
M  V30 39 1 4 36 CFG=1
M  V30 40 1 6 37
M  V30 41 1 6 38
M  V30 42 1 9 39
M  V30 43 1 10 40
M  V30 44 1 12 41
M  V30 45 1 14 42
M  V30 46 1 18 43
M  V30 47 1 24 44
M  V30 48 1 25 45
M  V30 49 1 26 46
M  V30 50 1 30 47
M  V30 51 1 30 48
M  V30 END BOND
M  V30 END CTAB
M  END
>  <Dataset>  (376) 
ChEMBL_Kinases

>  <Ligand_Instance>  (376) 
nan

>  <PDB_ID>  (376) 
nan

>  <Standardized_SMILES>  (376) 
N[C@H]1C[C@H](F)CN(c2ccncc2NC(=O)c2csc(-c3c(F)cccc3F)n2)C1

>  <Name>  (376) 
nan

>  <Pocket>  (376) 
nan

>  <ATP_Site>  (376) 
nan

>  <Peripheral>  (376) 
nan

>  <Num_H_Atoms_ProtBoundConf>  (376) 
nan

>  <Num_Resolved_Atoms>  (376) 
nan

>  <Num_Not_Resolved_Atoms>  (376) 
nan

$$$$
CHEMBL3220479
     RDKit          3D

  0  0  0  0  0  0  0  0  0  0999 V3000
M  V30 BEGIN CTAB
M  V30 COUNTS 52 55 0 0 0
M  V30 BEGIN ATOM
M  V30 1 N 6.081002 2.023982 3.688892 0
M  V30 2 C 5.200511 1.764941 2.604125 0
M  V30 3 O 4.805198 0.736475 3.185950 0
M  V30 4 C 5.063304 2.581588 1.430865 0
M  V30 5 C 5.895191 3.677442 1.385281 0
M  V30 6 C 5.816570 4.483850 0.271393 0
M  V30 7 C 4.934555 4.183706 -0.739291 0
M  V30 8 C 4.125600 3.074562 -0.640935 0
M  V30 9 C 4.157019 2.215695 0.464352 0
M  V30 10 N 3.310029 1.093414 0.512617 0
M  V30 11 C 2.279961 0.718306 1.395247 0
M  V30 12 C 1.784609 1.507933 2.404898 0
M  V30 13 C 0.779941 1.175949 3.288049 0
M  V30 14 N 0.256785 -0.067808 3.102855 0
M  V30 15 C 0.710907 -0.874575 2.127277 0
M  V30 16 N 0.063961 -2.139668 2.063305 0
M  V30 17 C -1.090088 -2.499464 1.314339 0
M  V30 18 C -1.673934 -1.522905 0.535038 0
M  V30 19 C -2.804482 -1.929022 -0.180057 0
M  V30 20 C -3.277362 -3.242087 -0.084085 0
M  V30 21 N -4.418855 -3.567093 -0.835517 0
M  V30 22 C -5.054616 -2.588081 -1.659226 0
M  V30 23 C -6.070528 -3.152431 -2.608968 0
M  V30 24 O -6.970774 -4.017706 -2.035926 0
M  V30 25 C -6.535558 -4.641065 -0.889994 0
M  V30 26 C -5.043815 -4.859849 -0.856835 0
M  V30 27 C -2.634808 -4.161832 0.720009 0
M  V30 28 C -1.498796 -3.808656 1.457600 0
M  V30 29 C 1.720894 -0.527702 1.247282 0
M  V30 30 H 7.088670 1.725078 3.831931 0
M  V30 31 H 5.937066 2.567473 4.590422 0
M  V30 32 H 6.592972 3.925817 2.171774 0
M  V30 33 H 6.440358 5.361242 0.168475 0
M  V30 34 H 4.901831 4.841007 -1.598632 0
M  V30 35 H 3.443240 2.862263 -1.447340 0
M  V30 36 H 3.584163 0.512791 -0.287814 0
M  V30 37 H 2.227577 2.492652 2.520481 0
M  V30 38 H 0.463663 1.881063 4.053836 0
M  V30 39 H 0.606592 -2.777097 2.685384 0
M  V30 40 H -1.267138 -0.523267 0.497089 0
M  V30 41 H -3.256469 -1.147414 -0.792331 0
M  V30 42 H -5.480441 -1.774168 -1.028389 0
M  V30 43 H -4.264061 -2.107813 -2.283726 0
M  V30 44 H -5.578510 -3.625489 -3.483838 0
M  V30 45 H -6.646419 -2.296845 -3.023506 0
M  V30 46 H -6.843434 -4.033816 -0.016235 0
M  V30 47 H -7.020758 -5.649143 -0.831130 0
M  V30 48 H -4.731365 -5.390177 -1.790270 0
M  V30 49 H -4.827887 -5.500646 0.007735 0
M  V30 50 H -2.981990 -5.171843 0.806289 0
M  V30 51 H -0.990243 -4.504749 2.083099 0
M  V30 52 H 2.054502 -1.201363 0.481849 0
M  V30 END ATOM
M  V30 BEGIN BOND
M  V30 1 1 1 2
M  V30 2 2 2 3
M  V30 3 1 2 4
M  V30 4 2 4 5
M  V30 5 1 5 6
M  V30 6 2 6 7
M  V30 7 1 7 8
M  V30 8 2 8 9
M  V30 9 1 9 10
M  V30 10 1 10 11
M  V30 11 2 11 12
M  V30 12 1 12 13
M  V30 13 2 13 14
M  V30 14 1 14 15
M  V30 15 1 15 16
M  V30 16 1 16 17
M  V30 17 2 17 18
M  V30 18 1 18 19
M  V30 19 2 19 20
M  V30 20 1 20 21
M  V30 21 1 21 22
M  V30 22 1 22 23
M  V30 23 1 23 24
M  V30 24 1 24 25
M  V30 25 1 25 26
M  V30 26 1 20 27
M  V30 27 2 27 28
M  V30 28 2 15 29
M  V30 29 1 9 4
M  V30 30 1 29 11
M  V30 31 1 28 17
M  V30 32 1 26 21
M  V30 33 1 1 30
M  V30 34 1 1 31
M  V30 35 1 5 32
M  V30 36 1 6 33
M  V30 37 1 7 34
M  V30 38 1 8 35
M  V30 39 1 10 36
M  V30 40 1 12 37
M  V30 41 1 13 38
M  V30 42 1 16 39
M  V30 43 1 18 40
M  V30 44 1 19 41
M  V30 45 1 22 42
M  V30 46 1 22 43
M  V30 47 1 23 44
M  V30 48 1 23 45
M  V30 49 1 25 46
M  V30 50 1 25 47
M  V30 51 1 26 48
M  V30 52 1 26 49
M  V30 53 1 27 50
M  V30 54 1 28 51
M  V30 55 1 29 52
M  V30 END BOND
M  V30 END CTAB
M  END
>  <Dataset>  (377) 
ChEMBL_Kinases

>  <Ligand_Instance>  (377) 
nan

>  <PDB_ID>  (377) 
nan

>  <Standardized_SMILES>  (377) 
NC(=O)c1ccccc1Nc1ccnc(Nc2ccc(N3CCOCC3)cc2)c1

>  <Name>  (377) 
nan

>  <Pocket>  (377) 
nan

>  <ATP_Site>  (377) 
nan

>  <Peripheral>  (377) 
nan

>  <Num_H_Atoms_ProtBoundConf>  (377) 
nan

>  <Num_Resolved_Atoms>  (377) 
nan

>  <Num_Not_Resolved_Atoms>  (377) 
nan

$$$$
CHEMBL3676272
     RDKit          3D

  0  0  0  0  0  0  0  0  0  0999 V3000
M  V30 BEGIN CTAB
M  V30 COUNTS 51 54 0 0 0
M  V30 BEGIN ATOM
M  V30 1 N 2.885062 -2.429588 -0.376555 0
M  V30 2 C 2.544487 -1.236932 0.338693 0
M  V30 3 C 3.167504 -1.259902 1.720114 0
M  V30 4 C 2.748424 -0.090372 2.540198 0
M  V30 5 C 1.462936 -0.360846 3.308477 0
M  V30 6 F 1.643163 -1.438652 4.162645 0
M  V30 7 C 2.660972 1.215154 1.837144 0
M  V30 8 N 2.492651 1.135680 0.401960 0
M  V30 9 C 1.801882 2.070563 -0.386559 0
M  V30 10 C 2.598535 2.664886 -1.342737 0
M  V30 11 C 2.113237 3.612743 -2.220230 0
M  V30 12 N 0.834293 3.971771 -2.148802 0
M  V30 13 C 0.002391 3.419653 -1.226701 0
M  V30 14 C 0.487006 2.460226 -0.336030 0
M  V30 15 N -0.304847 1.826237 0.661115 0
M  V30 16 C -0.923690 0.632902 0.199110 0
M  V30 17 O -0.622098 0.409080 -1.001868 0
M  V30 18 C -1.782520 -0.178991 1.052313 0
M  V30 19 C -2.086338 0.149783 2.412076 0
M  V30 20 S -3.213344 -1.313440 2.848174 0
M  V30 21 C -3.031472 -2.002888 1.188078 0
M  V30 22 C -3.761403 -3.314899 0.845003 0
M  V30 23 C -4.529268 -3.917051 1.818907 0
M  V30 24 F -4.673990 -3.420286 3.049219 0
M  V30 25 C -5.141841 -5.077670 1.428919 0
M  V30 26 C -5.006243 -5.608708 0.163683 0
M  V30 27 C -4.208716 -4.933269 -0.762074 0
M  V30 28 C -3.553722 -3.742846 -0.431883 0
M  V30 29 F -2.775897 -3.070561 -1.311886 0
M  V30 30 N -2.334650 -1.288317 0.591817 0
M  V30 31 C 3.068512 0.022135 -0.328592 0
M  V30 32 H 3.455814 -2.137569 -1.208422 0
M  V30 33 H 2.021977 -2.862815 -0.776051 0
M  V30 34 H 1.461599 -1.128998 0.460891 0
M  V30 35 H 2.726071 -2.170988 2.217945 0
M  V30 36 H 4.263782 -1.443735 1.688296 0
M  V30 37 H 3.530526 0.027805 3.347495 0
M  V30 38 H 0.702067 -0.611970 2.539240 0
M  V30 39 H 1.150493 0.556350 3.838601 0
M  V30 40 H 1.821327 1.810867 2.280318 0
M  V30 41 H 3.605175 1.818448 1.983821 0
M  V30 42 H 3.661888 2.450163 -1.495422 0
M  V30 43 H 2.691627 4.114085 -2.992266 0
M  V30 44 H -1.046596 3.659314 -1.107100 0
M  V30 45 H -0.466567 2.143712 1.657109 0
M  V30 46 H -1.660954 1.077804 2.892463 0
M  V30 47 H -5.767033 -5.606569 2.155825 0
M  V30 48 H -5.481054 -6.524979 -0.167342 0
M  V30 49 H -4.053703 -5.295826 -1.789020 0
M  V30 50 H 4.173351 0.057307 -0.093975 0
M  V30 51 H 2.896900 0.035290 -1.401474 0
M  V30 END ATOM
M  V30 BEGIN BOND
M  V30 1 1 1 2
M  V30 2 1 2 3
M  V30 3 1 3 4
M  V30 4 1 4 5
M  V30 5 1 5 6
M  V30 6 1 4 7
M  V30 7 1 7 8
M  V30 8 1 8 9
M  V30 9 2 9 10
M  V30 10 1 10 11
M  V30 11 2 11 12
M  V30 12 1 12 13
M  V30 13 2 13 14
M  V30 14 1 14 15
M  V30 15 1 15 16
M  V30 16 2 16 17
M  V30 17 1 16 18
M  V30 18 2 18 19
M  V30 19 1 19 20
M  V30 20 1 20 21
M  V30 21 1 21 22
M  V30 22 2 22 23
M  V30 23 1 23 24
M  V30 24 1 23 25
M  V30 25 2 25 26
M  V30 26 1 26 27
M  V30 27 2 27 28
M  V30 28 1 28 29
M  V30 29 2 21 30
M  V30 30 1 8 31
M  V30 31 1 31 2
M  V30 32 1 14 9
M  V30 33 1 30 18
M  V30 34 1 28 22
M  V30 35 1 1 32
M  V30 36 1 1 33
M  V30 37 1 2 34
M  V30 38 1 3 35
M  V30 39 1 3 36
M  V30 40 1 4 37
M  V30 41 1 5 38
M  V30 42 1 5 39
M  V30 43 1 7 40
M  V30 44 1 7 41
M  V30 45 1 10 42
M  V30 46 1 11 43
M  V30 47 1 13 44
M  V30 48 1 15 45
M  V30 49 1 19 46
M  V30 50 1 25 47
M  V30 51 1 26 48
M  V30 52 1 27 49
M  V30 53 1 31 50
M  V30 54 1 31 51
M  V30 END BOND
M  V30 END CTAB
M  END
>  <Dataset>  (378) 
ChEMBL_Kinases

>  <Ligand_Instance>  (378) 
nan

>  <PDB_ID>  (378) 
nan

>  <Standardized_SMILES>  (378) 
NC1CC(CF)CN(c2ccncc2NC(=O)c2csc(-c3c(F)cccc3F)n2)C1

>  <Name>  (378) 
nan

>  <Pocket>  (378) 
nan

>  <ATP_Site>  (378) 
nan

>  <Peripheral>  (378) 
nan

>  <Num_H_Atoms_ProtBoundConf>  (378) 
nan

>  <Num_Resolved_Atoms>  (378) 
nan

>  <Num_Not_Resolved_Atoms>  (378) 
nan

$$$$
CHEMBL3676290
     RDKit          3D

  0  0  0  0  0  0  0  0  0  0999 V3000
M  V30 BEGIN CTAB
M  V30 COUNTS 49 52 0 0 0
M  V30 BEGIN ATOM
M  V30 1 N 5.333429 -2.490735 0.904962 0
M  V30 2 C 3.999470 -2.556567 0.279937 0 CFG=1
M  V30 3 C 2.969925 -3.025242 1.267190 0
M  V30 4 C 2.431829 -1.953998 2.164009 0
M  V30 5 C 2.549548 -0.565703 1.634271 0
M  V30 6 C 2.621193 -0.456556 0.143060 0 CFG=1
M  V30 7 C 2.591634 0.915831 -0.369141 0
M  V30 8 C 3.737619 1.690716 -0.530187 0
M  V30 9 C 3.693312 2.989132 -1.015911 0
M  V30 10 N 2.528776 3.568266 -1.358321 0
M  V30 11 C 1.395547 2.850735 -1.217101 0
M  V30 12 C 1.420623 1.553503 -0.733962 0
M  V30 13 N 0.167149 0.897552 -0.633523 0
M  V30 14 C -0.849721 0.755034 0.314661 0
M  V30 15 O -0.592521 1.368839 1.357324 0
M  V30 16 C -2.034257 -0.062336 -0.026742 0
M  V30 17 C -2.253048 -0.735174 -1.246408 0
M  V30 18 S -3.878294 -1.514091 -0.955024 0
M  V30 19 C -3.985355 -0.785573 0.792613 0
M  V30 20 C -5.157225 -1.068105 1.622316 0
M  V30 21 C -5.260725 -0.558557 2.879147 0
M  V30 22 F -4.219908 0.210931 3.289756 0
M  V30 23 C -6.359818 -0.824753 3.655390 0
M  V30 24 C -7.406684 -1.611098 3.215059 0
M  V30 25 C -7.310769 -2.132799 1.940701 0
M  V30 26 C -6.189917 -1.857355 1.157889 0
M  V30 27 F -6.145701 -2.394468 -0.086361 0
M  V30 28 N -2.973066 -0.173763 0.891852 0
M  V30 29 C 3.689407 -1.311568 -0.454886 0
M  V30 30 H 5.523504 -3.465422 1.283360 0
M  V30 31 H 5.995751 -2.263821 0.130783 0
M  V30 32 H 4.126237 -3.371142 -0.464728 0
M  V30 33 H 3.492515 -3.765649 1.911590 0
M  V30 34 H 2.164271 -3.596535 0.757716 0
M  V30 35 H 2.843371 -2.015539 3.195171 0
M  V30 36 H 1.347475 -2.170638 2.299494 0
M  V30 37 H 1.726236 0.067151 2.022543 0
M  V30 38 H 3.480257 -0.114417 2.042375 0
M  V30 39 H 1.653323 -0.928161 -0.213296 0
M  V30 40 H 4.701880 1.287945 -0.274763 0
M  V30 41 H 4.589562 3.588490 -1.139390 0
M  V30 42 H 0.488198 3.362486 -1.506404 0
M  V30 43 H 0.154929 0.456025 -1.601734 0
M  V30 44 H -1.467026 -0.676181 -2.091020 0
M  V30 45 H -6.380484 -0.392088 4.638567 0
M  V30 46 H -8.271069 -1.814821 3.838185 0
M  V30 47 H -8.117849 -2.744336 1.589071 0
M  V30 48 H 3.393578 -1.542691 -1.505007 0
M  V30 49 H 4.635792 -0.730204 -0.549483 0
M  V30 END ATOM
M  V30 BEGIN BOND
M  V30 1 1 1 2
M  V30 2 1 2 3
M  V30 3 1 3 4
M  V30 4 1 4 5
M  V30 5 1 5 6
M  V30 6 1 6 7
M  V30 7 2 7 8
M  V30 8 1 8 9
M  V30 9 2 9 10
M  V30 10 1 10 11
M  V30 11 2 11 12
M  V30 12 1 12 13
M  V30 13 1 13 14
M  V30 14 2 14 15
M  V30 15 1 14 16
M  V30 16 2 16 17
M  V30 17 1 17 18
M  V30 18 1 18 19
M  V30 19 1 19 20
M  V30 20 2 20 21
M  V30 21 1 21 22
M  V30 22 1 21 23
M  V30 23 2 23 24
M  V30 24 1 24 25
M  V30 25 2 25 26
M  V30 26 1 26 27
M  V30 27 2 19 28
M  V30 28 1 6 29
M  V30 29 1 29 2
M  V30 30 1 12 7
M  V30 31 1 28 16
M  V30 32 1 26 20
M  V30 33 1 1 30
M  V30 34 1 1 31
M  V30 35 1 2 32 CFG=3
M  V30 36 1 3 33
M  V30 37 1 3 34
M  V30 38 1 4 35
M  V30 39 1 4 36
M  V30 40 1 5 37
M  V30 41 1 5 38
M  V30 42 1 6 39 CFG=3
M  V30 43 1 8 40
M  V30 44 1 9 41
M  V30 45 1 11 42
M  V30 46 1 13 43
M  V30 47 1 17 44
M  V30 48 1 23 45
M  V30 49 1 24 46
M  V30 50 1 25 47
M  V30 51 1 29 48
M  V30 52 1 29 49
M  V30 END BOND
M  V30 END CTAB
M  END
>  <Dataset>  (379) 
ChEMBL_Kinases

>  <Ligand_Instance>  (379) 
nan

>  <PDB_ID>  (379) 
nan

>  <Standardized_SMILES>  (379) 
N[C@H]1CCC[C@@H](c2ccncc2NC(=O)c2csc(-c3c(F)cccc3F)n2)C1

>  <Name>  (379) 
nan

>  <Pocket>  (379) 
nan

>  <ATP_Site>  (379) 
nan

>  <Peripheral>  (379) 
nan

>  <Num_H_Atoms_ProtBoundConf>  (379) 
nan

>  <Num_Resolved_Atoms>  (379) 
nan

>  <Num_Not_Resolved_Atoms>  (379) 
nan

$$$$
CHEMBL3220485
     RDKit          3D

  0  0  0  0  0  0  0  0  0  0999 V3000
M  V30 BEGIN CTAB
M  V30 COUNTS 49 51 0 0 0
M  V30 BEGIN ATOM
M  V30 1 C 0.962721 -3.288391 3.459317 0
M  V30 2 N 1.498788 -4.551627 2.956186 0
M  V30 3 C 1.857434 -5.572971 3.936060 0
M  V30 4 C 1.747317 -4.981384 1.610014 0
M  V30 5 O 2.216843 -6.111036 1.230468 0
M  V30 6 C 1.381550 -3.912442 0.656033 0
M  V30 7 C 2.516700 -3.542742 -0.081155 0
M  V30 8 C 2.355916 -2.529915 -1.023413 0
M  V30 9 C 1.119229 -1.971753 -1.164168 0
M  V30 10 N 1.016652 -0.923811 -2.117100 0
M  V30 11 C -0.028702 -0.072066 -2.549149 0
M  V30 12 C -0.189293 0.954119 -1.609752 0
M  V30 13 C -1.123584 1.958808 -1.744607 0
M  V30 14 N -1.332661 3.009200 -0.794607 0
M  V30 15 C -0.915976 3.094595 0.561558 0
M  V30 16 C -0.056313 4.064721 1.064403 0
M  V30 17 C 0.275308 4.050214 2.395215 0
M  V30 18 C -0.189654 3.122281 3.300200 0
M  V30 19 C -1.044662 2.148569 2.824945 0
M  V30 20 C -1.376122 2.169674 1.479618 0
M  V30 21 C -2.312524 1.121539 1.076438 0
M  V30 22 N -2.820102 0.112914 1.926399 0
M  V30 23 O -2.907530 0.772265 0.056000 0
M  V30 24 C -1.961146 1.982078 -2.857626 0
M  V30 25 C -1.764495 0.952884 -3.751103 0
M  V30 26 N -0.845442 -0.041342 -3.623061 0
M  V30 27 C -0.009512 -2.317010 -0.455165 0
M  V30 28 C 0.156823 -3.318307 0.473507 0
M  V30 29 H 1.553845 -2.956599 4.342446 0
M  V30 30 H -0.072226 -3.486241 3.841860 0
M  V30 31 H 0.872956 -2.526006 2.676816 0
M  V30 32 H 1.000271 -6.259797 4.065654 0
M  V30 33 H 2.778314 -6.139031 3.621580 0
M  V30 34 H 2.127319 -5.070629 4.889237 0
M  V30 35 H 3.508627 -3.962054 0.003549 0
M  V30 36 H 3.207912 -2.199681 -1.628115 0
M  V30 37 H 1.779213 -0.577632 -2.724519 0
M  V30 38 H 0.378245 1.098446 -0.677973 0
M  V30 39 H -1.842280 3.867848 -1.017348 0
M  V30 40 H 0.320601 4.798839 0.387487 0
M  V30 41 H 0.942003 4.790492 2.826487 0
M  V30 42 H 0.060758 3.093220 4.355293 0
M  V30 43 H -1.422476 1.406464 3.510926 0
M  V30 44 H -2.697780 -0.929404 2.072266 0
M  V30 45 H -3.499334 0.576049 2.567527 0
M  V30 46 H -2.708482 2.744991 -3.012054 0
M  V30 47 H -2.357305 0.864584 -4.658790 0
M  V30 48 H -0.986167 -1.885808 -0.554963 0
M  V30 49 H -0.578679 -3.734566 1.122776 0
M  V30 END ATOM
M  V30 BEGIN BOND
M  V30 1 1 1 2
M  V30 2 1 2 3
M  V30 3 1 2 4
M  V30 4 2 4 5
M  V30 5 1 4 6
M  V30 6 2 6 7
M  V30 7 1 7 8
M  V30 8 2 8 9
M  V30 9 1 9 10
M  V30 10 1 10 11
M  V30 11 2 11 12
M  V30 12 1 12 13
M  V30 13 1 13 14
M  V30 14 1 14 15
M  V30 15 2 15 16
M  V30 16 1 16 17
M  V30 17 2 17 18
M  V30 18 1 18 19
M  V30 19 2 19 20
M  V30 20 1 20 21
M  V30 21 1 21 22
M  V30 22 2 21 23
M  V30 23 2 13 24
M  V30 24 1 24 25
M  V30 25 2 25 26
M  V30 26 1 9 27
M  V30 27 2 27 28
M  V30 28 1 28 6
M  V30 29 1 26 11
M  V30 30 1 20 15
M  V30 31 1 1 29
M  V30 32 1 1 30
M  V30 33 1 1 31
M  V30 34 1 3 32
M  V30 35 1 3 33
M  V30 36 1 3 34
M  V30 37 1 7 35
M  V30 38 1 8 36
M  V30 39 1 10 37
M  V30 40 1 12 38
M  V30 41 1 14 39
M  V30 42 1 16 40
M  V30 43 1 17 41
M  V30 44 1 18 42
M  V30 45 1 19 43
M  V30 46 1 22 44
M  V30 47 1 22 45
M  V30 48 1 24 46
M  V30 49 1 25 47
M  V30 50 1 27 48
M  V30 51 1 28 49
M  V30 END BOND
M  V30 END CTAB
M  END
>  <Dataset>  (380) 
ChEMBL_Kinases

>  <Ligand_Instance>  (380) 
nan

>  <PDB_ID>  (380) 
nan

>  <Standardized_SMILES>  (380) 
CN(C)C(=O)c1ccc(Nc2cc(Nc3ccccc3C(N)=O)ccn2)cc1

>  <Name>  (380) 
nan

>  <Pocket>  (380) 
nan

>  <ATP_Site>  (380) 
nan

>  <Peripheral>  (380) 
nan

>  <Num_H_Atoms_ProtBoundConf>  (380) 
nan

>  <Num_Resolved_Atoms>  (380) 
nan

>  <Num_Not_Resolved_Atoms>  (380) 
nan

$$$$
CHEMBL3220486
     RDKit          3D

  0  0  0  0  0  0  0  0  0  0999 V3000
M  V30 BEGIN CTAB
M  V30 COUNTS 45 48 0 0 0
M  V30 BEGIN ATOM
M  V30 1 N 4.636601 -4.332530 1.810359 0
M  V30 2 C 4.090323 -3.076272 1.462179 0
M  V30 3 O 5.000232 -2.551113 2.128383 0
M  V30 4 C 2.914914 -2.883965 0.630706 0
M  V30 5 C 2.342054 -4.051785 0.200458 0
M  V30 6 C 1.219689 -3.988802 -0.587814 0
M  V30 7 C 0.729078 -2.745021 -0.904469 0
M  V30 8 C 1.316993 -1.579453 -0.464413 0
M  V30 9 C 2.439524 -1.638312 0.324386 0
M  V30 10 N 3.118349 -0.525777 0.859830 0
M  V30 11 C 2.885665 0.868862 0.846984 0
M  V30 12 C 3.839166 1.874368 0.709583 0
M  V30 13 C 3.489062 3.205869 0.741097 0
M  V30 14 N 2.213716 3.601022 0.905371 0
M  V30 15 C 1.205751 2.709759 1.047719 0
M  V30 16 N -0.133090 3.135200 1.242960 0
M  V30 17 C -1.290626 2.302591 1.235168 0
M  V30 18 C -1.317474 1.362286 0.197163 0
M  V30 19 C -2.412848 0.527456 0.193277 0
M  V30 20 C -3.460370 0.527942 1.089597 0
M  V30 21 N -4.528001 -0.413110 0.947898 0
M  V30 22 C -4.365951 -1.598152 0.290590 0
M  V30 23 C -5.595869 -2.245103 0.354546 0
M  V30 24 N -6.437610 -1.439752 1.035653 0
M  V30 25 N -5.776929 -0.340138 1.385404 0
M  V30 26 C -3.381171 1.482278 2.095976 0
M  V30 27 C -2.300043 2.359733 2.160248 0
M  V30 28 C 1.609831 1.391480 1.009893 0
M  V30 29 H 4.387061 -5.089459 2.490165 0
M  V30 30 H 5.388848 -5.035180 1.644419 0
M  V30 31 H 2.719271 -5.031443 0.441377 0
M  V30 32 H 0.702722 -4.859387 -0.970062 0
M  V30 33 H -0.156713 -2.640082 -1.526652 0
M  V30 34 H 0.893960 -0.640027 -0.756774 0
M  V30 35 H 3.992561 -0.630605 1.402750 0
M  V30 36 H 4.874525 1.524904 0.577660 0
M  V30 37 H 4.279144 3.945855 0.629185 0
M  V30 38 H -0.288614 4.150654 1.407346 0
M  V30 39 H -0.586483 1.226080 -0.607834 0
M  V30 40 H -2.477857 -0.227792 -0.601651 0
M  V30 41 H -3.530431 -2.042468 -0.203958 0
M  V30 42 H -5.811048 -3.231550 -0.079381 0
M  V30 43 H -4.191519 1.508675 2.817953 0
M  V30 44 H -2.244783 3.109443 2.949694 0
M  V30 45 H 0.827223 0.649817 1.157175 0
M  V30 END ATOM
M  V30 BEGIN BOND
M  V30 1 1 1 2
M  V30 2 2 2 3
M  V30 3 1 2 4
M  V30 4 2 4 5
M  V30 5 1 5 6
M  V30 6 2 6 7
M  V30 7 1 7 8
M  V30 8 2 8 9
M  V30 9 1 9 10
M  V30 10 1 10 11
M  V30 11 2 11 12
M  V30 12 1 12 13
M  V30 13 2 13 14
M  V30 14 1 14 15
M  V30 15 1 15 16
M  V30 16 1 16 17
M  V30 17 2 17 18
M  V30 18 1 18 19
M  V30 19 2 19 20
M  V30 20 1 20 21
M  V30 21 1 21 22
M  V30 22 2 22 23
M  V30 23 1 23 24
M  V30 24 2 24 25
M  V30 25 1 20 26
M  V30 26 2 26 27
M  V30 27 2 15 28
M  V30 28 1 9 4
M  V30 29 1 28 11
M  V30 30 1 27 17
M  V30 31 1 25 21
M  V30 32 1 1 29
M  V30 33 1 1 30
M  V30 34 1 5 31
M  V30 35 1 6 32
M  V30 36 1 7 33
M  V30 37 1 8 34
M  V30 38 1 10 35
M  V30 39 1 12 36
M  V30 40 1 13 37
M  V30 41 1 16 38
M  V30 42 1 18 39
M  V30 43 1 19 40
M  V30 44 1 22 41
M  V30 45 1 23 42
M  V30 46 1 26 43
M  V30 47 1 27 44
M  V30 48 1 28 45
M  V30 END BOND
M  V30 END CTAB
M  END
>  <Dataset>  (381) 
ChEMBL_Kinases

>  <Ligand_Instance>  (381) 
nan

>  <PDB_ID>  (381) 
nan

>  <Standardized_SMILES>  (381) 
NC(=O)c1ccccc1Nc1ccnc(Nc2ccc(-n3ccnn3)cc2)c1

>  <Name>  (381) 
nan

>  <Pocket>  (381) 
nan

>  <ATP_Site>  (381) 
nan

>  <Peripheral>  (381) 
nan

>  <Num_H_Atoms_ProtBoundConf>  (381) 
nan

>  <Num_Resolved_Atoms>  (381) 
nan

>  <Num_Not_Resolved_Atoms>  (381) 
nan

$$$$
CHEMBL3220487
     RDKit          3D

  0  0  0  0  0  0  0  0  0  0999 V3000
M  V30 BEGIN CTAB
M  V30 COUNTS 51 54 0 0 0
M  V30 BEGIN ATOM
M  V30 1 C 2.705584 -6.313488 3.337544 0
M  V30 2 C 3.403331 -5.137285 2.737949 0
M  V30 3 N 4.751481 -5.019523 2.654559 0
M  V30 4 C 5.062725 -3.861071 2.070694 0
M  V30 5 C 6.354470 -3.212783 1.726430 0
M  V30 6 N 3.927733 -3.230586 1.776390 0
M  V30 7 C 3.474524 -2.023561 1.185717 0
M  V30 8 C 3.950374 -0.808295 1.697846 0
M  V30 9 C 3.459429 0.350660 1.096059 0
M  V30 10 C 2.541371 0.382337 0.036263 0
M  V30 11 N 2.145443 1.666931 -0.426131 0
M  V30 12 C 1.000386 1.608758 -1.271094 0
M  V30 13 C -0.078071 1.393068 -0.422887 0
M  V30 14 C -1.401705 1.284467 -0.891704 0
M  V30 15 N -2.541196 1.037218 -0.108049 0
M  V30 16 C -3.870234 1.496633 -0.091585 0
M  V30 17 C -4.354899 2.448022 -0.957881 0
M  V30 18 C -5.675172 2.821111 -0.875117 0
M  V30 19 C -6.558232 2.288277 0.042191 0
M  V30 20 C -6.042923 1.338938 0.894617 0
M  V30 21 C -4.728424 0.954946 0.826331 0
M  V30 22 C -4.370657 -0.044654 1.807009 0
M  V30 23 N -5.217914 -0.636604 2.751949 0
M  V30 24 O -3.428094 -0.726783 2.234746 0
M  V30 25 C -1.634486 1.398302 -2.266367 0
M  V30 26 C -0.514150 1.613033 -3.063734 0
M  V30 27 N 0.731679 1.712288 -2.588146 0
M  V30 28 C 2.102735 -0.832793 -0.435355 0
M  V30 29 C 2.569165 -2.014350 0.138752 0
M  V30 30 N 2.931261 -4.014846 2.185911 0
M  V30 31 H 3.364985 -7.199881 3.183387 0
M  V30 32 H 1.769813 -6.555535 2.770701 0
M  V30 33 H 2.544471 -6.209033 4.427736 0
M  V30 34 H 6.461735 -2.227265 2.215749 0
M  V30 35 H 6.479248 -3.172138 0.631726 0
M  V30 36 H 7.148986 -3.906770 2.119440 0
M  V30 37 H 4.654984 -0.711884 2.513221 0
M  V30 38 H 3.833888 1.295420 1.496664 0
M  V30 39 H 2.648604 2.527204 -0.158266 0
M  V30 40 H -0.112751 1.276969 0.673067 0
M  V30 41 H -2.225958 0.334939 0.584175 0
M  V30 42 H -3.747193 2.933293 -1.700272 0
M  V30 43 H -6.049239 3.573954 -1.565744 0
M  V30 44 H -7.603898 2.619278 0.069720 0
M  V30 45 H -6.759675 0.939386 1.600396 0
M  V30 46 H -5.566884 -0.374149 3.715040 0
M  V30 47 H -5.793731 -1.493833 2.873834 0
M  V30 48 H -2.529537 1.340421 -2.853458 0
M  V30 49 H -0.547825 1.722406 -4.141979 0
M  V30 50 H 1.395366 -0.799714 -1.259128 0
M  V30 51 H 2.186780 -2.958147 -0.274259 0
M  V30 END ATOM
M  V30 BEGIN BOND
M  V30 1 1 1 2
M  V30 2 1 2 3
M  V30 3 2 3 4
M  V30 4 1 4 5
M  V30 5 1 4 6
M  V30 6 1 6 7
M  V30 7 2 7 8
M  V30 8 1 8 9
M  V30 9 2 9 10
M  V30 10 1 10 11
M  V30 11 1 11 12
M  V30 12 2 12 13
M  V30 13 1 13 14
M  V30 14 1 14 15
M  V30 15 1 15 16
M  V30 16 2 16 17
M  V30 17 1 17 18
M  V30 18 2 18 19
M  V30 19 1 19 20
M  V30 20 2 20 21
M  V30 21 1 21 22
M  V30 22 1 22 23
M  V30 23 2 22 24
M  V30 24 2 14 25
M  V30 25 1 25 26
M  V30 26 2 26 27
M  V30 27 1 10 28
M  V30 28 2 28 29
M  V30 29 1 6 30
M  V30 30 2 30 2
M  V30 31 1 29 7
M  V30 32 1 27 12
M  V30 33 1 21 16
M  V30 34 1 1 31
M  V30 35 1 1 32
M  V30 36 1 1 33
M  V30 37 1 5 34
M  V30 38 1 5 35
M  V30 39 1 5 36
M  V30 40 1 8 37
M  V30 41 1 9 38
M  V30 42 1 11 39
M  V30 43 1 13 40
M  V30 44 1 15 41
M  V30 45 1 17 42
M  V30 46 1 18 43
M  V30 47 1 19 44
M  V30 48 1 20 45
M  V30 49 1 23 46
M  V30 50 1 23 47
M  V30 51 1 25 48
M  V30 52 1 26 49
M  V30 53 1 28 50
M  V30 54 1 29 51
M  V30 END BOND
M  V30 END CTAB
M  END
>  <Dataset>  (382) 
ChEMBL_Kinases

>  <Ligand_Instance>  (382) 
nan

>  <PDB_ID>  (382) 
nan

>  <Standardized_SMILES>  (382) 
Cc1nc(C)n(-c2ccc(Nc3cc(Nc4ccccc4C(N)=O)ccn3)cc2)n1

>  <Name>  (382) 
nan

>  <Pocket>  (382) 
nan

>  <ATP_Site>  (382) 
nan

>  <Peripheral>  (382) 
nan

>  <Num_H_Atoms_ProtBoundConf>  (382) 
nan

>  <Num_Resolved_Atoms>  (382) 
nan

>  <Num_Not_Resolved_Atoms>  (382) 
nan

$$$$
CHEMBL3676271
     RDKit          3D

  0  0  0  0  0  0  0  0  0  0999 V3000
M  V30 BEGIN CTAB
M  V30 COUNTS 51 54 0 0 0
M  V30 BEGIN ATOM
M  V30 1 N 2.047445 -2.537393 0.870930 0
M  V30 2 C 1.527434 -1.215074 1.189334 0
M  V30 3 C 2.378088 -0.695345 2.357096 0
M  V30 4 C 3.588124 -0.008153 1.749735 0
M  V30 5 C 4.538444 0.355761 2.870466 0
M  V30 6 F 4.900981 -0.808695 3.504047 0
M  V30 7 F 5.674688 0.909472 2.281423 0
M  V30 8 F 3.963071 1.256789 3.718862 0
M  V30 9 C 3.144147 1.239455 1.070584 0
M  V30 10 N 1.873341 1.070406 0.329749 0
M  V30 11 C 1.118648 2.283025 0.116103 0
M  V30 12 C 1.888456 3.449710 0.091319 0
M  V30 13 C 1.407145 4.709446 -0.152625 0
M  V30 14 N 0.095056 4.794327 -0.380602 0
M  V30 15 C -0.678559 3.718020 -0.367319 0
M  V30 16 C -0.221716 2.454428 -0.126327 0
M  V30 17 N -1.035799 1.315013 -0.099335 0
M  V30 18 C -2.415914 1.161409 -0.373319 0
M  V30 19 O -3.071506 2.198141 -0.702231 0
M  V30 20 C -3.174852 -0.082882 -0.316496 0
M  V30 21 C -4.565769 0.008635 -0.621773 0
M  V30 22 S -5.057272 -1.784210 -0.418204 0
M  V30 23 C -3.402092 -2.287474 0.012255 0
M  V30 24 C -3.177813 -3.743386 0.306986 0
M  V30 25 C -4.215816 -4.646544 0.251749 0
M  V30 26 F -5.468259 -4.283763 -0.062342 0
M  V30 27 C -3.980129 -5.983490 0.527092 0
M  V30 28 C -2.717126 -6.432824 0.858195 0
M  V30 29 C -1.669691 -5.541062 0.917235 0
M  V30 30 C -1.955645 -4.222579 0.634885 0
M  V30 31 F -0.926847 -3.352492 0.692604 0
M  V30 32 N -2.725894 -1.291222 -0.016857 0
M  V30 33 C 1.769423 -0.323100 -0.019076 0
M  V30 34 H 1.962642 -2.680810 -0.141587 0
M  V30 35 H 1.667093 -3.295598 1.444419 0
M  V30 36 H 0.473790 -1.191776 1.451940 0
M  V30 37 H 1.811884 0.009537 2.983477 0
M  V30 38 H 2.713521 -1.579147 2.932225 0
M  V30 39 H 4.104737 -0.708633 1.084293 0
M  V30 40 H 3.882559 1.579466 0.306956 0
M  V30 41 H 3.018797 2.087486 1.784102 0
M  V30 42 H 2.970045 3.442882 0.269045 0
M  V30 43 H 2.042878 5.595200 -0.163147 0
M  V30 44 H -1.700739 3.948872 -0.564923 0
M  V30 45 H -0.690967 0.376158 0.164230 0
M  V30 46 H -5.304237 0.858603 -0.920754 0
M  V30 47 H -4.776048 -6.705523 0.489759 0
M  V30 48 H -2.576631 -7.490637 1.066812 0
M  V30 49 H -0.680204 -5.893606 1.176696 0
M  V30 50 H 2.785098 -0.621742 -0.467072 0
M  V30 51 H 1.089693 -0.541791 -0.865954 0
M  V30 END ATOM
M  V30 BEGIN BOND
M  V30 1 1 1 2
M  V30 2 1 2 3
M  V30 3 1 3 4
M  V30 4 1 4 5
M  V30 5 1 5 6
M  V30 6 1 5 7
M  V30 7 1 5 8
M  V30 8 1 4 9
M  V30 9 1 9 10
M  V30 10 1 10 11
M  V30 11 2 11 12
M  V30 12 1 12 13
M  V30 13 2 13 14
M  V30 14 1 14 15
M  V30 15 2 15 16
M  V30 16 1 16 17
M  V30 17 1 17 18
M  V30 18 2 18 19
M  V30 19 1 18 20
M  V30 20 2 20 21
M  V30 21 1 21 22
M  V30 22 1 22 23
M  V30 23 1 23 24
M  V30 24 2 24 25
M  V30 25 1 25 26
M  V30 26 1 25 27
M  V30 27 2 27 28
M  V30 28 1 28 29
M  V30 29 2 29 30
M  V30 30 1 30 31
M  V30 31 2 23 32
M  V30 32 1 10 33
M  V30 33 1 33 2
M  V30 34 1 16 11
M  V30 35 1 32 20
M  V30 36 1 30 24
M  V30 37 1 1 34
M  V30 38 1 1 35
M  V30 39 1 2 36
M  V30 40 1 3 37
M  V30 41 1 3 38
M  V30 42 1 4 39
M  V30 43 1 9 40
M  V30 44 1 9 41
M  V30 45 1 12 42
M  V30 46 1 13 43
M  V30 47 1 15 44
M  V30 48 1 17 45
M  V30 49 1 21 46
M  V30 50 1 27 47
M  V30 51 1 28 48
M  V30 52 1 29 49
M  V30 53 1 33 50
M  V30 54 1 33 51
M  V30 END BOND
M  V30 END CTAB
M  END
>  <Dataset>  (383) 
ChEMBL_Kinases

>  <Ligand_Instance>  (383) 
nan

>  <PDB_ID>  (383) 
nan

>  <Standardized_SMILES>  (383) 
NC1CC(C(F)(F)F)CN(c2ccncc2NC(=O)c2csc(-c3c(F)cccc3F)n2)C1

>  <Name>  (383) 
nan

>  <Pocket>  (383) 
nan

>  <ATP_Site>  (383) 
nan

>  <Peripheral>  (383) 
nan

>  <Num_H_Atoms_ProtBoundConf>  (383) 
nan

>  <Num_Resolved_Atoms>  (383) 
nan

>  <Num_Not_Resolved_Atoms>  (383) 
nan

$$$$
CHEMBL3220488
     RDKit          3D

  0  0  0  0  0  0  0  0  0  0999 V3000
M  V30 BEGIN CTAB
M  V30 COUNTS 52 55 0 0 0
M  V30 BEGIN ATOM
M  V30 1 N 4.492574 -0.855835 6.712963 0
M  V30 2 C 3.933967 -0.292906 5.538893 0
M  V30 3 O 2.952458 0.049508 6.223074 0
M  V30 4 C 4.526487 -0.286597 4.219377 0
M  V30 5 C 5.752697 -0.896997 4.172762 0
M  V30 6 C 6.448943 -0.975384 2.990359 0
M  V30 7 C 5.857946 -0.417728 1.879131 0
M  V30 8 C 4.631103 0.182920 1.970585 0
M  V30 9 C 3.924566 0.271970 3.126408 0
M  V30 10 N 2.651559 0.861240 3.276071 0
M  V30 11 C 1.739496 1.447838 2.374511 0
M  V30 12 C 0.951144 2.562731 2.674438 0
M  V30 13 C 0.048698 3.113973 1.796905 0
M  V30 14 N -0.101936 2.567190 0.575745 0
M  V30 15 C 0.616138 1.486802 0.195521 0
M  V30 16 N 0.362165 1.010827 -1.103643 0
M  V30 17 C -0.675612 0.084497 -1.405030 0
M  V30 18 C -1.630010 0.554654 -2.315938 0
M  V30 19 C -2.698372 -0.270076 -2.682891 0
M  V30 20 C -2.874826 -1.543033 -2.194027 0
M  V30 21 N -3.959412 -2.385692 -2.550260 0
M  V30 22 C -5.104156 -1.946213 -3.320513 0
M  V30 23 C -6.367721 -2.368067 -2.612484 0
M  V30 24 O -6.349249 -3.637105 -2.096350 0
M  V30 25 C -5.265834 -3.920530 -1.280615 0
M  V30 26 C -4.035565 -3.781164 -2.187310 0
M  V30 27 C -1.912866 -1.960249 -1.303295 0
M  V30 28 C -0.840245 -1.191030 -0.906776 0
M  V30 29 F 0.102103 -1.605222 -0.031315 0
M  V30 30 C 1.508136 0.968156 1.106344 0
M  V30 31 H 5.124324 -0.511097 7.484062 0
M  V30 32 H 4.450916 -1.805732 7.187448 0
M  V30 33 H 6.243962 -1.344601 5.026036 0
M  V30 34 H 7.427396 -1.451865 2.908772 0
M  V30 35 H 6.398817 -0.475513 0.947843 0
M  V30 36 H 4.260511 0.595726 1.058385 0
M  V30 37 H 2.218402 0.912340 4.223112 0
M  V30 38 H 1.055450 3.019299 3.654222 0
M  V30 39 H -0.530254 3.992618 2.116690 0
M  V30 40 H 0.897990 1.281630 -1.964927 0
M  V30 41 H -1.554979 1.553573 -2.745741 0
M  V30 42 H -3.385251 0.149669 -3.382136 0
M  V30 43 H -5.124454 -0.839681 -3.365026 0
M  V30 44 H -5.068609 -2.306456 -4.368322 0
M  V30 45 H -7.173055 -2.367880 -3.400747 0
M  V30 46 H -6.673464 -1.586607 -1.894348 0
M  V30 47 H -5.377460 -4.967012 -0.933229 0
M  V30 48 H -5.146276 -3.211636 -0.445922 0
M  V30 49 H -3.145127 -4.202807 -1.728561 0
M  V30 50 H -4.336666 -4.340759 -3.122334 0
M  V30 51 H -1.906413 -2.923163 -0.830017 0
M  V30 52 H 2.024206 0.104933 0.715788 0
M  V30 END ATOM
M  V30 BEGIN BOND
M  V30 1 1 1 2
M  V30 2 2 2 3
M  V30 3 1 2 4
M  V30 4 2 4 5
M  V30 5 1 5 6
M  V30 6 2 6 7
M  V30 7 1 7 8
M  V30 8 2 8 9
M  V30 9 1 9 10
M  V30 10 1 10 11
M  V30 11 2 11 12
M  V30 12 1 12 13
M  V30 13 2 13 14
M  V30 14 1 14 15
M  V30 15 1 15 16
M  V30 16 1 16 17
M  V30 17 2 17 18
M  V30 18 1 18 19
M  V30 19 2 19 20
M  V30 20 1 20 21
M  V30 21 1 21 22
M  V30 22 1 22 23
M  V30 23 1 23 24
M  V30 24 1 24 25
M  V30 25 1 25 26
M  V30 26 1 20 27
M  V30 27 2 27 28
M  V30 28 1 28 29
M  V30 29 2 15 30
M  V30 30 1 9 4
M  V30 31 1 30 11
M  V30 32 1 28 17
M  V30 33 1 26 21
M  V30 34 1 1 31
M  V30 35 1 1 32
M  V30 36 1 5 33
M  V30 37 1 6 34
M  V30 38 1 7 35
M  V30 39 1 8 36
M  V30 40 1 10 37
M  V30 41 1 12 38
M  V30 42 1 13 39
M  V30 43 1 16 40
M  V30 44 1 18 41
M  V30 45 1 19 42
M  V30 46 1 22 43
M  V30 47 1 22 44
M  V30 48 1 23 45
M  V30 49 1 23 46
M  V30 50 1 25 47
M  V30 51 1 25 48
M  V30 52 1 26 49
M  V30 53 1 26 50
M  V30 54 1 27 51
M  V30 55 1 30 52
M  V30 END BOND
M  V30 END CTAB
M  END
>  <Dataset>  (384) 
ChEMBL_Kinases

>  <Ligand_Instance>  (384) 
nan

>  <PDB_ID>  (384) 
nan

>  <Standardized_SMILES>  (384) 
NC(=O)c1ccccc1Nc1ccnc(Nc2ccc(N3CCOCC3)cc2F)c1

>  <Name>  (384) 
nan

>  <Pocket>  (384) 
nan

>  <ATP_Site>  (384) 
nan

>  <Peripheral>  (384) 
nan

>  <Num_H_Atoms_ProtBoundConf>  (384) 
nan

>  <Num_Resolved_Atoms>  (384) 
nan

>  <Num_Not_Resolved_Atoms>  (384) 
nan

$$$$
CHEMBL3220489
     RDKit          3D

  0  0  0  0  0  0  0  0  0  0999 V3000
M  V30 BEGIN CTAB
M  V30 COUNTS 42 45 0 0 0
M  V30 BEGIN ATOM
M  V30 1 N 4.959848 -0.864418 2.517300 0
M  V30 2 C 3.990392 -0.726313 1.504325 0
M  V30 3 O 3.242827 -0.742021 2.484639 0
M  V30 4 C 4.342205 -0.653213 0.101226 0
M  V30 5 C 5.654991 -0.770120 -0.231298 0
M  V30 6 C 5.897436 -0.718542 -1.585146 0
M  V30 7 C 4.869582 -0.560402 -2.505726 0
M  V30 8 C 3.542295 -0.446192 -2.091848 0
M  V30 9 C 3.261753 -0.494271 -0.720103 0
M  V30 10 N 1.955354 -0.389173 -0.245176 0
M  V30 11 C 1.285068 0.545181 0.589137 0
M  V30 12 C 1.874862 1.728611 0.980201 0
M  V30 13 C 1.115366 2.543866 1.789899 0
M  V30 14 N -0.124257 2.220322 2.182280 0
M  V30 15 C -0.709414 1.069710 1.807178 0
M  V30 16 N -2.016868 0.802849 2.284615 0
M  V30 17 C -2.988849 -0.194396 2.019586 0
M  V30 18 C -3.843702 -0.724740 2.963348 0
M  V30 19 C -4.785734 -1.677012 2.651111 0
M  V30 20 C -4.907181 -2.140202 1.361189 0
M  V30 21 C -4.066713 -1.624586 0.408912 0
M  V30 22 C -3.104164 -0.656224 0.708045 0
M  V30 23 O -4.451004 -2.297734 -0.761241 0
M  V30 24 C -5.093566 -3.520095 -0.389507 0
M  V30 25 O -5.764691 -3.088152 0.783193 0
M  V30 26 C 0.010071 0.222591 0.998725 0
M  V30 27 H 5.687379 -1.269697 3.119438 0
M  V30 28 H 5.659523 -0.901268 3.281272 0
M  V30 29 H 6.452027 -0.893026 0.485107 0
M  V30 30 H 6.918675 -0.803468 -1.967466 0
M  V30 31 H 5.001152 -0.514116 -3.580260 0
M  V30 32 H 2.744300 -0.322180 -2.811635 0
M  V30 33 H 1.464461 -1.217079 -0.647962 0
M  V30 34 H 2.878707 1.987310 0.660000 0
M  V30 35 H 1.527440 3.493965 2.132842 0
M  V30 36 H -2.431705 1.458635 3.009266 0
M  V30 37 H -3.743092 -0.353305 3.988416 0
M  V30 38 H -5.417793 -2.040061 3.450608 0
M  V30 39 H -2.540909 -0.352491 -0.155088 0
M  V30 40 H -5.747028 -3.918657 -1.161555 0
M  V30 41 H -4.323925 -4.273872 -0.056939 0
M  V30 42 H -0.410226 -0.718562 0.680808 0
M  V30 END ATOM
M  V30 BEGIN BOND
M  V30 1 1 1 2
M  V30 2 2 2 3
M  V30 3 1 2 4
M  V30 4 2 4 5
M  V30 5 1 5 6
M  V30 6 2 6 7
M  V30 7 1 7 8
M  V30 8 2 8 9
M  V30 9 1 9 10
M  V30 10 1 10 11
M  V30 11 2 11 12
M  V30 12 1 12 13
M  V30 13 2 13 14
M  V30 14 1 14 15
M  V30 15 1 15 16
M  V30 16 1 16 17
M  V30 17 2 17 18
M  V30 18 1 18 19
M  V30 19 2 19 20
M  V30 20 1 20 21
M  V30 21 2 21 22
M  V30 22 1 21 23
M  V30 23 1 23 24
M  V30 24 1 24 25
M  V30 25 2 15 26
M  V30 26 1 9 4
M  V30 27 1 26 11
M  V30 28 1 22 17
M  V30 29 1 25 20
M  V30 30 1 1 27
M  V30 31 1 1 28
M  V30 32 1 5 29
M  V30 33 1 6 30
M  V30 34 1 7 31
M  V30 35 1 8 32
M  V30 36 1 10 33
M  V30 37 1 12 34
M  V30 38 1 13 35
M  V30 39 1 16 36
M  V30 40 1 18 37
M  V30 41 1 19 38
M  V30 42 1 22 39
M  V30 43 1 24 40
M  V30 44 1 24 41
M  V30 45 1 26 42
M  V30 END BOND
M  V30 END CTAB
M  END
>  <Dataset>  (385) 
ChEMBL_Kinases

>  <Ligand_Instance>  (385) 
nan

>  <PDB_ID>  (385) 
nan

>  <Standardized_SMILES>  (385) 
NC(=O)c1ccccc1Nc1ccnc(Nc2ccc3c(c2)OCO3)c1

>  <Name>  (385) 
nan

>  <Pocket>  (385) 
nan

>  <ATP_Site>  (385) 
nan

>  <Peripheral>  (385) 
nan

>  <Num_H_Atoms_ProtBoundConf>  (385) 
nan

>  <Num_Resolved_Atoms>  (385) 
nan

>  <Num_Not_Resolved_Atoms>  (385) 
nan

$$$$
CHEMBL3220490
     RDKit          3D

  0  0  0  0  0  0  0  0  0  0999 V3000
M  V30 BEGIN CTAB
M  V30 COUNTS 45 48 0 0 0
M  V30 BEGIN ATOM
M  V30 1 N 5.780807 -2.372145 1.639378 0
M  V30 2 C 4.868783 -1.383265 1.191121 0
M  V30 3 O 5.452791 -0.355989 1.599186 0
M  V30 4 C 3.646582 -1.669306 0.473961 0
M  V30 5 C 3.427317 -3.018698 0.241791 0
M  V30 6 C 2.257232 -3.353902 -0.450062 0
M  V30 7 C 1.383315 -2.368895 -0.869817 0
M  V30 8 C 1.647619 -1.045124 -0.614706 0
M  V30 9 C 2.790288 -0.694414 0.064587 0
M  V30 10 N 3.028798 0.671195 0.356923 0
M  V30 11 C 2.176672 1.778376 0.117580 0
M  V30 12 C 2.480115 3.029445 -0.411129 0
M  V30 13 C 1.488488 3.970993 -0.534425 0
M  V30 14 N 0.211353 3.783057 -0.178018 0
M  V30 15 C -0.194785 2.602464 0.348333 0
M  V30 16 N -1.520663 2.379592 0.742485 0
M  V30 17 C -2.225915 1.233064 1.170643 0
M  V30 18 C -3.204858 1.317985 2.143037 0
M  V30 19 C -3.961971 0.276899 2.628289 0
M  V30 20 C -3.674070 -0.940707 2.056144 0
M  V30 21 C -4.388307 -2.058301 2.485501 0
M  V30 22 C -4.146296 -3.318939 1.949060 0
M  V30 23 C -3.190538 -3.506221 0.973533 0
M  V30 24 C -2.461040 -2.405286 0.525871 0
M  V30 25 C -2.729539 -1.171833 1.080384 0
M  V30 26 C -2.021608 -0.032674 0.665686 0
M  V30 27 C 0.825352 1.658251 0.467649 0
M  V30 28 H 6.807485 -2.527915 1.587115 0
M  V30 29 H 5.267361 -3.129627 2.149730 0
M  V30 30 H 4.097756 -3.799185 0.563323 0
M  V30 31 H 2.064705 -4.398198 -0.640035 0
M  V30 32 H 0.509978 -2.737145 -1.393616 0
M  V30 33 H 0.888567 -0.398633 -1.020082 0
M  V30 34 H 3.851594 1.111098 0.785357 0
M  V30 35 H 3.521266 3.143815 -0.686618 0
M  V30 36 H 1.761872 4.939005 -0.951149 0
M  V30 37 H -2.153018 3.235812 0.722283 0
M  V30 38 H -3.389166 2.315319 2.562003 0
M  V30 39 H -4.709280 0.411038 3.388140 0
M  V30 40 H -5.144362 -1.909383 3.258101 0
M  V30 41 H -4.762688 -4.113920 2.359445 0
M  V30 42 H -3.028957 -4.496168 0.580123 0
M  V30 43 H -1.710757 -2.533423 -0.235270 0
M  V30 44 H -1.308060 -0.218696 -0.099552 0
M  V30 45 H 0.518612 0.727578 0.927863 0
M  V30 END ATOM
M  V30 BEGIN BOND
M  V30 1 1 1 2
M  V30 2 2 2 3
M  V30 3 1 2 4
M  V30 4 2 4 5
M  V30 5 1 5 6
M  V30 6 2 6 7
M  V30 7 1 7 8
M  V30 8 2 8 9
M  V30 9 1 9 10
M  V30 10 1 10 11
M  V30 11 2 11 12
M  V30 12 1 12 13
M  V30 13 2 13 14
M  V30 14 1 14 15
M  V30 15 1 15 16
M  V30 16 1 16 17
M  V30 17 2 17 18
M  V30 18 1 18 19
M  V30 19 2 19 20
M  V30 20 1 20 21
M  V30 21 2 21 22
M  V30 22 1 22 23
M  V30 23 2 23 24
M  V30 24 1 24 25
M  V30 25 2 25 26
M  V30 26 2 15 27
M  V30 27 1 9 4
M  V30 28 1 27 11
M  V30 29 1 26 17
M  V30 30 1 25 20
M  V30 31 1 1 28
M  V30 32 1 1 29
M  V30 33 1 5 30
M  V30 34 1 6 31
M  V30 35 1 7 32
M  V30 36 1 8 33
M  V30 37 1 10 34
M  V30 38 1 12 35
M  V30 39 1 13 36
M  V30 40 1 16 37
M  V30 41 1 18 38
M  V30 42 1 19 39
M  V30 43 1 21 40
M  V30 44 1 22 41
M  V30 45 1 23 42
M  V30 46 1 24 43
M  V30 47 1 26 44
M  V30 48 1 27 45
M  V30 END BOND
M  V30 END CTAB
M  END
>  <Dataset>  (386) 
ChEMBL_Kinases

>  <Ligand_Instance>  (386) 
nan

>  <PDB_ID>  (386) 
nan

>  <Standardized_SMILES>  (386) 
NC(=O)c1ccccc1Nc1ccnc(Nc2ccc3ccccc3c2)c1

>  <Name>  (386) 
nan

>  <Pocket>  (386) 
nan

>  <ATP_Site>  (386) 
nan

>  <Peripheral>  (386) 
nan

>  <Num_H_Atoms_ProtBoundConf>  (386) 
nan

>  <Num_Resolved_Atoms>  (386) 
nan

>  <Num_Not_Resolved_Atoms>  (386) 
nan

$$$$
CHEMBL3676270
     RDKit          3D

  0  0  0  0  0  0  0  0  0  0999 V3000
M  V30 BEGIN CTAB
M  V30 COUNTS 51 54 0 0 0
M  V30 BEGIN ATOM
M  V30 1 C 2.418303 -3.164310 -1.032166 0
M  V30 2 C 2.220391 -2.001573 -0.101034 0
M  V30 3 C 2.527976 -2.317391 1.324369 0
M  V30 4 C 2.227909 -1.103835 2.167987 0
M  V30 5 N 0.844146 -1.152355 2.567774 0
M  V30 6 C 2.691596 0.188358 1.617038 0
M  V30 7 N 2.616550 0.323266 0.179539 0
M  V30 8 C 2.142451 1.337927 -0.703202 0
M  V30 9 C 3.212736 1.789045 -1.486042 0
M  V30 10 C 3.021791 2.791991 -2.444489 0
M  V30 11 N 1.776555 3.316680 -2.597389 0
M  V30 12 C 0.749130 2.881059 -1.843229 0
M  V30 13 C 0.900030 1.895828 -0.890537 0
M  V30 14 N -0.091325 1.354398 -0.050985 0
M  V30 15 C -0.534224 1.771493 1.228211 0
M  V30 16 O 0.081176 2.785114 1.635795 0
M  V30 17 C -1.584002 1.072048 1.944742 0
M  V30 18 C -2.009884 1.525955 3.259204 0
M  V30 19 S -3.355842 0.267637 3.673030 0
M  V30 20 C -3.086346 -0.580959 2.061440 0
M  V30 21 C -3.912596 -1.753304 1.760171 0
M  V30 22 C -4.857081 -2.219580 2.630866 0
M  V30 23 F -5.085042 -1.624664 3.825144 0
M  V30 24 C -5.580447 -3.331630 2.247472 0
M  V30 25 C -5.343071 -3.929034 1.034476 0
M  V30 26 C -4.387413 -3.467070 0.139784 0
M  V30 27 C -3.677653 -2.345484 0.558371 0
M  V30 28 F -2.738171 -1.882022 -0.308417 0
M  V30 29 N -2.217291 0.019232 1.499380 0
M  V30 30 C 3.157098 -0.867834 -0.493512 0
M  V30 31 H 2.369680 -4.122831 -0.475092 0
M  V30 32 H 3.341623 -3.045056 -1.624116 0
M  V30 33 H 1.559645 -3.176982 -1.734865 0
M  V30 34 H 1.193743 -1.593321 -0.152535 0
M  V30 35 H 3.596673 -2.589650 1.470969 0
M  V30 36 H 1.896857 -3.155487 1.715567 0
M  V30 37 H 2.810778 -1.270993 3.122926 0
M  V30 38 H 0.547198 -0.419048 3.220911 0
M  V30 39 H 0.182377 -1.383116 1.821120 0
M  V30 40 H 2.122104 1.014640 2.085391 0
M  V30 41 H 3.761551 0.384691 1.925006 0
M  V30 42 H 4.253299 1.458639 -1.467838 0
M  V30 43 H 3.807102 3.180186 -3.076939 0
M  V30 44 H -0.265399 3.261197 -1.919685 0
M  V30 45 H -0.545731 0.501150 -0.496156 0
M  V30 46 H -1.472185 2.518243 3.774105 0
M  V30 47 H -6.336610 -3.751821 2.879374 0
M  V30 48 H -5.896377 -4.810414 0.698265 0
M  V30 49 H -4.183370 -3.918072 -0.816204 0
M  V30 50 H 4.158865 -1.038516 -0.044060 0
M  V30 51 H 3.218435 -0.749131 -1.585278 0
M  V30 END ATOM
M  V30 BEGIN BOND
M  V30 1 1 1 2
M  V30 2 1 2 3
M  V30 3 1 3 4
M  V30 4 1 4 5
M  V30 5 1 4 6
M  V30 6 1 6 7
M  V30 7 1 7 8
M  V30 8 2 8 9
M  V30 9 1 9 10
M  V30 10 2 10 11
M  V30 11 1 11 12
M  V30 12 2 12 13
M  V30 13 1 13 14
M  V30 14 1 14 15
M  V30 15 2 15 16
M  V30 16 1 15 17
M  V30 17 2 17 18
M  V30 18 1 18 19
M  V30 19 1 19 20
M  V30 20 1 20 21
M  V30 21 2 21 22
M  V30 22 1 22 23
M  V30 23 1 22 24
M  V30 24 2 24 25
M  V30 25 1 25 26
M  V30 26 2 26 27
M  V30 27 1 27 28
M  V30 28 2 20 29
M  V30 29 1 7 30
M  V30 30 1 30 2
M  V30 31 1 13 8
M  V30 32 1 29 17
M  V30 33 1 27 21
M  V30 34 1 1 31
M  V30 35 1 1 32
M  V30 36 1 1 33
M  V30 37 1 2 34
M  V30 38 1 3 35
M  V30 39 1 3 36
M  V30 40 1 4 37
M  V30 41 1 5 38
M  V30 42 1 5 39
M  V30 43 1 6 40
M  V30 44 1 6 41
M  V30 45 1 9 42
M  V30 46 1 10 43
M  V30 47 1 12 44
M  V30 48 1 14 45
M  V30 49 1 18 46
M  V30 50 1 24 47
M  V30 51 1 25 48
M  V30 52 1 26 49
M  V30 53 1 30 50
M  V30 54 1 30 51
M  V30 END BOND
M  V30 END CTAB
M  END
>  <Dataset>  (387) 
ChEMBL_Kinases

>  <Ligand_Instance>  (387) 
nan

>  <PDB_ID>  (387) 
nan

>  <Standardized_SMILES>  (387) 
CC1CC(N)CN(c2ccncc2NC(=O)c2csc(-c3c(F)cccc3F)n2)C1

>  <Name>  (387) 
nan

>  <Pocket>  (387) 
nan

>  <ATP_Site>  (387) 
nan

>  <Peripheral>  (387) 
nan

>  <Num_H_Atoms_ProtBoundConf>  (387) 
nan

>  <Num_Resolved_Atoms>  (387) 
nan

>  <Num_Not_Resolved_Atoms>  (387) 
nan

$$$$
CHEMBL3220491
     RDKit          3D

  0  0  0  0  0  0  0  0  0  0999 V3000
M  V30 BEGIN CTAB
M  V30 COUNTS 51 53 0 0 0
M  V30 BEGIN ATOM
M  V30 1 C -0.353434 -4.514673 4.686773 0
M  V30 2 O -0.771027 -4.996183 3.398850 0
M  V30 3 C -1.171064 -4.027683 2.459677 0
M  V30 4 C -1.149268 -2.692257 2.821021 0
M  V30 5 C -1.535577 -1.725338 1.918584 0
M  V30 6 N -1.587206 -0.305311 2.170116 0
M  V30 7 C -1.699524 0.579100 1.045302 0
M  V30 8 C -0.612687 1.313355 0.673675 0
M  V30 9 C -0.494494 2.197392 -0.375203 0
M  V30 10 N 0.621485 2.986351 -0.749558 0
M  V30 11 C 1.888397 3.278734 -0.191757 0
M  V30 12 C 2.068369 4.631837 0.126944 0
M  V30 13 C 3.255073 5.098002 0.686333 0
M  V30 14 C 4.262917 4.180615 0.922664 0
M  V30 15 C 4.122590 2.845858 0.623221 0
M  V30 16 C 2.938367 2.435645 0.074261 0
M  V30 17 C 2.748557 1.051947 -0.291450 0
M  V30 18 N 3.792737 0.134050 0.004805 0
M  V30 19 O 1.970448 0.251520 -0.810065 0
M  V30 20 C -1.649070 2.322180 -1.117344 0
M  V30 21 C -2.762392 1.597055 -0.770504 0
M  V30 22 N -2.780399 0.757238 0.274995 0
M  V30 23 C -1.924561 -2.199036 0.684533 0
M  V30 24 C -1.967669 -3.511397 0.267019 0
M  V30 25 O -2.361463 -3.952238 -0.969659 0
M  V30 26 C -2.789428 -3.144744 -2.028721 0
M  V30 27 C -1.571818 -4.470349 1.200436 0
M  V30 28 O -1.593340 -5.791362 0.850278 0
M  V30 29 C -0.559678 -6.511456 0.263807 0
M  V30 30 H 0.495856 -3.803531 4.570343 0
M  V30 31 H -0.105584 -5.387172 5.322001 0
M  V30 32 H -1.192747 -3.985973 5.179893 0
M  V30 33 H -0.838747 -2.345611 3.801727 0
M  V30 34 H -1.536444 -0.069619 3.185573 0
M  V30 35 H 0.306122 1.206229 1.274639 0
M  V30 36 H 0.560132 3.510144 -1.675977 0
M  V30 37 H 1.333639 5.422127 -0.020101 0
M  V30 38 H 3.415554 6.136829 0.940444 0
M  V30 39 H 5.219103 4.503160 1.364290 0
M  V30 40 H 4.913176 2.111751 0.803516 0
M  V30 41 H 4.147506 0.106175 0.987900 0
M  V30 42 H 4.341420 -0.566318 -0.534715 0
M  V30 43 H -1.710242 2.984275 -1.985078 0
M  V30 44 H -3.651581 1.732410 -1.389611 0
M  V30 45 H -2.252259 -1.515456 -0.116904 0
M  V30 46 H -3.891778 -3.031012 -2.066839 0
M  V30 47 H -2.506186 -3.643479 -2.991660 0
M  V30 48 H -2.304860 -2.148594 -2.060092 0
M  V30 49 H -0.289241 -6.123367 -0.755131 0
M  V30 50 H -0.884792 -7.571704 0.146574 0
M  V30 51 H 0.344814 -6.466825 0.894836 0
M  V30 END ATOM
M  V30 BEGIN BOND
M  V30 1 1 1 2
M  V30 2 1 2 3
M  V30 3 2 3 4
M  V30 4 1 4 5
M  V30 5 1 5 6
M  V30 6 1 6 7
M  V30 7 2 7 8
M  V30 8 1 8 9
M  V30 9 1 9 10
M  V30 10 1 10 11
M  V30 11 2 11 12
M  V30 12 1 12 13
M  V30 13 2 13 14
M  V30 14 1 14 15
M  V30 15 2 15 16
M  V30 16 1 16 17
M  V30 17 1 17 18
M  V30 18 2 17 19
M  V30 19 2 9 20
M  V30 20 1 20 21
M  V30 21 2 21 22
M  V30 22 2 5 23
M  V30 23 1 23 24
M  V30 24 1 24 25
M  V30 25 1 25 26
M  V30 26 2 24 27
M  V30 27 1 27 28
M  V30 28 1 28 29
M  V30 29 1 27 3
M  V30 30 1 22 7
M  V30 31 1 16 11
M  V30 32 1 1 30
M  V30 33 1 1 31
M  V30 34 1 1 32
M  V30 35 1 4 33
M  V30 36 1 6 34
M  V30 37 1 8 35
M  V30 38 1 10 36
M  V30 39 1 12 37
M  V30 40 1 13 38
M  V30 41 1 14 39
M  V30 42 1 15 40
M  V30 43 1 18 41
M  V30 44 1 18 42
M  V30 45 1 20 43
M  V30 46 1 21 44
M  V30 47 1 23 45
M  V30 48 1 26 46
M  V30 49 1 26 47
M  V30 50 1 26 48
M  V30 51 1 29 49
M  V30 52 1 29 50
M  V30 53 1 29 51
M  V30 END BOND
M  V30 END CTAB
M  END
>  <Dataset>  (388) 
ChEMBL_Kinases

>  <Ligand_Instance>  (388) 
nan

>  <PDB_ID>  (388) 
nan

>  <Standardized_SMILES>  (388) 
COc1cc(Nc2cc(Nc3ccccc3C(N)=O)ccn2)cc(OC)c1OC

>  <Name>  (388) 
nan

>  <Pocket>  (388) 
nan

>  <ATP_Site>  (388) 
nan

>  <Peripheral>  (388) 
nan

>  <Num_H_Atoms_ProtBoundConf>  (388) 
nan

>  <Num_Resolved_Atoms>  (388) 
nan

>  <Num_Not_Resolved_Atoms>  (388) 
nan

$$$$
CHEMBL4217694
     RDKit          3D

  0  0  0  0  0  0  0  0  0  0999 V3000
M  V30 BEGIN CTAB
M  V30 COUNTS 67 72 0 0 0
M  V30 BEGIN ATOM
M  V30 1 C 2.931040 -1.290175 4.967420 0
M  V30 2 C 4.317020 -0.775600 4.810508 0
M  V30 3 C 5.165679 -1.523323 3.847534 0
M  V30 4 C 5.360019 -2.980685 4.197758 0
M  V30 5 C 5.542885 -3.706908 2.883786 0
M  V30 6 C 4.831284 -2.804231 1.944289 0
M  V30 7 N 4.325352 -2.836666 0.698064 0
M  V30 8 C 3.795861 -1.618236 0.466983 0
M  V30 9 C 3.156241 -1.163903 -0.683905 0
M  V30 10 F 2.967179 -1.917519 -1.784877 0
M  V30 11 C 2.707619 0.151630 -0.636711 0
M  V30 12 C 2.875260 0.966547 0.465373 0
M  V30 13 C 2.341436 2.323856 0.343457 0
M  V30 14 N 1.114697 2.425955 -0.184779 0
M  V30 15 C 0.428393 3.548277 -0.392535 0
M  V30 16 N -0.870796 3.641393 -0.953036 0
M  V30 17 C -1.701826 2.587543 -1.402496 0
M  V30 18 C -1.395461 1.246424 -1.378179 0
M  V30 19 C -2.215981 0.232357 -1.819734 0
M  V30 20 C -3.449625 0.563515 -2.331999 0
M  V30 21 C -4.367389 -0.495516 -2.819626 0
M  V30 22 N -5.247236 -1.003168 -1.811199 0
M  V30 23 C -6.125166 -2.031340 -2.323245 0
M  V30 24 C -5.661099 -3.416555 -1.918530 0
M  V30 25 N -5.746228 -3.576431 -0.472054 0
M  V30 26 C -4.798675 -4.577946 -0.072068 0
M  V30 27 C -5.461391 -2.332819 0.213146 0
M  V30 28 C -4.536517 -1.502182 -0.659186 0
M  V30 29 C -3.755947 1.907267 -2.356095 0
M  V30 30 N -2.912660 2.848522 -1.910505 0
M  V30 31 N 1.059618 4.673024 -0.023749 0
M  V30 32 C 2.287742 4.657905 0.512269 0
M  V30 33 C 2.980229 3.485144 0.718568 0
M  V30 34 F 4.213406 3.354370 1.247185 0
M  V30 35 C 3.516219 0.464096 1.578167 0
M  V30 36 C 3.983241 -0.835598 1.588852 0
M  V30 37 N 4.629387 -1.577543 2.509219 0
M  V30 38 H 2.413557 -0.582163 5.677776 0
M  V30 39 H 2.837728 -2.274694 5.416426 0
M  V30 40 H 2.327709 -1.266267 4.039049 0
M  V30 41 H 4.317194 0.278261 4.546672 0
M  V30 42 H 4.810158 -0.849418 5.806429 0
M  V30 43 H 6.185111 -1.080063 3.876032 0
M  V30 44 H 6.271269 -3.162911 4.804100 0
M  V30 45 H 4.510608 -3.430693 4.720569 0
M  V30 46 H 5.133294 -4.738110 2.885322 0
M  V30 47 H 6.617031 -3.791011 2.612527 0
M  V30 48 H 2.204250 0.512274 -1.539564 0
M  V30 49 H -1.279074 4.613564 -1.052107 0
M  V30 50 H -0.457285 0.924074 -0.994409 0
M  V30 51 H -1.930829 -0.800650 -1.779527 0
M  V30 52 H -3.766229 -1.314777 -3.311831 0
M  V30 53 H -4.992276 -0.072935 -3.638521 0
M  V30 54 H -7.166922 -1.943761 -1.937227 0
M  V30 55 H -6.169596 -2.013155 -3.438431 0
M  V30 56 H -6.374326 -4.149657 -2.346797 0
M  V30 57 H -4.657960 -3.635478 -2.314921 0
M  V30 58 H -3.758317 -4.174652 0.035984 0
M  V30 59 H -5.050076 -5.045257 0.900982 0
M  V30 60 H -4.745987 -5.366009 -0.857448 0
M  V30 61 H -4.970340 -2.523641 1.190582 0
M  V30 62 H -6.408189 -1.786198 0.364302 0
M  V30 63 H -3.730766 -2.203727 -0.980696 0
M  V30 64 H -4.150548 -0.638871 -0.104960 0
M  V30 65 H -4.715488 2.215992 -2.750366 0
M  V30 66 H 2.795407 5.570585 0.809800 0
M  V30 67 H 3.627847 1.117652 2.406954 0
M  V30 END ATOM
M  V30 BEGIN BOND
M  V30 1 1 1 2
M  V30 2 1 2 3
M  V30 3 1 3 4
M  V30 4 1 4 5
M  V30 5 1 5 6
M  V30 6 2 6 7
M  V30 7 1 7 8
M  V30 8 2 8 9
M  V30 9 1 9 10
M  V30 10 1 9 11
M  V30 11 2 11 12
M  V30 12 1 12 13
M  V30 13 2 13 14
M  V30 14 1 14 15
M  V30 15 1 15 16
M  V30 16 1 16 17
M  V30 17 2 17 18
M  V30 18 1 18 19
M  V30 19 2 19 20
M  V30 20 1 20 21
M  V30 21 1 21 22
M  V30 22 1 22 23
M  V30 23 1 23 24
M  V30 24 1 24 25
M  V30 25 1 25 26
M  V30 26 1 25 27
M  V30 27 1 27 28
M  V30 28 1 20 29
M  V30 29 2 29 30
M  V30 30 2 15 31
M  V30 31 1 31 32
M  V30 32 2 32 33
M  V30 33 1 33 34
M  V30 34 1 12 35
M  V30 35 2 35 36
M  V30 36 1 36 37
M  V30 37 1 37 3
M  V30 38 1 37 6
M  V30 39 1 36 8
M  V30 40 1 33 13
M  V30 41 1 30 17
M  V30 42 1 28 22
M  V30 43 1 1 38
M  V30 44 1 1 39
M  V30 45 1 1 40
M  V30 46 1 2 41
M  V30 47 1 2 42
M  V30 48 1 3 43
M  V30 49 1 4 44
M  V30 50 1 4 45
M  V30 51 1 5 46
M  V30 52 1 5 47
M  V30 53 1 11 48
M  V30 54 1 16 49
M  V30 55 1 18 50
M  V30 56 1 19 51
M  V30 57 1 21 52
M  V30 58 1 21 53
M  V30 59 1 23 54
M  V30 60 1 23 55
M  V30 61 1 24 56
M  V30 62 1 24 57
M  V30 63 1 26 58
M  V30 64 1 26 59
M  V30 65 1 26 60
M  V30 66 1 27 61
M  V30 67 1 27 62
M  V30 68 1 28 63
M  V30 69 1 28 64
M  V30 70 1 29 65
M  V30 71 1 32 66
M  V30 72 1 35 67
M  V30 END BOND
M  V30 END CTAB
M  END
>  <Dataset>  (389) 
ChEMBL_Kinases

>  <Ligand_Instance>  (389) 
nan

>  <PDB_ID>  (389) 
nan

>  <Standardized_SMILES>  (389) 
CCC1CCc2nc3c(F)cc(-c4nc(Nc5ccc(CN6CCN(C)CC6)cn5)ncc4F)cc3n21

>  <Name>  (389) 
nan

>  <Pocket>  (389) 
nan

>  <ATP_Site>  (389) 
nan

>  <Peripheral>  (389) 
nan

>  <Num_H_Atoms_ProtBoundConf>  (389) 
nan

>  <Num_Resolved_Atoms>  (389) 
nan

>  <Num_Not_Resolved_Atoms>  (389) 
nan

$$$$
CHEMBL3676289
     RDKit          3D

  0  0  0  0  0  0  0  0  0  0999 V3000
M  V30 BEGIN CTAB
M  V30 COUNTS 51 54 0 0 0
M  V30 BEGIN ATOM
M  V30 1 N 0.332752 -4.768717 1.266526 0
M  V30 2 C 0.986136 -3.916160 0.432807 0
M  V30 3 S 1.705222 -4.220952 -1.200064 0
M  V30 4 C 2.304206 -2.532299 -1.442095 0
M  V30 5 C 3.016957 -2.140956 -2.661309 0
M  V30 6 C 3.245797 -3.051000 -3.648997 0
M  V30 7 F 2.836357 -4.339448 -3.561132 0
M  V30 8 C 3.927607 -2.605158 -4.773853 0
M  V30 9 C 4.339978 -1.290410 -4.852467 0
M  V30 10 C 4.093518 -0.373644 -3.825200 0
M  V30 11 C 3.405701 -0.843433 -2.701960 0
M  V30 12 F 3.174805 0.049797 -1.719759 0
M  V30 13 N 1.957677 -1.886492 -0.368043 0
M  V30 14 C 1.307868 -2.564803 0.558556 0
M  V30 15 C 0.904846 -1.856634 1.783308 0
M  V30 16 O 0.281706 -2.455365 2.701838 0
M  V30 17 N 1.142481 -0.487641 2.089759 0
M  V30 18 C 0.654372 -0.011173 3.353704 0
M  V30 19 C 1.496224 -0.099233 4.441152 0
M  V30 20 N 1.074390 0.337076 5.642914 0
M  V30 21 C -0.167559 0.849861 5.743859 0
M  V30 22 C -1.038191 0.954707 4.680520 0
M  V30 23 C -0.638350 0.517747 3.437209 0
M  V30 24 C -1.442449 0.549951 2.167989 0 CFG=2
M  V30 25 C -1.236419 1.828267 1.419204 0
M  V30 26 C -2.240417 1.941958 0.317245 0
M  V30 27 C -2.901082 0.588177 0.071225 0
M  V30 28 C -3.682569 0.121219 1.276251 0 CFG=2
M  V30 29 N -4.932580 0.857954 1.351662 0
M  V30 30 C -2.894930 0.332130 2.552664 0
M  V30 31 H -0.625096 -4.512591 1.652616 0
M  V30 32 H 0.816782 -5.669598 1.499762 0
M  V30 33 H 4.141920 -3.279084 -5.596049 0
M  V30 34 H 4.879643 -0.906080 -5.724811 0
M  V30 35 H 4.442367 0.660054 -3.937031 0
M  V30 36 H 1.666953 0.061085 1.342347 0
M  V30 37 H 2.496516 -0.524664 4.304829 0
M  V30 38 H -0.534655 1.210519 6.705168 0
M  V30 39 H -2.027736 1.355837 4.727352 0
M  V30 40 H -1.123961 -0.298043 1.548391 0
M  V30 41 H -0.189543 1.816621 1.040594 0
M  V30 42 H -1.351666 2.706388 2.091124 0
M  V30 43 H -2.974077 2.751395 0.425261 0
M  V30 44 H -1.667728 2.152895 -0.630849 0
M  V30 45 H -2.125116 -0.133128 -0.220948 0
M  V30 46 H -3.649566 0.690448 -0.752239 0
M  V30 47 H -3.925544 -0.939327 1.134155 0
M  V30 48 H -5.683259 0.371093 1.867472 0
M  V30 49 H -5.177052 1.228209 0.424544 0
M  V30 50 H -2.908838 -0.588817 3.193219 0
M  V30 51 H -3.246694 1.234757 3.096235 0
M  V30 END ATOM
M  V30 BEGIN BOND
M  V30 1 1 1 2
M  V30 2 1 2 3
M  V30 3 1 3 4
M  V30 4 1 4 5
M  V30 5 2 5 6
M  V30 6 1 6 7
M  V30 7 1 6 8
M  V30 8 2 8 9
M  V30 9 1 9 10
M  V30 10 2 10 11
M  V30 11 1 11 12
M  V30 12 2 4 13
M  V30 13 1 13 14
M  V30 14 1 14 15
M  V30 15 2 15 16
M  V30 16 1 15 17
M  V30 17 1 17 18
M  V30 18 2 18 19
M  V30 19 1 19 20
M  V30 20 2 20 21
M  V30 21 1 21 22
M  V30 22 2 22 23
M  V30 23 1 23 24
M  V30 24 1 24 25
M  V30 25 1 25 26
M  V30 26 1 26 27
M  V30 27 1 27 28
M  V30 28 1 28 29
M  V30 29 1 28 30
M  V30 30 2 14 2
M  V30 31 1 23 18
M  V30 32 1 30 24
M  V30 33 1 11 5
M  V30 34 1 1 31
M  V30 35 1 1 32
M  V30 36 1 8 33
M  V30 37 1 9 34
M  V30 38 1 10 35
M  V30 39 1 17 36
M  V30 40 1 19 37
M  V30 41 1 21 38
M  V30 42 1 22 39
M  V30 43 1 24 40 CFG=3
M  V30 44 1 25 41
M  V30 45 1 25 42
M  V30 46 1 26 43
M  V30 47 1 26 44
M  V30 48 1 27 45
M  V30 49 1 27 46
M  V30 50 1 28 47 CFG=3
M  V30 51 1 29 48
M  V30 52 1 29 49
M  V30 53 1 30 50
M  V30 54 1 30 51
M  V30 END BOND
M  V30 END CTAB
M  END
>  <Dataset>  (390) 
ChEMBL_Kinases

>  <Ligand_Instance>  (390) 
nan

>  <PDB_ID>  (390) 
nan

>  <Standardized_SMILES>  (390) 
Nc1sc(-c2c(F)cccc2F)nc1C(=O)Nc1cnccc1[C@@H]1CCC[C@H](N)C1

>  <Name>  (390) 
nan

>  <Pocket>  (390) 
nan

>  <ATP_Site>  (390) 
nan

>  <Peripheral>  (390) 
nan

>  <Num_H_Atoms_ProtBoundConf>  (390) 
nan

>  <Num_Resolved_Atoms>  (390) 
nan

>  <Num_Not_Resolved_Atoms>  (390) 
nan

$$$$
CHEMBL3676288
     RDKit          3D

  0  0  0  0  0  0  0  0  0  0999 V3000
M  V30 BEGIN CTAB
M  V30 COUNTS 53 56 0 0 0
M  V30 BEGIN ATOM
M  V30 1 C 4.270882 1.169595 3.143506 0
M  V30 2 C 3.504071 0.187729 2.272853 0 CFG=2
M  V30 3 C 4.347723 -0.123033 1.080330 0
M  V30 4 C 3.632425 -1.236832 0.354860 0 CFG=2
M  V30 5 O 4.415664 -1.722647 -0.716817 0
M  V30 6 C 2.250184 -0.892932 -0.079629 0
M  V30 7 C 1.548574 0.178195 0.655926 0 CFG=2
M  V30 8 C 1.171434 1.339548 -0.232122 0
M  V30 9 C 2.037587 2.395364 -0.405312 0
M  V30 10 C 1.763910 3.487801 -1.198424 0
M  V30 11 N 0.565719 3.517109 -1.844619 0
M  V30 12 C -0.316357 2.511036 -1.709371 0
M  V30 13 C -0.049773 1.411896 -0.916002 0
M  V30 14 N -0.909805 0.299387 -0.705149 0
M  V30 15 C -1.760082 0.521395 0.409733 0
M  V30 16 O -1.569438 1.637412 0.958490 0
M  V30 17 C -2.765033 -0.414735 0.906259 0
M  V30 18 N -2.948313 -1.584907 0.317787 0
M  V30 19 C -3.793130 -2.384101 0.727815 0
M  V30 20 C -4.210306 -3.741224 0.276649 0
M  V30 21 C -5.209924 -4.412371 0.949378 0
M  V30 22 F -5.836820 -3.886796 2.014415 0
M  V30 23 C -5.508908 -5.667463 0.434266 0
M  V30 24 C -4.866191 -6.210731 -0.660525 0
M  V30 25 C -3.861851 -5.480126 -1.298173 0
M  V30 26 C -3.541076 -4.230309 -0.811277 0
M  V30 27 F -2.558950 -3.558926 -1.464124 0
M  V30 28 S -4.573968 -1.612992 2.132865 0
M  V30 29 C -3.542180 -0.065107 2.020673 0
M  V30 30 N -3.528623 1.072990 2.778887 0
M  V30 31 C 2.152278 0.686936 1.905904 0
M  V30 32 H 5.262875 0.724427 3.342499 0
M  V30 33 H 3.776870 1.313189 4.126778 0
M  V30 34 H 4.446176 2.104095 2.593208 0
M  V30 35 H 3.377145 -0.767912 2.843887 0
M  V30 36 H 5.314443 -0.576926 1.437912 0
M  V30 37 H 4.630528 0.726208 0.464539 0
M  V30 38 H 3.562603 -2.079428 1.078674 0
M  V30 39 H 5.389418 -1.540283 -0.541509 0
M  V30 40 H 2.338971 -0.549254 -1.153373 0
M  V30 41 H 1.637421 -1.825996 -0.175961 0
M  V30 42 H 0.530675 -0.230883 0.943016 0
M  V30 43 H 2.996850 2.437292 0.073178 0
M  V30 44 H 2.449297 4.316300 -1.331358 0
M  V30 45 H -1.280632 2.504280 -2.211305 0
M  V30 46 H -1.017429 -0.626732 -1.218199 0
M  V30 47 H -6.281817 -6.264049 0.901617 0
M  V30 48 H -5.147181 -7.208144 -1.020838 0
M  V30 49 H -3.397769 -5.961322 -2.149194 0
M  V30 50 H -3.720026 1.962652 2.269644 0
M  V30 51 H -3.330323 0.997448 3.815707 0
M  V30 52 H 2.235810 1.812989 1.863737 0
M  V30 53 H 1.502442 0.526907 2.815893 0
M  V30 END ATOM
M  V30 BEGIN BOND
M  V30 1 1 1 2
M  V30 2 1 2 3
M  V30 3 1 3 4
M  V30 4 1 4 5
M  V30 5 1 4 6
M  V30 6 1 6 7
M  V30 7 1 7 8
M  V30 8 2 8 9
M  V30 9 1 9 10
M  V30 10 2 10 11
M  V30 11 1 11 12
M  V30 12 2 12 13
M  V30 13 1 13 14
M  V30 14 1 14 15
M  V30 15 2 15 16
M  V30 16 1 15 17
M  V30 17 1 17 18
M  V30 18 2 18 19
M  V30 19 1 19 20
M  V30 20 2 20 21
M  V30 21 1 21 22
M  V30 22 1 21 23
M  V30 23 2 23 24
M  V30 24 1 24 25
M  V30 25 2 25 26
M  V30 26 1 26 27
M  V30 27 1 19 28
M  V30 28 1 28 29
M  V30 29 1 29 30
M  V30 30 1 7 31
M  V30 31 1 31 2
M  V30 32 1 13 8
M  V30 33 2 29 17
M  V30 34 1 26 20
M  V30 35 1 1 32
M  V30 36 1 1 33
M  V30 37 1 1 34
M  V30 38 1 2 35 CFG=1
M  V30 39 1 3 36
M  V30 40 1 3 37
M  V30 41 1 4 38 CFG=1
M  V30 42 1 5 39
M  V30 43 1 6 40
M  V30 44 1 6 41
M  V30 45 1 7 42 CFG=1
M  V30 46 1 9 43
M  V30 47 1 10 44
M  V30 48 1 12 45
M  V30 49 1 14 46
M  V30 50 1 23 47
M  V30 51 1 24 48
M  V30 52 1 25 49
M  V30 53 1 30 50
M  V30 54 1 30 51
M  V30 55 1 31 52
M  V30 56 1 31 53
M  V30 END BOND
M  V30 END CTAB
M  END
>  <Dataset>  (391) 
ChEMBL_Kinases

>  <Ligand_Instance>  (391) 
nan

>  <PDB_ID>  (391) 
nan

>  <Standardized_SMILES>  (391) 
C[C@@H]1C[C@H](O)C[C@H](c2ccncc2NC(=O)c2nc(-c3c(F)cccc3F)sc2N)C1

>  <Name>  (391) 
nan

>  <Pocket>  (391) 
nan

>  <ATP_Site>  (391) 
nan

>  <Peripheral>  (391) 
nan

>  <Num_H_Atoms_ProtBoundConf>  (391) 
nan

>  <Num_Resolved_Atoms>  (391) 
nan

>  <Num_Not_Resolved_Atoms>  (391) 
nan

$$$$
CHEMBL3676287
     RDKit          3D

  0  0  0  0  0  0  0  0  0  0999 V3000
M  V30 BEGIN CTAB
M  V30 COUNTS 51 54 0 0 0
M  V30 BEGIN ATOM
M  V30 1 C 0.896724 -2.716624 0.561235 0
M  V30 2 C 2.021949 -1.906389 1.176104 0 CFG=2
M  V30 3 C 1.533149 -1.136542 2.371361 0
M  V30 4 C 2.453572 -0.057185 2.805790 0 CFG=2
M  V30 5 O 1.739036 0.756417 3.716130 0
M  V30 6 C 2.973811 0.843409 1.747655 0
M  V30 7 C 3.126968 0.269599 0.385656 0 CFG=2
M  V30 8 C 2.767565 1.203335 -0.730562 0
M  V30 9 C 3.669646 2.039028 -1.407325 0
M  V30 10 C 3.263278 2.857263 -2.435996 0
M  V30 11 N 1.980794 2.887960 -2.834212 0
M  V30 12 C 1.082887 2.086396 -2.193818 0
M  V30 13 C 1.461556 1.253014 -1.155643 0
M  V30 14 N 0.332672 0.538277 -0.677040 0
M  V30 15 C -0.464222 1.180225 0.321048 0
M  V30 16 O -0.108672 2.344444 0.709944 0
M  V30 17 C -1.663632 0.635075 0.952859 0
M  V30 18 C -2.324581 1.398427 1.923344 0
M  V30 19 S -3.712489 0.244375 2.345242 0
M  V30 20 C -3.148351 -1.030912 1.151181 0
M  V30 21 C -3.916246 -2.257210 1.040436 0
M  V30 22 C -5.043949 -2.512937 1.784000 0
M  V30 23 F -5.489213 -1.596459 2.674319 0
M  V30 24 C -5.711276 -3.722503 1.603319 0
M  V30 25 C -5.210148 -4.617534 0.681186 0
M  V30 26 C -4.076739 -4.366540 -0.069723 0
M  V30 27 C -3.417833 -3.154194 0.119299 0
M  V30 28 F -2.315932 -2.931015 -0.623080 0
M  V30 29 N -2.146033 -0.556930 0.635844 0
M  V30 30 C 2.758650 -1.142230 0.160441 0
M  V30 31 H -0.091345 -2.421420 0.966968 0
M  V30 32 H 0.978024 -3.796663 0.689505 0
M  V30 33 H 0.926973 -2.551743 -0.555910 0
M  V30 34 H 2.692184 -2.699149 1.635109 0
M  V30 35 H 0.504876 -0.735110 2.270745 0
M  V30 36 H 1.435275 -1.816858 3.271630 0
M  V30 37 H 3.293477 -0.532996 3.351532 0
M  V30 38 H 2.446077 1.188176 4.292024 0
M  V30 39 H 3.931423 1.262086 2.192288 0
M  V30 40 H 2.374371 1.797056 1.650070 0
M  V30 41 H 4.269408 0.249051 0.264248 0
M  V30 42 H 4.692123 1.987019 -1.058903 0
M  V30 43 H 4.045692 3.460050 -2.886770 0
M  V30 44 H 0.086900 2.217493 -2.622792 0
M  V30 45 H -0.103617 -0.412167 -0.887685 0
M  V30 46 H -2.184800 2.380317 2.388158 0
M  V30 47 H -6.616139 -3.937159 2.194131 0
M  V30 48 H -5.765732 -5.543887 0.578002 0
M  V30 49 H -3.746006 -5.127946 -0.778577 0
M  V30 50 H 3.627579 -1.791431 -0.180214 0
M  V30 51 H 2.138017 -1.133461 -0.787893 0
M  V30 END ATOM
M  V30 BEGIN BOND
M  V30 1 1 1 2
M  V30 2 1 2 3
M  V30 3 1 3 4
M  V30 4 1 4 5
M  V30 5 1 4 6
M  V30 6 1 6 7
M  V30 7 1 7 8
M  V30 8 2 8 9
M  V30 9 1 9 10
M  V30 10 2 10 11
M  V30 11 1 11 12
M  V30 12 2 12 13
M  V30 13 1 13 14
M  V30 14 1 14 15
M  V30 15 2 15 16
M  V30 16 1 15 17
M  V30 17 2 17 18
M  V30 18 1 18 19
M  V30 19 1 19 20
M  V30 20 1 20 21
M  V30 21 2 21 22
M  V30 22 1 22 23
M  V30 23 1 22 24
M  V30 24 2 24 25
M  V30 25 1 25 26
M  V30 26 2 26 27
M  V30 27 1 27 28
M  V30 28 2 20 29
M  V30 29 1 7 30
M  V30 30 1 30 2
M  V30 31 1 13 8
M  V30 32 1 29 17
M  V30 33 1 27 21
M  V30 34 1 1 31
M  V30 35 1 1 32
M  V30 36 1 1 33
M  V30 37 1 2 34 CFG=1
M  V30 38 1 3 35
M  V30 39 1 3 36
M  V30 40 1 4 37 CFG=1
M  V30 41 1 5 38
M  V30 42 1 6 39
M  V30 43 1 6 40
M  V30 44 1 7 41 CFG=3
M  V30 45 1 9 42
M  V30 46 1 10 43
M  V30 47 1 12 44
M  V30 48 1 14 45
M  V30 49 1 18 46
M  V30 50 1 24 47
M  V30 51 1 25 48
M  V30 52 1 26 49
M  V30 53 1 30 50
M  V30 54 1 30 51
M  V30 END BOND
M  V30 END CTAB
M  END
>  <Dataset>  (392) 
ChEMBL_Kinases

>  <Ligand_Instance>  (392) 
nan

>  <PDB_ID>  (392) 
nan

>  <Standardized_SMILES>  (392) 
C[C@@H]1C[C@H](O)C[C@H](c2ccncc2NC(=O)c2csc(-c3c(F)cccc3F)n2)C1

>  <Name>  (392) 
nan

>  <Pocket>  (392) 
nan

>  <ATP_Site>  (392) 
nan

>  <Peripheral>  (392) 
nan

>  <Num_H_Atoms_ProtBoundConf>  (392) 
nan

>  <Num_Resolved_Atoms>  (392) 
nan

>  <Num_Not_Resolved_Atoms>  (392) 
nan

$$$$
CHEMBL3676286
     RDKit          3D

  0  0  0  0  0  0  0  0  0  0999 V3000
M  V30 BEGIN CTAB
M  V30 COUNTS 48 51 0 0 0
M  V30 BEGIN ATOM
M  V30 1 N -0.337841 2.633416 3.355160 0
M  V30 2 C 0.667489 2.176453 2.477327 0
M  V30 3 S 2.051504 3.110392 1.600666 0
M  V30 4 C 2.657619 1.628360 0.815275 0
M  V30 5 C 3.851520 1.509420 -0.137284 0
M  V30 6 C 4.182520 0.288878 -0.653446 0
M  V30 7 F 3.445293 -0.794757 -0.310796 0
M  V30 8 C 5.272314 0.284427 -1.500882 0
M  V30 9 C 5.975204 1.433288 -1.803005 0
M  V30 10 C 5.567397 2.643384 -1.229401 0
M  V30 11 C 4.485234 2.707897 -0.375143 0
M  V30 12 F 4.087617 3.868632 0.180069 0
M  V30 13 N 1.940356 0.755501 1.187051 0
M  V30 14 C 0.925004 0.936758 2.014133 0
M  V30 15 C 0.080071 -0.202503 2.428517 0
M  V30 16 O -0.893807 -0.038672 3.219740 0
M  V30 17 N 0.238485 -1.566951 2.015757 0
M  V30 18 C -0.806656 -2.309214 2.669938 0
M  V30 19 C -0.519643 -2.840014 3.919332 0
M  V30 20 N -1.490022 -3.538836 4.545525 0
M  V30 21 C -2.701222 -3.722257 3.987180 0
M  V30 22 C -3.013547 -3.204324 2.743690 0
M  V30 23 C -2.049009 -2.483071 2.069447 0
M  V30 24 N -2.226001 -1.883485 0.769367 0
M  V30 25 C -1.393236 -2.257339 -0.337264 0
M  V30 26 C -2.132399 -2.453943 -1.629866 0
M  V30 27 C -3.094195 -1.342449 -1.958131 0
M  V30 28 F -3.819468 -1.708041 -3.060094 0
M  V30 29 C -4.059235 -1.275158 -0.778185 0
M  V30 30 C -3.197101 -0.890737 0.416305 0
M  V30 31 H -0.995570 3.415004 3.146369 0
M  V30 32 H -0.339668 2.088157 4.242832 0
M  V30 33 H 5.536221 -0.701958 -1.915231 0
M  V30 34 H 6.821703 1.375641 -2.472756 0
M  V30 35 H 6.108868 3.552402 -1.457047 0
M  V30 36 H 1.049454 -1.738673 1.349382 0
M  V30 37 H 0.459350 -2.683864 4.355272 0
M  V30 38 H -3.514691 -4.274511 4.446818 0
M  V30 39 H -3.957012 -3.303035 2.222863 0
M  V30 40 H -0.632942 -1.467599 -0.541134 0
M  V30 41 H -0.939302 -3.241721 -0.092184 0
M  V30 42 H -1.388626 -2.476023 -2.451872 0
M  V30 43 H -2.692184 -3.410232 -1.677558 0
M  V30 44 H -2.613308 -0.360129 -2.062312 0
M  V30 45 H -4.513617 -2.278610 -0.591032 0
M  V30 46 H -4.810127 -0.495291 -0.910976 0
M  V30 47 H -3.919092 -0.632337 1.208428 0
M  V30 48 H -2.609678 0.000513 0.053881 0
M  V30 END ATOM
M  V30 BEGIN BOND
M  V30 1 1 1 2
M  V30 2 1 2 3
M  V30 3 1 3 4
M  V30 4 1 4 5
M  V30 5 2 5 6
M  V30 6 1 6 7
M  V30 7 1 6 8
M  V30 8 2 8 9
M  V30 9 1 9 10
M  V30 10 2 10 11
M  V30 11 1 11 12
M  V30 12 2 4 13
M  V30 13 1 13 14
M  V30 14 1 14 15
M  V30 15 2 15 16
M  V30 16 1 15 17
M  V30 17 1 17 18
M  V30 18 2 18 19
M  V30 19 1 19 20
M  V30 20 2 20 21
M  V30 21 1 21 22
M  V30 22 2 22 23
M  V30 23 1 23 24
M  V30 24 1 24 25
M  V30 25 1 25 26
M  V30 26 1 26 27
M  V30 27 1 27 28
M  V30 28 1 27 29
M  V30 29 1 29 30
M  V30 30 2 14 2
M  V30 31 1 23 18
M  V30 32 1 30 24
M  V30 33 1 11 5
M  V30 34 1 1 31
M  V30 35 1 1 32
M  V30 36 1 8 33
M  V30 37 1 9 34
M  V30 38 1 10 35
M  V30 39 1 17 36
M  V30 40 1 19 37
M  V30 41 1 21 38
M  V30 42 1 22 39
M  V30 43 1 25 40
M  V30 44 1 25 41
M  V30 45 1 26 42
M  V30 46 1 26 43
M  V30 47 1 27 44
M  V30 48 1 29 45
M  V30 49 1 29 46
M  V30 50 1 30 47
M  V30 51 1 30 48
M  V30 END BOND
M  V30 END CTAB
M  END
>  <Dataset>  (393) 
ChEMBL_Kinases

>  <Ligand_Instance>  (393) 
nan

>  <PDB_ID>  (393) 
nan

>  <Standardized_SMILES>  (393) 
Nc1sc(-c2c(F)cccc2F)nc1C(=O)Nc1cnccc1N1CCC(F)CC1

>  <Name>  (393) 
nan

>  <Pocket>  (393) 
nan

>  <ATP_Site>  (393) 
nan

>  <Peripheral>  (393) 
nan

>  <Num_H_Atoms_ProtBoundConf>  (393) 
nan

>  <Num_Resolved_Atoms>  (393) 
nan

>  <Num_Not_Resolved_Atoms>  (393) 
nan

$$$$
CHEMBL3676284
     RDKit          3D

  0  0  0  0  0  0  0  0  0  0999 V3000
M  V30 BEGIN CTAB
M  V30 COUNTS 51 54 0 0 0
M  V30 BEGIN ATOM
M  V30 1 C 1.922065 -2.229932 -1.312044 0
M  V30 2 C 2.624576 -1.982362 0.006167 0 CFG=2
M  V30 3 C 1.613436 -1.868273 1.110500 0
M  V30 4 C 2.076645 -0.975786 2.233089 0 CFG=2
M  V30 5 N 0.949982 -0.793863 3.137571 0
M  V30 6 C 2.552859 0.367082 1.790958 0
M  V30 7 N 2.693082 0.393816 0.326111 0
M  V30 8 C 2.239538 1.285440 -0.685827 0
M  V30 9 C 3.337878 1.816928 -1.372313 0
M  V30 10 C 3.168150 2.719378 -2.417347 0
M  V30 11 N 1.911370 3.064388 -2.746227 0
M  V30 12 C 0.833722 2.573418 -2.108309 0
M  V30 13 C 0.974397 1.677556 -1.069211 0
M  V30 14 N -0.043446 1.060710 -0.292191 0
M  V30 15 C -0.586858 1.604457 0.891958 0
M  V30 16 O -0.070525 2.708576 1.193771 0
M  V30 17 C -1.628922 0.939945 1.659511 0
M  V30 18 C -2.157409 1.547069 2.883932 0
M  V30 19 S -3.421417 0.260289 3.388116 0
M  V30 20 C -3.017423 -0.796000 1.927994 0
M  V30 21 C -3.748757 -2.045539 1.772617 0
M  V30 22 C -4.714210 -2.450612 2.668770 0
M  V30 23 F -5.033357 -1.711705 3.737387 0
M  V30 24 C -5.345889 -3.653832 2.424769 0
M  V30 25 C -5.009076 -4.412838 1.315299 0
M  V30 26 C -4.046074 -4.010241 0.420129 0
M  V30 27 C -3.420151 -2.797368 0.680161 0
M  V30 28 F -2.476455 -2.406416 -0.200309 0
M  V30 29 N -2.159656 -0.227138 1.316463 0
M  V30 30 C 3.465400 -0.748225 -0.148346 0
M  V30 31 H 1.848012 -3.313136 -1.545058 0
M  V30 32 H 2.538488 -1.784315 -2.128641 0
M  V30 33 H 0.928418 -1.755197 -1.246553 0
M  V30 34 H 3.274725 -2.882714 0.188410 0
M  V30 35 H 0.613191 -1.522445 0.778830 0
M  V30 36 H 1.426907 -2.873604 1.574234 0
M  V30 37 H 2.827943 -1.549402 2.814158 0
M  V30 38 H 0.821007 0.173071 3.456655 0
M  V30 39 H 0.064816 -1.160168 2.735244 0
M  V30 40 H 1.999250 1.213538 2.190024 0
M  V30 41 H 3.617763 0.455241 2.158439 0
M  V30 42 H 4.401387 1.607042 -1.189950 0
M  V30 43 H 3.984458 3.155251 -2.975141 0
M  V30 44 H -0.187054 2.822562 -2.339155 0
M  V30 45 H -0.426378 0.123268 -0.622313 0
M  V30 46 H -1.738334 2.589131 3.261463 0
M  V30 47 H -6.115332 -3.969604 3.145289 0
M  V30 48 H -5.519970 -5.356263 1.144219 0
M  V30 49 H -3.770085 -4.593886 -0.455133 0
M  V30 50 H 4.398817 -0.772953 0.464449 0
M  V30 51 H 3.776197 -0.641043 -1.217960 0
M  V30 END ATOM
M  V30 BEGIN BOND
M  V30 1 1 1 2
M  V30 2 1 2 3
M  V30 3 1 3 4
M  V30 4 1 4 5
M  V30 5 1 4 6
M  V30 6 1 6 7
M  V30 7 1 7 8
M  V30 8 2 8 9
M  V30 9 1 9 10
M  V30 10 2 10 11
M  V30 11 1 11 12
M  V30 12 2 12 13
M  V30 13 1 13 14
M  V30 14 1 14 15
M  V30 15 2 15 16
M  V30 16 1 15 17
M  V30 17 2 17 18
M  V30 18 1 18 19
M  V30 19 1 19 20
M  V30 20 1 20 21
M  V30 21 2 21 22
M  V30 22 1 22 23
M  V30 23 1 22 24
M  V30 24 2 24 25
M  V30 25 1 25 26
M  V30 26 2 26 27
M  V30 27 1 27 28
M  V30 28 2 20 29
M  V30 29 1 7 30
M  V30 30 1 30 2
M  V30 31 1 13 8
M  V30 32 1 29 17
M  V30 33 1 27 21
M  V30 34 1 1 31
M  V30 35 1 1 32
M  V30 36 1 1 33
M  V30 37 1 2 34 CFG=1
M  V30 38 1 3 35
M  V30 39 1 3 36
M  V30 40 1 4 37 CFG=1
M  V30 41 1 5 38
M  V30 42 1 5 39
M  V30 43 1 6 40
M  V30 44 1 6 41
M  V30 45 1 9 42
M  V30 46 1 10 43
M  V30 47 1 12 44
M  V30 48 1 14 45
M  V30 49 1 18 46
M  V30 50 1 24 47
M  V30 51 1 25 48
M  V30 52 1 26 49
M  V30 53 1 30 50
M  V30 54 1 30 51
M  V30 END BOND
M  V30 END CTAB
M  END
>  <Dataset>  (394) 
ChEMBL_Kinases

>  <Ligand_Instance>  (394) 
nan

>  <PDB_ID>  (394) 
nan

>  <Standardized_SMILES>  (394) 
C[C@@H]1C[C@H](N)CN(c2ccncc2NC(=O)c2csc(-c3c(F)cccc3F)n2)C1

>  <Name>  (394) 
nan

>  <Pocket>  (394) 
nan

>  <ATP_Site>  (394) 
nan

>  <Peripheral>  (394) 
nan

>  <Num_H_Atoms_ProtBoundConf>  (394) 
nan

>  <Num_Resolved_Atoms>  (394) 
nan

>  <Num_Not_Resolved_Atoms>  (394) 
nan

$$$$
CHEMBL3676283
     RDKit          3D

  0  0  0  0  0  0  0  0  0  0999 V3000
M  V30 BEGIN CTAB
M  V30 COUNTS 51 54 0 0 0
M  V30 BEGIN ATOM
M  V30 1 N 1.944651 -1.943214 2.510763 0
M  V30 2 C 1.711012 -0.533262 2.250991 0 CFG=1
M  V30 3 C 2.502991 0.244705 3.272070 0
M  V30 4 C 2.841299 1.624857 2.851179 0 CFG=1
M  V30 5 C 3.937189 2.165742 3.761352 0
M  V30 6 F 5.056130 1.392802 3.687589 0
M  V30 7 F 4.235078 3.465976 3.398079 0
M  V30 8 F 3.401565 2.227488 5.026541 0
M  V30 9 C 3.425754 1.670324 1.430186 0
M  V30 10 N 2.344821 1.144235 0.579717 0
M  V30 11 C 1.725137 2.040357 -0.298728 0
M  V30 12 C 2.360819 3.142584 -0.818029 0
M  V30 13 C 1.772866 4.024199 -1.699257 0
M  V30 14 N 0.485312 3.806391 -2.090648 0
M  V30 15 C -0.173959 2.714186 -1.588825 0
M  V30 16 C 0.432358 1.824082 -0.693634 0
M  V30 17 N -0.476626 0.831112 -0.338630 0
M  V30 18 C -0.996961 -0.424444 -0.747151 0
M  V30 19 O -0.423280 -0.752362 -1.821008 0
M  V30 20 C -2.016325 -1.126847 0.016958 0
M  V30 21 C -2.694953 -0.737608 1.287882 0
M  V30 22 S -3.833463 -2.223790 1.517235 0
M  V30 23 C -3.235265 -3.001794 0.010093 0
M  V30 24 C -3.820074 -4.312305 -0.358797 0
M  V30 25 C -4.770557 -4.903600 0.410193 0
M  V30 26 F -5.245043 -4.363620 1.536882 0
M  V30 27 C -5.236247 -6.139385 -0.054502 0
M  V30 28 C -4.776420 -6.735503 -1.211154 0
M  V30 29 C -3.799382 -6.088433 -1.966714 0
M  V30 30 C -3.334004 -4.872818 -1.519532 0
M  V30 31 F -2.385765 -4.283265 -2.287015 0
M  V30 32 N -2.408943 -2.281586 -0.475213 0
M  V30 33 C 2.177794 -0.249626 0.840465 0
M  V30 34 H 1.328889 -2.219580 3.308960 0
M  V30 35 H 2.940747 -2.105054 2.809112 0
M  V30 36 H 0.640607 -0.348220 2.360256 0
M  V30 37 H 1.856173 0.322098 4.173763 0
M  V30 38 H 3.417977 -0.292756 3.566264 0
M  V30 39 H 1.970625 2.301682 2.869704 0
M  V30 40 H 3.646432 2.717000 1.194519 0
M  V30 41 H 4.275067 0.997189 1.332023 0
M  V30 42 H 3.367170 3.426806 -0.604543 0
M  V30 43 H 2.258921 4.899394 -2.119644 0
M  V30 44 H -1.197249 2.672355 -1.993959 0
M  V30 45 H -0.828890 1.289266 0.555502 0
M  V30 46 H -2.240651 0.367179 1.651565 0
M  V30 47 H -6.003826 -6.621412 0.562500 0
M  V30 48 H -5.239006 -7.701728 -1.440324 0
M  V30 49 H -3.505728 -6.629248 -2.847794 0
M  V30 50 H 3.219056 -0.715452 0.804278 0
M  V30 51 H 1.613879 -0.831805 0.123142 0
M  V30 END ATOM
M  V30 BEGIN BOND
M  V30 1 1 1 2
M  V30 2 1 2 3
M  V30 3 1 3 4
M  V30 4 1 4 5
M  V30 5 1 5 6
M  V30 6 1 5 7
M  V30 7 1 5 8
M  V30 8 1 4 9
M  V30 9 1 9 10
M  V30 10 1 10 11
M  V30 11 2 11 12
M  V30 12 1 12 13
M  V30 13 2 13 14
M  V30 14 1 14 15
M  V30 15 2 15 16
M  V30 16 1 16 17
M  V30 17 1 17 18
M  V30 18 2 18 19
M  V30 19 1 18 20
M  V30 20 2 20 21
M  V30 21 1 21 22
M  V30 22 1 22 23
M  V30 23 1 23 24
M  V30 24 2 24 25
M  V30 25 1 25 26
M  V30 26 1 25 27
M  V30 27 2 27 28
M  V30 28 1 28 29
M  V30 29 2 29 30
M  V30 30 1 30 31
M  V30 31 2 23 32
M  V30 32 1 10 33
M  V30 33 1 33 2
M  V30 34 1 16 11
M  V30 35 1 32 20
M  V30 36 1 30 24
M  V30 37 1 1 34
M  V30 38 1 1 35
M  V30 39 1 2 36 CFG=3
M  V30 40 1 3 37
M  V30 41 1 3 38
M  V30 42 1 4 39 CFG=3
M  V30 43 1 9 40
M  V30 44 1 9 41
M  V30 45 1 12 42
M  V30 46 1 13 43
M  V30 47 1 15 44
M  V30 48 1 17 45
M  V30 49 1 21 46
M  V30 50 1 27 47
M  V30 51 1 28 48
M  V30 52 1 29 49
M  V30 53 1 33 50
M  V30 54 1 33 51
M  V30 END BOND
M  V30 END CTAB
M  END
>  <Dataset>  (395) 
ChEMBL_Kinases

>  <Ligand_Instance>  (395) 
nan

>  <PDB_ID>  (395) 
nan

>  <Standardized_SMILES>  (395) 
N[C@H]1C[C@@H](C(F)(F)F)CN(c2ccncc2NC(=O)c2csc(-c3c(F)cccc3F)n2)C1

>  <Name>  (395) 
nan

>  <Pocket>  (395) 
nan

>  <ATP_Site>  (395) 
nan

>  <Peripheral>  (395) 
nan

>  <Num_H_Atoms_ProtBoundConf>  (395) 
nan

>  <Num_Resolved_Atoms>  (395) 
nan

>  <Num_Not_Resolved_Atoms>  (395) 
nan

$$$$
CHEMBL3676282
     RDKit          3D

  0  0  0  0  0  0  0  0  0  0999 V3000
M  V30 BEGIN CTAB
M  V30 COUNTS 51 54 0 0 0
M  V30 BEGIN ATOM
M  V30 1 N 4.006566 -2.593182 -0.685416 0
M  V30 2 C 3.696567 -1.392385 0.085186 0 CFG=2
M  V30 3 C 3.038291 -1.806370 1.355595 0
M  V30 4 C 1.718823 -1.117357 1.599718 0 CFG=1
M  V30 5 C 1.249967 -1.292368 3.029350 0
M  V30 6 F 1.068412 -2.606299 3.387329 0
M  V30 7 F 2.171420 -0.719295 3.897957 0
M  V30 8 F 0.078456 -0.578162 3.190852 0
M  V30 9 C 1.938206 0.362232 1.376436 0
M  V30 10 N 2.202184 0.526348 -0.052441 0
M  V30 11 C 1.817406 1.716241 -0.679714 0
M  V30 12 C 2.906151 2.450372 -1.103839 0
M  V30 13 C 2.777270 3.688791 -1.739103 0
M  V30 14 N 1.493084 4.121127 -1.910229 0
M  V30 15 C 0.461002 3.383210 -1.487069 0
M  V30 16 C 0.533028 2.171417 -0.863743 0
M  V30 17 N -0.533691 1.384090 -0.423873 0
M  V30 18 C -1.923840 1.649124 -0.478025 0
M  V30 19 O -2.303232 2.729618 -0.979928 0
M  V30 20 C -2.960736 0.746295 0.013112 0
M  V30 21 C -4.297788 1.175812 -0.117924 0
M  V30 22 S -5.186048 -0.318568 0.638846 0
M  V30 23 C -3.654635 -1.165253 0.957102 0
M  V30 24 C -3.703310 -2.515567 1.593290 0
M  V30 25 C -4.924375 -3.079455 1.910248 0
M  V30 26 F -6.097088 -2.478289 1.682432 0
M  V30 27 C -4.887838 -4.331172 2.491071 0
M  V30 28 C -3.757925 -5.061699 2.780496 0
M  V30 29 C -2.532759 -4.462096 2.447121 0
M  V30 30 C -2.568736 -3.207802 1.865128 0
M  V30 31 F -1.379385 -2.603324 1.531369 0
M  V30 32 N -2.774943 -0.422807 0.557488 0
M  V30 33 C 2.840744 -0.517294 -0.788735 0
M  V30 34 H 4.294850 -3.316621 0.025509 0
M  V30 35 H 4.867252 -2.414819 -1.250626 0
M  V30 36 H 4.642959 -0.858414 0.248961 0
M  V30 37 H 2.927370 -2.902913 1.493974 0
M  V30 38 H 3.702765 -1.466619 2.203962 0
M  V30 39 H 0.962171 -1.454094 0.869728 0
M  V30 40 H 1.142970 1.006989 1.752413 0
M  V30 41 H 2.932103 0.601049 1.865656 0
M  V30 42 H 3.942739 2.165588 -0.999101 0
M  V30 43 H 3.612341 4.282347 -2.080127 0
M  V30 44 H -0.473795 3.843115 -1.687175 0
M  V30 45 H -0.360742 0.453654 0.011808 0
M  V30 46 H -4.840629 2.141955 -0.546656 0
M  V30 47 H -5.854016 -4.790938 2.748486 0
M  V30 48 H -3.834784 -6.037575 3.238071 0
M  V30 49 H -1.620394 -5.000283 2.656806 0
M  V30 50 H 3.537095 -0.054782 -1.544860 0
M  V30 51 H 2.156197 -1.160278 -1.362256 0
M  V30 END ATOM
M  V30 BEGIN BOND
M  V30 1 1 1 2
M  V30 2 1 2 3
M  V30 3 1 3 4
M  V30 4 1 4 5
M  V30 5 1 5 6
M  V30 6 1 5 7
M  V30 7 1 5 8
M  V30 8 1 4 9
M  V30 9 1 9 10
M  V30 10 1 10 11
M  V30 11 2 11 12
M  V30 12 1 12 13
M  V30 13 2 13 14
M  V30 14 1 14 15
M  V30 15 2 15 16
M  V30 16 1 16 17
M  V30 17 1 17 18
M  V30 18 2 18 19
M  V30 19 1 18 20
M  V30 20 2 20 21
M  V30 21 1 21 22
M  V30 22 1 22 23
M  V30 23 1 23 24
M  V30 24 2 24 25
M  V30 25 1 25 26
M  V30 26 1 25 27
M  V30 27 2 27 28
M  V30 28 1 28 29
M  V30 29 2 29 30
M  V30 30 1 30 31
M  V30 31 2 23 32
M  V30 32 1 10 33
M  V30 33 1 33 2
M  V30 34 1 16 11
M  V30 35 1 32 20
M  V30 36 1 30 24
M  V30 37 1 1 34
M  V30 38 1 1 35
M  V30 39 1 2 36 CFG=1
M  V30 40 1 3 37
M  V30 41 1 3 38
M  V30 42 1 4 39 CFG=3
M  V30 43 1 9 40
M  V30 44 1 9 41
M  V30 45 1 12 42
M  V30 46 1 13 43
M  V30 47 1 15 44
M  V30 48 1 17 45
M  V30 49 1 21 46
M  V30 50 1 27 47
M  V30 51 1 28 48
M  V30 52 1 29 49
M  V30 53 1 33 50
M  V30 54 1 33 51
M  V30 END BOND
M  V30 END CTAB
M  END
>  <Dataset>  (396) 
ChEMBL_Kinases

>  <Ligand_Instance>  (396) 
nan

>  <PDB_ID>  (396) 
nan

>  <Standardized_SMILES>  (396) 
N[C@@H]1C[C@@H](C(F)(F)F)CN(c2ccncc2NC(=O)c2csc(-c3c(F)cccc3F)n2)C1

>  <Name>  (396) 
nan

>  <Pocket>  (396) 
nan

>  <ATP_Site>  (396) 
nan

>  <Peripheral>  (396) 
nan

>  <Num_H_Atoms_ProtBoundConf>  (396) 
nan

>  <Num_Resolved_Atoms>  (396) 
nan

>  <Num_Not_Resolved_Atoms>  (396) 
nan

$$$$
CHEMBL3676281
     RDKit          3D

  0  0  0  0  0  0  0  0  0  0999 V3000
M  V30 BEGIN CTAB
M  V30 COUNTS 54 57 0 0 0
M  V30 BEGIN ATOM
M  V30 1 C 0.377016 0.787477 4.030189 0
M  V30 2 C 1.845883 0.645824 3.637217 0
M  V30 3 C 1.943750 -0.216491 2.417578 0 CFG=2
M  V30 4 C 3.342411 -0.442000 1.916118 0
M  V30 5 C 3.700536 0.478040 0.779604 0 CFG=2
M  V30 6 N 5.088800 0.813193 0.919163 0
M  V30 7 C 2.820372 1.703882 0.688507 0
M  V30 8 N 1.408813 1.392730 0.611430 0
M  V30 9 C 0.614602 2.290401 -0.100168 0
M  V30 10 C 1.080261 3.509788 -0.545457 0
M  V30 11 C 0.344580 4.433346 -1.248965 0
M  V30 12 N -0.948047 4.163708 -1.550629 0
M  V30 13 C -1.501761 2.986162 -1.155155 0
M  V30 14 C -0.703181 2.110071 -0.453702 0
M  V30 15 N -1.396352 0.920427 -0.112944 0
M  V30 16 C -1.476630 -0.345719 -0.753644 0
M  V30 17 O -0.789305 -0.347933 -1.805008 0
M  V30 18 C -2.275766 -1.423297 -0.182441 0
M  V30 19 C -3.017384 -1.332115 1.014717 0
M  V30 20 S -3.755060 -2.984670 1.140151 0
M  V30 21 C -2.927875 -3.540973 -0.473011 0
M  V30 22 C -3.140546 -4.910671 -0.982119 0
M  V30 23 C -2.535957 -5.301442 -2.157919 0
M  V30 24 F -1.773360 -4.366619 -2.767973 0
M  V30 25 C -2.770356 -6.589199 -2.582188 0
M  V30 26 C -3.559710 -7.473011 -1.899646 0
M  V30 27 C -4.178765 -7.090459 -0.706467 0
M  V30 28 C -3.936015 -5.789766 -0.287201 0
M  V30 29 F -4.550704 -5.441462 0.878261 0
M  V30 30 N -2.360780 -2.597108 -0.768929 0
M  V30 31 C 1.023980 0.201876 1.287996 0
M  V30 32 H 0.300944 0.811674 5.136333 0
M  V30 33 H -0.226354 -0.073488 3.677780 0
M  V30 34 H -0.075456 1.707115 3.595576 0
M  V30 35 H 2.333115 0.080800 4.463582 0
M  V30 36 H 2.240281 1.652284 3.562709 0
M  V30 37 H 1.572046 -1.224620 2.766158 0
M  V30 38 H 3.420595 -1.495019 1.580799 0
M  V30 39 H 4.013784 -0.345110 2.797335 0
M  V30 40 H 3.575257 -0.089810 -0.163547 0
M  V30 41 H 5.286355 1.190113 1.874135 0
M  V30 42 H 5.629681 -0.091540 0.848713 0
M  V30 43 H 3.021895 2.467485 1.457048 0
M  V30 44 H 3.162001 2.210962 -0.268562 0
M  V30 45 H 2.085803 3.868549 -0.376892 0
M  V30 46 H 0.706920 5.387652 -1.598087 0
M  V30 47 H -2.525740 2.826955 -1.420946 0
M  V30 48 H -1.927885 1.138098 0.782014 0
M  V30 49 H -3.029411 -0.343952 1.636768 0
M  V30 50 H -2.281385 -6.871010 -3.512141 0
M  V30 51 H -3.714537 -8.487619 -2.280304 0
M  V30 52 H -4.806107 -7.764743 -0.146512 0
M  V30 53 H 0.015420 0.301452 1.686671 0
M  V30 54 H 1.120287 -0.623673 0.522701 0
M  V30 END ATOM
M  V30 BEGIN BOND
M  V30 1 1 1 2
M  V30 2 1 2 3
M  V30 3 1 3 4
M  V30 4 1 4 5
M  V30 5 1 5 6
M  V30 6 1 5 7
M  V30 7 1 7 8
M  V30 8 1 8 9
M  V30 9 2 9 10
M  V30 10 1 10 11
M  V30 11 2 11 12
M  V30 12 1 12 13
M  V30 13 2 13 14
M  V30 14 1 14 15
M  V30 15 1 15 16
M  V30 16 2 16 17
M  V30 17 1 16 18
M  V30 18 2 18 19
M  V30 19 1 19 20
M  V30 20 1 20 21
M  V30 21 1 21 22
M  V30 22 2 22 23
M  V30 23 1 23 24
M  V30 24 1 23 25
M  V30 25 2 25 26
M  V30 26 1 26 27
M  V30 27 2 27 28
M  V30 28 1 28 29
M  V30 29 2 21 30
M  V30 30 1 8 31
M  V30 31 1 31 3
M  V30 32 1 14 9
M  V30 33 1 30 18
M  V30 34 1 28 22
M  V30 35 1 1 32
M  V30 36 1 1 33
M  V30 37 1 1 34
M  V30 38 1 2 35
M  V30 39 1 2 36
M  V30 40 1 3 37 CFG=1
M  V30 41 1 4 38
M  V30 42 1 4 39
M  V30 43 1 5 40 CFG=3
M  V30 44 1 6 41
M  V30 45 1 6 42
M  V30 46 1 7 43
M  V30 47 1 7 44
M  V30 48 1 10 45
M  V30 49 1 11 46
M  V30 50 1 13 47
M  V30 51 1 15 48
M  V30 52 1 19 49
M  V30 53 1 25 50
M  V30 54 1 26 51
M  V30 55 1 27 52
M  V30 56 1 31 53
M  V30 57 1 31 54
M  V30 END BOND
M  V30 END CTAB
M  END
>  <Dataset>  (397) 
ChEMBL_Kinases

>  <Ligand_Instance>  (397) 
nan

>  <PDB_ID>  (397) 
nan

>  <Standardized_SMILES>  (397) 
CC[C@@H]1C[C@H](N)CN(c2ccncc2NC(=O)c2csc(-c3c(F)cccc3F)n2)C1

>  <Name>  (397) 
nan

>  <Pocket>  (397) 
nan

>  <ATP_Site>  (397) 
nan

>  <Peripheral>  (397) 
nan

>  <Num_H_Atoms_ProtBoundConf>  (397) 
nan

>  <Num_Resolved_Atoms>  (397) 
nan

>  <Num_Not_Resolved_Atoms>  (397) 
nan

$$$$
CHEMBL3676280
     RDKit          3D

  0  0  0  0  0  0  0  0  0  0999 V3000
M  V30 BEGIN CTAB
M  V30 COUNTS 48 51 0 0 0
M  V30 BEGIN ATOM
M  V30 1 N -1.416714 -0.891366 1.510570 0
M  V30 2 C -1.271072 -1.438106 2.834549 0 CFG=2
M  V30 3 C 0.016412 -1.021653 3.497495 0
M  V30 4 N 1.171385 -1.694653 2.997443 0
M  V30 5 C 2.490502 -1.326512 2.605345 0
M  V30 6 C 3.563611 -1.881080 3.313327 0
M  V30 7 C 4.897710 -1.592676 3.018161 0
M  V30 8 N 5.123087 -0.748332 2.012093 0
M  V30 9 C 4.152412 -0.174752 1.285233 0
M  V30 10 C 2.864227 -0.471007 1.591635 0
M  V30 11 N 1.812476 0.112452 0.843679 0
M  V30 12 C 1.164606 1.343180 1.105976 0
M  V30 13 O 1.634137 1.909862 2.124606 0
M  V30 14 C 0.084199 1.895141 0.300062 0
M  V30 15 C -0.524426 3.135763 0.614822 0
M  V30 16 S -1.759416 3.316733 -0.675979 0
M  V30 17 C -1.269673 1.666434 -1.467708 0
M  V30 18 C -2.000881 1.253051 -2.661311 0
M  V30 19 C -3.013589 1.993361 -3.229453 0
M  V30 20 F -3.371499 3.160383 -2.682140 0
M  V30 21 C -3.644188 1.499169 -4.372424 0
M  V30 22 C -3.211900 0.270620 -4.883986 0
M  V30 23 C -2.194730 -0.447067 -4.291930 0
M  V30 24 C -1.557885 0.043861 -3.144360 0
M  V30 25 F -0.562109 -0.684865 -2.586262 0
M  V30 26 N -0.405844 1.305176 -0.758653 0
M  V30 27 C 1.056285 -3.107646 2.811412 0
M  V30 28 C -0.254338 -3.716213 3.143539 0
M  V30 29 F -0.274544 -4.051761 4.503077 0
M  V30 30 F -0.337159 -4.941950 2.487201 0
M  V30 31 C -1.471602 -2.912985 2.807166 0
M  V30 32 H -1.820216 0.048490 1.467395 0
M  V30 33 H -0.687936 -1.137749 0.837944 0
M  V30 34 H -2.081675 -0.981017 3.439732 0
M  V30 35 H 0.122245 0.059640 3.478303 0
M  V30 36 H -0.091224 -1.302893 4.582508 0
M  V30 37 H 3.454804 -2.583519 4.153843 0
M  V30 38 H 5.711784 -2.020921 3.564090 0
M  V30 39 H 4.360136 0.496575 0.486070 0
M  V30 40 H 1.492380 -0.451708 0.000878 0
M  V30 41 H -0.173537 3.787056 1.561620 0
M  V30 42 H -4.435028 2.037009 -4.849267 0
M  V30 43 H -3.742669 -0.068188 -5.782309 0
M  V30 44 H -1.888481 -1.409705 -4.730414 0
M  V30 45 H 1.813159 -3.592994 3.496426 0
M  V30 46 H 1.365050 -3.444009 1.783845 0
M  V30 47 H -2.264465 -3.207741 3.534220 0
M  V30 48 H -1.879783 -3.198098 1.816657 0
M  V30 END ATOM
M  V30 BEGIN BOND
M  V30 1 1 1 2
M  V30 2 1 2 3
M  V30 3 1 3 4
M  V30 4 1 4 5
M  V30 5 2 5 6
M  V30 6 1 6 7
M  V30 7 2 7 8
M  V30 8 1 8 9
M  V30 9 2 9 10
M  V30 10 1 10 11
M  V30 11 1 11 12
M  V30 12 2 12 13
M  V30 13 1 12 14
M  V30 14 2 14 15
M  V30 15 1 15 16
M  V30 16 1 16 17
M  V30 17 1 17 18
M  V30 18 2 18 19
M  V30 19 1 19 20
M  V30 20 1 19 21
M  V30 21 2 21 22
M  V30 22 1 22 23
M  V30 23 2 23 24
M  V30 24 1 24 25
M  V30 25 2 17 26
M  V30 26 1 4 27
M  V30 27 1 27 28
M  V30 28 1 28 29
M  V30 29 1 28 30
M  V30 30 1 28 31
M  V30 31 1 31 2
M  V30 32 1 10 5
M  V30 33 1 26 14
M  V30 34 1 24 18
M  V30 35 1 1 32
M  V30 36 1 1 33
M  V30 37 1 2 34 CFG=1
M  V30 38 1 3 35
M  V30 39 1 3 36
M  V30 40 1 6 37
M  V30 41 1 7 38
M  V30 42 1 9 39
M  V30 43 1 11 40
M  V30 44 1 15 41
M  V30 45 1 21 42
M  V30 46 1 22 43
M  V30 47 1 23 44
M  V30 48 1 27 45
M  V30 49 1 27 46
M  V30 50 1 31 47
M  V30 51 1 31 48
M  V30 END BOND
M  V30 END CTAB
M  END
>  <Dataset>  (398) 
ChEMBL_Kinases

>  <Ligand_Instance>  (398) 
nan

>  <PDB_ID>  (398) 
nan

>  <Standardized_SMILES>  (398) 
N[C@@H]1CN(c2ccncc2NC(=O)c2csc(-c3c(F)cccc3F)n2)CC(F)(F)C1

>  <Name>  (398) 
nan

>  <Pocket>  (398) 
nan

>  <ATP_Site>  (398) 
nan

>  <Peripheral>  (398) 
nan

>  <Num_H_Atoms_ProtBoundConf>  (398) 
nan

>  <Num_Resolved_Atoms>  (398) 
nan

>  <Num_Not_Resolved_Atoms>  (398) 
nan

$$$$
CHEMBL3220472
     RDKit          3D

  0  0  0  0  0  0  0  0  0  0999 V3000
M  V30 BEGIN CTAB
M  V30 COUNTS 57 60 0 0 0
M  V30 BEGIN ATOM
M  V30 1 C 3.181122 -2.420985 0.772379 0
M  V30 2 N 3.449961 -1.148707 1.420625 0
M  V30 3 C 3.068980 0.150160 0.991319 0
M  V30 4 O 2.446582 -0.048265 -0.075969 0
M  V30 5 C 3.420267 1.317647 1.759962 0
M  V30 6 C 4.204581 1.185524 2.875861 0
M  V30 7 C 4.582084 2.287224 3.593907 0
M  V30 8 C 4.205970 3.565895 3.247277 0
M  V30 9 C 3.412721 3.633585 2.109795 0
M  V30 10 C 2.988817 2.548841 1.328676 0
M  V30 11 N 2.184069 2.826998 0.200136 0
M  V30 12 C 0.852113 2.523544 -0.196560 0
M  V30 13 C -0.025684 1.818348 0.584785 0
M  V30 14 C -1.307616 1.553567 0.164308 0
M  V30 15 N -2.286773 0.829626 0.896655 0
M  V30 16 C -2.523534 -0.571685 0.768453 0
M  V30 17 C -3.490885 -1.243445 1.520209 0
M  V30 18 C -3.669746 -2.607638 1.334845 0
M  V30 19 C -2.889907 -3.276522 0.412185 0
M  V30 20 N -3.036124 -4.671285 0.180493 0
M  V30 21 N -2.728399 -5.863119 0.664460 0
M  V30 22 C -3.234160 -6.826557 -0.132862 0
M  V30 23 C -3.057330 -8.275006 0.143574 0
M  V30 24 N -3.879597 -6.230619 -1.148877 0
M  V30 25 C -3.759924 -4.882116 -0.959539 0
M  V30 26 C -4.436485 -4.060905 -2.024485 0
M  V30 27 C -1.928338 -2.628693 -0.339794 0
M  V30 28 C -1.764201 -1.274432 -0.142902 0
M  V30 29 N -1.696464 2.004303 -1.047685 0
M  V30 30 C -0.836309 2.697000 -1.817386 0
M  V30 31 C 0.455328 2.983084 -1.432857 0
M  V30 32 C 1.328740 3.759014 -2.364343 0
M  V30 33 F 0.644831 4.066415 -3.506842 0
M  V30 34 F 1.704047 4.939856 -1.765312 0
M  V30 35 F 2.437510 3.020997 -2.767263 0
M  V30 36 H 4.135075 -2.979416 0.603741 0
M  V30 37 H 2.616250 -2.307592 -0.178850 0
M  V30 38 H 2.581582 -3.040416 1.472967 0
M  V30 39 H 4.000736 -1.370237 2.303707 0
M  V30 40 H 4.583008 0.261828 3.280271 0
M  V30 41 H 5.206188 2.219275 4.487514 0
M  V30 42 H 4.464219 4.475327 3.761024 0
M  V30 43 H 3.093538 4.633838 1.803287 0
M  V30 44 H 2.808358 3.384653 -0.424244 0
M  V30 45 H 0.268390 1.458704 1.538989 0
M  V30 46 H -2.876264 1.354945 1.576846 0
M  V30 47 H -4.086629 -0.681611 2.238386 0
M  V30 48 H -4.410175 -3.152097 1.901966 0
M  V30 49 H -3.906488 -8.842730 -0.300247 0
M  V30 50 H -2.157902 -8.639495 -0.397193 0
M  V30 51 H -2.956754 -8.478468 1.224128 0
M  V30 52 H -5.487957 -4.388099 -2.150359 0
M  V30 53 H -4.391702 -2.992751 -1.721607 0
M  V30 54 H -3.921383 -4.255623 -2.981600 0
M  V30 55 H -1.294283 -3.125515 -1.077219 0
M  V30 56 H -1.015085 -0.767003 -0.728161 0
M  V30 57 H -1.206953 3.037082 -2.789485 0
M  V30 END ATOM
M  V30 BEGIN BOND
M  V30 1 1 1 2
M  V30 2 1 2 3
M  V30 3 2 3 4
M  V30 4 1 3 5
M  V30 5 2 5 6
M  V30 6 1 6 7
M  V30 7 2 7 8
M  V30 8 1 8 9
M  V30 9 2 9 10
M  V30 10 1 10 11
M  V30 11 1 11 12
M  V30 12 2 12 13
M  V30 13 1 13 14
M  V30 14 1 14 15
M  V30 15 1 15 16
M  V30 16 2 16 17
M  V30 17 1 17 18
M  V30 18 2 18 19
M  V30 19 1 19 20
M  V30 20 1 20 21
M  V30 21 2 21 22
M  V30 22 1 22 23
M  V30 23 1 22 24
M  V30 24 2 24 25
M  V30 25 1 25 26
M  V30 26 1 19 27
M  V30 27 2 27 28
M  V30 28 2 14 29
M  V30 29 1 29 30
M  V30 30 2 30 31
M  V30 31 1 31 32
M  V30 32 1 32 33
M  V30 33 1 32 34
M  V30 34 1 32 35
M  V30 35 1 10 5
M  V30 36 1 31 12
M  V30 37 1 28 16
M  V30 38 1 25 20
M  V30 39 1 1 36
M  V30 40 1 1 37
M  V30 41 1 1 38
M  V30 42 1 2 39
M  V30 43 1 6 40
M  V30 44 1 7 41
M  V30 45 1 8 42
M  V30 46 1 9 43
M  V30 47 1 11 44
M  V30 48 1 13 45
M  V30 49 1 15 46
M  V30 50 1 17 47
M  V30 51 1 18 48
M  V30 52 1 23 49
M  V30 53 1 23 50
M  V30 54 1 23 51
M  V30 55 1 26 52
M  V30 56 1 26 53
M  V30 57 1 26 54
M  V30 58 1 27 55
M  V30 59 1 28 56
M  V30 60 1 30 57
M  V30 END BOND
M  V30 END CTAB
M  END
>  <Dataset>  (399) 
ChEMBL_Kinases

>  <Ligand_Instance>  (399) 
nan

>  <PDB_ID>  (399) 
nan

>  <Standardized_SMILES>  (399) 
CNC(=O)c1ccccc1Nc1cc(Nc2ccc(-n3nc(C)nc3C)cc2)ncc1C(F)(F)F

>  <Name>  (399) 
nan

>  <Pocket>  (399) 
nan

>  <ATP_Site>  (399) 
nan

>  <Peripheral>  (399) 
nan

>  <Num_H_Atoms_ProtBoundConf>  (399) 
nan

>  <Num_Resolved_Atoms>  (399) 
nan

>  <Num_Not_Resolved_Atoms>  (399) 
nan

$$$$
CHEMBL3676278
     RDKit          3D

  0  0  0  0  0  0  0  0  0  0999 V3000
M  V30 BEGIN CTAB
M  V30 COUNTS 52 55 0 0 0
M  V30 BEGIN ATOM
M  V30 1 C 1.404115 -2.670043 2.898839 0
M  V30 2 O 1.057241 -1.618987 2.078635 0
M  V30 3 C 2.004891 -0.667966 1.895039 0 CFG=1
M  V30 4 C 2.496219 -0.522303 0.480257 0
M  V30 5 C 3.647650 0.492377 0.570942 0 CFG=2
M  V30 6 N 4.666358 -0.131862 1.394135 0
M  V30 7 C 3.162008 1.750467 1.286708 0
M  V30 8 N 1.719330 1.713357 1.412993 0
M  V30 9 C 0.889542 2.578485 0.707071 0
M  V30 10 C 1.429911 3.618603 -0.007508 0
M  V30 11 C 0.663469 4.519675 -0.711253 0
M  V30 12 N -0.682001 4.450534 -0.753806 0
M  V30 13 C -1.285735 3.444835 -0.068908 0
M  V30 14 C -0.481011 2.564690 0.622151 0
M  V30 15 N -1.247805 1.562864 1.278753 0
M  V30 16 C -1.421985 0.451132 0.371262 0
M  V30 17 O -0.852600 0.689173 -0.723246 0
M  V30 18 C -2.169956 -0.744937 0.751939 0
M  V30 19 C -2.749991 -0.873884 2.030604 0
M  V30 20 S -3.534150 -2.585682 1.856989 0
M  V30 21 C -2.889810 -2.726144 0.085237 0
M  V30 22 C -3.229262 -3.994085 -0.644965 0
M  V30 23 C -3.963772 -5.010340 -0.080830 0
M  V30 24 F -4.413728 -4.895618 1.183555 0
M  V30 25 C -4.183936 -6.116018 -0.909607 0
M  V30 26 C -3.691265 -6.162761 -2.195078 0
M  V30 27 C -2.964594 -5.110789 -2.695390 0
M  V30 28 C -2.716777 -3.994624 -1.922724 0
M  V30 29 F -1.995696 -2.975550 -2.449962 0
M  V30 30 N -2.331394 -1.749263 -0.090663 0
M  V30 31 C 1.479292 0.671247 2.361804 0
M  V30 32 H 0.517572 -3.346298 2.935230 0
M  V30 33 H 2.259631 -3.256049 2.572112 0
M  V30 34 H 1.504683 -2.251219 3.934404 0
M  V30 35 H 2.911432 -0.980088 2.490175 0
M  V30 36 H 1.721699 -0.047391 -0.119936 0
M  V30 37 H 2.940384 -1.437793 0.069414 0
M  V30 38 H 4.086232 0.709281 -0.403245 0
M  V30 39 H 5.525529 -0.362554 0.840378 0
M  V30 40 H 4.917736 0.428893 2.236237 0
M  V30 41 H 3.569813 2.591169 0.731142 0
M  V30 42 H 3.630896 1.843321 2.314119 0
M  V30 43 H 2.463513 3.890836 -0.130800 0
M  V30 44 H 1.032000 5.363868 -1.295862 0
M  V30 45 H -2.359485 3.394615 -0.106607 0
M  V30 46 H -1.684274 1.514001 2.247322 0
M  V30 47 H -2.714197 -0.176939 2.803967 0
M  V30 48 H -4.760489 -6.937252 -0.496949 0
M  V30 49 H -3.870593 -7.031012 -2.830122 0
M  V30 50 H -2.600180 -5.191655 -3.705343 0
M  V30 51 H 2.041242 0.875571 3.330365 0
M  V30 52 H 0.416638 0.553571 2.554718 0
M  V30 END ATOM
M  V30 BEGIN BOND
M  V30 1 1 1 2
M  V30 2 1 2 3
M  V30 3 1 3 4
M  V30 4 1 4 5
M  V30 5 1 5 6
M  V30 6 1 5 7
M  V30 7 1 7 8
M  V30 8 1 8 9
M  V30 9 2 9 10
M  V30 10 1 10 11
M  V30 11 2 11 12
M  V30 12 1 12 13
M  V30 13 2 13 14
M  V30 14 1 14 15
M  V30 15 1 15 16
M  V30 16 2 16 17
M  V30 17 1 16 18
M  V30 18 2 18 19
M  V30 19 1 19 20
M  V30 20 1 20 21
M  V30 21 1 21 22
M  V30 22 2 22 23
M  V30 23 1 23 24
M  V30 24 1 23 25
M  V30 25 2 25 26
M  V30 26 1 26 27
M  V30 27 2 27 28
M  V30 28 1 28 29
M  V30 29 2 21 30
M  V30 30 1 8 31
M  V30 31 1 31 3
M  V30 32 1 14 9
M  V30 33 1 30 18
M  V30 34 1 28 22
M  V30 35 1 1 32
M  V30 36 1 1 33
M  V30 37 1 1 34
M  V30 38 1 3 35 CFG=1
M  V30 39 1 4 36
M  V30 40 1 4 37
M  V30 41 1 5 38 CFG=3
M  V30 42 1 6 39
M  V30 43 1 6 40
M  V30 44 1 7 41
M  V30 45 1 7 42
M  V30 46 1 10 43
M  V30 47 1 11 44
M  V30 48 1 13 45
M  V30 49 1 15 46
M  V30 50 1 19 47
M  V30 51 1 25 48
M  V30 52 1 26 49
M  V30 53 1 27 50
M  V30 54 1 31 51
M  V30 55 1 31 52
M  V30 END BOND
M  V30 END CTAB
M  END
>  <Dataset>  (400) 
ChEMBL_Kinases

>  <Ligand_Instance>  (400) 
nan

>  <PDB_ID>  (400) 
nan

>  <Standardized_SMILES>  (400) 
CO[C@H]1C[C@H](N)CN(c2ccncc2NC(=O)c2csc(-c3c(F)cccc3F)n2)C1

>  <Name>  (400) 
nan

>  <Pocket>  (400) 
nan

>  <ATP_Site>  (400) 
nan

>  <Peripheral>  (400) 
nan

>  <Num_H_Atoms_ProtBoundConf>  (400) 
nan

>  <Num_Resolved_Atoms>  (400) 
nan

>  <Num_Not_Resolved_Atoms>  (400) 
nan

$$$$
CHEMBL3676277
     RDKit          3D

  0  0  0  0  0  0  0  0  0  0999 V3000
M  V30 BEGIN CTAB
M  V30 COUNTS 57 60 0 0 0
M  V30 BEGIN ATOM
M  V30 1 N 1.739398 -1.414762 -0.815835 0
M  V30 2 C 3.172210 -1.254860 -0.889661 0
M  V30 3 C 3.771275 -1.659774 0.430868 0
M  V30 4 C 3.648825 -0.578030 1.472344 0
M  V30 5 C 3.364358 -1.226267 2.794959 0
M  V30 6 F 4.418743 -2.091235 3.116817 0
M  V30 7 F 3.285995 -0.297784 3.818370 0
M  V30 8 F 2.232433 -2.023280 2.737202 0
M  V30 9 C 2.523566 0.386581 1.153630 0
M  V30 10 N 2.736807 0.986599 -0.170968 0
M  V30 11 C 2.176822 2.279922 -0.363165 0
M  V30 12 C 3.089963 3.279334 -0.679459 0
M  V30 13 C 2.665399 4.589327 -0.892282 0
M  V30 14 N 1.355983 4.895764 -0.791624 0
M  V30 15 C 0.441439 3.936858 -0.483414 0
M  V30 16 C 0.864093 2.647909 -0.274497 0
M  V30 17 N -0.051448 1.607392 0.050768 0
M  V30 18 C -0.575516 0.930632 -1.080895 0
M  V30 19 O -0.157839 1.347411 -2.167207 0
M  V30 20 C -1.522366 -0.155106 -0.905262 0
M  V30 21 C -2.039904 -0.831239 -2.101156 0
M  V30 22 S -3.197429 -2.124871 -1.348017 0
M  V30 23 C -2.766278 -1.516549 0.354174 0
M  V30 24 C -3.422015 -2.199691 1.568303 0
M  V30 25 C -4.912141 -2.082454 1.399457 0
M  V30 26 C -5.538878 -3.136192 0.562024 0
M  V30 27 C -5.040053 -4.529675 0.770655 0
M  V30 28 C -4.004449 -4.630718 1.866234 0
M  V30 29 C -2.926289 -3.608642 1.596919 0
M  V30 30 N -2.014980 -0.655947 0.194939 0
M  V30 31 C 3.489701 0.198966 -1.128030 0
M  V30 32 H 1.391659 -1.528725 -1.793970 0
M  V30 33 H 1.499349 -2.209326 -0.196095 0
M  V30 34 H 3.633259 -1.917727 -1.651956 0
M  V30 35 H 4.831864 -1.944437 0.258484 0
M  V30 36 H 3.227078 -2.582343 0.761833 0
M  V30 37 H 4.593984 -0.032658 1.543588 0
M  V30 38 H 2.520248 1.144689 1.960198 0
M  V30 39 H 1.553445 -0.128970 1.179191 0
M  V30 40 H 4.154250 3.191792 -0.794419 0
M  V30 41 H 3.268512 5.433455 -1.138612 0
M  V30 42 H -0.626174 4.126454 -0.388872 0
M  V30 43 H -0.351865 1.318782 1.016175 0
M  V30 44 H -1.722406 -0.534773 -3.218551 0
M  V30 45 H -3.058328 -1.695068 2.485985 0
M  V30 46 H -5.352327 -2.026984 2.424065 0
M  V30 47 H -5.106167 -1.099606 0.914375 0
M  V30 48 H -5.531058 -2.822602 -0.510928 0
M  V30 49 H -6.635302 -3.151163 0.833007 0
M  V30 50 H -5.827854 -5.281926 0.961556 0
M  V30 51 H -4.555044 -4.850639 -0.192755 0
M  V30 52 H -4.441717 -4.572966 2.864809 0
M  V30 53 H -3.521122 -5.630280 1.765263 0
M  V30 54 H -2.485384 -3.890412 0.606819 0
M  V30 55 H -2.091349 -3.722381 2.317903 0
M  V30 56 H 4.593033 0.328673 -0.937376 0
M  V30 57 H 3.294004 0.495769 -2.174816 0
M  V30 END ATOM
M  V30 BEGIN BOND
M  V30 1 1 1 2
M  V30 2 1 2 3
M  V30 3 1 3 4
M  V30 4 1 4 5
M  V30 5 1 5 6
M  V30 6 1 5 7
M  V30 7 1 5 8
M  V30 8 1 4 9
M  V30 9 1 9 10
M  V30 10 1 10 11
M  V30 11 2 11 12
M  V30 12 1 12 13
M  V30 13 2 13 14
M  V30 14 1 14 15
M  V30 15 2 15 16
M  V30 16 1 16 17
M  V30 17 1 17 18
M  V30 18 2 18 19
M  V30 19 1 18 20
M  V30 20 2 20 21
M  V30 21 1 21 22
M  V30 22 1 22 23
M  V30 23 1 23 24
M  V30 24 1 24 25
M  V30 25 1 25 26
M  V30 26 1 26 27
M  V30 27 1 27 28
M  V30 28 1 28 29
M  V30 29 2 23 30
M  V30 30 1 10 31
M  V30 31 1 31 2
M  V30 32 1 16 11
M  V30 33 1 30 20
M  V30 34 1 29 24
M  V30 35 1 1 32
M  V30 36 1 1 33
M  V30 37 1 2 34
M  V30 38 1 3 35
M  V30 39 1 3 36
M  V30 40 1 4 37
M  V30 41 1 9 38
M  V30 42 1 9 39
M  V30 43 1 12 40
M  V30 44 1 13 41
M  V30 45 1 15 42
M  V30 46 1 17 43
M  V30 47 1 21 44
M  V30 48 1 24 45
M  V30 49 1 25 46
M  V30 50 1 25 47
M  V30 51 1 26 48
M  V30 52 1 26 49
M  V30 53 1 27 50
M  V30 54 1 27 51
M  V30 55 1 28 52
M  V30 56 1 28 53
M  V30 57 1 29 54
M  V30 58 1 29 55
M  V30 59 1 31 56
M  V30 60 1 31 57
M  V30 END BOND
M  V30 END CTAB
M  END
>  <Dataset>  (401) 
ChEMBL_Kinases

>  <Ligand_Instance>  (401) 
nan

>  <PDB_ID>  (401) 
nan

>  <Standardized_SMILES>  (401) 
NC1CC(C(F)(F)F)CN(c2ccncc2NC(=O)c2csc(C3CCCCC3)n2)C1

>  <Name>  (401) 
nan

>  <Pocket>  (401) 
nan

>  <ATP_Site>  (401) 
nan

>  <Peripheral>  (401) 
nan

>  <Num_H_Atoms_ProtBoundConf>  (401) 
nan

>  <Num_Resolved_Atoms>  (401) 
nan

>  <Num_Not_Resolved_Atoms>  (401) 
nan

$$$$
CHEMBL3220465
     RDKit          3D

  0  0  0  0  0  0  0  0  0  0999 V3000
M  V30 BEGIN CTAB
M  V30 COUNTS 59 62 0 0 0
M  V30 BEGIN ATOM
M  V30 1 C 4.846594 -2.010540 3.373345 0
M  V30 2 N 4.916138 -0.581421 3.674961 0
M  V30 3 C 4.578688 0.274183 2.603652 0
M  V30 4 O 4.304351 -0.482514 1.660333 0
M  V30 5 C 4.611736 1.694404 2.784043 0
M  V30 6 C 5.046629 2.245584 3.958963 0
M  V30 7 C 5.120797 3.593418 4.136322 0
M  V30 8 C 4.762286 4.473471 3.143129 0
M  V30 9 C 4.323802 3.878495 1.961293 0
M  V30 10 C 4.230884 2.497682 1.735504 0
M  V30 11 N 3.764645 2.096578 0.463751 0
M  V30 12 C 2.625173 1.389464 0.001326 0
M  V30 13 C 1.601063 0.909318 0.759447 0
M  V30 14 C 0.495115 0.225467 0.331086 0
M  V30 15 N -0.508483 -0.226354 1.211673 0
M  V30 16 C -1.621975 -0.928899 0.673926 0
M  V30 17 C -2.907903 -0.448492 0.831372 0
M  V30 18 C -3.964548 -1.151921 0.299119 0
M  V30 19 C -3.837710 -2.330034 -0.397650 0
M  V30 20 N -4.940939 -3.033175 -0.933145 0
M  V30 21 C -6.327183 -2.644126 -0.801908 0
M  V30 22 C -6.803922 -2.226417 -2.181649 0
M  V30 23 O -5.946925 -2.664496 -3.180584 0
M  V30 24 C -5.553410 -3.984546 -3.017104 0
M  V30 25 C -4.855227 -4.249413 -1.698025 0
M  V30 26 C -2.546995 -2.781458 -0.537164 0
M  V30 27 C -1.458603 -2.109855 -0.020829 0
M  V30 28 O -0.166713 -2.557833 -0.158117 0
M  V30 29 C 0.218842 -3.734717 -0.827486 0
M  V30 30 N 0.427682 0.010347 -1.002277 0
M  V30 31 C 1.422598 0.467626 -1.807646 0
M  V30 32 C 2.520671 1.151961 -1.342517 0
M  V30 33 F 3.490200 1.589234 -2.189609 0
M  V30 34 H 3.791463 -2.301204 3.199103 0
M  V30 35 H 5.414989 -2.234445 2.424971 0
M  V30 36 H 5.326121 -2.595881 4.184250 0
M  V30 37 H 5.207561 -0.301722 4.653066 0
M  V30 38 H 5.360094 1.685703 4.822188 0
M  V30 39 H 5.461567 4.057936 5.056628 0
M  V30 40 H 4.798778 5.540163 3.221382 0
M  V30 41 H 4.036398 4.566857 1.165293 0
M  V30 42 H 4.481443 2.437164 -0.217334 0
M  V30 43 H 1.662163 1.087745 1.845095 0
M  V30 44 H -0.393382 -0.025911 2.230379 0
M  V30 45 H -3.028336 0.478007 1.377273 0
M  V30 46 H -4.914900 -0.692962 0.477026 0
M  V30 47 H -6.936038 -3.527680 -0.456756 0
M  V30 48 H -6.470208 -1.843826 -0.059135 0
M  V30 49 H -6.780203 -1.116252 -2.198764 0
M  V30 50 H -7.861220 -2.518482 -2.351870 0
M  V30 51 H -4.788701 -4.160298 -3.812397 0
M  V30 52 H -6.350843 -4.726083 -3.215513 0
M  V30 53 H -3.856906 -4.663777 -1.824434 0
M  V30 54 H -5.482894 -5.019009 -1.159063 0
M  V30 55 H -2.292058 -3.672857 -1.047957 0
M  V30 56 H -0.253354 -4.588200 -0.300248 0
M  V30 57 H 1.330510 -3.795911 -0.724948 0
M  V30 58 H -0.036554 -3.733286 -1.901259 0
M  V30 59 H 1.376018 0.298257 -2.884965 0
M  V30 END ATOM
M  V30 BEGIN BOND
M  V30 1 1 1 2
M  V30 2 1 2 3
M  V30 3 2 3 4
M  V30 4 1 3 5
M  V30 5 2 5 6
M  V30 6 1 6 7
M  V30 7 2 7 8
M  V30 8 1 8 9
M  V30 9 2 9 10
M  V30 10 1 10 11
M  V30 11 1 11 12
M  V30 12 2 12 13
M  V30 13 1 13 14
M  V30 14 1 14 15
M  V30 15 1 15 16
M  V30 16 2 16 17
M  V30 17 1 17 18
M  V30 18 2 18 19
M  V30 19 1 19 20
M  V30 20 1 20 21
M  V30 21 1 21 22
M  V30 22 1 22 23
M  V30 23 1 23 24
M  V30 24 1 24 25
M  V30 25 1 19 26
M  V30 26 2 26 27
M  V30 27 1 27 28
M  V30 28 1 28 29
M  V30 29 2 14 30
M  V30 30 1 30 31
M  V30 31 2 31 32
M  V30 32 1 32 33
M  V30 33 1 10 5
M  V30 34 1 32 12
M  V30 35 1 27 16
M  V30 36 1 25 20
M  V30 37 1 1 34
M  V30 38 1 1 35
M  V30 39 1 1 36
M  V30 40 1 2 37
M  V30 41 1 6 38
M  V30 42 1 7 39
M  V30 43 1 8 40
M  V30 44 1 9 41
M  V30 45 1 11 42
M  V30 46 1 13 43
M  V30 47 1 15 44
M  V30 48 1 17 45
M  V30 49 1 18 46
M  V30 50 1 21 47
M  V30 51 1 21 48
M  V30 52 1 22 49
M  V30 53 1 22 50
M  V30 54 1 24 51
M  V30 55 1 24 52
M  V30 56 1 25 53
M  V30 57 1 25 54
M  V30 58 1 26 55
M  V30 59 1 29 56
M  V30 60 1 29 57
M  V30 61 1 29 58
M  V30 62 1 31 59
M  V30 END BOND
M  V30 END CTAB
M  END
>  <Dataset>  (402) 
ChEMBL_Kinases

>  <Ligand_Instance>  (402) 
nan

>  <PDB_ID>  (402) 
nan

>  <Standardized_SMILES>  (402) 
CNC(=O)c1ccccc1Nc1cc(Nc2ccc(N3CCOCC3)cc2OC)ncc1F

>  <Name>  (402) 
nan

>  <Pocket>  (402) 
nan

>  <ATP_Site>  (402) 
nan

>  <Peripheral>  (402) 
nan

>  <Num_H_Atoms_ProtBoundConf>  (402) 
nan

>  <Num_Resolved_Atoms>  (402) 
nan

>  <Num_Not_Resolved_Atoms>  (402) 
nan

$$$$
CHEMBL3220466
     RDKit          3D

  0  0  0  0  0  0  0  0  0  0999 V3000
M  V30 BEGIN CTAB
M  V30 COUNTS 59 62 0 0 0
M  V30 BEGIN ATOM
M  V30 1 C 4.839594 -1.938924 3.327019 0
M  V30 2 N 4.909174 -0.508159 3.646986 0
M  V30 3 C 4.574897 0.349016 2.577510 0
M  V30 4 O 4.304747 -0.419579 1.625661 0
M  V30 5 C 4.599719 1.786206 2.747519 0
M  V30 6 C 5.031840 2.316935 3.919914 0
M  V30 7 C 5.094156 3.683343 4.065946 0
M  V30 8 C 4.735373 4.561986 3.068904 0
M  V30 9 C 4.301935 3.946567 1.896584 0
M  V30 10 C 4.214210 2.567471 1.683398 0
M  V30 11 N 3.750900 2.142789 0.415932 0
M  V30 12 C 2.615510 1.423407 -0.032191 0
M  V30 13 C 1.588024 0.950025 0.738404 0
M  V30 14 C 0.482383 0.250978 0.314242 0
M  V30 15 N -0.518086 -0.187351 1.214221 0
M  V30 16 C -1.630430 -0.904648 0.698318 0
M  V30 17 C -2.915179 -0.427250 0.853302 0
M  V30 18 C -3.973227 -1.147757 0.340975 0
M  V30 19 C -3.850033 -2.339276 -0.332278 0
M  V30 20 N -4.950922 -3.060512 -0.850612 0
M  V30 21 C -6.333005 -2.639652 -0.780501 0
M  V30 22 C -6.855547 -2.544559 -2.208939 0
M  V30 23 O -5.932136 -2.902645 -3.159372 0
M  V30 24 C -5.344960 -4.125733 -2.944101 0
M  V30 25 C -4.850170 -4.327349 -1.527067 0
M  V30 26 C -2.559772 -2.788785 -0.470800 0
M  V30 27 C -1.475342 -2.098741 0.026485 0
M  V30 28 O -0.170875 -2.550747 -0.112129 0
M  V30 29 C 0.150244 -3.754446 -0.774058 0
M  V30 30 N 0.430165 0.021032 -1.007149 0
M  V30 31 C 1.421713 0.466219 -1.827686 0
M  V30 32 C 2.511611 1.160492 -1.375481 0
M  V30 33 Cl 3.756386 1.709310 -2.473032 0
M  V30 34 H 3.863646 -2.193871 2.866885 0
M  V30 35 H 5.634310 -2.138600 2.602217 0
M  V30 36 H 5.037839 -2.516179 4.241824 0
M  V30 37 H 5.194156 -0.206155 4.622894 0
M  V30 38 H 5.343874 1.783755 4.782059 0
M  V30 39 H 5.434673 4.157597 4.988503 0
M  V30 40 H 4.763513 5.637009 3.125142 0
M  V30 41 H 4.010281 4.623096 1.086801 0
M  V30 42 H 4.461037 2.473221 -0.260347 0
M  V30 43 H 1.655775 1.152344 1.818291 0
M  V30 44 H -0.402491 0.032243 2.224912 0
M  V30 45 H -3.036180 0.508596 1.379823 0
M  V30 46 H -4.925170 -0.691111 0.514990 0
M  V30 47 H -6.916404 -3.467602 -0.313201 0
M  V30 48 H -6.487581 -1.710151 -0.224979 0
M  V30 49 H -7.087975 -1.458612 -2.383458 0
M  V30 50 H -7.834982 -3.054565 -2.330387 0
M  V30 51 H -4.424983 -4.149921 -3.587017 0
M  V30 52 H -5.951901 -4.986855 -3.275764 0
M  V30 53 H -3.878109 -4.815437 -1.480010 0
M  V30 54 H -5.580381 -5.036611 -1.043550 0
M  V30 55 H -2.298579 -3.690046 -0.965450 0
M  V30 56 H -0.463998 -4.578881 -0.350103 0
M  V30 57 H 0.022887 -3.663519 -1.868586 0
M  V30 58 H 1.196179 -3.977689 -0.544108 0
M  V30 59 H 1.386534 0.283342 -2.903757 0
M  V30 END ATOM
M  V30 BEGIN BOND
M  V30 1 1 1 2
M  V30 2 1 2 3
M  V30 3 2 3 4
M  V30 4 1 3 5
M  V30 5 2 5 6
M  V30 6 1 6 7
M  V30 7 2 7 8
M  V30 8 1 8 9
M  V30 9 2 9 10
M  V30 10 1 10 11
M  V30 11 1 11 12
M  V30 12 2 12 13
M  V30 13 1 13 14
M  V30 14 1 14 15
M  V30 15 1 15 16
M  V30 16 2 16 17
M  V30 17 1 17 18
M  V30 18 2 18 19
M  V30 19 1 19 20
M  V30 20 1 20 21
M  V30 21 1 21 22
M  V30 22 1 22 23
M  V30 23 1 23 24
M  V30 24 1 24 25
M  V30 25 1 19 26
M  V30 26 2 26 27
M  V30 27 1 27 28
M  V30 28 1 28 29
M  V30 29 2 14 30
M  V30 30 1 30 31
M  V30 31 2 31 32
M  V30 32 1 32 33
M  V30 33 1 10 5
M  V30 34 1 32 12
M  V30 35 1 27 16
M  V30 36 1 25 20
M  V30 37 1 1 34
M  V30 38 1 1 35
M  V30 39 1 1 36
M  V30 40 1 2 37
M  V30 41 1 6 38
M  V30 42 1 7 39
M  V30 43 1 8 40
M  V30 44 1 9 41
M  V30 45 1 11 42
M  V30 46 1 13 43
M  V30 47 1 15 44
M  V30 48 1 17 45
M  V30 49 1 18 46
M  V30 50 1 21 47
M  V30 51 1 21 48
M  V30 52 1 22 49
M  V30 53 1 22 50
M  V30 54 1 24 51
M  V30 55 1 24 52
M  V30 56 1 25 53
M  V30 57 1 25 54
M  V30 58 1 26 55
M  V30 59 1 29 56
M  V30 60 1 29 57
M  V30 61 1 29 58
M  V30 62 1 31 59
M  V30 END BOND
M  V30 END CTAB
M  END
>  <Dataset>  (403) 
ChEMBL_Kinases

>  <Ligand_Instance>  (403) 
nan

>  <PDB_ID>  (403) 
nan

>  <Standardized_SMILES>  (403) 
CNC(=O)c1ccccc1Nc1cc(Nc2ccc(N3CCOCC3)cc2OC)ncc1Cl

>  <Name>  (403) 
nan

>  <Pocket>  (403) 
nan

>  <ATP_Site>  (403) 
nan

>  <Peripheral>  (403) 
nan

>  <Num_H_Atoms_ProtBoundConf>  (403) 
nan

>  <Num_Resolved_Atoms>  (403) 
nan

>  <Num_Not_Resolved_Atoms>  (403) 
nan

$$$$
CHEMBL3220467
     RDKit          3D

  0  0  0  0  0  0  0  0  0  0999 V3000
M  V30 BEGIN CTAB
M  V30 COUNTS 59 62 0 0 0
M  V30 BEGIN ATOM
M  V30 1 C 4.936330 -1.996743 3.539113 0
M  V30 2 N 4.928963 -0.545722 3.657534 0
M  V30 3 C 4.570210 0.327302 2.615862 0
M  V30 4 O 4.282738 -0.403360 1.642794 0
M  V30 5 C 4.584183 1.762031 2.799187 0
M  V30 6 C 5.043434 2.281133 3.983720 0
M  V30 7 C 5.104851 3.644896 4.166342 0
M  V30 8 C 4.720765 4.548291 3.200656 0
M  V30 9 C 4.265993 3.953991 2.028238 0
M  V30 10 C 4.175256 2.580740 1.772380 0
M  V30 11 N 3.688648 2.168565 0.511627 0
M  V30 12 C 2.556186 1.447030 0.055886 0
M  V30 13 C 1.539218 0.946549 0.815772 0
M  V30 14 C 0.451930 0.249928 0.349318 0
M  V30 15 N -0.555592 -0.231021 1.222175 0
M  V30 16 C -1.655580 -0.945113 0.670365 0
M  V30 17 C -2.959689 -0.516955 0.807981 0
M  V30 18 C -4.008403 -1.228325 0.262748 0
M  V30 19 C -3.807372 -2.392606 -0.440778 0
M  V30 20 N -4.893380 -3.115705 -0.995236 0
M  V30 21 C -6.291060 -2.769001 -0.869995 0
M  V30 22 C -6.749251 -2.290411 -2.229289 0
M  V30 23 O -5.920506 -2.743964 -3.247931 0
M  V30 24 C -5.543325 -4.063863 -3.084240 0
M  V30 25 C -4.799512 -4.321250 -1.783750 0
M  V30 26 C -2.509596 -2.824933 -0.581602 0
M  V30 27 C -1.454628 -2.114493 -0.036350 0
M  V30 28 O -0.148553 -2.536953 -0.170203 0
M  V30 29 C 0.220238 -3.712148 -0.864085 0
M  V30 30 N 0.405549 0.055334 -0.976155 0
M  V30 31 C 1.380709 0.527583 -1.765457 0
M  V30 32 C 2.459279 1.219127 -1.298577 0
M  V30 33 Br 3.800557 1.855735 -2.486544 0
M  V30 34 H 4.958435 -2.331860 2.483546 0
M  V30 35 H 5.802768 -2.456920 4.053713 0
M  V30 36 H 4.029806 -2.430992 4.028328 0
M  V30 37 H 5.228321 -0.257350 4.628534 0
M  V30 38 H 5.380868 1.723236 4.835476 0
M  V30 39 H 5.465574 4.092467 5.097188 0
M  V30 40 H 4.739853 5.622668 3.268155 0
M  V30 41 H 3.949198 4.636585 1.230736 0
M  V30 42 H 4.396801 2.523689 -0.160744 0
M  V30 43 H 1.600079 1.117234 1.884632 0
M  V30 44 H -0.460584 -0.046972 2.243194 0
M  V30 45 H -3.112194 0.405493 1.366132 0
M  V30 46 H -4.970722 -0.794908 0.436302 0
M  V30 47 H -6.472994 -2.038310 -0.076705 0
M  V30 48 H -6.946417 -3.645269 -0.628152 0
M  V30 49 H -6.687220 -1.182691 -2.223659 0
M  V30 50 H -7.813726 -2.546460 -2.397756 0
M  V30 51 H -4.828924 -4.285189 -3.905688 0
M  V30 52 H -6.392395 -4.771713 -3.236553 0
M  V30 53 H -3.784415 -4.682861 -1.947811 0
M  V30 54 H -5.354172 -5.117652 -1.226134 0
M  V30 55 H -2.234068 -3.706708 -1.102149 0
M  V30 56 H -0.077561 -4.561970 -0.240450 0
M  V30 57 H 1.325819 -3.733842 -0.951417 0
M  V30 58 H -0.212870 -3.717148 -1.880533 0
M  V30 59 H 1.321018 0.356836 -2.840139 0
M  V30 END ATOM
M  V30 BEGIN BOND
M  V30 1 1 1 2
M  V30 2 1 2 3
M  V30 3 2 3 4
M  V30 4 1 3 5
M  V30 5 2 5 6
M  V30 6 1 6 7
M  V30 7 2 7 8
M  V30 8 1 8 9
M  V30 9 2 9 10
M  V30 10 1 10 11
M  V30 11 1 11 12
M  V30 12 2 12 13
M  V30 13 1 13 14
M  V30 14 1 14 15
M  V30 15 1 15 16
M  V30 16 2 16 17
M  V30 17 1 17 18
M  V30 18 2 18 19
M  V30 19 1 19 20
M  V30 20 1 20 21
M  V30 21 1 21 22
M  V30 22 1 22 23
M  V30 23 1 23 24
M  V30 24 1 24 25
M  V30 25 1 19 26
M  V30 26 2 26 27
M  V30 27 1 27 28
M  V30 28 1 28 29
M  V30 29 2 14 30
M  V30 30 1 30 31
M  V30 31 2 31 32
M  V30 32 1 32 33
M  V30 33 1 10 5
M  V30 34 1 32 12
M  V30 35 1 27 16
M  V30 36 1 25 20
M  V30 37 1 1 34
M  V30 38 1 1 35
M  V30 39 1 1 36
M  V30 40 1 2 37
M  V30 41 1 6 38
M  V30 42 1 7 39
M  V30 43 1 8 40
M  V30 44 1 9 41
M  V30 45 1 11 42
M  V30 46 1 13 43
M  V30 47 1 15 44
M  V30 48 1 17 45
M  V30 49 1 18 46
M  V30 50 1 21 47
M  V30 51 1 21 48
M  V30 52 1 22 49
M  V30 53 1 22 50
M  V30 54 1 24 51
M  V30 55 1 24 52
M  V30 56 1 25 53
M  V30 57 1 25 54
M  V30 58 1 26 55
M  V30 59 1 29 56
M  V30 60 1 29 57
M  V30 61 1 29 58
M  V30 62 1 31 59
M  V30 END BOND
M  V30 END CTAB
M  END
>  <Dataset>  (404) 
ChEMBL_Kinases

>  <Ligand_Instance>  (404) 
nan

>  <PDB_ID>  (404) 
nan

>  <Standardized_SMILES>  (404) 
CNC(=O)c1ccccc1Nc1cc(Nc2ccc(N3CCOCC3)cc2OC)ncc1Br

>  <Name>  (404) 
nan

>  <Pocket>  (404) 
nan

>  <ATP_Site>  (404) 
nan

>  <Peripheral>  (404) 
nan

>  <Num_H_Atoms_ProtBoundConf>  (404) 
nan

>  <Num_Resolved_Atoms>  (404) 
nan

>  <Num_Not_Resolved_Atoms>  (404) 
nan

$$$$
CHEMBL3220469
     RDKit          3D

  0  0  0  0  0  0  0  0  0  0999 V3000
M  V30 BEGIN CTAB
M  V30 COUNTS 58 61 0 0 0
M  V30 BEGIN ATOM
M  V30 1 C 4.789637 -0.097603 4.789497 0
M  V30 2 N 5.178250 0.426018 3.488393 0
M  V30 3 C 4.362971 0.597468 2.348610 0
M  V30 4 O 3.234125 0.205267 2.688698 0
M  V30 5 C 4.933591 1.139069 1.130992 0
M  V30 6 C 6.260268 1.475436 1.067348 0
M  V30 7 C 6.731858 1.979711 -0.122071 0
M  V30 8 C 5.966593 2.162386 -1.228564 0
M  V30 9 C 4.639612 1.810365 -1.117783 0
M  V30 10 C 4.083523 1.289837 0.061095 0
M  V30 11 N 2.722403 1.018548 -0.071538 0
M  V30 12 C 1.455058 1.322075 0.432901 0
M  V30 13 C 0.582127 0.368808 0.971366 0
M  V30 14 C -0.650677 0.616420 1.489209 0
M  V30 15 N -1.372520 -0.500612 1.984742 0
M  V30 16 C -2.299784 -1.283176 1.246604 0
M  V30 17 C -2.647829 -0.989715 -0.053797 0
M  V30 18 C -3.552364 -1.781381 -0.724306 0
M  V30 19 C -4.151160 -2.871147 -0.182340 0
M  V30 20 N -5.087359 -3.705763 -0.844137 0
M  V30 21 C -5.756872 -4.881606 -0.326240 0
M  V30 22 C -5.321873 -6.129491 -1.084005 0
M  V30 23 O -4.705804 -5.777017 -2.289049 0
M  V30 24 C -5.406326 -4.796243 -2.961448 0
M  V30 25 C -5.552319 -3.515901 -2.202374 0
M  V30 26 C -3.797521 -3.155987 1.115393 0
M  V30 27 C -2.884511 -2.382058 1.836027 0
M  V30 28 N -1.026349 1.904877 1.462054 0
M  V30 29 C -0.240206 2.870712 0.960295 0
M  V30 30 C 1.011398 2.628469 0.433110 0
M  V30 31 C 1.777563 3.772823 -0.095400 0
M  V30 32 F 2.072403 3.668343 -1.442509 0
M  V30 33 F 2.961492 3.936276 0.639096 0
M  V30 34 F 1.081349 4.947081 0.066152 0
M  V30 35 H 4.967579 0.686199 5.552884 0
M  V30 36 H 5.420781 -0.981656 5.037945 0
M  V30 37 H 3.711871 -0.360269 4.752392 0
M  V30 38 H 6.201327 0.653919 3.571182 0
M  V30 39 H 6.955258 1.376037 1.870038 0
M  V30 40 H 7.787001 2.254790 -0.192698 0
M  V30 41 H 6.391804 2.563146 -2.137902 0
M  V30 42 H 4.066963 1.977517 -2.047747 0
M  V30 43 H 2.503567 0.314695 -0.836414 0
M  V30 44 H 0.987842 -0.631825 0.940785 0
M  V30 45 H -1.170327 -0.725295 2.978388 0
M  V30 46 H -2.199530 -0.144027 -0.510750 0
M  V30 47 H -3.770638 -1.484713 -1.733296 0
M  V30 48 H -6.856085 -4.748717 -0.415181 0
M  V30 49 H -5.529215 -5.087392 0.737298 0
M  V30 50 H -6.216800 -6.751120 -1.229061 0
M  V30 51 H -4.596215 -6.720124 -0.489711 0
M  V30 52 H -4.848271 -4.599210 -3.902078 0
M  V30 53 H -6.405871 -5.222072 -3.224700 0
M  V30 54 H -6.638579 -3.283644 -2.110989 0
M  V30 55 H -5.012336 -2.699088 -2.738139 0
M  V30 56 H -4.168513 -3.977700 1.704897 0
M  V30 57 H -2.597698 -2.598050 2.862083 0
M  V30 58 H -0.630054 3.878459 0.982018 0
M  V30 END ATOM
M  V30 BEGIN BOND
M  V30 1 1 1 2
M  V30 2 1 2 3
M  V30 3 2 3 4
M  V30 4 1 3 5
M  V30 5 2 5 6
M  V30 6 1 6 7
M  V30 7 2 7 8
M  V30 8 1 8 9
M  V30 9 2 9 10
M  V30 10 1 10 11
M  V30 11 1 11 12
M  V30 12 2 12 13
M  V30 13 1 13 14
M  V30 14 1 14 15
M  V30 15 1 15 16
M  V30 16 2 16 17
M  V30 17 1 17 18
M  V30 18 2 18 19
M  V30 19 1 19 20
M  V30 20 1 20 21
M  V30 21 1 21 22
M  V30 22 1 22 23
M  V30 23 1 23 24
M  V30 24 1 24 25
M  V30 25 1 19 26
M  V30 26 2 26 27
M  V30 27 2 14 28
M  V30 28 1 28 29
M  V30 29 2 29 30
M  V30 30 1 30 31
M  V30 31 1 31 32
M  V30 32 1 31 33
M  V30 33 1 31 34
M  V30 34 1 10 5
M  V30 35 1 30 12
M  V30 36 1 27 16
M  V30 37 1 25 20
M  V30 38 1 1 35
M  V30 39 1 1 36
M  V30 40 1 1 37
M  V30 41 1 2 38
M  V30 42 1 6 39
M  V30 43 1 7 40
M  V30 44 1 8 41
M  V30 45 1 9 42
M  V30 46 1 11 43
M  V30 47 1 13 44
M  V30 48 1 15 45
M  V30 49 1 17 46
M  V30 50 1 18 47
M  V30 51 1 21 48
M  V30 52 1 21 49
M  V30 53 1 22 50
M  V30 54 1 22 51
M  V30 55 1 24 52
M  V30 56 1 24 53
M  V30 57 1 25 54
M  V30 58 1 25 55
M  V30 59 1 26 56
M  V30 60 1 27 57
M  V30 61 1 29 58
M  V30 END BOND
M  V30 END CTAB
M  END
>  <Dataset>  (405) 
ChEMBL_Kinases

>  <Ligand_Instance>  (405) 
nan

>  <PDB_ID>  (405) 
nan

>  <Standardized_SMILES>  (405) 
CNC(=O)c1ccccc1Nc1cc(Nc2ccc(N3CCOCC3)cc2)ncc1C(F)(F)F

>  <Name>  (405) 
nan

>  <Pocket>  (405) 
nan

>  <ATP_Site>  (405) 
nan

>  <Peripheral>  (405) 
nan

>  <Num_H_Atoms_ProtBoundConf>  (405) 
nan

>  <Num_Resolved_Atoms>  (405) 
nan

>  <Num_Not_Resolved_Atoms>  (405) 
nan

$$$$
CHEMBL3220470
     RDKit          3D

  0  0  0  0  0  0  0  0  0  0999 V3000
M  V30 BEGIN CTAB
M  V30 COUNTS 55 57 0 0 0
M  V30 BEGIN ATOM
M  V30 1 C 1.330082 -3.140006 1.381283 0
M  V30 2 N 2.161329 -1.979305 1.694338 0
M  V30 3 C 2.270444 -0.768837 0.928815 0
M  V30 4 O 1.508043 -0.961473 -0.020361 0
M  V30 5 C 3.142331 0.285098 1.382352 0
M  V30 6 C 3.966268 0.087408 2.458366 0
M  V30 7 C 4.834170 1.068224 2.873656 0
M  V30 8 C 4.909899 2.295730 2.219412 0
M  V30 9 C 4.046479 2.415810 1.144953 0
M  V30 10 C 3.148401 1.461978 0.680810 0
M  V30 11 N 2.366215 1.832150 -0.438649 0
M  V30 12 C 0.980865 1.996035 -0.647195 0
M  V30 13 C 0.000848 1.792106 0.333923 0
M  V30 14 C -1.379780 1.975489 0.122860 0
M  V30 15 N -2.049732 1.650459 1.335931 0
M  V30 16 C -2.500711 0.298267 1.276249 0
M  V30 17 C -2.677606 -0.424389 2.441977 0
M  V30 18 C -3.120371 -1.726577 2.472702 0
M  V30 19 C -3.418725 -2.394419 1.313072 0
M  V30 20 C -3.874186 -3.739095 1.004250 0
M  V30 21 O -4.958620 -4.168043 1.509742 0
M  V30 22 N -3.291904 -4.736866 0.182634 0
M  V30 23 C -4.013730 -5.990455 0.079483 0
M  V30 24 C -2.027257 -4.491584 -0.508729 0
M  V30 25 C -3.257378 -1.707195 0.102738 0
M  V30 26 C -2.810268 -0.400458 0.107580 0
M  V30 27 N -1.765750 2.378357 -1.120796 0
M  V30 28 C -0.805522 2.571156 -2.059351 0
M  V30 29 C 0.549255 2.402364 -1.892512 0
M  V30 30 C 1.505994 2.644884 -2.997115 0
M  V30 31 F 2.240591 1.524976 -3.321481 0
M  V30 32 F 0.842691 3.011511 -4.152111 0
M  V30 33 F 2.372910 3.710412 -2.710103 0
M  V30 34 H 0.781989 -3.006988 0.433780 0
M  V30 35 H 1.945686 -4.057858 1.432791 0
M  V30 36 H 0.551234 -3.189131 2.190472 0
M  V30 37 H 2.672353 -2.190073 2.600934 0
M  V30 38 H 4.017471 -0.806542 3.057187 0
M  V30 39 H 5.495276 0.938569 3.719941 0
M  V30 40 H 5.569179 3.111436 2.496047 0
M  V30 41 H 4.107432 3.380542 0.630071 0
M  V30 42 H 3.021687 1.993680 -1.216489 0
M  V30 43 H 0.481005 1.477070 1.257448 0
M  V30 44 H -2.250608 2.198164 2.197117 0
M  V30 45 H -2.466492 0.021285 3.404014 0
M  V30 46 H -3.285893 -2.363293 3.320991 0
M  V30 47 H -3.487160 -6.620317 -0.697091 0
M  V30 48 H -3.973313 -6.517604 1.033759 0
M  V30 49 H -5.049817 -5.861551 -0.297278 0
M  V30 50 H -2.171695 -3.982636 -1.469440 0
M  V30 51 H -1.451054 -3.824233 0.171782 0
M  V30 52 H -1.457013 -5.462987 -0.607076 0
M  V30 53 H -3.441331 -2.046630 -0.928002 0
M  V30 54 H -2.656615 0.206425 -0.799026 0
M  V30 55 H -1.232514 2.888028 -3.003407 0
M  V30 END ATOM
M  V30 BEGIN BOND
M  V30 1 1 1 2
M  V30 2 1 2 3
M  V30 3 2 3 4
M  V30 4 1 3 5
M  V30 5 2 5 6
M  V30 6 1 6 7
M  V30 7 2 7 8
M  V30 8 1 8 9
M  V30 9 2 9 10
M  V30 10 1 10 11
M  V30 11 1 11 12
M  V30 12 2 12 13
M  V30 13 1 13 14
M  V30 14 1 14 15
M  V30 15 1 15 16
M  V30 16 2 16 17
M  V30 17 1 17 18
M  V30 18 2 18 19
M  V30 19 1 19 20
M  V30 20 2 20 21
M  V30 21 1 20 22
M  V30 22 1 22 23
M  V30 23 1 22 24
M  V30 24 1 19 25
M  V30 25 2 25 26
M  V30 26 2 14 27
M  V30 27 1 27 28
M  V30 28 2 28 29
M  V30 29 1 29 30
M  V30 30 1 30 31
M  V30 31 1 30 32
M  V30 32 1 30 33
M  V30 33 1 10 5
M  V30 34 1 29 12
M  V30 35 1 26 16
M  V30 36 1 1 34
M  V30 37 1 1 35
M  V30 38 1 1 36
M  V30 39 1 2 37
M  V30 40 1 6 38
M  V30 41 1 7 39
M  V30 42 1 8 40
M  V30 43 1 9 41
M  V30 44 1 11 42
M  V30 45 1 13 43
M  V30 46 1 15 44
M  V30 47 1 17 45
M  V30 48 1 18 46
M  V30 49 1 23 47
M  V30 50 1 23 48
M  V30 51 1 23 49
M  V30 52 1 24 50
M  V30 53 1 24 51
M  V30 54 1 24 52
M  V30 55 1 25 53
M  V30 56 1 26 54
M  V30 57 1 28 55
M  V30 END BOND
M  V30 END CTAB
M  END
>  <Dataset>  (406) 
ChEMBL_Kinases

>  <Ligand_Instance>  (406) 
nan

>  <PDB_ID>  (406) 
nan

>  <Standardized_SMILES>  (406) 
CNC(=O)c1ccccc1Nc1cc(Nc2ccc(C(=O)N(C)C)cc2)ncc1C(F)(F)F

>  <Name>  (406) 
nan

>  <Pocket>  (406) 
nan

>  <ATP_Site>  (406) 
nan

>  <Peripheral>  (406) 
nan

>  <Num_H_Atoms_ProtBoundConf>  (406) 
nan

>  <Num_Resolved_Atoms>  (406) 
nan

>  <Num_Not_Resolved_Atoms>  (406) 
nan

$$$$
CHEMBL3676276
     RDKit          3D

  0  0  0  0  0  0  0  0  0  0999 V3000
M  V30 BEGIN CTAB
M  V30 COUNTS 57 60 0 0 0
M  V30 BEGIN ATOM
M  V30 1 C 2.617393 -3.185131 0.152307 0
M  V30 2 C 3.610177 -2.511532 1.059211 0
M  V30 3 C 3.068992 -2.494991 2.442528 0
M  V30 4 C 2.934296 -1.081988 2.956469 0
M  V30 5 N 4.199342 -0.506947 3.313689 0
M  V30 6 C 2.260656 -0.297971 1.838252 0
M  V30 7 N 3.197407 -0.102355 0.734916 0
M  V30 8 C 3.347758 0.995396 -0.163053 0
M  V30 9 C 4.572194 1.646135 -0.161810 0
M  V30 10 C 4.739844 2.715960 -1.025420 0
M  V30 11 N 3.782524 3.155497 -1.861661 0
M  V30 12 C 2.578771 2.511913 -1.859632 0
M  V30 13 C 2.349088 1.429481 -1.014051 0
M  V30 14 N 1.104900 0.768870 -1.017116 0
M  V30 15 C -0.104337 0.915765 -0.321804 0
M  V30 16 O -0.014409 1.869325 0.479885 0
M  V30 17 C -1.234978 0.025376 -0.581022 0
M  V30 18 C -1.176658 -1.045595 -1.552125 0
M  V30 19 S -2.934864 -1.710825 -1.322398 0
M  V30 20 C -3.347697 -0.443479 -0.013599 0
M  V30 21 C -4.694105 -0.523176 0.541447 0
M  V30 22 C -4.869902 -1.813870 1.249725 0
M  V30 23 C -6.113676 -2.563621 0.815820 0
M  V30 24 C -6.204508 -2.705305 -0.668877 0
M  V30 25 C -6.198317 -1.362898 -1.311019 0
M  V30 26 C -5.801625 -0.224256 -0.441053 0
M  V30 27 N -2.324742 0.266294 0.137203 0
M  V30 28 C 4.098882 -1.198371 0.541735 0
M  V30 29 H 1.597247 -3.278394 0.628161 0
M  V30 30 H 2.885515 -4.233007 -0.113660 0
M  V30 31 H 2.448810 -2.534424 -0.723022 0
M  V30 32 H 4.505891 -3.194865 1.059829 0
M  V30 33 H 2.051638 -2.935942 2.486621 0
M  V30 34 H 3.706598 -3.069934 3.163341 0
M  V30 35 H 2.271753 -1.043063 3.843620 0
M  V30 36 H 4.025218 0.242213 4.031021 0
M  V30 37 H 4.731271 -1.256117 3.822577 0
M  V30 38 H 1.326749 -0.776175 1.546352 0
M  V30 39 H 1.999060 0.679674 2.325174 0
M  V30 40 H 5.432735 1.392222 0.465019 0
M  V30 41 H 5.655448 3.299684 -1.109921 0
M  V30 42 H 1.813103 2.880037 -2.542586 0
M  V30 43 H 1.266416 0.018682 -1.757120 0
M  V30 44 H -0.335319 -1.243720 -2.117328 0
M  V30 45 H -4.761381 0.310671 1.301728 0
M  V30 46 H -4.850923 -1.651628 2.344940 0
M  V30 47 H -4.001091 -2.471804 1.040761 0
M  V30 48 H -6.983428 -1.968254 1.159630 0
M  V30 49 H -6.188474 -3.555304 1.260493 0
M  V30 50 H -5.411926 -3.380309 -1.069207 0
M  V30 51 H -7.157194 -3.217970 -0.895926 0
M  V30 52 H -5.566084 -1.382981 -2.243902 0
M  V30 53 H -7.230416 -1.156239 -1.716675 0
M  V30 54 H -6.667400 0.181786 0.100060 0
M  V30 55 H -5.394199 0.579762 -1.111197 0
M  V30 56 H 4.412941 -1.354210 -0.511772 0
M  V30 57 H 5.037052 -0.921844 1.075532 0
M  V30 END ATOM
M  V30 BEGIN BOND
M  V30 1 1 1 2
M  V30 2 1 2 3
M  V30 3 1 3 4
M  V30 4 1 4 5
M  V30 5 1 4 6
M  V30 6 1 6 7
M  V30 7 1 7 8
M  V30 8 2 8 9
M  V30 9 1 9 10
M  V30 10 2 10 11
M  V30 11 1 11 12
M  V30 12 2 12 13
M  V30 13 1 13 14
M  V30 14 1 14 15
M  V30 15 2 15 16
M  V30 16 1 15 17
M  V30 17 2 17 18
M  V30 18 1 18 19
M  V30 19 1 19 20
M  V30 20 1 20 21
M  V30 21 1 21 22
M  V30 22 1 22 23
M  V30 23 1 23 24
M  V30 24 1 24 25
M  V30 25 1 25 26
M  V30 26 2 20 27
M  V30 27 1 7 28
M  V30 28 1 28 2
M  V30 29 1 13 8
M  V30 30 1 27 17
M  V30 31 1 26 21
M  V30 32 1 1 29
M  V30 33 1 1 30
M  V30 34 1 1 31
M  V30 35 1 2 32
M  V30 36 1 3 33
M  V30 37 1 3 34
M  V30 38 1 4 35
M  V30 39 1 5 36
M  V30 40 1 5 37
M  V30 41 1 6 38
M  V30 42 1 6 39
M  V30 43 1 9 40
M  V30 44 1 10 41
M  V30 45 1 12 42
M  V30 46 1 14 43
M  V30 47 1 18 44
M  V30 48 1 21 45
M  V30 49 1 22 46
M  V30 50 1 22 47
M  V30 51 1 23 48
M  V30 52 1 23 49
M  V30 53 1 24 50
M  V30 54 1 24 51
M  V30 55 1 25 52
M  V30 56 1 25 53
M  V30 57 1 26 54
M  V30 58 1 26 55
M  V30 59 1 28 56
M  V30 60 1 28 57
M  V30 END BOND
M  V30 END CTAB
M  END
>  <Dataset>  (407) 
ChEMBL_Kinases

>  <Ligand_Instance>  (407) 
nan

>  <PDB_ID>  (407) 
nan

>  <Standardized_SMILES>  (407) 
CC1CC(N)CN(c2ccncc2NC(=O)c2csc(C3CCCCC3)n2)C1

>  <Name>  (407) 
nan

>  <Pocket>  (407) 
nan

>  <ATP_Site>  (407) 
nan

>  <Peripheral>  (407) 
nan

>  <Num_H_Atoms_ProtBoundConf>  (407) 
nan

>  <Num_Resolved_Atoms>  (407) 
nan

>  <Num_Not_Resolved_Atoms>  (407) 
nan

$$$$
CHEMBL3220471
     RDKit          3D

  0  0  0  0  0  0  0  0  0  0999 V3000
M  V30 BEGIN CTAB
M  V30 COUNTS 51 54 0 0 0
M  V30 BEGIN ATOM
M  V30 1 C 3.096835 -3.308013 0.904210 0
M  V30 2 N 3.652491 -2.084314 1.430435 0
M  V30 3 C 3.316430 -0.820697 0.851361 0
M  V30 4 O 2.530868 -1.094607 -0.084903 0
M  V30 5 C 3.867683 0.394842 1.377410 0
M  V30 6 C 4.826532 0.327168 2.339731 0
M  V30 7 C 5.419534 1.465783 2.838244 0
M  V30 8 C 5.052396 2.725004 2.368177 0
M  V30 9 C 4.072550 2.806434 1.383963 0
M  V30 10 C 3.493910 1.629672 0.904470 0
M  V30 11 N 2.514496 1.837297 -0.078461 0
M  V30 12 C 1.121008 1.551514 -0.085941 0
M  V30 13 C 0.458908 1.004425 0.989687 0
M  V30 14 C -0.875055 0.713383 0.973424 0
M  V30 15 N -1.664328 0.159418 2.013055 0
M  V30 16 C -2.533195 -0.944063 1.690670 0
M  V30 17 C -3.540980 -1.363387 2.547439 0
M  V30 18 C -4.347152 -2.433475 2.220989 0
M  V30 19 C -4.182160 -3.121633 1.038217 0
M  V30 20 N -4.908364 -4.236284 0.532973 0
M  V30 21 C -5.973660 -3.838479 -0.185814 0
M  V30 22 C -6.617463 -4.991520 -0.643476 0
M  V30 23 N -5.902115 -6.060683 -0.174246 0
M  V30 24 N -4.886519 -5.533002 0.526096 0
M  V30 25 C -3.174223 -2.728058 0.145748 0
M  V30 26 C -2.368022 -1.636475 0.501874 0
M  V30 27 N -1.539723 0.994091 -0.178874 0
M  V30 28 C -0.953008 1.526022 -1.257753 0
M  V30 29 C 0.395337 1.821970 -1.246172 0
M  V30 30 C 1.017781 2.417531 -2.471064 0
M  V30 31 F 0.043405 2.565698 -3.448165 0
M  V30 32 F 1.987535 1.571495 -2.997813 0
M  V30 33 F 1.593092 3.627187 -2.194517 0
M  V30 34 H 2.878055 -3.995511 1.774538 0
M  V30 35 H 2.124541 -3.184850 0.398418 0
M  V30 36 H 3.804449 -3.849082 0.263435 0
M  V30 37 H 4.301921 -2.218926 2.251560 0
M  V30 38 H 5.233231 -0.550071 2.815259 0
M  V30 39 H 6.180134 1.491739 3.593449 0
M  V30 40 H 5.509465 3.625716 2.747738 0
M  V30 41 H 3.815368 3.810504 1.044014 0
M  V30 42 H 2.939177 2.273946 -0.921845 0
M  V30 43 H 0.974753 0.783798 1.896963 0
M  V30 44 H -1.606416 0.543264 2.960367 0
M  V30 45 H -3.689495 -0.850617 3.464192 0
M  V30 46 H -5.145821 -2.811763 2.834122 0
M  V30 47 H -6.482153 -2.937335 -0.516900 0
M  V30 48 H -7.473162 -5.359049 -1.232283 0
M  V30 49 H -2.966448 -3.212402 -0.816418 0
M  V30 50 H -1.589018 -1.354980 -0.209281 0
M  V30 51 H -1.555701 1.724667 -2.153641 0
M  V30 END ATOM
M  V30 BEGIN BOND
M  V30 1 1 1 2
M  V30 2 1 2 3
M  V30 3 2 3 4
M  V30 4 1 3 5
M  V30 5 2 5 6
M  V30 6 1 6 7
M  V30 7 2 7 8
M  V30 8 1 8 9
M  V30 9 2 9 10
M  V30 10 1 10 11
M  V30 11 1 11 12
M  V30 12 2 12 13
M  V30 13 1 13 14
M  V30 14 1 14 15
M  V30 15 1 15 16
M  V30 16 2 16 17
M  V30 17 1 17 18
M  V30 18 2 18 19
M  V30 19 1 19 20
M  V30 20 1 20 21
M  V30 21 2 21 22
M  V30 22 1 22 23
M  V30 23 2 23 24
M  V30 24 1 19 25
M  V30 25 2 25 26
M  V30 26 2 14 27
M  V30 27 1 27 28
M  V30 28 2 28 29
M  V30 29 1 29 30
M  V30 30 1 30 31
M  V30 31 1 30 32
M  V30 32 1 30 33
M  V30 33 1 10 5
M  V30 34 1 29 12
M  V30 35 1 26 16
M  V30 36 1 24 20
M  V30 37 1 1 34
M  V30 38 1 1 35
M  V30 39 1 1 36
M  V30 40 1 2 37
M  V30 41 1 6 38
M  V30 42 1 7 39
M  V30 43 1 8 40
M  V30 44 1 9 41
M  V30 45 1 11 42
M  V30 46 1 13 43
M  V30 47 1 15 44
M  V30 48 1 17 45
M  V30 49 1 18 46
M  V30 50 1 21 47
M  V30 51 1 22 48
M  V30 52 1 25 49
M  V30 53 1 26 50
M  V30 54 1 28 51
M  V30 END BOND
M  V30 END CTAB
M  END
>  <Dataset>  (408) 
ChEMBL_Kinases

>  <Ligand_Instance>  (408) 
nan

>  <PDB_ID>  (408) 
nan

>  <Standardized_SMILES>  (408) 
CNC(=O)c1ccccc1Nc1cc(Nc2ccc(-n3ccnn3)cc2)ncc1C(F)(F)F

>  <Name>  (408) 
nan

>  <Pocket>  (408) 
nan

>  <ATP_Site>  (408) 
nan

>  <Peripheral>  (408) 
nan

>  <Num_H_Atoms_ProtBoundConf>  (408) 
nan

>  <Num_Resolved_Atoms>  (408) 
nan

>  <Num_Not_Resolved_Atoms>  (408) 
nan

$$$$
CHEMBL3676275
     RDKit          3D

  0  0  0  0  0  0  0  0  0  0999 V3000
M  V30 BEGIN CTAB
M  V30 COUNTS 51 54 0 0 0
M  V30 BEGIN ATOM
M  V30 1 C -0.776943 -1.612349 1.721231 0
M  V30 2 C 0.281999 -2.180227 2.638407 0
M  V30 3 C 0.810820 -1.169268 3.596592 0
M  V30 4 C 1.941304 -0.330997 3.113656 0
M  V30 5 N 2.664747 -0.883481 1.995752 0
M  V30 6 C 3.274821 -0.324571 0.855303 0
M  V30 7 C 4.648917 -0.588753 0.862800 0
M  V30 8 C 5.480561 -0.141284 -0.158114 0
M  V30 9 N 4.945455 0.561848 -1.174476 0
M  V30 10 C 3.621887 0.826733 -1.199324 0
M  V30 11 C 2.798195 0.389811 -0.198804 0
M  V30 12 N 1.401819 0.626287 -0.164540 0
M  V30 13 C 0.661824 1.702522 0.382084 0
M  V30 14 O 1.366763 2.587216 0.924168 0
M  V30 15 C -0.787894 1.764345 0.313800 0
M  V30 16 C -1.486708 2.876931 0.891375 0
M  V30 17 S -3.245698 2.490438 0.546006 0
M  V30 18 C -2.741281 0.885051 -0.323833 0
M  V30 19 C -3.839753 0.052543 -0.873295 0
M  V30 20 C -5.160826 0.401103 -0.771551 0
M  V30 21 F -5.523916 1.537372 -0.155725 0
M  V30 22 C -6.068884 -0.488845 -1.339771 0
M  V30 23 C -5.614389 -1.651072 -1.963674 0
M  V30 24 C -4.259883 -1.966145 -2.044123 0
M  V30 25 C -3.366320 -1.076815 -1.477271 0
M  V30 26 F -2.059938 -1.409777 -1.571271 0
M  V30 27 N -1.618368 0.911824 -0.227512 0
M  V30 28 C 2.733718 -2.319797 2.160843 0
M  V30 29 C 1.369296 -2.919756 1.895376 0
M  V30 30 N 1.124742 -2.878077 0.465659 0
M  V30 31 H -0.490074 -1.614136 0.654477 0
M  V30 32 H -0.987823 -0.560003 2.065670 0
M  V30 33 H -1.743569 -2.175678 1.764905 0
M  V30 34 H -0.254149 -2.953196 3.265036 0
M  V30 35 H -0.053329 -0.480023 3.829624 0
M  V30 36 H 1.034805 -1.664526 4.584571 0
M  V30 37 H 2.677242 -0.252596 3.964878 0
M  V30 38 H 1.617599 0.705154 2.911132 0
M  V30 39 H 5.210941 -1.146750 1.625598 0
M  V30 40 H 6.544404 -0.322871 -0.190970 0
M  V30 41 H 3.163352 1.384250 -1.994312 0
M  V30 42 H 0.910491 -0.158771 -0.635450 0
M  V30 43 H -0.947047 3.805757 1.454853 0
M  V30 44 H -7.110760 -0.243667 -1.276426 0
M  V30 45 H -6.409157 -2.285554 -2.379388 0
M  V30 46 H -3.965720 -2.877459 -2.537792 0
M  V30 47 H 3.059389 -2.616940 3.175212 0
M  V30 48 H 3.446764 -2.756264 1.449196 0
M  V30 49 H 1.426220 -3.988969 2.184189 0
M  V30 50 H 0.552932 -3.697643 0.195516 0
M  V30 51 H 1.989125 -2.899633 -0.105628 0
M  V30 END ATOM
M  V30 BEGIN BOND
M  V30 1 1 1 2
M  V30 2 1 2 3
M  V30 3 1 3 4
M  V30 4 1 4 5
M  V30 5 1 5 6
M  V30 6 2 6 7
M  V30 7 1 7 8
M  V30 8 2 8 9
M  V30 9 1 9 10
M  V30 10 2 10 11
M  V30 11 1 11 12
M  V30 12 1 12 13
M  V30 13 2 13 14
M  V30 14 1 13 15
M  V30 15 2 15 16
M  V30 16 1 16 17
M  V30 17 1 17 18
M  V30 18 1 18 19
M  V30 19 2 19 20
M  V30 20 1 20 21
M  V30 21 1 20 22
M  V30 22 2 22 23
M  V30 23 1 23 24
M  V30 24 2 24 25
M  V30 25 1 25 26
M  V30 26 2 18 27
M  V30 27 1 5 28
M  V30 28 1 28 29
M  V30 29 1 29 30
M  V30 30 1 29 2
M  V30 31 1 11 6
M  V30 32 1 27 15
M  V30 33 1 25 19
M  V30 34 1 1 31
M  V30 35 1 1 32
M  V30 36 1 1 33
M  V30 37 1 2 34
M  V30 38 1 3 35
M  V30 39 1 3 36
M  V30 40 1 4 37
M  V30 41 1 4 38
M  V30 42 1 7 39
M  V30 43 1 8 40
M  V30 44 1 10 41
M  V30 45 1 12 42
M  V30 46 1 16 43
M  V30 47 1 22 44
M  V30 48 1 23 45
M  V30 49 1 24 46
M  V30 50 1 28 47
M  V30 51 1 28 48
M  V30 52 1 29 49
M  V30 53 1 30 50
M  V30 54 1 30 51
M  V30 END BOND
M  V30 END CTAB
M  END
>  <Dataset>  (409) 
ChEMBL_Kinases

>  <Ligand_Instance>  (409) 
nan

>  <PDB_ID>  (409) 
nan

>  <Standardized_SMILES>  (409) 
CC1CCN(c2ccncc2NC(=O)c2csc(-c3c(F)cccc3F)n2)CC1N

>  <Name>  (409) 
nan

>  <Pocket>  (409) 
nan

>  <ATP_Site>  (409) 
nan

>  <Peripheral>  (409) 
nan

>  <Num_H_Atoms_ProtBoundConf>  (409) 
nan

>  <Num_Resolved_Atoms>  (409) 
nan

>  <Num_Not_Resolved_Atoms>  (409) 
nan

$$$$
CHEMBL3676279
     RDKit          3D

  0  0  0  0  0  0  0  0  0  0999 V3000
M  V30 BEGIN CTAB
M  V30 COUNTS 55 58 0 0 0
M  V30 BEGIN ATOM
M  V30 1 C 5.453736 1.692090 0.303940 0
M  V30 2 C 4.976018 0.418231 -0.321802 0
M  V30 3 O 3.947537 -0.191230 0.417113 0
M  V30 4 C 2.860143 0.707335 0.491992 0 CFG=2
M  V30 5 C 2.526220 1.077978 1.880493 0
M  V30 6 C 1.271657 0.520643 2.453383 0 CFG=2
M  V30 7 N 1.520311 -0.675689 3.241324 0
M  V30 8 C 0.186502 0.234170 1.456366 0
M  V30 9 N 0.543181 0.746583 0.120902 0
M  V30 10 C -0.231142 1.729016 -0.602268 0
M  V30 11 C 0.415836 2.917819 -0.866113 0
M  V30 12 C -0.149415 3.980846 -1.536955 0
M  V30 13 N -1.438585 3.788141 -1.944459 0
M  V30 14 C -2.066313 2.628478 -1.685853 0
M  V30 15 C -1.529019 1.554258 -1.020956 0
M  V30 16 N -2.171325 0.326713 -0.740990 0
M  V30 17 C -3.482793 -0.107174 -1.047186 0
M  V30 18 O -4.240168 0.680034 -1.663466 0
M  V30 19 C -3.989111 -1.421889 -0.679615 0
M  V30 20 C -5.308984 -1.772149 -1.024280 0
M  V30 21 S -5.448952 -3.525682 -0.334150 0
M  V30 22 C -3.666214 -3.412658 0.283833 0
M  V30 23 C -3.121473 -4.628288 1.001927 0
M  V30 24 C -3.868682 -5.743215 1.194832 0
M  V30 25 F -5.137537 -5.826316 0.756103 0
M  V30 26 C -3.251659 -6.793106 1.869739 0
M  V30 27 C -1.938882 -6.646699 2.298076 0
M  V30 28 C -1.217146 -5.470425 2.069688 0
M  V30 29 C -1.830751 -4.412404 1.392616 0
M  V30 30 F -1.121541 -3.279167 1.177781 0
M  V30 31 N -3.341698 -2.359560 -0.040821 0
M  V30 32 C 1.766841 0.110634 -0.329439 0
M  V30 33 H 5.023007 2.593966 -0.163864 0
M  V30 34 H 5.248060 1.716225 1.404412 0
M  V30 35 H 6.556488 1.725206 0.205222 0
M  V30 36 H 5.777323 -0.327610 -0.487326 0
M  V30 37 H 4.586361 0.667656 -1.350537 0
M  V30 38 H 3.235162 1.604071 -0.086228 0
M  V30 39 H 3.362491 0.728927 2.539667 0
M  V30 40 H 2.560538 2.183658 1.981971 0
M  V30 41 H 0.861839 1.262694 3.172625 0
M  V30 42 H 0.885348 -0.718878 4.061176 0
M  V30 43 H 2.495990 -0.614760 3.611410 0
M  V30 44 H -0.811030 0.594465 1.778709 0
M  V30 45 H 0.105970 -0.864158 1.329944 0
M  V30 46 H 1.434885 3.100656 -0.556105 0
M  V30 47 H 0.353394 4.909428 -1.744053 0
M  V30 48 H -3.077184 2.580873 -2.049882 0
M  V30 49 H -1.637989 -0.411230 -0.231353 0
M  V30 50 H -6.147926 -1.192108 -1.583195 0
M  V30 51 H -3.797596 -7.708104 2.053173 0
M  V30 52 H -1.480941 -7.487874 2.825205 0
M  V30 53 H -0.180517 -5.400284 2.427168 0
M  V30 54 H 1.964568 0.274475 -1.401753 0
M  V30 55 H 1.710248 -1.005550 -0.200894 0
M  V30 END ATOM
M  V30 BEGIN BOND
M  V30 1 1 1 2
M  V30 2 1 2 3
M  V30 3 1 3 4
M  V30 4 1 4 5
M  V30 5 1 5 6
M  V30 6 1 6 7
M  V30 7 1 6 8
M  V30 8 1 8 9
M  V30 9 1 9 10
M  V30 10 2 10 11
M  V30 11 1 11 12
M  V30 12 2 12 13
M  V30 13 1 13 14
M  V30 14 2 14 15
M  V30 15 1 15 16
M  V30 16 1 16 17
M  V30 17 2 17 18
M  V30 18 1 17 19
M  V30 19 2 19 20
M  V30 20 1 20 21
M  V30 21 1 21 22
M  V30 22 1 22 23
M  V30 23 2 23 24
M  V30 24 1 24 25
M  V30 25 1 24 26
M  V30 26 2 26 27
M  V30 27 1 27 28
M  V30 28 2 28 29
M  V30 29 1 29 30
M  V30 30 2 22 31
M  V30 31 1 9 32
M  V30 32 1 32 4
M  V30 33 1 15 10
M  V30 34 1 31 19
M  V30 35 1 29 23
M  V30 36 1 1 33
M  V30 37 1 1 34
M  V30 38 1 1 35
M  V30 39 1 2 36
M  V30 40 1 2 37
M  V30 41 1 4 38 CFG=3
M  V30 42 1 5 39
M  V30 43 1 5 40
M  V30 44 1 6 41 CFG=1
M  V30 45 1 7 42
M  V30 46 1 7 43
M  V30 47 1 8 44
M  V30 48 1 8 45
M  V30 49 1 11 46
M  V30 50 1 12 47
M  V30 51 1 14 48
M  V30 52 1 16 49
M  V30 53 1 20 50
M  V30 54 1 26 51
M  V30 55 1 27 52
M  V30 56 1 28 53
M  V30 57 1 32 54
M  V30 58 1 32 55
M  V30 END BOND
M  V30 END CTAB
M  END
>  <Dataset>  (410) 
ChEMBL_Kinases

>  <Ligand_Instance>  (410) 
nan

>  <PDB_ID>  (410) 
nan

>  <Standardized_SMILES>  (410) 
CCO[C@@H]1C[C@H](N)CN(c2ccncc2NC(=O)c2csc(-c3c(F)cccc3F)n2)C1

>  <Name>  (410) 
nan

>  <Pocket>  (410) 
nan

>  <ATP_Site>  (410) 
nan

>  <Peripheral>  (410) 
nan

>  <Num_H_Atoms_ProtBoundConf>  (410) 
nan

>  <Num_Resolved_Atoms>  (410) 
nan

>  <Num_Not_Resolved_Atoms>  (410) 
nan

$$$$
CHEMBL3672038
     RDKit          3D

  0  0  0  0  0  0  0  0  0  0999 V3000
M  V30 BEGIN CTAB
M  V30 COUNTS 67 73 0 0 0
M  V30 BEGIN ATOM
M  V30 1 C 5.753300 -4.734180 6.508444 0
M  V30 2 C 4.954222 -3.510784 6.848466 0
M  V30 3 C 4.588118 -3.172502 8.141098 0
M  V30 4 C 3.847286 -2.030299 8.401812 0
M  V30 5 C 3.479342 -1.227893 7.321601 0
M  V30 6 C 3.855221 -1.585176 6.043611 0
M  V30 7 C 3.458732 -0.732351 4.926783 0
M  V30 8 N 3.768603 -0.980755 3.621809 0
M  V30 9 C 3.230349 0.024513 2.890744 0
M  V30 10 C 3.351675 0.109149 1.430766 0
M  V30 11 C 1.976673 0.241631 0.781037 0
M  V30 12 N 2.513241 1.257126 -0.104052 0
M  V30 13 C 1.629875 2.369220 -0.384204 0
M  V30 14 C 0.385798 1.881681 -1.042900 0
M  V30 15 C -0.770108 1.494297 -0.405918 0
M  V30 16 C -1.855429 1.055232 -1.164934 0
M  V30 17 C -1.809126 0.995610 -2.549168 0
M  V30 18 C -3.043990 0.510332 -3.111778 0
M  V30 19 N -3.899524 1.163313 -3.923105 0
M  V30 20 C -5.038796 0.566991 -4.377552 0
M  V30 21 N -6.007384 1.009486 -5.169182 0
M  V30 22 C -6.921877 0.008989 -5.311167 0
M  V30 23 C -8.198569 -0.086698 -6.064516 0
M  V30 24 C -6.475972 -1.077347 -4.569642 0
M  V30 25 N -5.304277 -0.706700 -3.998970 0
M  V30 26 C -4.498231 -1.443975 -3.182494 0
M  V30 27 C -3.358062 -0.802620 -2.746700 0
M  V30 28 C -2.507100 -1.628621 -1.864453 0
M  V30 29 C -1.210491 -1.944093 -2.286859 0
M  V30 30 C -0.357858 -2.720975 -1.498919 0
M  V30 31 C -0.818731 -3.187417 -0.266135 0
M  V30 32 C -2.082049 -2.883185 0.151360 0
M  V30 33 C -2.894773 -2.123279 -0.635648 0
M  V30 34 C -0.635622 1.390415 -3.171808 0
M  V30 35 C 0.436598 1.824169 -2.420331 0
M  V30 36 C 3.567171 1.481196 0.841217 0
M  V30 37 N 2.596751 0.888297 3.701591 0
M  V30 38 N 2.741784 0.420138 4.929859 0
M  V30 39 N 4.584144 -2.717830 5.833056 0
M  V30 40 H 6.645620 -4.453145 5.941801 0
M  V30 41 H 5.049393 -5.352522 5.888584 0
M  V30 42 H 5.948384 -5.341932 7.418331 0
M  V30 43 H 4.927459 -3.866859 8.903424 0
M  V30 44 H 3.585828 -1.808579 9.430069 0
M  V30 45 H 2.896329 -0.330323 7.530828 0
M  V30 46 H 3.961605 -0.708689 0.994072 0
M  V30 47 H 1.695303 -0.714179 0.330540 0
M  V30 48 H 1.225625 0.569029 1.498467 0
M  V30 49 H 2.170030 3.078549 -1.033586 0
M  V30 50 H 1.372578 2.930843 0.546791 0
M  V30 51 H -0.784257 1.549495 0.654355 0
M  V30 52 H -2.717674 0.774659 -0.537723 0
M  V30 53 H -8.994197 -0.291642 -5.313042 0
M  V30 54 H -8.177963 -0.962785 -6.752690 0
M  V30 55 H -8.392484 0.828219 -6.645234 0
M  V30 56 H -6.951568 -2.061904 -4.444536 0
M  V30 57 H -4.749280 -2.454589 -2.907194 0
M  V30 58 H -0.912567 -1.546145 -3.263671 0
M  V30 59 H 0.625960 -2.912689 -1.909210 0
M  V30 60 H -0.104920 -3.777199 0.280501 0
M  V30 61 H -2.389008 -3.261986 1.101067 0
M  V30 62 H -3.907686 -1.871545 -0.316246 0
M  V30 63 H -0.692693 1.310427 -4.249014 0
M  V30 64 H 1.310342 2.113127 -2.978688 0
M  V30 65 H 4.597838 1.542316 0.394010 0
M  V30 66 H 3.377643 2.266496 1.606892 0
M  V30 67 H 2.364207 0.858234 5.813056 0
M  V30 END ATOM
M  V30 BEGIN BOND
M  V30 1 1 1 2
M  V30 2 2 2 3
M  V30 3 1 3 4
M  V30 4 2 4 5
M  V30 5 1 5 6
M  V30 6 1 6 7
M  V30 7 2 7 8
M  V30 8 1 8 9
M  V30 9 1 9 10
M  V30 10 1 10 11
M  V30 11 1 11 12
M  V30 12 1 12 13
M  V30 13 1 13 14
M  V30 14 2 14 15
M  V30 15 1 15 16
M  V30 16 2 16 17
M  V30 17 1 17 18
M  V30 18 2 18 19
M  V30 19 1 19 20
M  V30 20 2 20 21
M  V30 21 1 21 22
M  V30 22 1 22 23
M  V30 23 2 22 24
M  V30 24 1 24 25
M  V30 25 1 25 26
M  V30 26 2 26 27
M  V30 27 1 27 28
M  V30 28 2 28 29
M  V30 29 1 29 30
M  V30 30 2 30 31
M  V30 31 1 31 32
M  V30 32 2 32 33
M  V30 33 1 17 34
M  V30 34 2 34 35
M  V30 35 1 12 36
M  V30 36 2 9 37
M  V30 37 1 37 38
M  V30 38 2 6 39
M  V30 39 1 39 2
M  V30 40 1 38 7
M  V30 41 1 36 10
M  V30 42 1 35 14
M  V30 43 1 27 18
M  V30 44 1 33 28
M  V30 45 1 25 20
M  V30 46 1 1 40
M  V30 47 1 1 41
M  V30 48 1 1 42
M  V30 49 1 3 43
M  V30 50 1 4 44
M  V30 51 1 5 45
M  V30 52 1 10 46
M  V30 53 1 11 47
M  V30 54 1 11 48
M  V30 55 1 13 49
M  V30 56 1 13 50
M  V30 57 1 15 51
M  V30 58 1 16 52
M  V30 59 1 23 53
M  V30 60 1 23 54
M  V30 61 1 23 55
M  V30 62 1 24 56
M  V30 63 1 26 57
M  V30 64 1 29 58
M  V30 65 1 30 59
M  V30 66 1 31 60
M  V30 67 1 32 61
M  V30 68 1 33 62
M  V30 69 1 34 63
M  V30 70 1 35 64
M  V30 71 1 36 65
M  V30 72 1 36 66
M  V30 73 1 38 67
M  V30 END BOND
M  V30 END CTAB
M  END
>  <Dataset>  (411) 
ChEMBL_Kinases

>  <Ligand_Instance>  (411) 
nan

>  <PDB_ID>  (411) 
nan

>  <Standardized_SMILES>  (411) 
Cc1cccc(-c2nc(C3CN(Cc4ccc(-c5nc6nc(C)cn6cc5-c5ccccc5)cc4)C3)n[nH]2)n1

>  <Name>  (411) 
nan

>  <Pocket>  (411) 
nan

>  <ATP_Site>  (411) 
nan

>  <Peripheral>  (411) 
nan

>  <Num_H_Atoms_ProtBoundConf>  (411) 
nan

>  <Num_Resolved_Atoms>  (411) 
nan

>  <Num_Not_Resolved_Atoms>  (411) 
nan

$$$$
CHEMBL3672037
     RDKit          3D

  0  0  0  0  0  0  0  0  0  0999 V3000
M  V30 BEGIN CTAB
M  V30 COUNTS 69 75 0 0 0
M  V30 BEGIN ATOM
M  V30 1 C 4.962015 2.302574 7.441771 0
M  V30 2 C 4.217924 2.052700 6.179252 0
M  V30 3 C 2.831240 1.966270 6.133007 0
M  V30 4 N 2.441807 1.734437 4.856907 0
M  V30 5 C 1.206152 1.579741 4.343660 0
M  V30 6 C 1.127617 1.349784 2.971183 0
M  V30 7 C -0.224442 1.187068 2.446074 0
M  V30 8 C -0.978608 2.349979 2.655829 0
M  V30 9 C -2.299231 2.414902 2.232449 0
M  V30 10 C -2.860808 1.321164 1.602622 0
M  V30 11 C -2.112072 0.183347 1.401071 0
M  V30 12 C -0.798789 0.101204 1.815142 0
M  V30 13 C 2.250851 1.282130 2.170077 0
M  V30 14 C 2.108421 1.039047 0.739822 0
M  V30 15 C 2.680286 -0.087279 0.176925 0
M  V30 16 C 2.537467 -0.305141 -1.177926 0
M  V30 17 C 1.839745 0.553997 -2.034070 0
M  V30 18 C 1.756832 0.212406 -3.476950 0
M  V30 19 N 0.651217 -0.584916 -3.730901 0
M  V30 20 C -0.651449 -0.175330 -3.474964 0
M  V30 21 C -1.137706 -0.873032 -2.229103 0
M  V30 22 C -0.676803 -2.271053 -2.100730 0
M  V30 23 C -1.778302 -3.110474 -1.561456 0
M  V30 24 C -1.647965 -3.678052 -0.292596 0
M  V30 25 N -2.576090 -4.465391 0.320246 0
M  V30 26 C -3.718253 -4.708833 -0.375060 0
M  V30 27 C -4.686330 -5.501305 0.205349 0
M  V30 28 C -5.856864 -5.767182 -0.475767 0
M  V30 29 C -6.034113 -5.226951 -1.738452 0
M  V30 30 C -5.053893 -4.422937 -2.329215 0
M  V30 31 C -3.888757 -4.165248 -1.637571 0
M  V30 32 N -2.932480 -3.385810 -2.205559 0
M  V30 33 C -0.018472 -2.893163 -3.292977 0
M  V30 34 C 0.860254 -1.951712 -4.068174 0
M  V30 35 C 1.290997 1.659447 -1.419797 0
M  V30 36 C 1.423808 1.893430 -0.065726 0
M  V30 37 N 3.441614 1.450496 2.782007 0
M  V30 38 C 3.557882 1.674628 4.106224 0
M  V30 39 N 4.641515 1.869449 4.917044 0
M  V30 40 H 6.017103 1.949455 7.296482 0
M  V30 41 H 5.019732 3.378985 7.702894 0
M  V30 42 H 4.553623 1.673589 8.238555 0
M  V30 43 H 2.151552 2.068774 6.991148 0
M  V30 44 H 0.326222 1.630434 4.957519 0
M  V30 45 H -0.652758 3.258773 3.131046 0
M  V30 46 H -2.934186 3.286768 2.365893 0
M  V30 47 H -3.883063 1.348956 1.265561 0
M  V30 48 H -2.502459 -0.704006 0.912197 0
M  V30 49 H -0.114227 -0.730581 1.714668 0
M  V30 50 H 3.242079 -0.820372 0.742069 0
M  V30 51 H 2.988249 -1.195299 -1.625360 0
M  V30 52 H 2.681456 -0.375432 -3.717291 0
M  V30 53 H 1.837569 1.130424 -4.095142 0
M  V30 54 H -1.343162 -0.382867 -4.320223 0
M  V30 55 H -0.682457 0.921887 -3.345145 0
M  V30 56 H -2.257661 -0.864348 -2.268923 0
M  V30 57 H -0.858740 -0.274852 -1.335626 0
M  V30 58 H 0.109180 -2.288965 -1.285748 0
M  V30 59 H -0.764033 -3.522521 0.311847 0
M  V30 60 H -4.523567 -5.913264 1.196971 0
M  V30 61 H -6.622121 -6.395600 -0.012538 0
M  V30 62 H -6.939071 -5.410585 -2.308666 0
M  V30 63 H -5.242764 -4.019339 -3.330172 0
M  V30 64 H 0.569161 -3.784079 -2.995249 0
M  V30 65 H -0.822385 -3.259397 -3.962647 0
M  V30 66 H 0.708740 -2.062753 -5.161998 0
M  V30 67 H 1.931970 -2.177311 -3.884329 0
M  V30 68 H 0.750371 2.337991 -2.050850 0
M  V30 69 H 0.968266 2.785374 0.367715 0
M  V30 END ATOM
M  V30 BEGIN BOND
M  V30 1 1 1 2
M  V30 2 2 2 3
M  V30 3 1 3 4
M  V30 4 1 4 5
M  V30 5 2 5 6
M  V30 6 1 6 7
M  V30 7 2 7 8
M  V30 8 1 8 9
M  V30 9 2 9 10
M  V30 10 1 10 11
M  V30 11 2 11 12
M  V30 12 1 6 13
M  V30 13 1 13 14
M  V30 14 2 14 15
M  V30 15 1 15 16
M  V30 16 2 16 17
M  V30 17 1 17 18
M  V30 18 1 18 19
M  V30 19 1 19 20
M  V30 20 1 20 21
M  V30 21 1 21 22
M  V30 22 1 22 23
M  V30 23 2 23 24
M  V30 24 1 24 25
M  V30 25 2 25 26
M  V30 26 1 26 27
M  V30 27 2 27 28
M  V30 28 1 28 29
M  V30 29 2 29 30
M  V30 30 1 30 31
M  V30 31 2 31 32
M  V30 32 1 22 33
M  V30 33 1 33 34
M  V30 34 1 17 35
M  V30 35 2 35 36
M  V30 36 2 13 37
M  V30 37 1 37 38
M  V30 38 2 38 39
M  V30 39 1 39 2
M  V30 40 1 38 4
M  V30 41 1 12 7
M  V30 42 1 36 14
M  V30 43 1 34 19
M  V30 44 1 32 23
M  V30 45 1 31 26
M  V30 46 1 1 40
M  V30 47 1 1 41
M  V30 48 1 1 42
M  V30 49 1 3 43
M  V30 50 1 5 44
M  V30 51 1 8 45
M  V30 52 1 9 46
M  V30 53 1 10 47
M  V30 54 1 11 48
M  V30 55 1 12 49
M  V30 56 1 15 50
M  V30 57 1 16 51
M  V30 58 1 18 52
M  V30 59 1 18 53
M  V30 60 1 20 54
M  V30 61 1 20 55
M  V30 62 1 21 56
M  V30 63 1 21 57
M  V30 64 1 22 58
M  V30 65 1 24 59
M  V30 66 1 27 60
M  V30 67 1 28 61
M  V30 68 1 29 62
M  V30 69 1 30 63
M  V30 70 1 33 64
M  V30 71 1 33 65
M  V30 72 1 34 66
M  V30 73 1 34 67
M  V30 74 1 35 68
M  V30 75 1 36 69
M  V30 END BOND
M  V30 END CTAB
M  END
>  <Dataset>  (412) 
ChEMBL_Kinases

>  <Ligand_Instance>  (412) 
nan

>  <PDB_ID>  (412) 
nan

>  <Standardized_SMILES>  (412) 
Cc1cn2cc(-c3ccccc3)c(-c3ccc(CN4CCC(c5cnc6ccccc6n5)CC4)cc3)nc2n1

>  <Name>  (412) 
nan

>  <Pocket>  (412) 
nan

>  <ATP_Site>  (412) 
nan

>  <Peripheral>  (412) 
nan

>  <Num_H_Atoms_ProtBoundConf>  (412) 
nan

>  <Num_Resolved_Atoms>  (412) 
nan

>  <Num_Not_Resolved_Atoms>  (412) 
nan

$$$$
CHEMBL3672036
     RDKit          3D

  0  0  0  0  0  0  0  0  0  0999 V3000
M  V30 BEGIN CTAB
M  V30 COUNTS 66 72 0 0 0
M  V30 BEGIN ATOM
M  V30 1 C 7.106934 -2.423861 4.861312 0
M  V30 2 C 5.785982 -2.412679 4.180106 0
M  V30 3 C 4.932244 -3.521528 4.211645 0
M  V30 4 C 3.714867 -3.428836 3.549190 0
M  V30 5 C 3.371645 -2.273305 2.885185 0
M  V30 6 C 4.230126 -1.198830 2.870605 0
M  V30 7 C 3.848421 0.018701 2.161015 0
M  V30 8 N 2.709258 0.225388 1.490903 0
M  V30 9 C 2.692889 1.462551 0.960531 0
M  V30 10 C 1.568827 2.011336 0.153973 0
M  V30 11 C 1.940072 2.872317 -1.014052 0
M  V30 12 N 1.023592 3.866105 -0.529564 0
M  V30 13 C -0.249717 3.987171 -1.143129 0
M  V30 14 C -1.115007 2.809258 -1.111894 0
M  V30 15 C -1.121160 1.860397 -2.114005 0
M  V30 16 C -1.931922 0.744479 -2.092347 0
M  V30 17 C -2.796237 0.518565 -1.041832 0
M  V30 18 C -3.718576 -0.588432 -0.846688 0
M  V30 19 N -5.058590 -0.486816 -0.741857 0
M  V30 20 C -5.834328 -1.584826 -0.556694 0
M  V30 21 N -7.176973 -1.730080 -0.424854 0
M  V30 22 C -7.437722 -3.038955 -0.261377 0
M  V30 23 C -8.735303 -3.720187 -0.075563 0
M  V30 24 N -6.256886 -3.700879 -0.292322 0
M  V30 25 N -5.280623 -2.804609 -0.473310 0
M  V30 26 C -3.933744 -2.979873 -0.570867 0
M  V30 27 C -3.135354 -1.847384 -0.761764 0
M  V30 28 C -1.717222 -2.163826 -0.853861 0
M  V30 29 C -0.666338 -1.783764 -0.050557 0
M  V30 30 C 0.582117 -2.234510 -0.376061 0
M  V30 31 C 0.875318 -3.035916 -1.439023 0
M  V30 32 F 2.149432 -3.426250 -1.672264 0
M  V30 33 C -0.177527 -3.422787 -2.252511 0
M  V30 34 C -1.460110 -2.986282 -1.955860 0
M  V30 35 F -2.385741 -3.445046 -2.839128 0
M  V30 36 C -2.809303 1.465198 -0.013479 0
M  V30 37 C -1.989765 2.586148 -0.043203 0
M  V30 38 C 1.133249 3.333711 0.780705 0
M  V30 39 N 3.858400 2.028679 1.317967 0
M  V30 40 N 4.569965 1.155326 2.050548 0
M  V30 41 N 5.406022 -1.295063 3.513268 0
M  V30 42 H 7.253125 -3.442621 5.265291 0
M  V30 43 H 7.045111 -1.759706 5.759115 0
M  V30 44 H 7.911263 -2.126004 4.156200 0
M  V30 45 H 5.235038 -4.408414 4.741626 0
M  V30 46 H 3.101855 -4.317753 3.610660 0
M  V30 47 H 2.414525 -2.293751 2.403970 0
M  V30 48 H 0.756368 1.286735 0.017812 0
M  V30 49 H 1.632254 2.515226 -2.017759 0
M  V30 50 H 3.004379 3.184761 -1.038199 0
M  V30 51 H -0.111207 4.349300 -2.197485 0
M  V30 52 H -0.779123 4.834330 -0.636130 0
M  V30 53 H -0.480646 1.948446 -2.980103 0
M  V30 54 H -1.963243 -0.018603 -2.858663 0
M  V30 55 H -9.378332 -3.024328 0.519314 0
M  V30 56 H -8.608035 -4.695444 0.433979 0
M  V30 57 H -9.155442 -3.940658 -1.075766 0
M  V30 58 H -3.547594 -3.993076 -0.495195 0
M  V30 59 H -0.972993 -1.159221 0.758259 0
M  V30 60 H 1.383182 -1.918117 0.273496 0
M  V30 61 H 0.073515 -4.056776 -3.088300 0
M  V30 62 H -3.466232 1.365782 0.862007 0
M  V30 63 H -2.042021 3.295350 0.789078 0
M  V30 64 H 0.265803 3.294235 1.437041 0
M  V30 65 H 1.970287 3.824971 1.358266 0
M  V30 66 H 5.503735 1.270227 2.479839 0
M  V30 END ATOM
M  V30 BEGIN BOND
M  V30 1 1 1 2
M  V30 2 2 2 3
M  V30 3 1 3 4
M  V30 4 2 4 5
M  V30 5 1 5 6
M  V30 6 1 6 7
M  V30 7 2 7 8
M  V30 8 1 8 9
M  V30 9 1 9 10
M  V30 10 1 10 11
M  V30 11 1 11 12
M  V30 12 1 12 13
M  V30 13 1 13 14
M  V30 14 2 14 15
M  V30 15 1 15 16
M  V30 16 2 16 17
M  V30 17 1 17 18
M  V30 18 2 18 19
M  V30 19 1 19 20
M  V30 20 2 20 21
M  V30 21 1 21 22
M  V30 22 1 22 23
M  V30 23 2 22 24
M  V30 24 1 24 25
M  V30 25 1 25 26
M  V30 26 2 26 27
M  V30 27 1 27 28
M  V30 28 2 28 29
M  V30 29 1 29 30
M  V30 30 2 30 31
M  V30 31 1 31 32
M  V30 32 1 31 33
M  V30 33 2 33 34
M  V30 34 1 34 35
M  V30 35 1 17 36
M  V30 36 2 36 37
M  V30 37 1 12 38
M  V30 38 2 9 39
M  V30 39 1 39 40
M  V30 40 2 6 41
M  V30 41 1 41 2
M  V30 42 1 40 7
M  V30 43 1 38 10
M  V30 44 1 37 14
M  V30 45 1 27 18
M  V30 46 1 34 28
M  V30 47 1 25 20
M  V30 48 1 1 42
M  V30 49 1 1 43
M  V30 50 1 1 44
M  V30 51 1 3 45
M  V30 52 1 4 46
M  V30 53 1 5 47
M  V30 54 1 10 48
M  V30 55 1 11 49
M  V30 56 1 11 50
M  V30 57 1 13 51
M  V30 58 1 13 52
M  V30 59 1 15 53
M  V30 60 1 16 54
M  V30 61 1 23 55
M  V30 62 1 23 56
M  V30 63 1 23 57
M  V30 64 1 26 58
M  V30 65 1 29 59
M  V30 66 1 30 60
M  V30 67 1 33 61
M  V30 68 1 36 62
M  V30 69 1 37 63
M  V30 70 1 38 64
M  V30 71 1 38 65
M  V30 72 1 40 66
M  V30 END BOND
M  V30 END CTAB
M  END
>  <Dataset>  (413) 
ChEMBL_Kinases

>  <Ligand_Instance>  (413) 
nan

>  <PDB_ID>  (413) 
nan

>  <Standardized_SMILES>  (413) 
Cc1cccc(-c2nc(C3CN(Cc4ccc(-c5nc6nc(C)nn6cc5-c5ccc(F)cc5F)cc4)C3)n[nH]2)n1

>  <Name>  (413) 
nan

>  <Pocket>  (413) 
nan

>  <ATP_Site>  (413) 
nan

>  <Peripheral>  (413) 
nan

>  <Num_H_Atoms_ProtBoundConf>  (413) 
nan

>  <Num_Resolved_Atoms>  (413) 
nan

>  <Num_Not_Resolved_Atoms>  (413) 
nan

$$$$
CHEMBL3672035
     RDKit          3D

  0  0  0  0  0  0  0  0  0  0999 V3000
M  V30 BEGIN CTAB
M  V30 COUNTS 66 72 0 0 0
M  V30 BEGIN ATOM
M  V30 1 F 2.764509 -0.602956 6.661483 0
M  V30 2 C 2.912944 -0.093378 5.412283 0
M  V30 3 C 3.681212 -0.761851 4.467297 0
M  V30 4 C 3.801872 -0.194734 3.196916 0
M  V30 5 C 3.166259 1.006772 2.896206 0
M  V30 6 C 3.431442 1.405602 1.519522 0
M  V30 7 C 4.645516 1.700604 0.937400 0
M  V30 8 N 4.691735 2.055181 -0.367044 0
M  V30 9 C 5.759847 2.379795 -1.123609 0
M  V30 10 C 5.304059 2.667831 -2.395042 0
M  V30 11 N 3.954659 2.507081 -2.371285 0
M  V30 12 C 3.580860 2.132552 -1.131214 0
M  V30 13 N 2.404117 1.843033 -0.553628 0
M  V30 14 C 2.288093 1.482054 0.744597 0
M  V30 15 C 0.895932 1.223982 1.105573 0
M  V30 16 C -0.077756 2.198361 1.026423 0
M  V30 17 C -1.389679 1.948535 1.367027 0
M  V30 18 C -1.764344 0.711017 1.797855 0
M  V30 19 C -3.081051 0.165359 2.213930 0
M  V30 20 N -3.701237 -0.414492 1.090518 0
M  V30 21 C -4.010178 0.380188 -0.028549 0
M  V30 22 C -3.641829 -0.495301 -1.236829 0
M  V30 23 C -4.303493 -1.821588 -1.200452 0
M  V30 24 C -3.374518 -2.779128 -1.905135 0
M  V30 25 C -3.577318 -3.464341 -3.083921 0
M  V30 26 N -2.599480 -4.271650 -3.531210 0
M  V30 27 C -1.479686 -4.358476 -2.794349 0
M  V30 28 C -0.523553 -5.218096 -3.337987 0
M  V30 29 C 0.681228 -5.378165 -2.646170 0
M  V30 30 C 0.899526 -4.701754 -1.468519 0
M  V30 31 C -0.040674 -3.848738 -0.922289 0
M  V30 32 C -1.222989 -3.702910 -1.618066 0
M  V30 33 N -2.225003 -2.910912 -1.212148 0
M  V30 34 C -4.623317 -2.403046 0.116292 0
M  V30 35 C -4.613386 -1.477133 1.295047 0
M  V30 36 C -0.782503 -0.285782 1.881992 0
M  V30 37 C 0.538962 -0.042463 1.541391 0
M  V30 38 C 2.413211 1.649724 3.842879 0
M  V30 39 C 2.285361 1.101782 5.100661 0
M  V30 40 H 4.148629 -1.683594 4.751936 0
M  V30 41 H 4.422621 -0.791791 2.528275 0
M  V30 42 H 5.489355 1.619748 1.600523 0
M  V30 43 H 6.804460 2.410971 -0.793314 0
M  V30 44 H 5.894572 2.965317 -3.253754 0
M  V30 45 H 0.169300 3.190548 0.691899 0
M  V30 46 H -2.206276 2.645487 1.340299 0
M  V30 47 H -3.010302 -0.481774 3.098968 0
M  V30 48 H -3.697047 1.068736 2.500538 0
M  V30 49 H -3.530082 1.346988 -0.135904 0
M  V30 50 H -5.119854 0.541275 -0.157813 0
M  V30 51 H -3.828960 0.026630 -2.176485 0
M  V30 52 H -2.532842 -0.659161 -1.118856 0
M  V30 53 H -5.198169 -1.775485 -1.861660 0
M  V30 54 H -4.554116 -3.231077 -3.491884 0
M  V30 55 H -0.580369 -5.798571 -4.247789 0
M  V30 56 H 1.471257 -6.026338 -3.003120 0
M  V30 57 H 1.817017 -4.783811 -0.882705 0
M  V30 58 H 0.090982 -3.300638 -0.003201 0
M  V30 59 H -5.673535 -2.818216 0.075063 0
M  V30 60 H -4.008394 -3.321684 0.344196 0
M  V30 61 H -4.298614 -2.062125 2.184405 0
M  V30 62 H -5.631891 -1.099987 1.552239 0
M  V30 63 H -0.927349 -1.327777 2.210385 0
M  V30 64 H 1.322474 -0.785389 1.593378 0
M  V30 65 H 1.973461 2.567859 3.488750 0
M  V30 66 H 1.681104 1.657001 5.795024 0
M  V30 END ATOM
M  V30 BEGIN BOND
M  V30 1 1 1 2
M  V30 2 2 2 3
M  V30 3 1 3 4
M  V30 4 2 4 5
M  V30 5 1 5 6
M  V30 6 2 6 7
M  V30 7 1 7 8
M  V30 8 1 8 9
M  V30 9 2 9 10
M  V30 10 1 10 11
M  V30 11 2 11 12
M  V30 12 1 12 13
M  V30 13 2 13 14
M  V30 14 1 14 15
M  V30 15 2 15 16
M  V30 16 1 16 17
M  V30 17 2 17 18
M  V30 18 1 18 19
M  V30 19 1 19 20
M  V30 20 1 20 21
M  V30 21 1 21 22
M  V30 22 1 22 23
M  V30 23 1 23 24
M  V30 24 2 24 25
M  V30 25 1 25 26
M  V30 26 2 26 27
M  V30 27 1 27 28
M  V30 28 2 28 29
M  V30 29 1 29 30
M  V30 30 2 30 31
M  V30 31 1 31 32
M  V30 32 2 32 33
M  V30 33 1 23 34
M  V30 34 1 34 35
M  V30 35 1 18 36
M  V30 36 2 36 37
M  V30 37 1 5 38
M  V30 38 2 38 39
M  V30 39 1 39 2
M  V30 40 1 14 6
M  V30 41 1 37 15
M  V30 42 1 12 8
M  V30 43 1 35 20
M  V30 44 1 33 24
M  V30 45 1 32 27
M  V30 46 1 3 40
M  V30 47 1 4 41
M  V30 48 1 7 42
M  V30 49 1 9 43
M  V30 50 1 10 44
M  V30 51 1 16 45
M  V30 52 1 17 46
M  V30 53 1 19 47
M  V30 54 1 19 48
M  V30 55 1 21 49
M  V30 56 1 21 50
M  V30 57 1 22 51
M  V30 58 1 22 52
M  V30 59 1 23 53
M  V30 60 1 25 54
M  V30 61 1 28 55
M  V30 62 1 29 56
M  V30 63 1 30 57
M  V30 64 1 31 58
M  V30 65 1 34 59
M  V30 66 1 34 60
M  V30 67 1 35 61
M  V30 68 1 35 62
M  V30 69 1 36 63
M  V30 70 1 37 64
M  V30 71 1 38 65
M  V30 72 1 39 66
M  V30 END BOND
M  V30 END CTAB
M  END
>  <Dataset>  (414) 
ChEMBL_Kinases

>  <Ligand_Instance>  (414) 
nan

>  <PDB_ID>  (414) 
nan

>  <Standardized_SMILES>  (414) 
Fc1ccc(-c2cn3ccnc3nc2-c2ccc(CN3CCC(c4cnc5ccccc5n4)CC3)cc2)cc1

>  <Name>  (414) 
nan

>  <Pocket>  (414) 
nan

>  <ATP_Site>  (414) 
nan

>  <Peripheral>  (414) 
nan

>  <Num_H_Atoms_ProtBoundConf>  (414) 
nan

>  <Num_Resolved_Atoms>  (414) 
nan

>  <Num_Not_Resolved_Atoms>  (414) 
nan

$$$$
CHEMBL3672034
     RDKit          3D

  0  0  0  0  0  0  0  0  0  0999 V3000
M  V30 BEGIN CTAB
M  V30 COUNTS 61 67 0 0 0
M  V30 BEGIN ATOM
M  V30 1 F 2.379362 -1.847188 4.622644 0
M  V30 2 C 2.574090 -0.846142 3.723965 0
M  V30 3 C 3.466009 -1.019547 2.683182 0
M  V30 4 C 3.693892 -0.030183 1.749249 0
M  V30 5 C 3.008717 1.163599 1.863391 0
M  V30 6 C 3.060136 2.357404 1.026279 0
M  V30 7 C 4.330686 2.932433 1.006930 0
M  V30 8 N 4.568709 4.058572 0.276010 0
M  V30 9 C 5.641906 4.841469 0.047257 0
M  V30 10 C 5.240727 5.864797 -0.807194 0
M  V30 11 N 3.917760 5.654755 -1.064464 0
M  V30 12 C 3.510545 4.549021 -0.400088 0
M  V30 13 N 2.267092 4.037147 -0.417439 0
M  V30 14 C 2.007276 2.909972 0.307424 0
M  V30 15 C 0.740484 2.198507 0.424977 0
M  V30 16 C -0.463824 2.657632 0.928503 0
M  V30 17 C -1.548143 1.805321 0.944922 0
M  V30 18 C -1.469900 0.510618 0.475576 0
M  V30 19 C -2.658571 -0.367684 0.513322 0
M  V30 20 N -3.471989 -0.288759 -0.686126 0
M  V30 21 C -4.633919 -1.185285 -0.587711 0
M  V30 22 C -4.368311 -1.752654 -1.943430 0
M  V30 23 C -4.144200 -3.223810 -1.932015 0
M  V30 24 N -4.532522 -4.277502 -2.709377 0
M  V30 25 N -3.989770 -5.379365 -2.165804 0
M  V30 26 C -3.272420 -5.062660 -1.073585 0
M  V30 27 C -2.518507 -5.937588 -0.181255 0
M  V30 28 C -2.464637 -7.299966 -0.392984 0
M  V30 29 C -1.752887 -8.153017 0.443273 0
M  V30 30 C -1.068914 -7.615786 1.534437 0
M  V30 31 C -1.135055 -6.233592 1.732842 0
M  V30 32 N -1.843297 -5.466456 0.883410 0
M  V30 33 N -3.367822 -3.727951 -0.928528 0
M  V30 34 C -3.019671 -1.029840 -1.822783 0
M  V30 35 C -0.255469 0.037795 -0.035538 0
M  V30 36 C 0.835013 0.903820 -0.049012 0
M  V30 37 C 2.111076 1.344960 2.906418 0
M  V30 38 C 1.881079 0.341287 3.852308 0
M  V30 39 H 4.037083 -1.930213 2.533510 0
M  V30 40 H 4.352762 -0.042091 0.905361 0
M  V30 41 H 5.189446 2.555884 1.540432 0
M  V30 42 H 6.621451 4.676361 0.466827 0
M  V30 43 H 5.830194 6.664493 -1.196911 0
M  V30 44 H -0.427658 3.680916 1.271402 0
M  V30 45 H -2.471984 2.207535 1.348540 0
M  V30 46 H -2.316830 -1.422202 0.609251 0
M  V30 47 H -3.280866 -0.118231 1.387079 0
M  V30 48 H -4.527918 -1.930102 0.229434 0
M  V30 49 H -5.599297 -0.650027 -0.549322 0
M  V30 50 H -4.995595 -1.384426 -2.767654 0
M  V30 51 H -4.116522 -6.348845 -2.551423 0
M  V30 52 H -2.970771 -7.759629 -1.213736 0
M  V30 53 H -1.717874 -9.208862 0.269613 0
M  V30 54 H -0.497347 -8.227968 2.221334 0
M  V30 55 H -0.618285 -5.780211 2.567107 0
M  V30 56 H -2.182019 -1.704726 -1.544026 0
M  V30 57 H -2.832789 -0.474584 -2.764315 0
M  V30 58 H -0.198535 -0.981317 -0.403515 0
M  V30 59 H 1.738231 0.434563 -0.469644 0
M  V30 60 H 1.506002 2.227914 3.117883 0
M  V30 61 H 1.196575 0.431020 4.679219 0
M  V30 END ATOM
M  V30 BEGIN BOND
M  V30 1 1 1 2
M  V30 2 2 2 3
M  V30 3 1 3 4
M  V30 4 2 4 5
M  V30 5 1 5 6
M  V30 6 2 6 7
M  V30 7 1 7 8
M  V30 8 1 8 9
M  V30 9 2 9 10
M  V30 10 1 10 11
M  V30 11 2 11 12
M  V30 12 1 12 13
M  V30 13 2 13 14
M  V30 14 1 14 15
M  V30 15 2 15 16
M  V30 16 1 16 17
M  V30 17 2 17 18
M  V30 18 1 18 19
M  V30 19 1 19 20
M  V30 20 1 20 21
M  V30 21 1 21 22
M  V30 22 1 22 23
M  V30 23 2 23 24
M  V30 24 1 24 25
M  V30 25 1 25 26
M  V30 26 1 26 27
M  V30 27 2 27 28
M  V30 28 1 28 29
M  V30 29 2 29 30
M  V30 30 1 30 31
M  V30 31 2 31 32
M  V30 32 2 26 33
M  V30 33 1 22 34
M  V30 34 1 18 35
M  V30 35 2 35 36
M  V30 36 1 5 37
M  V30 37 2 37 38
M  V30 38 1 38 2
M  V30 39 1 14 6
M  V30 40 1 36 15
M  V30 41 1 12 8
M  V30 42 1 34 20
M  V30 43 1 33 23
M  V30 44 1 32 27
M  V30 45 1 3 39
M  V30 46 1 4 40
M  V30 47 1 7 41
M  V30 48 1 9 42
M  V30 49 1 10 43
M  V30 50 1 16 44
M  V30 51 1 17 45
M  V30 52 1 19 46
M  V30 53 1 19 47
M  V30 54 1 21 48
M  V30 55 1 21 49
M  V30 56 1 22 50
M  V30 57 1 25 51
M  V30 58 1 28 52
M  V30 59 1 29 53
M  V30 60 1 30 54
M  V30 61 1 31 55
M  V30 62 1 34 56
M  V30 63 1 34 57
M  V30 64 1 35 58
M  V30 65 1 36 59
M  V30 66 1 37 60
M  V30 67 1 38 61
M  V30 END BOND
M  V30 END CTAB
M  END
>  <Dataset>  (415) 
ChEMBL_Kinases

>  <Ligand_Instance>  (415) 
nan

>  <PDB_ID>  (415) 
nan

>  <Standardized_SMILES>  (415) 
Fc1ccc(-c2cn3ccnc3nc2-c2ccc(CN3CC(c4n[nH]c(-c5ccccn5)n4)C3)cc2)cc1

>  <Name>  (415) 
nan

>  <Pocket>  (415) 
nan

>  <ATP_Site>  (415) 
nan

>  <Peripheral>  (415) 
nan

>  <Num_H_Atoms_ProtBoundConf>  (415) 
nan

>  <Num_Resolved_Atoms>  (415) 
nan

>  <Num_Not_Resolved_Atoms>  (415) 
nan

$$$$
CHEMBL3672033
     RDKit          3D

  0  0  0  0  0  0  0  0  0  0999 V3000
M  V30 BEGIN CTAB
M  V30 COUNTS 67 73 0 0 0
M  V30 BEGIN ATOM
M  V30 1 C 3.448546 -5.717692 6.030847 0
M  V30 2 O 3.643019 -4.501983 5.340301 0
M  V30 3 C 4.559888 -3.537389 5.734615 0
M  V30 4 O 5.199273 -3.855883 6.768146 0
M  V30 5 C 4.750388 -2.283550 5.010349 0
M  V30 6 C 5.667212 -1.333142 5.415759 0
M  V30 7 N 5.581502 -0.309162 4.526375 0
M  V30 8 N 4.657407 -0.600884 3.608001 0
M  V30 9 C 4.206684 0.079499 2.530875 0
M  V30 10 C 3.211871 -0.465373 1.719014 0
M  V30 11 C 2.846708 0.402394 0.605023 0
M  V30 12 C 3.914231 0.625271 -0.239638 0
M  V30 13 C 3.783847 1.426249 -1.365193 0
M  V30 14 C 2.573070 2.017062 -1.658805 0
M  V30 15 F 2.427934 2.801383 -2.752909 0
M  V30 16 C 1.534516 1.775827 -0.800830 0
M  V30 17 C 1.631227 0.989690 0.319059 0
M  V30 18 F 0.662097 0.706778 1.207247 0
M  V30 19 C 2.681015 -1.704650 2.011301 0
M  V30 20 C 1.649628 -2.197560 1.114128 0
M  V30 21 C 0.405320 -2.439053 1.707318 0
M  V30 22 C -0.598531 -2.910280 0.876141 0
M  V30 23 C -0.421571 -3.144213 -0.479527 0
M  V30 24 C -1.631909 -3.652997 -1.194189 0
M  V30 25 N -2.368234 -2.514718 -1.661435 0
M  V30 26 C -1.554442 -1.724629 -2.583873 0
M  V30 27 C -2.877676 -1.311816 -3.234704 0
M  V30 28 C -3.577054 -0.233606 -2.489765 0
M  V30 29 N -3.612766 -0.351517 -1.149914 0
M  V30 30 N -4.260950 0.669006 -0.613802 0
M  V30 31 C -4.661901 1.477707 -1.618004 0
M  V30 32 C -5.409848 2.724413 -1.511904 0
M  V30 33 C -5.774336 3.172317 -0.248666 0
M  V30 34 C -6.484627 4.335135 0.015297 0
M  V30 35 C -6.843480 5.087372 -1.100504 0
M  V30 36 C -6.480982 4.643987 -2.372893 0
M  V30 37 N -5.788904 3.502610 -2.566852 0
M  V30 38 N -4.238114 0.916625 -2.767334 0
M  V30 39 C -3.288291 -2.708444 -2.745823 0
M  V30 40 C 0.810946 -2.900481 -1.045222 0
M  V30 41 C 1.823297 -2.431171 -0.235171 0
M  V30 42 N 3.158300 -2.365719 3.106495 0
M  V30 43 C 4.125945 -1.808019 3.875040 0
M  V30 44 H 2.357465 -5.767366 6.276323 0
M  V30 45 H 4.031979 -5.655969 6.958413 0
M  V30 46 H 3.668513 -6.610412 5.448376 0
M  V30 47 H 6.367046 -1.285960 6.244116 0
M  V30 48 H 4.669289 1.056383 2.355132 0
M  V30 49 H 4.921917 0.228242 -0.135842 0
M  V30 50 H 4.590283 1.632121 -2.058886 0
M  V30 51 H 0.543249 2.212286 -0.970719 0
M  V30 52 H 0.216072 -2.272752 2.758427 0
M  V30 53 H -1.563189 -3.090710 1.368534 0
M  V30 54 H -2.270977 -4.246336 -0.509707 0
M  V30 55 H -1.317445 -4.295132 -2.052320 0
M  V30 56 H -1.032888 -2.407050 -3.307213 0
M  V30 57 H -0.962723 -0.921103 -2.145832 0
M  V30 58 H -2.856285 -1.198253 -4.324307 0
M  V30 59 H -4.431043 0.818384 0.417476 0
M  V30 60 H -5.485466 2.573894 0.599503 0
M  V30 61 H -6.714679 4.588380 1.036701 0
M  V30 62 H -7.397405 5.998451 -0.924639 0
M  V30 63 H -6.764329 5.236739 -3.242859 0
M  V30 64 H -2.980487 -3.424071 -3.531607 0
M  V30 65 H -4.367798 -2.693973 -2.489379 0
M  V30 66 H 0.909242 -3.091641 -2.085484 0
M  V30 67 H 2.800169 -2.233761 -0.663803 0
M  V30 END ATOM
M  V30 BEGIN BOND
M  V30 1 1 1 2
M  V30 2 1 2 3
M  V30 3 2 3 4
M  V30 4 1 3 5
M  V30 5 1 5 6
M  V30 6 2 6 7
M  V30 7 1 7 8
M  V30 8 1 8 9
M  V30 9 2 9 10
M  V30 10 1 10 11
M  V30 11 2 11 12
M  V30 12 1 12 13
M  V30 13 2 13 14
M  V30 14 1 14 15
M  V30 15 1 14 16
M  V30 16 2 16 17
M  V30 17 1 17 18
M  V30 18 1 10 19
M  V30 19 1 19 20
M  V30 20 2 20 21
M  V30 21 1 21 22
M  V30 22 2 22 23
M  V30 23 1 23 24
M  V30 24 1 24 25
M  V30 25 1 25 26
M  V30 26 1 26 27
M  V30 27 1 27 28
M  V30 28 2 28 29
M  V30 29 1 29 30
M  V30 30 1 30 31
M  V30 31 1 31 32
M  V30 32 2 32 33
M  V30 33 1 33 34
M  V30 34 2 34 35
M  V30 35 1 35 36
M  V30 36 2 36 37
M  V30 37 2 31 38
M  V30 38 1 27 39
M  V30 39 1 23 40
M  V30 40 2 40 41
M  V30 41 2 19 42
M  V30 42 1 42 43
M  V30 43 2 43 5
M  V30 44 1 43 8
M  V30 45 1 17 11
M  V30 46 1 41 20
M  V30 47 1 39 25
M  V30 48 1 38 28
M  V30 49 1 37 32
M  V30 50 1 1 44
M  V30 51 1 1 45
M  V30 52 1 1 46
M  V30 53 1 6 47
M  V30 54 1 9 48
M  V30 55 1 12 49
M  V30 56 1 13 50
M  V30 57 1 16 51
M  V30 58 1 21 52
M  V30 59 1 22 53
M  V30 60 1 24 54
M  V30 61 1 24 55
M  V30 62 1 26 56
M  V30 63 1 26 57
M  V30 64 1 27 58
M  V30 65 1 30 59
M  V30 66 1 33 60
M  V30 67 1 34 61
M  V30 68 1 35 62
M  V30 69 1 36 63
M  V30 70 1 39 64
M  V30 71 1 39 65
M  V30 72 1 40 66
M  V30 73 1 41 67
M  V30 END BOND
M  V30 END CTAB
M  END
>  <Dataset>  (416) 
ChEMBL_Kinases

>  <Ligand_Instance>  (416) 
nan

>  <PDB_ID>  (416) 
nan

>  <Standardized_SMILES>  (416) 
COC(=O)c1cnn2cc(-c3ccc(F)cc3F)c(-c3ccc(CN4CC(c5n[nH]c(-c6ccccn6)n5)C4)cc3)nc12

>  <Name>  (416) 
nan

>  <Pocket>  (416) 
nan

>  <ATP_Site>  (416) 
nan

>  <Peripheral>  (416) 
nan

>  <Num_H_Atoms_ProtBoundConf>  (416) 
nan

>  <Num_Resolved_Atoms>  (416) 
nan

>  <Num_Not_Resolved_Atoms>  (416) 
nan

$$$$
CHEMBL4126500
     RDKit          3D

  0  0  0  0  0  0  0  0  0  0999 V3000
M  V30 BEGIN CTAB
M  V30 COUNTS 41 44 0 0 0
M  V30 BEGIN ATOM
M  V30 1 O -1.409770 -5.960718 2.571104 0
M  V30 2 C -0.318341 -5.738469 1.699324 0
M  V30 3 C -0.229613 -4.258812 1.512928 0
M  V30 4 C 0.861623 -3.833833 0.625297 0
M  V30 5 C 1.732340 -4.711032 0.013198 0
M  V30 6 N 2.692432 -4.179713 -0.780192 0
M  V30 7 C 2.766906 -2.835922 -0.944702 0
M  V30 8 C 1.895714 -1.959278 -0.332186 0
M  V30 9 C 2.010486 -0.519756 -0.535805 0
M  V30 10 C 2.925368 0.131235 -1.303259 0
M  V30 11 C 2.950627 1.504476 -1.431559 0
M  V30 12 C 2.013575 2.290039 -0.760291 0
M  V30 13 N 1.798757 3.628707 -0.697968 0
M  V30 14 C 0.749501 3.844808 0.106121 0
M  V30 15 C 0.261603 2.644363 0.582831 0
M  V30 16 C -0.859772 2.378972 1.481419 0
M  V30 17 C -0.593373 2.338490 2.854428 0
M  V30 18 C -1.585131 2.094881 3.785424 0
M  V30 19 C -2.880007 1.884055 3.357680 0
M  V30 20 C -3.154300 1.922137 1.999162 0
M  V30 21 C -2.163054 2.166177 1.060111 0
M  V30 22 F -2.412534 2.207219 -0.273652 0
M  V30 23 C 1.070462 1.657348 0.027810 0
M  V30 24 C 1.086589 0.295119 0.122850 0
M  V30 25 N 0.939950 -2.500452 0.458592 0
M  V30 26 H -2.253380 -5.641125 2.190401 0
M  V30 27 H -0.563936 -6.294085 0.777416 0
M  V30 28 H 0.560271 -6.148182 2.238505 0
M  V30 29 H 0.017786 -3.831471 2.525385 0
M  V30 30 H -1.189061 -3.864610 1.153343 0
M  V30 31 H 1.616974 -5.772339 0.187383 0
M  V30 32 H 3.556853 -2.508693 -1.588799 0
M  V30 33 H 3.648102 -0.485505 -1.820145 0
M  V30 34 H 3.711437 1.962563 -2.063189 0
M  V30 35 H 2.394240 4.312382 -1.218037 0
M  V30 36 H 0.339238 4.822726 0.349915 0
M  V30 37 H 0.400450 2.496229 3.245110 0
M  V30 38 H -1.345297 2.069671 4.849328 0
M  V30 39 H -3.627134 1.697331 4.108106 0
M  V30 40 H -4.185343 1.753875 1.664589 0
M  V30 41 H 0.321594 -0.154859 0.757106 0
M  V30 END ATOM
M  V30 BEGIN BOND
M  V30 1 1 1 2
M  V30 2 1 2 3
M  V30 3 1 3 4
M  V30 4 2 4 5
M  V30 5 1 5 6
M  V30 6 2 6 7
M  V30 7 1 7 8
M  V30 8 1 8 9
M  V30 9 2 9 10
M  V30 10 1 10 11
M  V30 11 2 11 12
M  V30 12 1 12 13
M  V30 13 1 13 14
M  V30 14 2 14 15
M  V30 15 1 15 16
M  V30 16 2 16 17
M  V30 17 1 17 18
M  V30 18 2 18 19
M  V30 19 1 19 20
M  V30 20 2 20 21
M  V30 21 1 21 22
M  V30 22 1 15 23
M  V30 23 2 23 24
M  V30 24 2 8 25
M  V30 25 1 25 4
M  V30 26 1 24 9
M  V30 27 1 23 12
M  V30 28 1 21 16
M  V30 29 1 1 26
M  V30 30 1 2 27
M  V30 31 1 2 28
M  V30 32 1 3 29
M  V30 33 1 3 30
M  V30 34 1 5 31
M  V30 35 1 7 32
M  V30 36 1 10 33
M  V30 37 1 11 34
M  V30 38 1 13 35
M  V30 39 1 14 36
M  V30 40 1 17 37
M  V30 41 1 18 38
M  V30 42 1 19 39
M  V30 43 1 20 40
M  V30 44 1 24 41
M  V30 END BOND
M  V30 END CTAB
M  END
>  <Dataset>  (417) 
ChEMBL_Kinases

>  <Ligand_Instance>  (417) 
nan

>  <PDB_ID>  (417) 
nan

>  <Standardized_SMILES>  (417) 
OCCc1cncc(-c2ccc3[nH]cc(-c4ccccc4F)c3c2)n1

>  <Name>  (417) 
nan

>  <Pocket>  (417) 
nan

>  <ATP_Site>  (417) 
nan

>  <Peripheral>  (417) 
nan

>  <Num_H_Atoms_ProtBoundConf>  (417) 
nan

>  <Num_Resolved_Atoms>  (417) 
nan

>  <Num_Not_Resolved_Atoms>  (417) 
nan

$$$$
CHEMBL3672032
     RDKit          3D

  0  0  0  0  0  0  0  0  0  0999 V3000
M  V30 BEGIN CTAB
M  V30 COUNTS 72 78 0 0 0
M  V30 BEGIN ATOM
M  V30 1 C 1.978231 -2.599521 1.524582 0
M  V30 2 C 2.930374 -2.456781 0.409517 0
M  V30 3 C 4.018764 -3.325100 0.394707 0
M  V30 4 C 4.905526 -3.195250 -0.639355 0
M  V30 5 C 4.685150 -2.223048 -1.608183 0
M  V30 6 C 3.588942 -1.376847 -1.558586 0
M  V30 7 C 3.438050 -0.381051 -2.622364 0
M  V30 8 N 2.457761 0.526133 -2.756231 0
M  V30 9 C 2.626320 1.289509 -3.850175 0
M  V30 10 C 1.785999 2.380074 -4.346130 0
M  V30 11 C 1.434111 3.433131 -3.315075 0
M  V30 12 N 0.084767 3.408329 -3.848064 0
M  V30 13 C -0.986725 3.542246 -2.929273 0
M  V30 14 C -1.112197 2.527462 -1.890475 0
M  V30 15 C -1.902821 1.403346 -2.171362 0
M  V30 16 C -2.076612 0.383505 -1.227536 0
M  V30 17 C -1.443668 0.514428 -0.002280 0
M  V30 18 C -1.719776 -0.621096 0.874917 0
M  V30 19 N -1.405367 -1.904692 0.548215 0
M  V30 20 C -1.670491 -2.933442 1.369370 0
M  V30 21 N -1.435886 -4.242805 1.215211 0
M  V30 22 C -1.887555 -4.860430 2.320087 0
M  V30 23 C -1.898754 -6.293373 2.710052 0
M  V30 24 C -1.011924 -6.531947 3.908195 0
M  V30 25 C -3.310932 -6.790190 2.957210 0
M  V30 26 N -2.397543 -3.907510 3.142838 0
M  V30 27 N -2.261248 -2.713160 2.549723 0
M  V30 28 C -2.619652 -1.473667 2.980064 0
M  V30 29 C -2.331117 -0.421253 2.103923 0
M  V30 30 C -2.702257 0.942306 2.530710 0
M  V30 31 C -2.016756 1.270268 3.695452 0
M  V30 32 C -2.206134 2.521409 4.294168 0
M  V30 33 C -3.085017 3.424787 3.709421 0
M  V30 34 C -3.744863 3.060194 2.554831 0
M  V30 35 C -3.577221 1.844695 1.950538 0
M  V30 36 C -0.663542 1.616545 0.283475 0
M  V30 37 C -0.498754 2.617510 -0.655279 0
M  V30 38 C 0.298579 2.112821 -4.451188 0
M  V30 39 N 3.765919 0.809069 -4.392260 0
M  V30 40 N 4.263717 -0.183114 -3.678668 0
M  V30 41 N 2.721154 -1.509900 -0.539576 0
M  V30 42 H 1.538071 -1.624266 1.847475 0
M  V30 43 H 1.217734 -3.355195 1.261522 0
M  V30 44 H 2.500554 -2.974719 2.447791 0
M  V30 45 H 4.160541 -4.072801 1.167178 0
M  V30 46 H 5.788708 -3.835604 -0.729595 0
M  V30 47 H 5.395763 -2.143076 -2.407144 0
M  V30 48 H 2.225001 2.837613 -5.259187 0
M  V30 49 H 1.919927 4.401752 -3.482701 0
M  V30 50 H 1.570332 3.106444 -2.283505 0
M  V30 51 H -0.921367 4.575355 -2.495028 0
M  V30 52 H -1.934905 3.563566 -3.519238 0
M  V30 53 H -2.388259 1.326820 -3.141152 0
M  V30 54 H -2.701438 -0.436754 -1.537492 0
M  V30 55 H -1.452413 -6.882055 1.880762 0
M  V30 56 H -0.808271 -7.638614 3.949148 0
M  V30 57 H -0.026066 -6.064676 3.666061 0
M  V30 58 H -1.385087 -6.120349 4.845046 0
M  V30 59 H -3.208430 -7.848884 3.298473 0
M  V30 60 H -3.893202 -6.749651 2.022312 0
M  V30 61 H -3.821811 -6.144448 3.700739 0
M  V30 62 H -3.098849 -1.285433 3.934656 0
M  V30 63 H -1.315065 0.669702 4.245344 0
M  V30 64 H -1.699785 2.839867 5.206768 0
M  V30 65 H -3.292130 4.409305 4.101150 0
M  V30 66 H -4.449080 3.720499 2.041912 0
M  V30 67 H -4.025354 1.450252 1.065210 0
M  V30 68 H -0.213518 1.622731 1.267255 0
M  V30 69 H 0.115604 3.473632 -0.412699 0
M  V30 70 H 0.030049 2.056371 -5.534416 0
M  V30 71 H -0.084043 1.234354 -3.938137 0
M  V30 72 H 5.122506 -0.713462 -3.883022 0
M  V30 END ATOM
M  V30 BEGIN BOND
M  V30 1 1 1 2
M  V30 2 2 2 3
M  V30 3 1 3 4
M  V30 4 2 4 5
M  V30 5 1 5 6
M  V30 6 1 6 7
M  V30 7 2 7 8
M  V30 8 1 8 9
M  V30 9 1 9 10
M  V30 10 1 10 11
M  V30 11 1 11 12
M  V30 12 1 12 13
M  V30 13 1 13 14
M  V30 14 2 14 15
M  V30 15 1 15 16
M  V30 16 2 16 17
M  V30 17 1 17 18
M  V30 18 2 18 19
M  V30 19 1 19 20
M  V30 20 2 20 21
M  V30 21 1 21 22
M  V30 22 1 22 23
M  V30 23 1 23 24
M  V30 24 1 23 25
M  V30 25 2 22 26
M  V30 26 1 26 27
M  V30 27 1 27 28
M  V30 28 2 28 29
M  V30 29 1 29 30
M  V30 30 2 30 31
M  V30 31 1 31 32
M  V30 32 2 32 33
M  V30 33 1 33 34
M  V30 34 2 34 35
M  V30 35 1 17 36
M  V30 36 2 36 37
M  V30 37 1 12 38
M  V30 38 2 9 39
M  V30 39 1 39 40
M  V30 40 2 6 41
M  V30 41 1 41 2
M  V30 42 1 40 7
M  V30 43 1 38 10
M  V30 44 1 37 14
M  V30 45 1 29 18
M  V30 46 1 35 30
M  V30 47 1 27 20
M  V30 48 1 1 42
M  V30 49 1 1 43
M  V30 50 1 1 44
M  V30 51 1 3 45
M  V30 52 1 4 46
M  V30 53 1 5 47
M  V30 54 1 10 48
M  V30 55 1 11 49
M  V30 56 1 11 50
M  V30 57 1 13 51
M  V30 58 1 13 52
M  V30 59 1 15 53
M  V30 60 1 16 54
M  V30 61 1 23 55
M  V30 62 1 24 56
M  V30 63 1 24 57
M  V30 64 1 24 58
M  V30 65 1 25 59
M  V30 66 1 25 60
M  V30 67 1 25 61
M  V30 68 1 28 62
M  V30 69 1 31 63
M  V30 70 1 32 64
M  V30 71 1 33 65
M  V30 72 1 34 66
M  V30 73 1 35 67
M  V30 74 1 36 68
M  V30 75 1 37 69
M  V30 76 1 38 70
M  V30 77 1 38 71
M  V30 78 1 40 72
M  V30 END BOND
M  V30 END CTAB
M  END
>  <Dataset>  (418) 
ChEMBL_Kinases

>  <Ligand_Instance>  (418) 
nan

>  <PDB_ID>  (418) 
nan

>  <Standardized_SMILES>  (418) 
Cc1cccc(-c2nc(C3CN(Cc4ccc(-c5nc6nc(C(C)C)nn6cc5-c5ccccc5)cc4)C3)n[nH]2)n1

>  <Name>  (418) 
nan

>  <Pocket>  (418) 
nan

>  <ATP_Site>  (418) 
nan

>  <Peripheral>  (418) 
nan

>  <Num_H_Atoms_ProtBoundConf>  (418) 
nan

>  <Num_Resolved_Atoms>  (418) 
nan

>  <Num_Not_Resolved_Atoms>  (418) 
nan

$$$$
CHEMBL4126445
     RDKit          3D

  0  0  0  0  0  0  0  0  0  0999 V3000
M  V30 BEGIN CTAB
M  V30 COUNTS 49 52 0 0 0
M  V30 BEGIN ATOM
M  V30 1 C 6.500489 -2.926974 -5.057696 0
M  V30 2 C 5.316375 -2.499380 -4.268196 0
M  V30 3 O 4.432762 -3.412038 -4.208066 0
M  V30 4 N 5.224770 -1.205244 -3.665517 0
M  V30 5 C 4.035725 -0.923844 -2.936294 0
M  V30 6 N 2.948044 -0.418497 -3.325515 0
M  V30 7 C 1.945173 -0.236800 -2.473476 0
M  V30 8 C 0.677407 0.363452 -2.976061 0
M  V30 9 C 2.045269 -0.580049 -1.173445 0
M  V30 10 C 1.279501 -0.568076 0.016729 0
M  V30 11 C 1.848368 -1.063488 1.198268 0
M  V30 12 C 1.154759 -1.082605 2.404048 0
M  V30 13 C 1.767255 -1.609711 3.649283 0
M  V30 14 C -0.133359 -0.600848 2.446681 0
M  V30 15 C -0.751051 -0.103607 1.336585 0
M  V30 16 C -0.007105 -0.115984 0.182930 0
M  V30 17 C -2.133676 0.347733 1.661704 0
M  V30 18 N -2.264712 0.066598 3.067525 0
M  V30 19 C -3.438627 0.324917 3.873156 0 CFG=1
M  V30 20 C -3.692462 1.818459 3.864372 0
M  V30 21 C -4.641761 -0.353446 3.298308 0
M  V30 22 C -5.928106 -0.173578 4.027888 0
M  V30 23 C -5.264936 -1.548297 3.863326 0
M  V30 24 C -1.063607 -0.509148 3.565268 0
M  V30 25 O -0.854883 -0.866101 4.742642 0
M  V30 26 S 3.723398 -1.224447 -1.149276 0
M  V30 27 H 6.217416 -3.309066 -6.058464 0
M  V30 28 H 7.211999 -2.078361 -5.166555 0
M  V30 29 H 7.029636 -3.719702 -4.500135 0
M  V30 30 H 6.060950 -0.574950 -3.822638 0
M  V30 31 H 0.697140 0.597877 -4.069541 0
M  V30 32 H 0.453644 1.351376 -2.507549 0
M  V30 33 H -0.148791 -0.376451 -2.884517 0
M  V30 34 H 2.850302 -1.467132 1.287900 0
M  V30 35 H 2.889535 -1.617559 3.589298 0
M  V30 36 H 1.475686 -0.961525 4.503284 0
M  V30 37 H 1.482556 -2.672145 3.852530 0
M  V30 38 H -0.502785 0.273958 -0.668632 0
M  V30 39 H -2.238952 1.434088 1.434565 0
M  V30 40 H -2.825333 -0.251846 1.036104 0
M  V30 41 H -3.245994 0.002685 4.928917 0
M  V30 42 H -4.772058 2.062203 3.940235 0
M  V30 43 H -3.322332 2.288421 2.937656 0
M  V30 44 H -3.182917 2.252879 4.740844 0
M  V30 45 H -4.705461 -0.228951 2.181940 0
M  V30 46 H -6.868144 0.002365 3.466372 0
M  V30 47 H -5.946220 0.257103 5.066173 0
M  V30 48 H -5.782263 -2.260287 3.180465 0
M  V30 49 H -4.959723 -2.011426 4.812176 0
M  V30 END ATOM
M  V30 BEGIN BOND
M  V30 1 1 1 2
M  V30 2 2 2 3
M  V30 3 1 2 4
M  V30 4 1 4 5
M  V30 5 2 5 6
M  V30 6 1 6 7
M  V30 7 1 7 8
M  V30 8 2 7 9
M  V30 9 1 9 10
M  V30 10 2 10 11
M  V30 11 1 11 12
M  V30 12 1 12 13
M  V30 13 2 12 14
M  V30 14 1 14 15
M  V30 15 2 15 16
M  V30 16 1 15 17
M  V30 17 1 17 18
M  V30 18 1 18 19
M  V30 19 1 19 20
M  V30 20 1 19 21
M  V30 21 1 21 22
M  V30 22 1 22 23
M  V30 23 1 18 24
M  V30 24 2 24 25
M  V30 25 1 9 26
M  V30 26 1 26 5
M  V30 27 1 16 10
M  V30 28 1 23 21
M  V30 29 1 24 14
M  V30 30 1 1 27
M  V30 31 1 1 28
M  V30 32 1 1 29
M  V30 33 1 4 30
M  V30 34 1 8 31
M  V30 35 1 8 32
M  V30 36 1 8 33
M  V30 37 1 11 34
M  V30 38 1 13 35
M  V30 39 1 13 36
M  V30 40 1 13 37
M  V30 41 1 16 38
M  V30 42 1 17 39
M  V30 43 1 17 40
M  V30 44 1 19 41 CFG=1
M  V30 45 1 20 42
M  V30 46 1 20 43
M  V30 47 1 20 44
M  V30 48 1 21 45
M  V30 49 1 22 46
M  V30 50 1 22 47
M  V30 51 1 23 48
M  V30 52 1 23 49
M  V30 END BOND
M  V30 END CTAB
M  END
>  <Dataset>  (419) 
ChEMBL_Kinases

>  <Ligand_Instance>  (419) 
nan

>  <PDB_ID>  (419) 
nan

>  <Standardized_SMILES>  (419) 
CC(=O)Nc1nc(C)c(-c2cc(C)c3c(c2)CN([C@@H](C)C2CC2)C3=O)s1

>  <Name>  (419) 
nan

>  <Pocket>  (419) 
nan

>  <ATP_Site>  (419) 
nan

>  <Peripheral>  (419) 
nan

>  <Num_H_Atoms_ProtBoundConf>  (419) 
nan

>  <Num_Resolved_Atoms>  (419) 
nan

>  <Num_Not_Resolved_Atoms>  (419) 
nan

$$$$
CHEMBL4202593
     RDKit          3D

  0  0  0  0  0  0  0  0  0  0999 V3000
M  V30 BEGIN CTAB
M  V30 COUNTS 56 60 0 0 0
M  V30 BEGIN ATOM
M  V30 1 C 6.604563 -3.360452 1.388890 0
M  V30 2 N 5.693073 -2.789136 0.409482 0
M  V30 3 C 4.446395 -3.508518 0.463546 0
M  V30 4 C 3.471654 -3.076383 -0.580982 0
M  V30 5 N 4.031590 -2.021929 -1.402383 0
M  V30 6 C 3.698871 -0.658992 -1.731883 0
M  V30 7 O 4.309138 0.139116 -2.486111 0
M  V30 8 C 2.476081 -0.283804 -1.033162 0
M  V30 9 C 2.775460 0.574071 0.035232 0
M  V30 10 C 1.740287 1.059694 0.846036 0
M  V30 11 C 0.429516 0.705581 0.607945 0
M  V30 12 C -0.612329 1.235406 1.476319 0
M  V30 13 C -1.952570 0.950199 1.331007 0
M  V30 14 N -2.830646 1.516320 2.215966 0
M  V30 15 C -4.167600 1.360545 2.234563 0
M  V30 16 C -5.094312 0.607895 1.405383 0
M  V30 17 C -4.874073 -0.699171 1.027327 0
M  V30 18 C -5.809599 -1.320743 0.237788 0
M  V30 19 C -6.960049 -0.692203 -0.192716 0
M  V30 20 C -7.997072 -1.359174 -1.060675 0
M  V30 21 F -7.370625 -1.629759 -2.271460 0
M  V30 22 F -8.498185 -2.494955 -0.470070 0
M  V30 23 C -7.176497 0.619306 0.190287 0
M  V30 24 C -6.248036 1.263188 0.984242 0
M  V30 25 C -4.637720 2.125497 3.308317 0
M  V30 26 N -3.569182 2.702395 3.882322 0
M  V30 27 C -2.459768 2.333366 3.217980 0
M  V30 28 C -1.118439 2.609564 3.351797 0
M  V30 29 N -0.258203 2.054017 2.482735 0
M  V30 30 C 0.163818 -0.138441 -0.448021 0
M  V30 31 C 1.161583 -0.630825 -1.261180 0
M  V30 32 C 5.241667 -2.606418 -1.990460 0
M  V30 33 C 6.287720 -2.830991 -0.917025 0
M  V30 34 H 6.021742 -3.821328 2.198425 0
M  V30 35 H 7.145021 -4.191673 0.866779 0
M  V30 36 H 7.318938 -2.571267 1.734160 0
M  V30 37 H 4.632426 -4.605333 0.417698 0
M  V30 38 H 3.992820 -3.342168 1.465599 0
M  V30 39 H 3.192010 -3.966439 -1.183347 0
M  V30 40 H 2.533347 -2.693737 -0.081894 0
M  V30 41 H 3.768634 0.929841 0.328396 0
M  V30 42 H 1.968628 1.732153 1.686876 0
M  V30 43 H -2.281596 0.302199 0.541135 0
M  V30 44 H -3.964502 -1.218952 1.357979 0
M  V30 45 H -5.631783 -2.345648 -0.055789 0
M  V30 46 H -8.805239 -0.659182 -1.287543 0
M  V30 47 H -8.078757 1.133826 -0.138850 0
M  V30 48 H -6.419362 2.294765 1.283946 0
M  V30 49 H -5.605315 2.336533 3.741209 0
M  V30 50 H -0.786570 3.261117 4.144775 0
M  V30 51 H -0.842033 -0.445483 -0.676499 0
M  V30 52 H 1.062544 -1.285563 -2.097062 0
M  V30 53 H 5.674192 -1.902849 -2.727499 0
M  V30 54 H 5.030849 -3.535705 -2.553802 0
M  V30 55 H 6.696440 -3.849506 -1.068902 0
M  V30 56 H 7.104563 -2.115730 -1.023981 0
M  V30 END ATOM
M  V30 BEGIN BOND
M  V30 1 1 1 2
M  V30 2 1 2 3
M  V30 3 1 3 4
M  V30 4 1 4 5
M  V30 5 1 5 6
M  V30 6 2 6 7
M  V30 7 1 6 8
M  V30 8 2 8 9
M  V30 9 1 9 10
M  V30 10 2 10 11
M  V30 11 1 11 12
M  V30 12 2 12 13
M  V30 13 1 13 14
M  V30 14 1 14 15
M  V30 15 1 15 16
M  V30 16 2 16 17
M  V30 17 1 17 18
M  V30 18 2 18 19
M  V30 19 1 19 20
M  V30 20 1 20 21
M  V30 21 1 20 22
M  V30 22 1 19 23
M  V30 23 2 23 24
M  V30 24 2 15 25
M  V30 25 1 25 26
M  V30 26 2 26 27
M  V30 27 1 27 28
M  V30 28 2 28 29
M  V30 29 1 11 30
M  V30 30 2 30 31
M  V30 31 1 5 32
M  V30 32 1 32 33
M  V30 33 1 33 2
M  V30 34 1 31 8
M  V30 35 1 29 12
M  V30 36 1 27 14
M  V30 37 1 24 16
M  V30 38 1 1 34
M  V30 39 1 1 35
M  V30 40 1 1 36
M  V30 41 1 3 37
M  V30 42 1 3 38
M  V30 43 1 4 39
M  V30 44 1 4 40
M  V30 45 1 9 41
M  V30 46 1 10 42
M  V30 47 1 13 43
M  V30 48 1 17 44
M  V30 49 1 18 45
M  V30 50 1 20 46
M  V30 51 1 23 47
M  V30 52 1 24 48
M  V30 53 1 25 49
M  V30 54 1 28 50
M  V30 55 1 30 51
M  V30 56 1 31 52
M  V30 57 1 32 53
M  V30 58 1 32 54
M  V30 59 1 33 55
M  V30 60 1 33 56
M  V30 END BOND
M  V30 END CTAB
M  END
>  <Dataset>  (420) 
ChEMBL_Kinases

>  <Ligand_Instance>  (420) 
nan

>  <PDB_ID>  (420) 
nan

>  <Standardized_SMILES>  (420) 
CN1CCN(C(=O)c2ccc(-c3cn4c(-c5ccc(C(F)F)cc5)cnc4cn3)cc2)CC1

>  <Name>  (420) 
nan

>  <Pocket>  (420) 
nan

>  <ATP_Site>  (420) 
nan

>  <Peripheral>  (420) 
nan

>  <Num_H_Atoms_ProtBoundConf>  (420) 
nan

>  <Num_Resolved_Atoms>  (420) 
nan

>  <Num_Not_Resolved_Atoms>  (420) 
nan

$$$$
CHEMBL3672030
     RDKit          3D

  0  0  0  0  0  0  0  0  0  0999 V3000
M  V30 BEGIN CTAB
M  V30 COUNTS 69 75 0 0 0
M  V30 BEGIN ATOM
M  V30 1 C 5.710132 0.820489 6.769905 0
M  V30 2 C 4.795897 -0.155243 6.075897 0
M  V30 3 C 5.368067 -1.576878 6.188647 0
M  V30 4 C 4.540798 0.177494 4.658956 0
M  V30 5 N 3.258894 0.120324 4.192705 0
M  V30 6 C 3.239780 0.458306 2.905982 0
M  V30 7 N 2.255135 0.560509 1.991245 0
M  V30 8 C 2.501080 0.933797 0.709782 0
M  V30 9 C 1.291043 0.974244 -0.099150 0
M  V30 10 C 1.213337 0.159031 -1.194871 0
M  V30 11 C 0.081137 0.140459 -2.011038 0
M  V30 12 C -0.998298 0.959405 -1.720276 0
M  V30 13 C -2.165999 0.895574 -2.633230 0
M  V30 14 N -3.105324 -0.126113 -2.216324 0
M  V30 15 C -4.279136 -0.244643 -3.056864 0
M  V30 16 C -5.193053 -0.261414 -1.838731 0
M  V30 17 C -5.481621 -1.630999 -1.331552 0
M  V30 18 N -4.381918 -2.440050 -1.256275 0
M  V30 19 N -4.731270 -3.639681 -0.796669 0
M  V30 20 C -6.059128 -3.608404 -0.573259 0
M  V30 21 C -6.880584 -4.700545 -0.071210 0
M  V30 22 C -6.310024 -5.923630 0.224486 0
M  V30 23 C -6.948732 -7.047180 0.700887 0
M  V30 24 C -8.325554 -6.933270 0.906417 0
M  V30 25 C -8.911111 -5.700624 0.610527 0
M  V30 26 N -8.210495 -4.659359 0.149911 0
M  V30 27 N -6.500251 -2.392021 -0.899434 0
M  V30 28 C -3.980227 0.406994 -1.193276 0
M  V30 29 C -0.906976 1.775967 -0.612575 0
M  V30 30 C 0.209200 1.809990 0.212193 0
M  V30 31 C 3.784170 1.206473 0.366845 0
M  V30 32 C 3.992588 1.602512 -1.018850 0
M  V30 33 C 3.453069 2.710894 -1.653378 0
M  V30 34 C 3.719559 3.002666 -2.974970 0
M  V30 35 C 4.558776 2.167996 -3.720994 0
M  V30 36 C 5.090950 1.067585 -3.083533 0
M  V30 37 C 4.834460 0.760834 -1.760625 0
M  V30 38 C 4.799123 1.106799 1.288497 0
M  V30 39 N 4.518054 0.728854 2.567160 0
M  V30 40 N 5.307217 0.558789 3.628141 0
M  V30 41 H 5.859961 0.417573 7.809994 0
M  V30 42 H 6.681514 0.926904 6.245062 0
M  V30 43 H 5.242516 1.814746 6.891244 0
M  V30 44 H 3.847810 -0.206669 6.664550 0
M  V30 45 H 6.023994 -1.814691 5.331283 0
M  V30 46 H 4.540706 -2.312120 6.303712 0
M  V30 47 H 5.974103 -1.606931 7.108847 0
M  V30 48 H 2.051905 -0.491077 -1.440022 0
M  V30 49 H 0.098863 -0.535151 -2.861647 0
M  V30 50 H -1.824910 0.574964 -3.656828 0
M  V30 51 H -2.720719 1.853962 -2.685290 0
M  V30 52 H -4.307015 -1.244710 -3.543076 0
M  V30 53 H -4.474788 0.597514 -3.748873 0
M  V30 54 H -6.074544 0.394623 -1.921049 0
M  V30 55 H -4.087831 -4.447127 -0.643104 0
M  V30 56 H -5.244274 -6.043072 0.076604 0
M  V30 57 H -6.429668 -7.959382 0.903562 0
M  V30 58 H -8.882401 -7.768714 1.275291 0
M  V30 59 H -9.981983 -5.635592 0.780203 0
M  V30 60 H -4.140359 1.503813 -1.199500 0
M  V30 61 H -3.863986 -0.054978 -0.189593 0
M  V30 62 H -1.765682 2.419968 -0.389841 0
M  V30 63 H 0.261705 2.457530 1.073117 0
M  V30 64 H 2.812579 3.316227 -1.025117 0
M  V30 65 H 3.264478 3.875590 -3.387267 0
M  V30 66 H 4.736089 2.437686 -4.748542 0
M  V30 67 H 5.734641 0.462392 -3.727631 0
M  V30 68 H 5.326970 -0.134016 -1.407217 0
M  V30 69 H 5.796397 1.329026 0.984357 0
M  V30 END ATOM
M  V30 BEGIN BOND
M  V30 1 1 1 2
M  V30 2 1 2 3
M  V30 3 1 2 4
M  V30 4 1 4 5
M  V30 5 2 5 6
M  V30 6 1 6 7
M  V30 7 2 7 8
M  V30 8 1 8 9
M  V30 9 2 9 10
M  V30 10 1 10 11
M  V30 11 2 11 12
M  V30 12 1 12 13
M  V30 13 1 13 14
M  V30 14 1 14 15
M  V30 15 1 15 16
M  V30 16 1 16 17
M  V30 17 2 17 18
M  V30 18 1 18 19
M  V30 19 1 19 20
M  V30 20 1 20 21
M  V30 21 2 21 22
M  V30 22 1 22 23
M  V30 23 2 23 24
M  V30 24 1 24 25
M  V30 25 2 25 26
M  V30 26 2 20 27
M  V30 27 1 16 28
M  V30 28 1 12 29
M  V30 29 2 29 30
M  V30 30 1 8 31
M  V30 31 1 31 32
M  V30 32 2 32 33
M  V30 33 1 33 34
M  V30 34 2 34 35
M  V30 35 1 35 36
M  V30 36 2 36 37
M  V30 37 2 31 38
M  V30 38 1 38 39
M  V30 39 1 39 40
M  V30 40 2 40 4
M  V30 41 1 39 6
M  V30 42 1 30 9
M  V30 43 1 37 32
M  V30 44 1 28 14
M  V30 45 1 27 17
M  V30 46 1 26 21
M  V30 47 1 1 41
M  V30 48 1 1 42
M  V30 49 1 1 43
M  V30 50 1 2 44
M  V30 51 1 3 45
M  V30 52 1 3 46
M  V30 53 1 3 47
M  V30 54 1 10 48
M  V30 55 1 11 49
M  V30 56 1 13 50
M  V30 57 1 13 51
M  V30 58 1 15 52
M  V30 59 1 15 53
M  V30 60 1 16 54
M  V30 61 1 19 55
M  V30 62 1 22 56
M  V30 63 1 23 57
M  V30 64 1 24 58
M  V30 65 1 25 59
M  V30 66 1 28 60
M  V30 67 1 28 61
M  V30 68 1 29 62
M  V30 69 1 30 63
M  V30 70 1 33 64
M  V30 71 1 34 65
M  V30 72 1 35 66
M  V30 73 1 36 67
M  V30 74 1 37 68
M  V30 75 1 38 69
M  V30 END BOND
M  V30 END CTAB
M  END
>  <Dataset>  (421) 
ChEMBL_Kinases

>  <Ligand_Instance>  (421) 
nan

>  <PDB_ID>  (421) 
nan

>  <Standardized_SMILES>  (421) 
CC(C)c1nc2nc(-c3ccc(CN4CC(c5n[nH]c(-c6ccccn6)n5)C4)cc3)c(-c3ccccc3)cn2n1

>  <Name>  (421) 
nan

>  <Pocket>  (421) 
nan

>  <ATP_Site>  (421) 
nan

>  <Peripheral>  (421) 
nan

>  <Num_H_Atoms_ProtBoundConf>  (421) 
nan

>  <Num_Resolved_Atoms>  (421) 
nan

>  <Num_Not_Resolved_Atoms>  (421) 
nan

$$$$
CHEMBL4126300
     RDKit          3D

  0  0  0  0  0  0  0  0  0  0999 V3000
M  V30 BEGIN CTAB
M  V30 COUNTS 39 41 0 0 0
M  V30 BEGIN ATOM
M  V30 1 C 1.192168 -5.808358 -1.512309 0
M  V30 2 O 1.139866 -4.421037 -1.412686 0
M  V30 3 C 1.838849 -3.749670 -0.436877 0
M  V30 4 C 2.665594 -4.192625 0.567152 0
M  V30 5 C 3.302225 -3.382572 1.479998 0
M  V30 6 C 3.073219 -2.039544 1.348153 0
M  V30 7 C 2.268921 -1.521774 0.380907 0
M  V30 8 C 1.637390 -2.363409 -0.527023 0
M  V30 9 N 0.825053 -1.648605 -1.466380 0
M  V30 10 C 0.664188 -0.233040 -1.516617 0
M  V30 11 N 1.045875 0.650545 -2.454705 0
M  V30 12 C 0.798405 1.962891 -2.290163 0
M  V30 13 C 0.148171 2.379214 -1.142530 0
M  V30 14 C -0.257555 1.499684 -0.157526 0
M  V30 15 C -0.928655 1.854178 1.080193 0
M  V30 16 C -1.217327 0.784856 1.932565 0
M  V30 17 C -1.851899 0.982282 3.146783 0
M  V30 18 C -2.183102 2.293664 3.466193 0
M  V30 19 C -2.850594 2.450955 4.759909 0
M  V30 20 O -3.245147 3.540742 5.270074 0
M  V30 21 O -3.195996 1.511722 5.693092 0
M  V30 22 C -1.938108 3.397469 2.691191 0
M  V30 23 C -1.293443 3.109540 1.480571 0
M  V30 24 N 0.036126 0.215078 -0.419656 0
M  V30 25 H 1.955304 -6.288342 -0.876223 0
M  V30 26 H 0.200634 -6.235747 -1.186016 0
M  V30 27 H 1.366562 -6.096188 -2.590614 0
M  V30 28 H 2.793922 -5.259671 0.609019 0
M  V30 29 H 3.928498 -3.881068 2.225447 0
M  V30 30 H 3.583758 -1.407426 2.081166 0
M  V30 31 H 2.184143 -0.425093 0.397792 0
M  V30 32 H 0.234949 -2.018492 -2.246563 0
M  V30 33 H 1.116597 2.645375 -3.059903 0
M  V30 34 H -0.065675 3.433681 -0.986803 0
M  V30 35 H -0.966667 -0.255918 1.697251 0
M  V30 36 H -2.066879 0.138839 3.791194 0
M  V30 37 H -4.081638 1.407773 6.153966 0
M  V30 38 H -2.203455 4.392535 2.959541 0
M  V30 39 H -1.067314 3.936753 0.816550 0
M  V30 END ATOM
M  V30 BEGIN BOND
M  V30 1 1 1 2
M  V30 2 1 2 3
M  V30 3 2 3 4
M  V30 4 1 4 5
M  V30 5 2 5 6
M  V30 6 1 6 7
M  V30 7 2 7 8
M  V30 8 1 8 9
M  V30 9 1 9 10
M  V30 10 2 10 11
M  V30 11 1 11 12
M  V30 12 2 12 13
M  V30 13 1 13 14
M  V30 14 1 14 15
M  V30 15 2 15 16
M  V30 16 1 16 17
M  V30 17 2 17 18
M  V30 18 1 18 19
M  V30 19 2 19 20
M  V30 20 1 19 21
M  V30 21 1 18 22
M  V30 22 2 22 23
M  V30 23 2 14 24
M  V30 24 1 8 3
M  V30 25 1 24 10
M  V30 26 1 23 15
M  V30 27 1 1 25
M  V30 28 1 1 26
M  V30 29 1 1 27
M  V30 30 1 4 28
M  V30 31 1 5 29
M  V30 32 1 6 30
M  V30 33 1 7 31
M  V30 34 1 9 32
M  V30 35 1 12 33
M  V30 36 1 13 34
M  V30 37 1 16 35
M  V30 38 1 17 36
M  V30 39 1 21 37
M  V30 40 1 22 38
M  V30 41 1 23 39
M  V30 END BOND
M  V30 END CTAB
M  END
>  <Dataset>  (422) 
ChEMBL_Kinases

>  <Ligand_Instance>  (422) 
nan

>  <PDB_ID>  (422) 
nan

>  <Standardized_SMILES>  (422) 
COc1ccccc1Nc1nccc(-c2ccc(C(=O)O)cc2)n1

>  <Name>  (422) 
nan

>  <Pocket>  (422) 
nan

>  <ATP_Site>  (422) 
nan

>  <Peripheral>  (422) 
nan

>  <Num_H_Atoms_ProtBoundConf>  (422) 
nan

>  <Num_Resolved_Atoms>  (422) 
nan

>  <Num_Not_Resolved_Atoms>  (422) 
nan

$$$$
CHEMBL3672029
     RDKit          3D

  0  0  0  0  0  0  0  0  0  0999 V3000
M  V30 BEGIN CTAB
M  V30 COUNTS 67 73 0 0 0
M  V30 BEGIN ATOM
M  V30 1 C 3.941555 -6.552947 5.113839 0
M  V30 2 O 4.302868 -5.339913 4.493601 0
M  V30 3 C 5.490190 -4.668940 4.760591 0
M  V30 4 O 6.247776 -5.231652 5.619872 0
M  V30 5 C 5.837040 -3.412710 4.101317 0
M  V30 6 C 7.009523 -2.729914 4.349782 0
M  V30 7 N 6.999471 -1.631809 3.579512 0
M  V30 8 N 5.886431 -1.582292 2.858252 0
M  V30 9 C 5.367759 -0.730866 1.945856 0
M  V30 10 C 4.129634 -0.958369 1.340165 0
M  V30 11 C 3.802868 0.106944 0.397190 0
M  V30 12 C 4.711429 0.210736 -0.648871 0
M  V30 13 F 5.801963 -0.584104 -0.805434 0
M  V30 14 C 4.561961 1.166500 -1.639737 0
M  V30 15 C 3.502903 2.050170 -1.621364 0
M  V30 16 C 2.624532 1.929975 -0.586300 0
M  V30 17 C 2.746011 0.993417 0.409995 0
M  V30 18 F 1.908934 0.824692 1.462079 0
M  V30 19 C 3.411563 -2.086718 1.682076 0
M  V30 20 C 2.154871 -2.208163 0.990528 0
M  V30 21 C 0.988903 -2.223902 1.749878 0
M  V30 22 C -0.246039 -2.338410 1.141865 0
M  V30 23 C -0.412655 -2.441638 -0.208357 0
M  V30 24 C -1.694691 -2.563843 -0.925107 0
M  V30 25 N -2.214769 -1.279679 -1.282895 0
M  V30 26 C -3.478068 -1.259384 -2.000415 0
M  V30 27 C -4.161754 -1.294472 -0.669153 0
M  V30 28 C -5.391472 -0.463180 -0.578711 0
M  V30 29 N -6.669675 -0.545355 -0.147804 0
M  V30 30 N -7.280476 0.600760 -0.364379 0
M  V30 31 C -6.428404 1.459266 -0.938137 0
M  V30 32 C -6.664265 2.856101 -1.362042 0
M  V30 33 C -7.883827 3.452089 -1.191163 0
M  V30 34 C -8.117259 4.769688 -1.587197 0
M  V30 35 C -7.058325 5.453738 -2.163683 0
M  V30 36 C -5.839321 4.829328 -2.324292 0
M  V30 37 N -5.640038 3.553864 -1.932480 0
M  V30 38 N -5.289251 0.789221 -1.057213 0
M  V30 39 C -2.902965 -0.552518 -0.231801 0
M  V30 40 C 0.776434 -2.423138 -0.946704 0
M  V30 41 C 2.020734 -2.310688 -0.375587 0
M  V30 42 N 3.932875 -2.932031 2.591832 0
M  V30 43 C 5.139551 -2.677573 3.159426 0
M  V30 44 H 4.570445 -6.758808 6.010650 0
M  V30 45 H 2.907955 -6.433147 5.508033 0
M  V30 46 H 3.945888 -7.428837 4.462615 0
M  V30 47 H 7.848461 -2.928516 5.005714 0
M  V30 48 H 6.029466 0.126212 1.757816 0
M  V30 49 H 5.270457 1.264809 -2.476103 0
M  V30 50 H 3.323496 2.811765 -2.349889 0
M  V30 51 H 1.774250 2.595599 -0.519330 0
M  V30 52 H 1.058324 -2.144202 2.843183 0
M  V30 53 H -1.121284 -2.347806 1.757440 0
M  V30 54 H -2.424507 -3.204592 -0.389918 0
M  V30 55 H -1.491940 -3.117963 -1.877835 0
M  V30 56 H -3.598013 -0.241350 -2.458572 0
M  V30 57 H -3.667746 -2.107890 -2.681439 0
M  V30 58 H -4.260960 -2.315263 -0.273952 0
M  V30 59 H -8.276128 0.795495 -0.120859 0
M  V30 60 H -8.714763 2.925092 -0.742153 0
M  V30 61 H -9.063187 5.274232 -1.469674 0
M  V30 62 H -7.118160 6.486589 -2.512807 0
M  V30 63 H -4.937810 5.244464 -2.755252 0
M  V30 64 H -2.993152 0.509178 -0.550610 0
M  V30 65 H -2.594598 -0.724597 0.793749 0
M  V30 66 H 0.707785 -2.501939 -2.022865 0
M  V30 67 H 2.911954 -2.301018 -0.991993 0
M  V30 END ATOM
M  V30 BEGIN BOND
M  V30 1 1 1 2
M  V30 2 1 2 3
M  V30 3 2 3 4
M  V30 4 1 3 5
M  V30 5 1 5 6
M  V30 6 2 6 7
M  V30 7 1 7 8
M  V30 8 1 8 9
M  V30 9 2 9 10
M  V30 10 1 10 11
M  V30 11 2 11 12
M  V30 12 1 12 13
M  V30 13 1 12 14
M  V30 14 2 14 15
M  V30 15 1 15 16
M  V30 16 2 16 17
M  V30 17 1 17 18
M  V30 18 1 10 19
M  V30 19 1 19 20
M  V30 20 2 20 21
M  V30 21 1 21 22
M  V30 22 2 22 23
M  V30 23 1 23 24
M  V30 24 1 24 25
M  V30 25 1 25 26
M  V30 26 1 26 27
M  V30 27 1 27 28
M  V30 28 2 28 29
M  V30 29 1 29 30
M  V30 30 1 30 31
M  V30 31 1 31 32
M  V30 32 2 32 33
M  V30 33 1 33 34
M  V30 34 2 34 35
M  V30 35 1 35 36
M  V30 36 2 36 37
M  V30 37 2 31 38
M  V30 38 1 27 39
M  V30 39 1 23 40
M  V30 40 2 40 41
M  V30 41 2 19 42
M  V30 42 1 42 43
M  V30 43 2 43 5
M  V30 44 1 43 8
M  V30 45 1 17 11
M  V30 46 1 41 20
M  V30 47 1 39 25
M  V30 48 1 38 28
M  V30 49 1 37 32
M  V30 50 1 1 44
M  V30 51 1 1 45
M  V30 52 1 1 46
M  V30 53 1 6 47
M  V30 54 1 9 48
M  V30 55 1 14 49
M  V30 56 1 15 50
M  V30 57 1 16 51
M  V30 58 1 21 52
M  V30 59 1 22 53
M  V30 60 1 24 54
M  V30 61 1 24 55
M  V30 62 1 26 56
M  V30 63 1 26 57
M  V30 64 1 27 58
M  V30 65 1 30 59
M  V30 66 1 33 60
M  V30 67 1 34 61
M  V30 68 1 35 62
M  V30 69 1 36 63
M  V30 70 1 39 64
M  V30 71 1 39 65
M  V30 72 1 40 66
M  V30 73 1 41 67
M  V30 END BOND
M  V30 END CTAB
M  END
>  <Dataset>  (423) 
ChEMBL_Kinases

>  <Ligand_Instance>  (423) 
nan

>  <PDB_ID>  (423) 
nan

>  <Standardized_SMILES>  (423) 
COC(=O)c1cnn2cc(-c3c(F)cccc3F)c(-c3ccc(CN4CC(c5n[nH]c(-c6ccccn6)n5)C4)cc3)nc12

>  <Name>  (423) 
nan

>  <Pocket>  (423) 
nan

>  <ATP_Site>  (423) 
nan

>  <Peripheral>  (423) 
nan

>  <Num_H_Atoms_ProtBoundConf>  (423) 
nan

>  <Num_Resolved_Atoms>  (423) 
nan

>  <Num_Not_Resolved_Atoms>  (423) 
nan

$$$$
CHEMBL3672028
     RDKit          3D

  0  0  0  0  0  0  0  0  0  0999 V3000
M  V30 BEGIN CTAB
M  V30 COUNTS 70 76 0 0 0
M  V30 BEGIN ATOM
M  V30 1 C 3.275060 -2.138286 5.806830 0
M  V30 2 O 3.585671 -1.046932 4.966669 0
M  V30 3 C 3.005248 -0.890145 3.727425 0
M  V30 4 O 2.174311 -1.737409 3.324350 0
M  V30 5 C 3.364892 0.260922 2.898296 0
M  V30 6 C 4.250827 1.252784 3.215617 0
M  V30 7 N 4.282555 2.116846 2.167051 0
M  V30 8 N 3.460026 1.679130 1.254327 0
M  V30 9 C 3.130758 2.177533 0.026667 0
M  V30 10 C 2.214660 1.563346 -0.828834 0
M  V30 11 C 1.930474 2.176700 -2.121751 0
M  V30 12 C 2.164269 1.691062 -3.390301 0
M  V30 13 F 2.744799 0.470629 -3.408945 0
M  V30 14 C 1.811706 2.441060 -4.491949 0
M  V30 15 C 1.222598 3.682976 -4.391503 0
M  V30 16 C 0.985949 4.174592 -3.125954 0
M  V30 17 C 1.336755 3.428116 -2.000571 0
M  V30 18 F 1.045066 4.036360 -0.805151 0
M  V30 19 C 1.622387 0.392606 -0.392141 0
M  V30 20 C 0.660634 -0.283750 -1.258831 0
M  V30 21 C -0.539361 0.222359 -1.716673 0
M  V30 22 C -1.353170 -0.533039 -2.534908 0
M  V30 23 C -1.028867 -1.811539 -2.938777 0
M  V30 24 C -1.807790 -2.694782 -3.800442 0
M  V30 25 N -2.743820 -3.555107 -3.166439 0
M  V30 26 C -3.821139 -2.939345 -2.412964 0
M  V30 27 C -3.691484 -4.076323 -1.417168 0
M  V30 28 C -3.727285 -3.661498 -0.001416 0
M  V30 29 N -4.457275 -4.276775 0.938301 0
M  V30 30 N -4.233881 -3.620677 2.065218 0
M  V30 31 C -3.384234 -2.601657 1.887374 0
M  V30 32 C -2.923029 -1.678735 2.893583 0
M  V30 33 C -3.356692 -1.790109 4.190201 0
M  V30 34 C -2.958834 -0.942651 5.199079 0
M  V30 35 C -2.078628 0.049530 4.827292 0
M  V30 36 C -1.646067 0.150828 3.505328 0
M  V30 37 C -0.699955 1.232457 3.150767 0
M  V30 38 N -2.061733 -0.702339 2.546336 0
M  V30 39 N -3.059469 -2.623853 0.575296 0
M  V30 40 C -2.303308 -4.290482 -1.996443 0
M  V30 41 C 0.196962 -2.283663 -2.450103 0
M  V30 42 C 1.038145 -1.559956 -1.630790 0
M  V30 43 N 1.949117 -0.098392 0.821719 0
M  V30 44 C 2.843086 0.522121 1.629604 0
M  V30 45 H 4.148772 -2.822790 5.963847 0
M  V30 46 H 2.380883 -2.697067 5.473439 0
M  V30 47 H 3.026217 -1.698964 6.805420 0
M  V30 48 H 4.785083 1.264727 4.156929 0
M  V30 49 H 3.604061 3.100399 -0.306700 0
M  V30 50 H 2.022251 2.002308 -5.458672 0
M  V30 51 H 0.979884 4.200432 -5.311561 0
M  V30 52 H 0.522969 5.150250 -3.035531 0
M  V30 53 H -0.783426 1.218041 -1.396897 0
M  V30 54 H -2.291911 -0.139905 -2.895425 0
M  V30 55 H -1.091792 -3.349127 -4.368086 0
M  V30 56 H -2.361042 -2.101084 -4.557933 0
M  V30 57 H -4.810345 -2.983622 -2.915435 0
M  V30 58 H -3.602446 -1.946464 -2.023946 0
M  V30 59 H -4.375145 -4.938025 -1.578171 0
M  V30 60 H -4.685886 -3.899694 2.955360 0
M  V30 61 H -4.058302 -2.583000 4.481383 0
M  V30 62 H -3.312001 -1.046360 6.215061 0
M  V30 63 H -1.736602 0.742274 5.588314 0
M  V30 64 H -0.850842 1.626796 2.126172 0
M  V30 65 H -0.857910 2.071711 3.865197 0
M  V30 66 H 0.350268 0.863587 3.182377 0
M  V30 67 H -2.151070 -5.365225 -2.221750 0
M  V30 68 H -1.479251 -3.863668 -1.417624 0
M  V30 69 H 0.514293 -3.298706 -2.736247 0
M  V30 70 H 1.975131 -2.025661 -1.306290 0
M  V30 END ATOM
M  V30 BEGIN BOND
M  V30 1 1 1 2
M  V30 2 1 2 3
M  V30 3 2 3 4
M  V30 4 1 3 5
M  V30 5 1 5 6
M  V30 6 2 6 7
M  V30 7 1 7 8
M  V30 8 1 8 9
M  V30 9 2 9 10
M  V30 10 1 10 11
M  V30 11 2 11 12
M  V30 12 1 12 13
M  V30 13 1 12 14
M  V30 14 2 14 15
M  V30 15 1 15 16
M  V30 16 2 16 17
M  V30 17 1 17 18
M  V30 18 1 10 19
M  V30 19 1 19 20
M  V30 20 2 20 21
M  V30 21 1 21 22
M  V30 22 2 22 23
M  V30 23 1 23 24
M  V30 24 1 24 25
M  V30 25 1 25 26
M  V30 26 1 26 27
M  V30 27 1 27 28
M  V30 28 2 28 29
M  V30 29 1 29 30
M  V30 30 1 30 31
M  V30 31 1 31 32
M  V30 32 2 32 33
M  V30 33 1 33 34
M  V30 34 2 34 35
M  V30 35 1 35 36
M  V30 36 1 36 37
M  V30 37 2 36 38
M  V30 38 2 31 39
M  V30 39 1 27 40
M  V30 40 1 23 41
M  V30 41 2 41 42
M  V30 42 2 19 43
M  V30 43 1 43 44
M  V30 44 2 44 5
M  V30 45 1 44 8
M  V30 46 1 17 11
M  V30 47 1 42 20
M  V30 48 1 40 25
M  V30 49 1 39 28
M  V30 50 1 38 32
M  V30 51 1 1 45
M  V30 52 1 1 46
M  V30 53 1 1 47
M  V30 54 1 6 48
M  V30 55 1 9 49
M  V30 56 1 14 50
M  V30 57 1 15 51
M  V30 58 1 16 52
M  V30 59 1 21 53
M  V30 60 1 22 54
M  V30 61 1 24 55
M  V30 62 1 24 56
M  V30 63 1 26 57
M  V30 64 1 26 58
M  V30 65 1 27 59
M  V30 66 1 30 60
M  V30 67 1 33 61
M  V30 68 1 34 62
M  V30 69 1 35 63
M  V30 70 1 37 64
M  V30 71 1 37 65
M  V30 72 1 37 66
M  V30 73 1 40 67
M  V30 74 1 40 68
M  V30 75 1 41 69
M  V30 76 1 42 70
M  V30 END BOND
M  V30 END CTAB
M  END
>  <Dataset>  (424) 
ChEMBL_Kinases

>  <Ligand_Instance>  (424) 
nan

>  <PDB_ID>  (424) 
nan

>  <Standardized_SMILES>  (424) 
COC(=O)c1cnn2cc(-c3c(F)cccc3F)c(-c3ccc(CN4CC(c5n[nH]c(-c6cccc(C)n6)n5)C4)cc3)nc12

>  <Name>  (424) 
nan

>  <Pocket>  (424) 
nan

>  <ATP_Site>  (424) 
nan

>  <Peripheral>  (424) 
nan

>  <Num_H_Atoms_ProtBoundConf>  (424) 
nan

>  <Num_Resolved_Atoms>  (424) 
nan

>  <Num_Not_Resolved_Atoms>  (424) 
nan

$$$$
CHEMBL3672027
     RDKit          3D

  0  0  0  0  0  0  0  0  0  0999 V3000
M  V30 BEGIN CTAB
M  V30 COUNTS 64 70 0 0 0
M  V30 BEGIN ATOM
M  V30 1 C 6.248534 -2.616517 5.726796 0
M  V30 2 C 5.259965 -2.043246 4.773124 0
M  V30 3 N 5.439751 -1.728740 3.460089 0
M  V30 4 C 4.272374 -1.231509 2.972426 0
M  V30 5 N 3.887984 -0.771972 1.761094 0
M  V30 6 C 2.657501 -0.317571 1.494430 0
M  V30 7 C 2.286476 0.164493 0.169106 0
M  V30 8 C 1.840054 1.442972 -0.043453 0
M  V30 9 C 1.510948 1.839667 -1.325639 0
M  V30 10 C 1.608305 0.997493 -2.442155 0
M  V30 11 C 1.201938 1.674952 -3.671843 0
M  V30 12 N -0.178077 1.595892 -4.018823 0
M  V30 13 C -0.720680 0.283256 -4.293225 0
M  V30 14 C -1.994605 0.610365 -3.531655 0
M  V30 15 C -2.390720 -0.430811 -2.568876 0
M  V30 16 N -1.521895 -1.001643 -1.714749 0
M  V30 17 N -2.220064 -1.896800 -0.998692 0
M  V30 18 C -3.512365 -1.914841 -1.370465 0
M  V30 19 C -4.562150 -2.758968 -0.813896 0
M  V30 20 C -5.850470 -2.665925 -1.298769 0
M  V30 21 C -6.814138 -3.492182 -0.734991 0
M  V30 22 C -6.474773 -4.383027 0.288584 0
M  V30 23 C -5.163922 -4.432421 0.735150 0
M  V30 24 N -4.250699 -3.620128 0.170674 0
M  V30 25 N -3.611273 -0.998476 -2.349688 0
M  V30 26 C -1.147015 1.749142 -2.948694 0
M  V30 27 C 2.059808 -0.284908 -2.206629 0
M  V30 28 C 2.385636 -0.674602 -0.929062 0
M  V30 29 C 1.787685 -0.350517 2.563982 0
M  V30 30 C 0.420067 0.124040 2.402319 0
M  V30 31 C -0.625091 -0.305901 1.618612 0
M  V30 32 C -1.822847 0.351018 1.678648 0
M  V30 33 C -2.056745 1.436552 2.488230 0
M  V30 34 C -1.023430 1.877013 3.275775 0
M  V30 35 C 0.209159 1.229137 3.237521 0
M  V30 36 C 2.120931 -0.807712 3.822215 0
M  V30 37 N 3.395749 -1.248903 3.993523 0
M  V30 38 C 3.957900 -1.738503 5.115974 0
M  V30 39 Br 3.122798 -1.964634 6.832259 0
M  V30 40 H 5.959968 -2.374888 6.759652 0
M  V30 41 H 7.270872 -2.309767 5.447514 0
M  V30 42 H 6.242920 -3.736031 5.664999 0
M  V30 43 H 1.774935 2.063199 0.819331 0
M  V30 44 H 1.168881 2.886610 -1.347145 0
M  V30 45 H 1.591156 2.730163 -3.703540 0
M  V30 46 H 1.760138 1.189281 -4.531062 0
M  V30 47 H -0.927264 0.063305 -5.349605 0
M  V30 48 H -0.124655 -0.508059 -3.801422 0
M  V30 49 H -2.812175 0.947805 -4.170198 0
M  V30 50 H -1.850681 -2.514075 -0.247258 0
M  V30 51 H -6.144072 -1.987327 -2.089408 0
M  V30 52 H -7.859944 -3.505519 -1.036638 0
M  V30 53 H -7.199247 -5.047612 0.757733 0
M  V30 54 H -4.801685 -5.084718 1.518846 0
M  V30 55 H -0.837829 1.443929 -1.943841 0
M  V30 56 H -1.701776 2.703692 -3.033585 0
M  V30 57 H 2.114003 -0.873579 -3.098655 0
M  V30 58 H 2.733180 -1.696160 -0.816375 0
M  V30 59 H -0.335803 -1.156837 1.027010 0
M  V30 60 H -2.598164 -0.031416 1.044701 0
M  V30 61 H -3.051167 1.907222 2.475515 0
M  V30 62 H -1.238462 2.730250 3.899460 0
M  V30 63 H 0.928381 1.701951 3.923613 0
M  V30 64 H 1.416351 -0.822334 4.644847 0
M  V30 END ATOM
M  V30 BEGIN BOND
M  V30 1 1 1 2
M  V30 2 1 2 3
M  V30 3 2 3 4
M  V30 4 1 4 5
M  V30 5 2 5 6
M  V30 6 1 6 7
M  V30 7 2 7 8
M  V30 8 1 8 9
M  V30 9 2 9 10
M  V30 10 1 10 11
M  V30 11 1 11 12
M  V30 12 1 12 13
M  V30 13 1 13 14
M  V30 14 1 14 15
M  V30 15 2 15 16
M  V30 16 1 16 17
M  V30 17 1 17 18
M  V30 18 1 18 19
M  V30 19 2 19 20
M  V30 20 1 20 21
M  V30 21 2 21 22
M  V30 22 1 22 23
M  V30 23 2 23 24
M  V30 24 2 18 25
M  V30 25 1 14 26
M  V30 26 1 10 27
M  V30 27 2 27 28
M  V30 28 1 6 29
M  V30 29 1 29 30
M  V30 30 2 30 31
M  V30 31 1 31 32
M  V30 32 2 32 33
M  V30 33 1 33 34
M  V30 34 2 34 35
M  V30 35 2 29 36
M  V30 36 1 36 37
M  V30 37 1 37 38
M  V30 38 1 38 39
M  V30 39 2 38 2
M  V30 40 1 37 4
M  V30 41 1 28 7
M  V30 42 1 35 30
M  V30 43 1 26 12
M  V30 44 1 25 15
M  V30 45 1 24 19
M  V30 46 1 1 40
M  V30 47 1 1 41
M  V30 48 1 1 42
M  V30 49 1 8 43
M  V30 50 1 9 44
M  V30 51 1 11 45
M  V30 52 1 11 46
M  V30 53 1 13 47
M  V30 54 1 13 48
M  V30 55 1 14 49
M  V30 56 1 17 50
M  V30 57 1 20 51
M  V30 58 1 21 52
M  V30 59 1 22 53
M  V30 60 1 23 54
M  V30 61 1 26 55
M  V30 62 1 26 56
M  V30 63 1 27 57
M  V30 64 1 28 58
M  V30 65 1 31 59
M  V30 66 1 32 60
M  V30 67 1 33 61
M  V30 68 1 34 62
M  V30 69 1 35 63
M  V30 70 1 36 64
M  V30 END BOND
M  V30 END CTAB
M  END
>  <Dataset>  (425) 
ChEMBL_Kinases

>  <Ligand_Instance>  (425) 
nan

>  <PDB_ID>  (425) 
nan

>  <Standardized_SMILES>  (425) 
Cc1nc2nc(-c3ccc(CN4CC(c5n[nH]c(-c6ccccn6)n5)C4)cc3)c(-c3ccccc3)cn2c1Br

>  <Name>  (425) 
nan

>  <Pocket>  (425) 
nan

>  <ATP_Site>  (425) 
nan

>  <Peripheral>  (425) 
nan

>  <Num_H_Atoms_ProtBoundConf>  (425) 
nan

>  <Num_Resolved_Atoms>  (425) 
nan

>  <Num_Not_Resolved_Atoms>  (425) 
nan

$$$$
CHEMBL3672026
     RDKit          3D

  0  0  0  0  0  0  0  0  0  0999 V3000
M  V30 BEGIN CTAB
M  V30 COUNTS 67 73 0 0 0
M  V30 BEGIN ATOM
M  V30 1 C 6.413268 -4.428238 6.113537 0
M  V30 2 C 5.553960 -3.324502 6.574133 0
M  V30 3 C 5.304596 -3.101972 7.924766 0
M  V30 4 C 4.480824 -2.038422 8.289496 0
M  V30 5 C 3.935057 -1.234350 7.290832 0
M  V30 6 C 4.200852 -1.480390 5.965196 0
M  V30 7 C 3.623773 -0.632198 4.929801 0
M  V30 8 N 3.829338 -0.799194 3.598584 0
M  V30 9 C 3.146653 0.157960 2.942682 0
M  V30 10 C 3.183328 0.226773 1.460439 0
M  V30 11 C 1.802198 0.316328 0.814092 0
M  V30 12 N 2.280129 1.380513 -0.043528 0
M  V30 13 C 1.356307 2.466089 -0.276373 0
M  V30 14 C 0.112264 1.993070 -0.933862 0
M  V30 15 C -1.045690 1.562144 -0.324114 0
M  V30 16 C -2.135947 1.143703 -1.057840 0
M  V30 17 C -2.118548 1.136948 -2.436056 0
M  V30 18 C -3.328460 0.672978 -3.075533 0
M  V30 19 N -4.163337 1.354529 -3.894039 0
M  V30 20 C -5.270971 0.753207 -4.413768 0
M  V30 21 N -6.223951 1.192446 -5.220947 0
M  V30 22 C -7.126024 0.224133 -5.464271 0
M  V30 23 C -6.716959 -0.883980 -4.771910 0
M  V30 24 C -7.370432 -2.212367 -4.713232 0
M  V30 25 N -5.580724 -0.544962 -4.134047 0
M  V30 26 C -4.759208 -1.249804 -3.315680 0
M  V30 27 C -3.624941 -0.649027 -2.777819 0
M  V30 28 C -2.838687 -1.529515 -1.916439 0
M  V30 29 C -1.578832 -1.727862 -2.443363 0
M  V30 30 C -0.638556 -2.530481 -1.805346 0
M  V30 31 C -0.996739 -3.134814 -0.615092 0
M  V30 32 C -2.240524 -2.937181 -0.097853 0
M  V30 33 C -3.179671 -2.141088 -0.726072 0
M  V30 34 C -0.970894 1.563828 -3.078140 0
M  V30 35 C 0.109583 1.978590 -2.329125 0
M  V30 36 C 3.354354 1.610985 0.870670 0
M  V30 37 N 2.512440 0.928494 3.831771 0
M  V30 38 N 2.810835 0.438115 5.027147 0
M  V30 39 N 5.010097 -2.527659 5.634828 0
M  V30 40 H 7.350601 -4.058066 5.671860 0
M  V30 41 H 5.852028 -4.976560 5.316167 0
M  V30 42 H 6.626598 -5.112008 6.963344 0
M  V30 43 H 5.794153 -3.804994 8.592338 0
M  V30 44 H 4.344155 -1.941849 9.347275 0
M  V30 45 H 3.305190 -0.426680 7.631779 0
M  V30 46 H 3.815587 -0.539746 1.008210 0
M  V30 47 H 1.577051 -0.641918 0.324970 0
M  V30 48 H 1.010480 0.644172 1.510504 0
M  V30 49 H 1.862788 3.185333 -0.935032 0
M  V30 50 H 1.062287 2.979478 0.661758 0
M  V30 51 H -1.046853 1.574098 0.740940 0
M  V30 52 H -3.003801 0.821805 -0.493657 0
M  V30 53 H -8.037517 0.199242 -6.068876 0
M  V30 54 H -8.011884 -2.381398 -5.598597 0
M  V30 55 H -6.626748 -3.058112 -4.693841 0
M  V30 56 H -7.944244 -2.328734 -3.761468 0
M  V30 57 H -5.037007 -2.282109 -3.114271 0
M  V30 58 H -1.164106 -1.313313 -3.372711 0
M  V30 59 H 0.365733 -2.727612 -2.163368 0
M  V30 60 H -0.326081 -3.768724 -0.062699 0
M  V30 61 H -2.584809 -3.378908 0.826869 0
M  V30 62 H -4.192345 -1.905074 -0.423653 0
M  V30 63 H -0.980461 1.549742 -4.159302 0
M  V30 64 H 0.959555 2.294197 -2.909452 0
M  V30 65 H 4.316019 1.691140 0.318094 0
M  V30 66 H 3.128867 2.418018 1.571548 0
M  V30 67 H 2.484763 0.795536 5.972520 0
M  V30 END ATOM
M  V30 BEGIN BOND
M  V30 1 1 1 2
M  V30 2 2 2 3
M  V30 3 1 3 4
M  V30 4 2 4 5
M  V30 5 1 5 6
M  V30 6 1 6 7
M  V30 7 2 7 8
M  V30 8 1 8 9
M  V30 9 1 9 10
M  V30 10 1 10 11
M  V30 11 1 11 12
M  V30 12 1 12 13
M  V30 13 1 13 14
M  V30 14 2 14 15
M  V30 15 1 15 16
M  V30 16 2 16 17
M  V30 17 1 17 18
M  V30 18 2 18 19
M  V30 19 1 19 20
M  V30 20 2 20 21
M  V30 21 1 21 22
M  V30 22 2 22 23
M  V30 23 1 23 24
M  V30 24 1 23 25
M  V30 25 1 25 26
M  V30 26 2 26 27
M  V30 27 1 27 28
M  V30 28 2 28 29
M  V30 29 1 29 30
M  V30 30 2 30 31
M  V30 31 1 31 32
M  V30 32 2 32 33
M  V30 33 1 17 34
M  V30 34 2 34 35
M  V30 35 1 12 36
M  V30 36 2 9 37
M  V30 37 1 37 38
M  V30 38 2 6 39
M  V30 39 1 39 2
M  V30 40 1 38 7
M  V30 41 1 36 10
M  V30 42 1 35 14
M  V30 43 1 27 18
M  V30 44 1 33 28
M  V30 45 1 25 20
M  V30 46 1 1 40
M  V30 47 1 1 41
M  V30 48 1 1 42
M  V30 49 1 3 43
M  V30 50 1 4 44
M  V30 51 1 5 45
M  V30 52 1 10 46
M  V30 53 1 11 47
M  V30 54 1 11 48
M  V30 55 1 13 49
M  V30 56 1 13 50
M  V30 57 1 15 51
M  V30 58 1 16 52
M  V30 59 1 22 53
M  V30 60 1 24 54
M  V30 61 1 24 55
M  V30 62 1 24 56
M  V30 63 1 26 57
M  V30 64 1 29 58
M  V30 65 1 30 59
M  V30 66 1 31 60
M  V30 67 1 32 61
M  V30 68 1 33 62
M  V30 69 1 34 63
M  V30 70 1 35 64
M  V30 71 1 36 65
M  V30 72 1 36 66
M  V30 73 1 38 67
M  V30 END BOND
M  V30 END CTAB
M  END
>  <Dataset>  (426) 
ChEMBL_Kinases

>  <Ligand_Instance>  (426) 
nan

>  <PDB_ID>  (426) 
nan

>  <Standardized_SMILES>  (426) 
Cc1cccc(-c2nc(C3CN(Cc4ccc(-c5nc6ncc(C)n6cc5-c5ccccc5)cc4)C3)n[nH]2)n1

>  <Name>  (426) 
nan

>  <Pocket>  (426) 
nan

>  <ATP_Site>  (426) 
nan

>  <Peripheral>  (426) 
nan

>  <Num_H_Atoms_ProtBoundConf>  (426) 
nan

>  <Num_Resolved_Atoms>  (426) 
nan

>  <Num_Not_Resolved_Atoms>  (426) 
nan

$$$$
CHEMBL3672025
     RDKit          3D

  0  0  0  0  0  0  0  0  0  0999 V3000
M  V30 BEGIN CTAB
M  V30 COUNTS 68 74 0 0 0
M  V30 BEGIN ATOM
M  V30 1 C 7.321432 -2.140295 7.451734 0
M  V30 2 C 6.197178 -1.688486 6.588755 0
M  V30 3 N 4.958817 -1.215555 6.764566 0
M  V30 4 C 4.412749 -0.979124 5.555565 0
M  V30 5 N 3.208886 -0.507828 5.179112 0
M  V30 6 C 2.884429 -0.354797 3.866294 0
M  V30 7 C 1.641090 0.133511 3.327736 0
M  V30 8 C 1.502789 1.270080 2.569452 0
M  V30 9 C 0.246260 1.617713 2.118817 0
M  V30 10 C -0.924879 0.898085 2.372245 0
M  V30 11 C -2.198688 1.416086 1.818691 0
M  V30 12 N -2.437692 0.948845 0.478552 0
M  V30 13 C -3.654930 1.451903 -0.010239 0
M  V30 14 C -4.114193 0.874877 -1.323354 0
M  V30 15 C -4.113103 -0.650693 -1.156198 0
M  V30 16 C -4.556742 -1.311076 -2.424082 0
M  V30 17 C -5.680188 -2.127671 -2.476527 0
M  V30 18 N -6.031565 -2.696055 -3.644393 0
M  V30 19 C -5.326575 -2.501856 -4.782415 0
M  V30 20 C -5.756317 -3.126572 -5.951451 0
M  V30 21 C -4.995693 -2.895938 -7.101311 0
M  V30 22 C -3.871745 -2.088974 -7.085682 0
M  V30 23 C -3.481052 -1.486030 -5.894125 0
M  V30 24 C -4.202408 -1.683197 -4.724360 0
M  V30 25 N -3.841070 -1.106460 -3.551885 0
M  V30 26 C -2.681026 -1.036113 -0.958772 0
M  V30 27 C -1.989342 -0.327527 0.162561 0
M  V30 28 C -0.745301 -0.235463 3.136308 0
M  V30 29 C 0.498768 -0.608209 3.600729 0
M  V30 30 C 3.834786 -0.699929 2.912890 0
M  V30 31 C 3.609144 -0.581132 1.465389 0
M  V30 32 C 2.657757 -1.255211 0.735096 0
M  V30 33 C 2.576538 -1.030178 -0.621753 0
M  V30 34 C 3.437814 -0.137627 -1.253843 0
M  V30 35 C 4.386938 0.535880 -0.529958 0
M  V30 36 C 4.464289 0.309028 0.819728 0
M  V30 37 C 5.076470 -1.186063 3.302578 0
M  V30 38 N 5.344049 -1.317560 4.629154 0
M  V30 39 N 6.421200 -1.746168 5.274027 0
M  V30 40 H 8.085823 -1.340653 7.502282 0
M  V30 41 H 6.909865 -2.253585 8.483752 0
M  V30 42 H 7.741901 -3.116628 7.152998 0
M  V30 43 H 2.371154 1.855796 2.347914 0
M  V30 44 H 0.173580 2.509948 1.529974 0
M  V30 45 H -2.112985 2.523332 1.823111 0
M  V30 46 H -3.023613 1.154925 2.516177 0
M  V30 47 H -3.549717 2.553385 -0.180163 0
M  V30 48 H -4.533236 1.373424 0.690447 0
M  V30 49 H -3.473295 1.106546 -2.178548 0
M  V30 50 H -5.136659 1.241676 -1.491369 0
M  V30 51 H -4.781560 -0.922371 -0.336194 0
M  V30 52 H -6.242818 -2.276648 -1.546414 0
M  V30 53 H -6.634157 -3.752128 -5.947584 0
M  V30 54 H -5.318462 -3.378165 -8.025964 0
M  V30 55 H -3.276454 -1.902005 -7.961348 0
M  V30 56 H -2.591914 -0.848907 -5.885741 0
M  V30 57 H -2.148558 -0.833422 -1.907207 0
M  V30 58 H -2.658836 -2.135990 -0.810596 0
M  V30 59 H -0.900517 -0.249454 -0.127810 0
M  V30 60 H -1.991710 -1.009750 1.025371 0
M  V30 61 H -1.632977 -0.811920 3.355945 0
M  V30 62 H 0.543377 -1.520222 4.197001 0
M  V30 63 H 2.028064 -1.929870 1.298356 0
M  V30 64 H 1.823160 -1.569071 -1.175826 0
M  V30 65 H 3.306875 -0.018408 -2.324699 0
M  V30 66 H 5.045008 1.228479 -1.061931 0
M  V30 67 H 5.237123 0.873188 1.337367 0
M  V30 68 H 5.845440 -1.466586 2.595837 0
M  V30 END ATOM
M  V30 BEGIN BOND
M  V30 1 1 1 2
M  V30 2 1 2 3
M  V30 3 2 3 4
M  V30 4 1 4 5
M  V30 5 2 5 6
M  V30 6 1 6 7
M  V30 7 2 7 8
M  V30 8 1 8 9
M  V30 9 2 9 10
M  V30 10 1 10 11
M  V30 11 1 11 12
M  V30 12 1 12 13
M  V30 13 1 13 14
M  V30 14 1 14 15
M  V30 15 1 15 16
M  V30 16 2 16 17
M  V30 17 1 17 18
M  V30 18 2 18 19
M  V30 19 1 19 20
M  V30 20 2 20 21
M  V30 21 1 21 22
M  V30 22 2 22 23
M  V30 23 1 23 24
M  V30 24 2 24 25
M  V30 25 1 15 26
M  V30 26 1 26 27
M  V30 27 1 10 28
M  V30 28 2 28 29
M  V30 29 1 6 30
M  V30 30 1 30 31
M  V30 31 2 31 32
M  V30 32 1 32 33
M  V30 33 2 33 34
M  V30 34 1 34 35
M  V30 35 2 35 36
M  V30 36 2 30 37
M  V30 37 1 37 38
M  V30 38 1 38 39
M  V30 39 2 39 2
M  V30 40 1 38 4
M  V30 41 1 29 7
M  V30 42 1 36 31
M  V30 43 1 27 12
M  V30 44 1 25 16
M  V30 45 1 24 19
M  V30 46 1 1 40
M  V30 47 1 1 41
M  V30 48 1 1 42
M  V30 49 1 8 43
M  V30 50 1 9 44
M  V30 51 1 11 45
M  V30 52 1 11 46
M  V30 53 1 13 47
M  V30 54 1 13 48
M  V30 55 1 14 49
M  V30 56 1 14 50
M  V30 57 1 15 51
M  V30 58 1 17 52
M  V30 59 1 20 53
M  V30 60 1 21 54
M  V30 61 1 22 55
M  V30 62 1 23 56
M  V30 63 1 26 57
M  V30 64 1 26 58
M  V30 65 1 27 59
M  V30 66 1 27 60
M  V30 67 1 28 61
M  V30 68 1 29 62
M  V30 69 1 32 63
M  V30 70 1 33 64
M  V30 71 1 34 65
M  V30 72 1 35 66
M  V30 73 1 36 67
M  V30 74 1 37 68
M  V30 END BOND
M  V30 END CTAB
M  END
>  <Dataset>  (427) 
ChEMBL_Kinases

>  <Ligand_Instance>  (427) 
nan

>  <PDB_ID>  (427) 
nan

>  <Standardized_SMILES>  (427) 
Cc1nc2nc(-c3ccc(CN4CCC(c5cnc6ccccc6n5)CC4)cc3)c(-c3ccccc3)cn2n1

>  <Name>  (427) 
nan

>  <Pocket>  (427) 
nan

>  <ATP_Site>  (427) 
nan

>  <Peripheral>  (427) 
nan

>  <Num_H_Atoms_ProtBoundConf>  (427) 
nan

>  <Num_Resolved_Atoms>  (427) 
nan

>  <Num_Not_Resolved_Atoms>  (427) 
nan

$$$$
CHEMBL3672024
     RDKit          3D

  0  0  0  0  0  0  0  0  0  0999 V3000
M  V30 BEGIN CTAB
M  V30 COUNTS 66 72 0 0 0
M  V30 BEGIN ATOM
M  V30 1 C 7.156097 -2.968072 6.463627 0
M  V30 2 C 6.154465 -2.333285 5.567698 0
M  V30 3 N 5.765119 -2.575393 4.300739 0
M  V30 4 C 4.801663 -1.699393 3.938899 0
M  V30 5 N 4.096546 -1.520077 2.806442 0
M  V30 6 C 3.155044 -0.538077 2.690268 0
M  V30 7 C 2.370808 -0.304757 1.497330 0
M  V30 8 C 2.434947 0.879909 0.779708 0
M  V30 9 C 1.679308 1.095823 -0.364191 0
M  V30 10 C 0.827992 0.093645 -0.809505 0
M  V30 11 C 0.090766 0.477425 -2.041574 0
M  V30 12 N -1.183506 1.127141 -1.745597 0
M  V30 13 C -1.873867 1.494508 -2.968451 0
M  V30 14 C -3.357483 1.394415 -2.637497 0
M  V30 15 C -3.454276 0.712704 -1.315847 0
M  V30 16 C -4.331842 -0.498677 -1.443685 0
M  V30 17 N -5.417470 -1.055937 -0.877340 0
M  V30 18 N -5.687378 -2.188556 -1.504917 0
M  V30 19 C -4.798419 -2.407156 -2.490319 0
M  V30 20 C -4.724501 -3.525882 -3.424047 0
M  V30 21 C -3.714514 -3.540378 -4.362838 0
M  V30 22 C -3.617296 -4.584449 -5.260565 0
M  V30 23 C -4.574479 -5.582404 -5.154263 0
M  V30 24 C -5.600551 -5.575473 -4.206564 0
M  V30 25 N -5.633264 -4.514786 -3.355157 0
M  V30 26 N -3.974903 -1.345917 -2.426309 0
M  V30 27 C -2.061763 0.205083 -1.058269 0
M  V30 28 C 0.753954 -1.085573 -0.108775 0
M  V30 29 C 1.510777 -1.279547 1.021878 0
M  V30 30 C 2.968949 0.267089 3.815919 0
M  V30 31 C 1.974987 1.359276 3.796779 0
M  V30 32 C 0.670612 0.943175 3.621835 0
M  V30 33 C -0.353501 1.875304 3.586556 0
M  V30 34 C -0.038876 3.214199 3.729140 0
M  V30 35 C 1.276944 3.627801 3.905095 0
M  V30 36 C 2.294590 2.694737 3.939620 0
M  V30 37 C 3.682752 0.099848 4.989060 0
M  V30 38 N 4.600969 -0.904194 5.015351 0
M  V30 39 N 5.409116 -1.275603 6.002032 0
M  V30 40 H 7.642522 -3.792380 5.885037 0
M  V30 41 H 6.667707 -3.462791 7.339060 0
M  V30 42 H 7.893613 -2.226538 6.832211 0
M  V30 43 H 3.114271 1.654147 1.152314 0
M  V30 44 H 1.820102 2.056448 -0.828815 0
M  V30 45 H 0.702172 1.073169 -2.729471 0
M  V30 46 H -0.167931 -0.474275 -2.590680 0
M  V30 47 H -1.626582 2.544475 -3.199148 0
M  V30 48 H -1.596113 0.865046 -3.827398 0
M  V30 49 H -3.802723 2.428768 -2.578049 0
M  V30 50 H -3.857074 0.798997 -3.407669 0
M  V30 51 H -3.832077 1.354482 -0.493982 0
M  V30 52 H -6.488855 -2.804179 -1.244619 0
M  V30 53 H -2.958046 -2.748923 -4.444720 0
M  V30 54 H -2.841374 -4.655522 -6.028308 0
M  V30 55 H -4.481961 -6.399876 -5.872173 0
M  V30 56 H -6.323109 -6.386777 -4.171285 0
M  V30 57 H -1.887780 -0.799135 -1.479768 0
M  V30 58 H -1.884196 0.264961 0.034071 0
M  V30 59 H 0.066776 -1.811541 -0.524454 0
M  V30 60 H 1.426474 -2.230567 1.554653 0
M  V30 61 H 0.383287 -0.109689 3.505346 0
M  V30 62 H -1.404024 1.628372 3.452807 0
M  V30 63 H -0.748722 4.048301 3.719924 0
M  V30 64 H 1.568862 4.675243 4.021675 0
M  V30 65 H 3.356087 2.955906 4.075653 0
M  V30 66 H 3.536958 0.721081 5.852757 0
M  V30 END ATOM
M  V30 BEGIN BOND
M  V30 1 1 1 2
M  V30 2 1 2 3
M  V30 3 2 3 4
M  V30 4 1 4 5
M  V30 5 2 5 6
M  V30 6 1 6 7
M  V30 7 2 7 8
M  V30 8 1 8 9
M  V30 9 2 9 10
M  V30 10 1 10 11
M  V30 11 1 11 12
M  V30 12 1 12 13
M  V30 13 1 13 14
M  V30 14 1 14 15
M  V30 15 1 15 16
M  V30 16 2 16 17
M  V30 17 1 17 18
M  V30 18 1 18 19
M  V30 19 1 19 20
M  V30 20 2 20 21
M  V30 21 1 21 22
M  V30 22 2 22 23
M  V30 23 1 23 24
M  V30 24 2 24 25
M  V30 25 2 19 26
M  V30 26 1 15 27
M  V30 27 1 10 28
M  V30 28 2 28 29
M  V30 29 1 6 30
M  V30 30 1 30 31
M  V30 31 2 31 32
M  V30 32 1 32 33
M  V30 33 2 33 34
M  V30 34 1 34 35
M  V30 35 2 35 36
M  V30 36 2 30 37
M  V30 37 1 37 38
M  V30 38 1 38 39
M  V30 39 2 39 2
M  V30 40 1 38 4
M  V30 41 1 29 7
M  V30 42 1 36 31
M  V30 43 1 27 12
M  V30 44 1 26 16
M  V30 45 1 25 20
M  V30 46 1 1 40
M  V30 47 1 1 41
M  V30 48 1 1 42
M  V30 49 1 8 43
M  V30 50 1 9 44
M  V30 51 1 11 45
M  V30 52 1 11 46
M  V30 53 1 13 47
M  V30 54 1 13 48
M  V30 55 1 14 49
M  V30 56 1 14 50
M  V30 57 1 15 51
M  V30 58 1 18 52
M  V30 59 1 21 53
M  V30 60 1 22 54
M  V30 61 1 23 55
M  V30 62 1 24 56
M  V30 63 1 27 57
M  V30 64 1 27 58
M  V30 65 1 28 59
M  V30 66 1 29 60
M  V30 67 1 32 61
M  V30 68 1 33 62
M  V30 69 1 34 63
M  V30 70 1 35 64
M  V30 71 1 36 65
M  V30 72 1 37 66
M  V30 END BOND
M  V30 END CTAB
M  END
>  <Dataset>  (428) 
ChEMBL_Kinases

>  <Ligand_Instance>  (428) 
nan

>  <PDB_ID>  (428) 
nan

>  <Standardized_SMILES>  (428) 
Cc1nc2nc(-c3ccc(CN4CCC(c5n[nH]c(-c6ccccn6)n5)C4)cc3)c(-c3ccccc3)cn2n1

>  <Name>  (428) 
nan

>  <Pocket>  (428) 
nan

>  <ATP_Site>  (428) 
nan

>  <Peripheral>  (428) 
nan

>  <Num_H_Atoms_ProtBoundConf>  (428) 
nan

>  <Num_Resolved_Atoms>  (428) 
nan

>  <Num_Not_Resolved_Atoms>  (428) 
nan

$$$$
CHEMBL3672023
     RDKit          3D

  0  0  0  0  0  0  0  0  0  0999 V3000
M  V30 BEGIN CTAB
M  V30 COUNTS 66 72 0 0 0
M  V30 BEGIN ATOM
M  V30 1 C 6.161742 -1.226206 7.614317 0
M  V30 2 C 5.262874 -0.711471 6.527375 0
M  V30 3 N 5.226709 -1.123829 5.226696 0
M  V30 4 C 4.278470 -0.411416 4.570394 0
M  V30 5 N 3.845004 -0.423392 3.291243 0
M  V30 6 C 2.860975 0.398500 2.849828 0
M  V30 7 C 2.518697 0.251186 1.439183 0
M  V30 8 C 2.633491 1.176198 0.442734 0
M  V30 9 C 2.264229 0.882607 -0.853418 0
M  V30 10 C 1.764984 -0.361214 -1.184638 0
M  V30 11 C 1.344777 -0.767881 -2.537426 0
M  V30 12 N -0.010765 -0.524004 -2.848980 0
M  V30 13 C -0.496889 -0.882053 -4.114384 0
M  V30 14 C -1.809302 -1.619894 -4.124532 0
M  V30 15 C -2.215096 -1.910727 -2.719616 0
M  V30 16 C -3.444661 -2.695367 -2.579473 0
M  V30 17 N -4.676337 -2.391700 -3.038715 0
M  V30 18 C -5.553940 -3.359510 -2.714504 0
M  V30 19 C -6.894135 -3.651056 -2.872127 0
M  V30 20 C -7.433489 -4.807987 -2.363592 0
M  V30 21 C -6.662320 -5.741199 -1.667334 0
M  V30 22 N -5.356028 -5.457353 -1.513581 0
M  V30 23 C -4.830962 -4.311626 -2.019187 0
M  V30 24 N -3.559185 -3.896593 -1.945804 0
M  V30 25 C -2.316113 -0.558917 -1.999365 0
M  V30 26 C -0.883848 -0.099734 -1.838058 0
M  V30 27 C 1.644605 -1.315354 -0.166630 0
M  V30 28 C 2.018140 -1.010471 1.131534 0
M  V30 29 C 2.295200 1.271589 3.757496 0
M  V30 30 C 1.241449 2.134049 3.234702 0
M  V30 31 C 0.070060 1.555452 2.745330 0
M  V30 32 C -0.970606 2.323836 2.233931 0
M  V30 33 C -0.846314 3.696903 2.207415 0
M  V30 34 C 0.307697 4.279092 2.688671 0
M  V30 35 C 1.347432 3.521613 3.199049 0
M  V30 36 C 2.745250 1.277176 5.065931 0
M  V30 37 N 3.725656 0.444333 5.465516 0
M  V30 38 N 4.323577 0.260685 6.650327 0
M  V30 39 H 6.636666 -0.366726 8.118063 0
M  V30 40 H 5.528134 -1.773596 8.337514 0
M  V30 41 H 6.895158 -1.902516 7.149084 0
M  V30 42 H 3.025663 2.128478 0.745186 0
M  V30 43 H 2.358542 1.619165 -1.632167 0
M  V30 44 H 1.976893 -0.221278 -3.270611 0
M  V30 45 H 1.629115 -1.852250 -2.664649 0
M  V30 46 H 0.244788 -1.529321 -4.632501 0
M  V30 47 H -0.543386 0.044291 -4.754115 0
M  V30 48 H -2.567337 -0.945828 -4.573818 0
M  V30 49 H -1.797012 -2.535403 -4.758172 0
M  V30 50 H -1.370744 -2.436516 -2.232684 0
M  V30 51 H -7.482158 -2.909638 -3.419693 0
M  V30 52 H -8.503544 -5.017070 -2.502318 0
M  V30 53 H -7.138515 -6.633931 -1.289257 0
M  V30 54 H -2.746103 -4.385587 -1.483824 0
M  V30 55 H -2.841208 -0.750431 -1.057625 0
M  V30 56 H -2.800939 0.189668 -2.657381 0
M  V30 57 H -0.570953 -0.472683 -0.839383 0
M  V30 58 H -0.816289 1.023481 -1.761419 0
M  V30 59 H 1.248568 -2.313148 -0.410518 0
M  V30 60 H 1.887913 -1.817272 1.855257 0
M  V30 61 H -0.107020 0.503687 2.728973 0
M  V30 62 H -1.887084 1.911040 1.848333 0
M  V30 63 H -1.628032 4.362957 1.818153 0
M  V30 64 H 0.465125 5.362226 2.694009 0
M  V30 65 H 2.271085 3.949721 3.586874 0
M  V30 66 H 2.268425 1.979912 5.735618 0
M  V30 END ATOM
M  V30 BEGIN BOND
M  V30 1 1 1 2
M  V30 2 1 2 3
M  V30 3 2 3 4
M  V30 4 1 4 5
M  V30 5 2 5 6
M  V30 6 1 6 7
M  V30 7 2 7 8
M  V30 8 1 8 9
M  V30 9 2 9 10
M  V30 10 1 10 11
M  V30 11 1 11 12
M  V30 12 1 12 13
M  V30 13 1 13 14
M  V30 14 1 14 15
M  V30 15 1 15 16
M  V30 16 2 16 17
M  V30 17 1 17 18
M  V30 18 2 18 19
M  V30 19 1 19 20
M  V30 20 2 20 21
M  V30 21 1 21 22
M  V30 22 2 22 23
M  V30 23 1 23 24
M  V30 24 1 15 25
M  V30 25 1 25 26
M  V30 26 1 10 27
M  V30 27 2 27 28
M  V30 28 1 6 29
M  V30 29 1 29 30
M  V30 30 2 30 31
M  V30 31 1 31 32
M  V30 32 2 32 33
M  V30 33 1 33 34
M  V30 34 2 34 35
M  V30 35 2 29 36
M  V30 36 1 36 37
M  V30 37 1 37 38
M  V30 38 2 38 2
M  V30 39 1 37 4
M  V30 40 1 28 7
M  V30 41 1 35 30
M  V30 42 1 26 12
M  V30 43 1 24 16
M  V30 44 1 23 18
M  V30 45 1 1 39
M  V30 46 1 1 40
M  V30 47 1 1 41
M  V30 48 1 8 42
M  V30 49 1 9 43
M  V30 50 1 11 44
M  V30 51 1 11 45
M  V30 52 1 13 46
M  V30 53 1 13 47
M  V30 54 1 14 48
M  V30 55 1 14 49
M  V30 56 1 15 50
M  V30 57 1 19 51
M  V30 58 1 20 52
M  V30 59 1 21 53
M  V30 60 1 24 54
M  V30 61 1 25 55
M  V30 62 1 25 56
M  V30 63 1 26 57
M  V30 64 1 26 58
M  V30 65 1 27 59
M  V30 66 1 28 60
M  V30 67 1 31 61
M  V30 68 1 32 62
M  V30 69 1 33 63
M  V30 70 1 34 64
M  V30 71 1 35 65
M  V30 72 1 36 66
M  V30 END BOND
M  V30 END CTAB
M  END
>  <Dataset>  (429) 
ChEMBL_Kinases

>  <Ligand_Instance>  (429) 
nan

>  <PDB_ID>  (429) 
nan

>  <Standardized_SMILES>  (429) 
Cc1nc2nc(-c3ccc(CN4CCC(c5nc6cccnc6[nH]5)CC4)cc3)c(-c3ccccc3)cn2n1

>  <Name>  (429) 
nan

>  <Pocket>  (429) 
nan

>  <ATP_Site>  (429) 
nan

>  <Peripheral>  (429) 
nan

>  <Num_H_Atoms_ProtBoundConf>  (429) 
nan

>  <Num_Resolved_Atoms>  (429) 
nan

>  <Num_Not_Resolved_Atoms>  (429) 
nan

$$$$
CHEMBL3672031
     RDKit          3D

  0  0  0  0  0  0  0  0  0  0999 V3000
M  V30 BEGIN CTAB
M  V30 COUNTS 74 80 0 0 0
M  V30 BEGIN ATOM
M  V30 1 C 7.045905 -4.064392 4.636145 0
M  V30 2 C 7.447349 -3.592155 3.264881 0
M  V30 3 C 7.906136 -4.825946 2.482075 0
M  V30 4 C 6.233435 -3.039742 2.582022 0
M  V30 5 N 6.066659 -1.825800 2.036377 0
M  V30 6 C 4.839751 -1.691729 1.514634 0
M  V30 7 N 4.184678 -0.706251 0.872441 0
M  V30 8 C 2.900706 -0.841618 0.434910 0
M  V30 9 C 2.154081 0.186655 -0.258537 0
M  V30 10 C 1.989772 1.371484 0.469994 0
M  V30 11 C 1.295388 2.435543 -0.073952 0
M  V30 12 C 0.730532 2.402665 -1.341231 0
M  V30 13 C -0.017979 3.489963 -1.983640 0
M  V30 14 N -1.419911 3.510115 -1.771706 0
M  V30 15 C -1.865623 3.627673 -0.431459 0
M  V30 16 C -2.682311 2.401375 -0.006771 0
M  V30 17 C -3.996398 2.512623 -0.774002 0
M  V30 18 C -4.923929 1.410342 -0.476575 0
M  V30 19 C -6.145661 1.737660 0.123280 0
M  V30 20 N -7.097801 0.816785 0.453437 0
M  V30 21 C -6.816435 -0.488225 0.171722 0
M  V30 22 C -7.755059 -1.447882 0.491982 0
M  V30 23 C -7.411128 -2.747576 0.182820 0
M  V30 24 C -6.232153 -3.094579 -0.399873 0
M  V30 25 C -5.290379 -2.117630 -0.719508 0
M  V30 26 C -5.604444 -0.788030 -0.420490 0
M  V30 27 N -4.670224 0.120080 -0.743949 0
M  V30 28 C -3.637536 2.655258 -2.222091 0
M  V30 29 C -2.157781 2.528740 -2.498698 0
M  V30 30 C 0.910724 1.209979 -2.042025 0
M  V30 31 C 1.602916 0.141228 -1.507459 0
M  V30 32 C 2.305157 -2.063860 0.692437 0
M  V30 33 C 0.932682 -2.379588 0.290996 0
M  V30 34 C 0.924034 -3.465539 -0.596036 0
M  V30 35 C -0.263432 -3.945064 -1.111956 0
M  V30 36 C -1.443779 -3.354595 -0.754148 0
M  V30 37 C -1.429201 -2.287555 0.117976 0
M  V30 38 C -0.259005 -1.786317 0.649912 0
M  V30 39 C 2.966618 -3.089104 1.352994 0
M  V30 40 N 4.233886 -2.870605 1.751228 0
M  V30 41 N 5.070152 -3.696835 2.398559 0
M  V30 42 H 7.939764 -4.152815 5.295912 0
M  V30 43 H 6.634913 -5.111205 4.547093 0
M  V30 44 H 6.226247 -3.476666 5.085027 0
M  V30 45 H 8.225546 -2.821372 3.281591 0
M  V30 46 H 8.348180 -5.598455 3.109920 0
M  V30 47 H 7.006332 -5.244949 1.985418 0
M  V30 48 H 8.592716 -4.524686 1.660074 0
M  V30 49 H 2.396036 1.503344 1.481189 0
M  V30 50 H 1.177832 3.329027 0.486860 0
M  V30 51 H 0.195708 3.479821 -3.076981 0
M  V30 52 H 0.405907 4.483232 -1.647416 0
M  V30 53 H -1.138256 3.913143 0.323326 0
M  V30 54 H -2.620518 4.469513 -0.417002 0
M  V30 55 H -2.812623 2.356222 1.074501 0
M  V30 56 H -2.210453 1.465225 -0.343870 0
M  V30 57 H -4.478251 3.464223 -0.430577 0
M  V30 58 H -6.463268 2.738111 0.385854 0
M  V30 59 H -8.700597 -1.216748 0.954173 0
M  V30 60 H -8.163857 -3.504408 0.441014 0
M  V30 61 H -6.048696 -4.134074 -0.605495 0
M  V30 62 H -4.352873 -2.363426 -1.178753 0
M  V30 63 H -4.214319 1.943492 -2.834946 0
M  V30 64 H -3.933658 3.666977 -2.628196 0
M  V30 65 H -2.047376 2.765233 -3.597605 0
M  V30 66 H -1.778098 1.491112 -2.353223 0
M  V30 67 H 0.530027 1.043242 -3.030458 0
M  V30 68 H 1.759176 -0.796808 -2.027046 0
M  V30 69 H 1.790248 -4.018418 -0.956446 0
M  V30 70 H -0.323926 -4.781154 -1.800574 0
M  V30 71 H -2.376717 -3.722262 -1.152072 0
M  V30 72 H -2.321244 -1.774687 0.441709 0
M  V30 73 H -0.116007 -0.974668 1.326992 0
M  V30 74 H 2.487925 -4.057873 1.554758 0
M  V30 END ATOM
M  V30 BEGIN BOND
M  V30 1 1 1 2
M  V30 2 1 2 3
M  V30 3 1 2 4
M  V30 4 1 4 5
M  V30 5 2 5 6
M  V30 6 1 6 7
M  V30 7 2 7 8
M  V30 8 1 8 9
M  V30 9 2 9 10
M  V30 10 1 10 11
M  V30 11 2 11 12
M  V30 12 1 12 13
M  V30 13 1 13 14
M  V30 14 1 14 15
M  V30 15 1 15 16
M  V30 16 1 16 17
M  V30 17 1 17 18
M  V30 18 2 18 19
M  V30 19 1 19 20
M  V30 20 2 20 21
M  V30 21 1 21 22
M  V30 22 2 22 23
M  V30 23 1 23 24
M  V30 24 2 24 25
M  V30 25 1 25 26
M  V30 26 2 26 27
M  V30 27 1 17 28
M  V30 28 1 28 29
M  V30 29 1 12 30
M  V30 30 2 30 31
M  V30 31 1 8 32
M  V30 32 1 32 33
M  V30 33 2 33 34
M  V30 34 1 34 35
M  V30 35 2 35 36
M  V30 36 1 36 37
M  V30 37 2 37 38
M  V30 38 2 32 39
M  V30 39 1 39 40
M  V30 40 1 40 41
M  V30 41 2 41 4
M  V30 42 1 40 6
M  V30 43 1 31 9
M  V30 44 1 38 33
M  V30 45 1 29 14
M  V30 46 1 27 18
M  V30 47 1 26 21
M  V30 48 1 1 42
M  V30 49 1 1 43
M  V30 50 1 1 44
M  V30 51 1 2 45
M  V30 52 1 3 46
M  V30 53 1 3 47
M  V30 54 1 3 48
M  V30 55 1 10 49
M  V30 56 1 11 50
M  V30 57 1 13 51
M  V30 58 1 13 52
M  V30 59 1 15 53
M  V30 60 1 15 54
M  V30 61 1 16 55
M  V30 62 1 16 56
M  V30 63 1 17 57
M  V30 64 1 19 58
M  V30 65 1 22 59
M  V30 66 1 23 60
M  V30 67 1 24 61
M  V30 68 1 25 62
M  V30 69 1 28 63
M  V30 70 1 28 64
M  V30 71 1 29 65
M  V30 72 1 29 66
M  V30 73 1 30 67
M  V30 74 1 31 68
M  V30 75 1 34 69
M  V30 76 1 35 70
M  V30 77 1 36 71
M  V30 78 1 37 72
M  V30 79 1 38 73
M  V30 80 1 39 74
M  V30 END BOND
M  V30 END CTAB
M  END
>  <Dataset>  (430) 
ChEMBL_Kinases

>  <Ligand_Instance>  (430) 
nan

>  <PDB_ID>  (430) 
nan

>  <Standardized_SMILES>  (430) 
CC(C)c1nc2nc(-c3ccc(CN4CCC(c5cnc6ccccc6n5)CC4)cc3)c(-c3ccccc3)cn2n1

>  <Name>  (430) 
nan

>  <Pocket>  (430) 
nan

>  <ATP_Site>  (430) 
nan

>  <Peripheral>  (430) 
nan

>  <Num_H_Atoms_ProtBoundConf>  (430) 
nan

>  <Num_Resolved_Atoms>  (430) 
nan

>  <Num_Not_Resolved_Atoms>  (430) 
nan

$$$$
CHEMBL3355989
     RDKit          3D

  0  0  0  0  0  0  0  0  0  0999 V3000
M  V30 BEGIN CTAB
M  V30 COUNTS 43 46 0 0 0
M  V30 BEGIN ATOM
M  V30 1 Cl 0.722699 -3.382305 4.234175 0
M  V30 2 C 0.846140 -3.823172 2.565310 0
M  V30 3 C 0.460300 -5.085377 2.152525 0
M  V30 4 C 0.558073 -5.439072 0.830682 0
M  V30 5 C 1.045999 -4.510658 -0.060749 0
M  V30 6 C 1.451879 -3.217018 0.300289 0
M  V30 7 C 1.942279 -2.388212 -0.764924 0
M  V30 8 C 2.891934 -2.872046 -1.672884 0
M  V30 9 N 3.121401 -1.838365 -2.518066 0
M  V30 10 N 2.359452 -0.803400 -2.141278 0
M  V30 11 C 2.287124 0.405185 -2.717613 0
M  V30 12 C 1.428686 1.319632 -2.165820 0
M  V30 13 C 0.626449 1.074021 -1.044038 0
M  V30 14 N -0.257232 2.073080 -0.557249 0
M  V30 15 C -1.116731 2.180466 0.563892 0
M  V30 16 C -0.501427 2.374069 1.899943 0
M  V30 17 C 0.420935 1.331827 2.401004 0
M  V30 18 C -0.276949 0.040247 2.770621 0
M  V30 19 O -1.345422 0.264965 3.612120 0
M  V30 20 C -2.288564 1.139053 3.129544 0
M  V30 21 C -1.647506 2.488868 2.904429 0
M  V30 22 N 0.774208 -0.180030 -0.534091 0
M  V30 23 C 1.610030 -1.086085 -1.063304 0
M  V30 24 C 1.329035 -2.927345 1.634267 0
M  V30 25 H 0.073921 -5.821186 2.861536 0
M  V30 26 H 0.256245 -6.425999 0.506842 0
M  V30 27 H 1.102293 -4.843759 -1.094985 0
M  V30 28 H 3.343657 -3.854255 -1.695866 0
M  V30 29 H 2.873316 0.645990 -3.570295 0
M  V30 30 H 1.396274 2.286444 -2.658574 0
M  V30 31 H -0.277080 2.927768 -1.166192 0
M  V30 32 H -1.804463 1.286236 0.553752 0
M  V30 33 H -1.819704 3.040813 0.408529 0
M  V30 34 H 0.025447 3.355854 1.908362 0
M  V30 35 H 1.320263 1.133451 1.815274 0
M  V30 36 H 0.818026 1.720500 3.392071 0
M  V30 37 H 0.481796 -0.519933 3.394681 0
M  V30 38 H -0.519083 -0.603600 1.924637 0
M  V30 39 H -3.024128 1.291831 3.972577 0
M  V30 40 H -2.799101 0.738962 2.241638 0
M  V30 41 H -1.179590 2.792629 3.861981 0
M  V30 42 H -2.389906 3.254630 2.596078 0
M  V30 43 H 1.653992 -1.924084 1.877961 0
M  V30 END ATOM
M  V30 BEGIN BOND
M  V30 1 1 1 2
M  V30 2 2 2 3
M  V30 3 1 3 4
M  V30 4 2 4 5
M  V30 5 1 5 6
M  V30 6 1 6 7
M  V30 7 1 7 8
M  V30 8 2 8 9
M  V30 9 1 9 10
M  V30 10 1 10 11
M  V30 11 2 11 12
M  V30 12 1 12 13
M  V30 13 1 13 14
M  V30 14 1 14 15
M  V30 15 1 15 16
M  V30 16 1 16 17
M  V30 17 1 17 18
M  V30 18 1 18 19
M  V30 19 1 19 20
M  V30 20 1 20 21
M  V30 21 2 13 22
M  V30 22 1 22 23
M  V30 23 2 6 24
M  V30 24 1 24 2
M  V30 25 2 23 7
M  V30 26 1 23 10
M  V30 27 1 21 16
M  V30 28 1 3 25
M  V30 29 1 4 26
M  V30 30 1 5 27
M  V30 31 1 8 28
M  V30 32 1 11 29
M  V30 33 1 12 30
M  V30 34 1 14 31
M  V30 35 1 15 32
M  V30 36 1 15 33
M  V30 37 1 16 34
M  V30 38 1 17 35
M  V30 39 1 17 36
M  V30 40 1 18 37
M  V30 41 1 18 38
M  V30 42 1 20 39
M  V30 43 1 20 40
M  V30 44 1 21 41
M  V30 45 1 21 42
M  V30 46 1 24 43
M  V30 END BOND
M  V30 END CTAB
M  END
>  <Dataset>  (431) 
ChEMBL_Kinases

>  <Ligand_Instance>  (431) 
nan

>  <PDB_ID>  (431) 
nan

>  <Standardized_SMILES>  (431) 
Clc1cccc(-c2cnn3ccc(NCC4CCOCC4)nc23)c1

>  <Name>  (431) 
nan

>  <Pocket>  (431) 
nan

>  <ATP_Site>  (431) 
nan

>  <Peripheral>  (431) 
nan

>  <Num_H_Atoms_ProtBoundConf>  (431) 
nan

>  <Num_Resolved_Atoms>  (431) 
nan

>  <Num_Not_Resolved_Atoms>  (431) 
nan

$$$$
CHEMBL3355990
     RDKit          3D

  0  0  0  0  0  0  0  0  0  0999 V3000
M  V30 BEGIN CTAB
M  V30 COUNTS 45 48 0 0 0
M  V30 BEGIN ATOM
M  V30 1 O -2.519829 -3.560721 2.412441 0
M  V30 2 S -1.395350 -4.296760 1.782220 0
M  V30 3 O -1.200138 -5.643898 2.441978 0
M  V30 4 C 0.129800 -3.415313 1.805601 0
M  V30 5 C 0.175329 -2.291742 0.775760 0
M  V30 6 C -0.090541 -2.830134 -0.592933 0
M  V30 7 C 0.018407 -1.829430 -1.695911 0
M  V30 8 N 1.259585 -1.167199 -1.874410 0
M  V30 9 C 1.911010 -0.123786 -1.166420 0
M  V30 10 C 3.210491 0.267419 -1.509605 0
M  V30 11 C 3.826428 1.294739 -0.839639 0
M  V30 12 N 3.217398 1.956145 0.156719 0
M  V30 13 N 3.622773 2.958665 0.919315 0
M  V30 14 C 2.645593 3.294216 1.799882 0
M  V30 15 C 1.612990 2.421292 1.517538 0
M  V30 16 C 0.327270 2.388733 2.207346 0
M  V30 17 C -0.230758 3.635377 2.399064 0
M  V30 18 C -1.454572 3.832496 3.036351 0
M  V30 19 C -2.109964 2.684894 3.484718 0
M  V30 20 C -1.558084 1.422721 3.297476 0
M  V30 21 Cl -2.332431 -0.044868 3.836535 0
M  V30 22 C -0.344609 1.272495 2.661774 0
M  V30 23 C 1.972064 1.565221 0.470082 0
M  V30 24 N 1.344290 0.567103 -0.164290 0
M  V30 25 C -1.521526 -3.351394 -0.668259 0
M  V30 26 C -1.735246 -4.640495 0.048141 0
M  V30 27 H 0.938187 -4.131915 1.557479 0
M  V30 28 H 0.292025 -2.998544 2.821883 0
M  V30 29 H -0.526104 -1.504379 1.109960 0
M  V30 30 H 1.247071 -1.933215 0.856041 0
M  V30 31 H 0.624346 -3.664536 -0.755610 0
M  V30 32 H -0.800953 -1.065683 -1.481907 0
M  V30 33 H -0.354774 -2.327230 -2.626132 0
M  V30 34 H 1.797532 -1.544736 -2.714420 0
M  V30 35 H 3.724025 -0.262564 -2.322850 0
M  V30 36 H 4.830355 1.529503 -1.171519 0
M  V30 37 H 2.713375 4.076594 2.534562 0
M  V30 38 H 0.202621 4.596655 2.085276 0
M  V30 39 H -1.913035 4.789442 3.198678 0
M  V30 40 H -3.076936 2.769392 3.994416 0
M  V30 41 H 0.181861 0.351724 2.458658 0
M  V30 42 H -1.759498 -3.467068 -1.747655 0
M  V30 43 H -2.182045 -2.578520 -0.229526 0
M  V30 44 H -1.104504 -5.454904 -0.326129 0
M  V30 45 H -2.785094 -4.918796 -0.062531 0
M  V30 END ATOM
M  V30 BEGIN BOND
M  V30 1 2 1 2
M  V30 2 2 2 3
M  V30 3 1 2 4
M  V30 4 1 4 5
M  V30 5 1 5 6
M  V30 6 1 6 7
M  V30 7 1 7 8
M  V30 8 1 8 9
M  V30 9 1 9 10
M  V30 10 2 10 11
M  V30 11 1 11 12
M  V30 12 1 12 13
M  V30 13 2 13 14
M  V30 14 1 14 15
M  V30 15 1 15 16
M  V30 16 2 16 17
M  V30 17 1 17 18
M  V30 18 2 18 19
M  V30 19 1 19 20
M  V30 20 1 20 21
M  V30 21 2 20 22
M  V30 22 2 15 23
M  V30 23 1 23 24
M  V30 24 1 6 25
M  V30 25 1 25 26
M  V30 26 1 26 2
M  V30 27 2 24 9
M  V30 28 1 23 12
M  V30 29 1 22 16
M  V30 30 1 4 27
M  V30 31 1 4 28
M  V30 32 1 5 29
M  V30 33 1 5 30
M  V30 34 1 6 31
M  V30 35 1 7 32
M  V30 36 1 7 33
M  V30 37 1 8 34
M  V30 38 1 10 35
M  V30 39 1 11 36
M  V30 40 1 14 37
M  V30 41 1 17 38
M  V30 42 1 18 39
M  V30 43 1 19 40
M  V30 44 1 22 41
M  V30 45 1 25 42
M  V30 46 1 25 43
M  V30 47 1 26 44
M  V30 48 1 26 45
M  V30 END BOND
M  V30 END CTAB
M  END
>  <Dataset>  (432) 
ChEMBL_Kinases

>  <Ligand_Instance>  (432) 
nan

>  <PDB_ID>  (432) 
nan

>  <Standardized_SMILES>  (432) 
O=S1(=O)CCC(CNc2ccn3ncc(-c4cccc(Cl)c4)c3n2)CC1

>  <Name>  (432) 
nan

>  <Pocket>  (432) 
nan

>  <ATP_Site>  (432) 
nan

>  <Peripheral>  (432) 
nan

>  <Num_H_Atoms_ProtBoundConf>  (432) 
nan

>  <Num_Resolved_Atoms>  (432) 
nan

>  <Num_Not_Resolved_Atoms>  (432) 
nan

$$$$
CHEMBL3355991
     RDKit          3D

  0  0  0  0  0  0  0  0  0  0999 V3000
M  V30 BEGIN CTAB
M  V30 COUNTS 38 41 0 0 0
M  V30 BEGIN ATOM
M  V30 1 O -1.412614 -4.471507 3.490480 0
M  V30 2 C -0.499492 -3.714237 3.272871 0
M  V30 3 C 0.494301 -4.343019 2.329626 0
M  V30 4 C 1.675875 -3.364053 2.337011 0
M  V30 5 N 1.115679 -2.123421 1.839988 0
M  V30 6 C 1.306912 -1.620778 0.543110 0
M  V30 7 C 2.057428 -2.269080 -0.410848 0
M  V30 8 C 2.217517 -1.732788 -1.677815 0
M  V30 9 N 1.635654 -0.548003 -2.013656 0
M  V30 10 N 1.597530 0.204717 -3.099827 0
M  V30 11 C 0.863291 1.300738 -2.894543 0
M  V30 12 C 0.389564 1.259252 -1.581967 0
M  V30 13 C -0.456462 2.198182 -0.835214 0
M  V30 14 C -0.322689 3.570944 -0.809234 0
M  V30 15 C -1.166883 4.350731 -0.079181 0
M  V30 16 C -2.165052 3.725969 0.637581 0
M  V30 17 C -2.319456 2.353262 0.627633 0
M  V30 18 Cl -3.605398 1.625308 1.558294 0
M  V30 19 C -1.460559 1.583556 -0.112887 0
M  V30 20 C 0.902011 0.069630 -1.055804 0
M  V30 21 N 0.746702 -0.458232 0.185280 0
M  V30 22 C 0.309122 -1.397446 2.801841 0
M  V30 23 C -0.316235 -2.343828 3.821612 0
M  V30 24 H 0.085061 -4.303306 1.293216 0
M  V30 25 H 0.844947 -5.319978 2.655580 0
M  V30 26 H 1.977162 -3.231373 3.406875 0
M  V30 27 H 2.507383 -3.761834 1.761475 0
M  V30 28 H 2.539021 -3.209047 -0.197282 0
M  V30 29 H 2.811999 -2.254708 -2.420203 0
M  V30 30 H 0.621535 2.127034 -3.560616 0
M  V30 31 H 0.492716 3.981050 -1.404207 0
M  V30 32 H -1.078948 5.410706 -0.047180 0
M  V30 33 H -2.846221 4.297247 1.221123 0
M  V30 34 H -1.632663 0.496616 -0.081985 0
M  V30 35 H 1.000246 -0.742181 3.371540 0
M  V30 36 H -0.464211 -0.776018 2.318497 0
M  V30 37 H -1.292366 -1.964966 4.163794 0
M  V30 38 H 0.322313 -2.426274 4.727202 0
M  V30 END ATOM
M  V30 BEGIN BOND
M  V30 1 2 1 2
M  V30 2 1 2 3
M  V30 3 1 3 4
M  V30 4 1 4 5
M  V30 5 1 5 6
M  V30 6 1 6 7
M  V30 7 2 7 8
M  V30 8 1 8 9
M  V30 9 1 9 10
M  V30 10 2 10 11
M  V30 11 1 11 12
M  V30 12 1 12 13
M  V30 13 2 13 14
M  V30 14 1 14 15
M  V30 15 2 15 16
M  V30 16 1 16 17
M  V30 17 1 17 18
M  V30 18 2 17 19
M  V30 19 2 12 20
M  V30 20 1 20 21
M  V30 21 1 5 22
M  V30 22 1 22 23
M  V30 23 1 23 2
M  V30 24 2 21 6
M  V30 25 1 20 9
M  V30 26 1 19 13
M  V30 27 1 3 24
M  V30 28 1 3 25
M  V30 29 1 4 26
M  V30 30 1 4 27
M  V30 31 1 7 28
M  V30 32 1 8 29
M  V30 33 1 11 30
M  V30 34 1 14 31
M  V30 35 1 15 32
M  V30 36 1 16 33
M  V30 37 1 19 34
M  V30 38 1 22 35
M  V30 39 1 22 36
M  V30 40 1 23 37
M  V30 41 1 23 38
M  V30 END BOND
M  V30 END CTAB
M  END
>  <Dataset>  (433) 
ChEMBL_Kinases

>  <Ligand_Instance>  (433) 
nan

>  <PDB_ID>  (433) 
nan

>  <Standardized_SMILES>  (433) 
O=C1CCN(c2ccn3ncc(-c4cccc(Cl)c4)c3n2)CC1

>  <Name>  (433) 
nan

>  <Pocket>  (433) 
nan

>  <ATP_Site>  (433) 
nan

>  <Peripheral>  (433) 
nan

>  <Num_H_Atoms_ProtBoundConf>  (433) 
nan

>  <Num_Resolved_Atoms>  (433) 
nan

>  <Num_Not_Resolved_Atoms>  (433) 
nan

$$$$
CHEMBL4127785
     RDKit          3D

  0  0  0  0  0  0  0  0  0  0999 V3000
M  V30 BEGIN CTAB
M  V30 COUNTS 210 214 0 0 0
M  V30 BEGIN ATOM
M  V30 1 C 2.588585 -3.940405 -6.265976 0
M  V30 2 C 1.342633 -3.186410 -5.777934 0
M  V30 3 C 1.732565 -1.881880 -5.151684 0 CFG=2
M  V30 4 C 2.670227 -2.103099 -3.969278 0
M  V30 5 C 0.557978 -1.045853 -4.665633 0 CFG=2
M  V30 6 N 1.132987 0.176595 -4.088330 0
M  V30 7 C 0.223091 1.271718 -4.242340 0
M  V30 8 O -0.899552 1.041092 -4.813394 0
M  V30 9 C 0.296485 2.705019 -3.860405 0 CFG=2
M  V30 10 C -0.361515 3.584103 -4.895550 0
M  V30 11 N 1.566833 3.199725 -3.489014 0
M  V30 12 C 2.518607 3.598664 -2.580116 0
M  V30 13 O 2.202550 3.508054 -1.362270 0
M  V30 14 C 3.870797 4.131269 -2.494715 0 CFG=1
M  V30 15 N 4.333141 4.182134 -1.118099 0
M  V30 16 C 4.988969 5.397961 -0.649147 0
M  V30 17 O 5.147429 6.353078 -1.416485 0
M  V30 18 C 5.493217 5.518694 0.768217 0 CFG=2
M  V30 19 C 7.027840 5.420629 0.743168 0
M  V30 20 O 7.612988 6.403612 -0.013250 0
M  V30 21 N 5.046185 4.442134 1.587524 0
M  V30 22 C 4.575723 4.795636 2.863200 0
M  V30 23 O 4.593366 6.024327 3.194152 0
M  V30 24 C 4.007443 4.269414 4.122588 0 CFG=2
M  V30 25 C 5.050234 4.428212 5.241936 0
M  V30 26 C 4.451878 4.081154 6.513615 0
M  V30 27 C 3.293595 3.775606 7.183308 0
M  V30 28 N 3.433458 3.620081 8.508611 0
M  V30 29 C 4.769042 3.840798 8.726960 0
M  V30 30 N 5.351437 4.112206 7.529312 0
M  V30 31 N 3.792181 2.833599 3.881324 0
M  V30 32 C 3.419092 1.583576 4.304176 0
M  V30 33 O 3.024046 1.316561 5.438757 0
M  V30 34 C 3.354863 0.236542 3.668641 0 CFG=2
M  V30 35 C 2.546625 0.223732 2.421637 0
M  V30 36 C 2.552024 -1.074459 1.681210 0
M  V30 37 C 2.061553 -2.293536 2.347676 0
M  V30 38 C 1.834950 -0.823459 0.348412 0
M  V30 39 N 2.857766 -0.656271 4.727875 0
M  V30 40 C 1.541711 -0.984424 5.143563 0
M  V30 41 O 0.588781 -0.439875 4.521464 0
M  V30 42 C 1.227133 -1.894423 6.223865 0 CFG=2
M  V30 43 C 2.087823 -3.149764 6.237824 0
M  V30 44 C 1.318616 -4.065158 7.180971 0
M  V30 45 C 0.128255 -3.160899 7.530366 0
M  V30 46 N -0.121877 -2.387752 6.294450 0
M  V30 47 C -1.289051 -2.259620 5.536223 0
M  V30 48 O -1.636841 -1.664715 4.486986 0
M  V30 49 C -2.675090 -2.516343 5.247390 0 CFG=2
M  V30 50 C -2.958652 -3.966405 4.871799 0
M  V30 51 C -3.901822 -3.929716 3.716711 0
M  V30 52 C -3.772047 -2.574750 3.087895 0
M  V30 53 N -3.220347 -1.750190 4.143713 0
M  V30 54 C -3.282113 -0.371012 3.950999 0
M  V30 55 O -2.924560 0.609653 4.656145 0
M  V30 56 C -3.703181 0.656032 3.018489 0 CFG=2
M  V30 57 C -2.793476 0.653204 1.755644 0
M  V30 58 C -3.239211 1.708231 0.810747 0
M  V30 59 O -2.931006 2.936416 0.761389 0
M  V30 60 O -3.887686 2.356690 -0.242435 0
M  V30 61 N -3.549541 1.993444 3.557890 0
M  V30 62 C -4.495737 2.954374 3.241438 0
M  V30 63 O -5.510593 2.861534 2.511954 0
M  V30 64 C -4.837882 4.360907 3.485716 0 CFG=2
M  V30 65 C -5.421605 4.510590 4.869160 0
M  V30 66 C -4.453957 4.053031 5.874272 0
M  V30 67 C -4.534274 2.760816 6.398757 0
M  V30 68 C -3.628757 2.315632 7.324189 0
M  V30 69 C -2.592462 3.089906 7.799003 0
M  V30 70 Cl -1.428477 2.542406 8.980868 0
M  V30 71 C -2.518437 4.386388 7.268891 0
M  V30 72 Cl -1.224434 5.431949 7.828592 0
M  V30 73 C -3.412337 4.884306 6.329224 0
M  V30 74 N -5.846013 4.799135 2.498181 0
M  V30 75 C -5.405149 5.833597 1.631222 0
M  V30 76 C -6.302405 6.379695 0.578249 0
M  V30 77 O -4.246225 6.353887 1.685285 0
M  V30 78 C 4.876068 3.687639 -3.490530 0 CFG=1
M  V30 79 C 5.529325 2.376002 -3.305911 0
M  V30 80 O 4.285268 3.722507 -4.759767 0
M  V30 81 P 4.705897 5.145639 -5.582390 0
M  V30 82 O 6.165675 5.441173 -5.580356 0
M  V30 83 O 3.843250 6.474664 -4.933300 0
M  V30 84 O 4.204968 4.979287 -7.182614 0
M  V30 85 C -0.111696 -1.764043 -3.501760 0
M  V30 86 O 0.161652 -1.587538 -2.289532 0
M  V30 87 N -1.114580 -2.686166 -3.948652 0
M  V30 88 C -1.883834 -3.513458 -3.041033 0 CFG=1
M  V30 89 C -3.026056 -2.672021 -2.430096 0
M  V30 90 C -3.941642 -2.128951 -3.426362 0
M  V30 91 C -5.023257 -2.866415 -3.854684 0
M  V30 92 C -5.879495 -2.337746 -4.801076 0
M  V30 93 C -5.721432 -1.090113 -5.359170 0
M  V30 94 O -6.558710 -0.517296 -6.314834 0
M  V30 95 C -4.611084 -0.364432 -4.903232 0
M  V30 96 C -3.748058 -0.870059 -3.963599 0
M  V30 97 C -2.430849 -4.733675 -3.643738 0
M  V30 98 O -2.944343 -5.436417 -2.729771 0
M  V30 99 N -2.464629 -5.183414 -4.981488 0
M  V30 100 C -2.980701 -6.337279 -5.641646 0 CFG=1
M  V30 101 C -4.344340 -6.020713 -6.288715 0
M  V30 102 C -2.080868 -6.925769 -6.656728 0
M  V30 103 O -2.676551 -7.930467 -7.134750 0
M  V30 104 N -0.801846 -6.482077 -7.048413 0
M  V30 105 C 0.075083 -7.045255 -8.051853 0 CFG=1
M  V30 106 C 0.483362 -6.088888 -9.126601 0
M  V30 107 C 1.399285 -6.723879 -10.143596 0
M  V30 108 N 2.806840 -6.491771 -10.184663 0
M  V30 109 O 1.607239 -7.465158 -11.126185 0
M  V30 110 C 1.285613 -7.606000 -7.408551 0
M  V30 111 N 1.719995 -7.880501 -6.110960 0
M  V30 112 O 2.295178 -8.001009 -8.058987 0
M  V30 113 H 3.430031 -3.223202 -6.226322 0
M  V30 114 H 2.758725 -4.851421 -5.649012 0
M  V30 115 H 2.481241 -4.288204 -7.294117 0
M  V30 116 H 0.790637 -3.856618 -5.100106 0
M  V30 117 H 0.697259 -3.054825 -6.671276 0
M  V30 118 H 2.272245 -1.280334 -5.903489 0
M  V30 119 H 3.184993 -1.122470 -3.798778 0
M  V30 120 H 3.468062 -2.804316 -4.262832 0
M  V30 121 H 2.159600 -2.480502 -3.086068 0
M  V30 122 H -0.156666 -0.896281 -5.443489 0
M  V30 123 H 1.992725 0.510694 -3.603387 0
M  V30 124 H -0.345923 2.852338 -2.913930 0
M  V30 125 H 0.119390 4.580918 -4.853174 0
M  V30 126 H -0.151713 3.129862 -5.893983 0
M  V30 127 H -1.445602 3.607102 -4.722926 0
M  V30 128 H 2.032987 3.313519 -4.447997 0
M  V30 129 H 3.777963 5.252664 -2.746010 0
M  V30 130 H 4.271410 3.462305 -0.368804 0
M  V30 131 H 5.234647 6.523467 1.127943 0
M  V30 132 H 7.335022 4.414936 0.376984 0
M  V30 133 H 7.360281 5.513385 1.789591 0
M  V30 134 H 8.302870 5.994355 -0.595652 0
M  V30 135 H 4.972062 3.423111 1.509865 0
M  V30 136 H 3.135982 4.736973 4.483418 0
M  V30 137 H 5.288035 5.513652 5.240076 0
M  V30 138 H 5.973102 3.882651 4.998500 0
M  V30 139 H 2.408865 3.718729 6.540004 0
M  V30 140 H 5.061453 3.752509 9.765873 0
M  V30 141 H 6.382158 4.287253 7.675141 0
M  V30 142 H 4.010823 2.530509 2.878136 0
M  V30 143 H 4.357851 -0.101887 3.404774 0
M  V30 144 H 2.826374 1.080669 1.733610 0
M  V30 145 H 1.448031 0.456856 2.608406 0
M  V30 146 H 3.641872 -1.288375 1.405085 0
M  V30 147 H 1.032761 -2.330260 2.681094 0
M  V30 148 H 2.720775 -2.633535 3.184469 0
M  V30 149 H 2.142995 -3.147359 1.586075 0
M  V30 150 H 1.907588 0.212543 0.031062 0
M  V30 151 H 2.199200 -1.585859 -0.344847 0
M  V30 152 H 0.761489 -1.097313 0.556182 0
M  V30 153 H 3.604516 -1.153984 5.302406 0
M  V30 154 H 1.436839 -1.421379 7.241415 0
M  V30 155 H 2.015985 -3.614924 5.235834 0
M  V30 156 H 3.111252 -2.978323 6.546308 0
M  V30 157 H 1.928133 -4.292544 8.052990 0
M  V30 158 H 0.984806 -5.005534 6.695012 0
M  V30 159 H 0.403114 -2.475977 8.359424 0
M  V30 160 H -0.690635 -3.804628 7.811468 0
M  V30 161 H -3.273622 -2.346433 6.198700 0
M  V30 162 H -3.487915 -4.521036 5.694155 0
M  V30 163 H -2.018435 -4.524158 4.694792 0
M  V30 164 H -3.634011 -4.736457 2.989998 0
M  V30 165 H -4.963889 -4.152213 4.009893 0
M  V30 166 H -4.793146 -2.257294 2.796287 0
M  V30 167 H -3.183041 -2.543501 2.156027 0
M  V30 168 H -4.719659 0.575076 2.599553 0
M  V30 169 H -2.818950 -0.317251 1.248397 0
M  V30 170 H -1.749592 0.909686 2.020113 0
M  V30 171 H -4.096784 1.866333 -1.124159 0
M  V30 172 H -2.850719 2.471578 4.161910 0
M  V30 173 H -3.931791 4.978402 3.376498 0
M  V30 174 H -5.730218 5.575957 5.012378 0
M  V30 175 H -6.319352 3.843514 4.898055 0
M  V30 176 H -5.310046 2.080869 6.085041 0
M  V30 177 H -3.652350 1.306173 7.761275 0
M  V30 178 H -3.343316 5.896504 5.929003 0
M  V30 179 H -6.789686 4.389832 2.451717 0
M  V30 180 H -6.052406 7.454744 0.414712 0
M  V30 181 H -6.192902 5.832166 -0.380318 0
M  V30 182 H -7.362155 6.311254 0.858364 0
M  V30 183 H 5.664039 4.483868 -3.497202 0
M  V30 184 H 5.411523 1.882218 -2.331791 0
M  V30 185 H 6.613834 2.412400 -3.628138 0
M  V30 186 H 5.091122 1.637349 -4.043961 0
M  V30 187 H 4.450757 7.153193 -4.595689 0
M  V30 188 H 4.057575 5.848313 -7.634472 0
M  V30 189 H -1.361046 -2.819675 -4.950148 0
M  V30 190 H -1.260684 -3.741897 -2.164743 0
M  V30 191 H -3.586498 -3.351650 -1.761229 0
M  V30 192 H -2.597601 -1.864659 -1.794223 0
M  V30 193 H -5.192957 -3.854494 -3.450766 0
M  V30 194 H -6.757980 -2.887257 -5.173560 0
M  V30 195 H -6.112504 -0.219163 -7.186930 0
M  V30 196 H -4.457140 0.623953 -5.329471 0
M  V30 197 H -2.885433 -0.326130 -3.580555 0
M  V30 198 H -2.012143 -4.545938 -5.670394 0
M  V30 199 H -3.206087 -7.083227 -4.858228 0
M  V30 200 H -5.112313 -5.895537 -5.502881 0
M  V30 201 H -4.598936 -6.895852 -6.899982 0
M  V30 202 H -4.282745 -5.156982 -6.967851 0
M  V30 203 H -0.488557 -5.640625 -6.528341 0
M  V30 204 H -0.514311 -7.873979 -8.533214 0
M  V30 205 H -0.416704 -5.773485 -9.750352 0
M  V30 206 H 0.946785 -5.163136 -8.801859 0
M  V30 207 H 3.826419 -6.201999 -10.157372 0
M  V30 208 H 3.634910 -5.876968 -9.988857 0
M  V30 209 H 2.474854 -7.420012 -5.530157 0
M  V30 210 H 1.043490 -8.685158 -5.934504 0
M  V30 END ATOM
M  V30 BEGIN BOND
M  V30 1 1 1 2
M  V30 2 1 2 3
M  V30 3 1 3 4
M  V30 4 1 3 5
M  V30 5 1 5 6
M  V30 6 1 6 7
M  V30 7 2 7 8
M  V30 8 1 7 9
M  V30 9 1 9 10
M  V30 10 1 9 11
M  V30 11 1 11 12
M  V30 12 2 12 13
M  V30 13 1 12 14
M  V30 14 1 14 15
M  V30 15 1 15 16
M  V30 16 2 16 17
M  V30 17 1 16 18
M  V30 18 1 18 19
M  V30 19 1 19 20
M  V30 20 1 18 21
M  V30 21 1 21 22
M  V30 22 2 22 23
M  V30 23 1 22 24
M  V30 24 1 24 25
M  V30 25 1 25 26
M  V30 26 2 26 27
M  V30 27 1 27 28
M  V30 28 2 28 29
M  V30 29 1 29 30
M  V30 30 1 24 31
M  V30 31 1 31 32
M  V30 32 2 32 33
M  V30 33 1 32 34
M  V30 34 1 34 35
M  V30 35 1 35 36
M  V30 36 1 36 37
M  V30 37 1 36 38
M  V30 38 1 34 39
M  V30 39 1 39 40
M  V30 40 2 40 41
M  V30 41 1 40 42
M  V30 42 1 42 43
M  V30 43 1 43 44
M  V30 44 1 44 45
M  V30 45 1 45 46
M  V30 46 1 46 47
M  V30 47 2 47 48
M  V30 48 1 47 49
M  V30 49 1 49 50
M  V30 50 1 50 51
M  V30 51 1 51 52
M  V30 52 1 52 53
M  V30 53 1 53 54
M  V30 54 2 54 55
M  V30 55 1 54 56
M  V30 56 1 56 57
M  V30 57 1 57 58
M  V30 58 2 58 59
M  V30 59 1 58 60
M  V30 60 1 56 61
M  V30 61 1 61 62
M  V30 62 2 62 63
M  V30 63 1 62 64
M  V30 64 1 64 65
M  V30 65 1 65 66
M  V30 66 2 66 67
M  V30 67 1 67 68
M  V30 68 2 68 69
M  V30 69 1 69 70
M  V30 70 1 69 71
M  V30 71 1 71 72
M  V30 72 2 71 73
M  V30 73 1 64 74
M  V30 74 1 74 75
M  V30 75 1 75 76
M  V30 76 2 75 77
M  V30 77 1 14 78
M  V30 78 1 78 79
M  V30 79 1 78 80
M  V30 80 1 80 81
M  V30 81 2 81 82
M  V30 82 1 81 83
M  V30 83 1 81 84
M  V30 84 1 5 85
M  V30 85 2 85 86
M  V30 86 1 85 87
M  V30 87 1 87 88
M  V30 88 1 88 89
M  V30 89 1 89 90
M  V30 90 2 90 91
M  V30 91 1 91 92
M  V30 92 2 92 93
M  V30 93 1 93 94
M  V30 94 1 93 95
M  V30 95 2 95 96
M  V30 96 1 88 97
M  V30 97 2 97 98
M  V30 98 1 97 99
M  V30 99 1 99 100
M  V30 100 1 100 101
M  V30 101 1 100 102
M  V30 102 2 102 103
M  V30 103 1 102 104
M  V30 104 1 104 105
M  V30 105 1 105 106
M  V30 106 1 106 107
M  V30 107 1 107 108
M  V30 108 2 107 109
M  V30 109 1 105 110
M  V30 110 1 110 111
M  V30 111 2 110 112
M  V30 112 1 30 26
M  V30 113 1 46 42
M  V30 114 1 53 49
M  V30 115 1 73 66
M  V30 116 1 96 90
M  V30 117 1 1 113
M  V30 118 1 1 114
M  V30 119 1 1 115
M  V30 120 1 2 116
M  V30 121 1 2 117
M  V30 122 1 3 118 CFG=3
M  V30 123 1 4 119
M  V30 124 1 4 120
M  V30 125 1 4 121
M  V30 126 1 5 122 CFG=3
M  V30 127 1 6 123
M  V30 128 1 9 124 CFG=1
M  V30 129 1 10 125
M  V30 130 1 10 126
M  V30 131 1 10 127
M  V30 132 1 11 128
M  V30 133 1 14 129 CFG=3
M  V30 134 1 15 130
M  V30 135 1 18 131 CFG=1
M  V30 136 1 19 132
M  V30 137 1 19 133
M  V30 138 1 20 134
M  V30 139 1 21 135
M  V30 140 1 24 136 CFG=1
M  V30 141 1 25 137
M  V30 142 1 25 138
M  V30 143 1 27 139
M  V30 144 1 29 140
M  V30 145 1 30 141
M  V30 146 1 31 142
M  V30 147 1 34 143 CFG=3
M  V30 148 1 35 144
M  V30 149 1 35 145
M  V30 150 1 36 146
M  V30 151 1 37 147
M  V30 152 1 37 148
M  V30 153 1 37 149
M  V30 154 1 38 150
M  V30 155 1 38 151
M  V30 156 1 38 152
M  V30 157 1 39 153
M  V30 158 1 42 154 CFG=1
M  V30 159 1 43 155
M  V30 160 1 43 156
M  V30 161 1 44 157
M  V30 162 1 44 158
M  V30 163 1 45 159
M  V30 164 1 45 160
M  V30 165 1 49 161 CFG=1
M  V30 166 1 50 162
M  V30 167 1 50 163
M  V30 168 1 51 164
M  V30 169 1 51 165
M  V30 170 1 52 166
M  V30 171 1 52 167
M  V30 172 1 56 168 CFG=3
M  V30 173 1 57 169
M  V30 174 1 57 170
M  V30 175 1 60 171
M  V30 176 1 61 172
M  V30 177 1 64 173 CFG=1
M  V30 178 1 65 174
M  V30 179 1 65 175
M  V30 180 1 67 176
M  V30 181 1 68 177
M  V30 182 1 73 178
M  V30 183 1 74 179
M  V30 184 1 76 180
M  V30 185 1 76 181
M  V30 186 1 76 182
M  V30 187 1 78 183 CFG=3
M  V30 188 1 79 184
M  V30 189 1 79 185
M  V30 190 1 79 186
M  V30 191 1 83 187
M  V30 192 1 84 188
M  V30 193 1 87 189
M  V30 194 1 88 190 CFG=1
M  V30 195 1 89 191
M  V30 196 1 89 192
M  V30 197 1 91 193
M  V30 198 1 92 194
M  V30 199 1 94 195
M  V30 200 1 95 196
M  V30 201 1 96 197
M  V30 202 1 99 198
M  V30 203 1 100 199 CFG=1
M  V30 204 1 101 200
M  V30 205 1 101 201
M  V30 206 1 101 202
M  V30 207 1 104 203
M  V30 208 1 105 204 CFG=3
M  V30 209 1 106 205
M  V30 210 1 106 206
M  V30 211 1 108 207
M  V30 212 1 108 208
M  V30 213 1 111 209
M  V30 214 1 111 210
M  V30 END BOND
M  V30 END CTAB
M  END
>  <Dataset>  (434) 
ChEMBL_Kinases

>  <Ligand_Instance>  (434) 
nan

>  <PDB_ID>  (434) 
nan

>  <Standardized_SMILES>  (434) 
CC[C@H](C)[C@H](NC(=O)[C@H](C)NC(=O)[C@@H](NC(=O)[C@H](CO)NC(=O)[C@H](Cc1cnc[nH]1)NC(=O)[C@H](CC(C)C)NC(=O)[C@@H]1CCCN1C(=O)[C@@H]1CCCN1C(=O)[C@H](CC(=O)O)NC(=O)[C@H](Cc1ccc(Cl)c(Cl)c1)NC(C)=O)[C@@H](C)OP(=O)(O)O)C(=O)N[C@@H](Cc1ccc(O)cc1)C(=O)N[C@@H](C)C(=O)N[C@@H](CC(N)=O)C(N)=O

>  <Name>  (434) 
nan

>  <Pocket>  (434) 
nan

>  <ATP_Site>  (434) 
nan

>  <Peripheral>  (434) 
nan

>  <Num_H_Atoms_ProtBoundConf>  (434) 
nan

>  <Num_Resolved_Atoms>  (434) 
nan

>  <Num_Not_Resolved_Atoms>  (434) 
nan

$$$$
CHEMBL3672051
     RDKit          3D

  0  0  0  0  0  0  0  0  0  0999 V3000
M  V30 BEGIN CTAB
M  V30 COUNTS 73 79 0 0 0
M  V30 BEGIN ATOM
M  V30 1 C 4.597449 -2.899764 4.047179 0
M  V30 2 O 4.909084 -1.821788 3.173613 0
M  V30 3 C 4.027471 -1.435598 2.158490 0
M  V30 4 O 2.936445 -2.013895 1.974093 0
M  V30 5 C 4.386429 -0.317131 1.277024 0
M  V30 6 C 5.534829 0.452423 1.307602 0
M  V30 7 N 5.402973 1.345347 0.308167 0
M  V30 8 N 4.255789 1.155044 -0.309377 0
M  V30 9 C 3.743468 1.830368 -1.356762 0
M  V30 10 C 2.494401 1.476616 -1.880441 0
M  V30 11 C 1.950899 2.209339 -3.005939 0
M  V30 12 C 1.643069 1.784193 -4.288706 0
M  V30 13 F 1.909087 0.465025 -4.477790 0
M  V30 14 C 1.127565 2.689962 -5.193123 0
M  V30 15 C 0.915010 3.996484 -4.848676 0
M  V30 16 C 1.208823 4.450943 -3.586785 0
M  V30 17 C 1.732052 3.534932 -2.666247 0
M  V30 18 F 1.980084 4.115791 -1.447486 0
M  V30 19 C 1.813813 0.443183 -1.312706 0
M  V30 20 C 0.544484 -0.002974 -1.759814 0
M  V30 21 C -0.673808 0.653197 -1.822480 0
M  V30 22 C -1.818893 0.034491 -2.295576 0
M  V30 23 C -1.807122 -1.283298 -2.734530 0
M  V30 24 C -3.075572 -1.835353 -3.213414 0
M  V30 25 N -3.894328 -2.469639 -2.237659 0
M  V30 26 C -4.286211 -1.599745 -1.164467 0
M  V30 27 C -4.851289 -2.389868 -0.005167 0
M  V30 28 C -3.855658 -3.338495 0.586433 0
M  V30 29 C -3.180195 -2.697562 1.766983 0
M  V30 30 N -2.554784 -1.562825 1.381391 0
M  V30 31 N -1.969208 -1.027929 2.459102 0
M  V30 32 C -2.234894 -1.836281 3.512882 0
M  V30 33 C -1.780298 -1.612955 4.867126 0
M  V30 34 C -1.014966 -0.521694 5.192638 0
M  V30 35 C -0.536072 -0.226503 6.450788 0
M  V30 36 C -0.856430 -1.112813 7.482586 0
M  V30 37 C -1.629729 -2.219273 7.164180 0
M  V30 38 N -2.048471 -2.413552 5.890428 0
M  V30 39 N -2.985223 -2.870453 3.083397 0
M  V30 40 C -2.826712 -3.743224 -0.444151 0
M  V30 41 C -3.483905 -3.766085 -1.803713 0
M  V30 42 C -0.585979 -1.963049 -2.679148 0
M  V30 43 C 0.562970 -1.334662 -2.202019 0
M  V30 44 N 2.377936 -0.211687 -0.249396 0
M  V30 45 C 3.570241 0.120376 0.256197 0
M  V30 46 H 3.588194 -2.676976 4.473370 0
M  V30 47 H 5.302297 -2.827078 4.923412 0
M  V30 48 H 4.615610 -3.870737 3.546261 0
M  V30 49 H 6.343799 0.319879 2.014008 0
M  V30 50 H 4.277442 2.659726 -1.821049 0
M  V30 51 H 0.933566 2.220026 -6.157112 0
M  V30 52 H 0.512040 4.586070 -5.646691 0
M  V30 53 H 1.021952 5.492774 -3.366808 0
M  V30 54 H -0.605473 1.671279 -1.465376 0
M  V30 55 H -2.652904 0.709710 -2.264146 0
M  V30 56 H -3.684273 -1.074447 -3.737694 0
M  V30 57 H -2.860181 -2.614595 -4.000321 0
M  V30 58 H -5.095617 -0.940289 -1.528542 0
M  V30 59 H -3.482184 -0.959905 -0.763818 0
M  V30 60 H -5.161386 -1.652939 0.770983 0
M  V30 61 H -5.735068 -2.960304 -0.300890 0
M  V30 62 H -4.354605 -4.269318 0.965431 0
M  V30 63 H -1.392366 -0.139281 2.535712 0
M  V30 64 H -0.722536 0.220208 4.433816 0
M  V30 65 H 0.065369 0.645056 6.667869 0
M  V30 66 H -0.499831 -0.918191 8.486095 0
M  V30 67 H -1.903790 -2.930129 7.917227 0
M  V30 68 H -2.026942 -2.983959 -0.382233 0
M  V30 69 H -2.439882 -4.772906 -0.253273 0
M  V30 70 H -2.890435 -4.323537 -2.533990 0
M  V30 71 H -4.425787 -4.371830 -1.660663 0
M  V30 72 H -0.599619 -2.979247 -3.023090 0
M  V30 73 H 1.438718 -1.994306 -2.220089 0
M  V30 END ATOM
M  V30 BEGIN BOND
M  V30 1 1 1 2
M  V30 2 1 2 3
M  V30 3 2 3 4
M  V30 4 1 3 5
M  V30 5 1 5 6
M  V30 6 2 6 7
M  V30 7 1 7 8
M  V30 8 1 8 9
M  V30 9 2 9 10
M  V30 10 1 10 11
M  V30 11 2 11 12
M  V30 12 1 12 13
M  V30 13 1 12 14
M  V30 14 2 14 15
M  V30 15 1 15 16
M  V30 16 2 16 17
M  V30 17 1 17 18
M  V30 18 1 10 19
M  V30 19 1 19 20
M  V30 20 2 20 21
M  V30 21 1 21 22
M  V30 22 2 22 23
M  V30 23 1 23 24
M  V30 24 1 24 25
M  V30 25 1 25 26
M  V30 26 1 26 27
M  V30 27 1 27 28
M  V30 28 1 28 29
M  V30 29 2 29 30
M  V30 30 1 30 31
M  V30 31 1 31 32
M  V30 32 1 32 33
M  V30 33 2 33 34
M  V30 34 1 34 35
M  V30 35 2 35 36
M  V30 36 1 36 37
M  V30 37 2 37 38
M  V30 38 2 32 39
M  V30 39 1 28 40
M  V30 40 1 40 41
M  V30 41 1 23 42
M  V30 42 2 42 43
M  V30 43 2 19 44
M  V30 44 1 44 45
M  V30 45 2 45 5
M  V30 46 1 45 8
M  V30 47 1 17 11
M  V30 48 1 43 20
M  V30 49 1 41 25
M  V30 50 1 39 29
M  V30 51 1 38 33
M  V30 52 1 1 46
M  V30 53 1 1 47
M  V30 54 1 1 48
M  V30 55 1 6 49
M  V30 56 1 9 50
M  V30 57 1 14 51
M  V30 58 1 15 52
M  V30 59 1 16 53
M  V30 60 1 21 54
M  V30 61 1 22 55
M  V30 62 1 24 56
M  V30 63 1 24 57
M  V30 64 1 26 58
M  V30 65 1 26 59
M  V30 66 1 27 60
M  V30 67 1 27 61
M  V30 68 1 28 62
M  V30 69 1 31 63
M  V30 70 1 34 64
M  V30 71 1 35 65
M  V30 72 1 36 66
M  V30 73 1 37 67
M  V30 74 1 40 68
M  V30 75 1 40 69
M  V30 76 1 41 70
M  V30 77 1 41 71
M  V30 78 1 42 72
M  V30 79 1 43 73
M  V30 END BOND
M  V30 END CTAB
M  END
>  <Dataset>  (435) 
ChEMBL_Kinases

>  <Ligand_Instance>  (435) 
nan

>  <PDB_ID>  (435) 
nan

>  <Standardized_SMILES>  (435) 
COC(=O)c1cnn2cc(-c3c(F)cccc3F)c(-c3ccc(CN4CCC(c5n[nH]c(-c6ccccn6)n5)CC4)cc3)nc12

>  <Name>  (435) 
nan

>  <Pocket>  (435) 
nan

>  <ATP_Site>  (435) 
nan

>  <Peripheral>  (435) 
nan

>  <Num_H_Atoms_ProtBoundConf>  (435) 
nan

>  <Num_Resolved_Atoms>  (435) 
nan

>  <Num_Not_Resolved_Atoms>  (435) 
nan

$$$$
CHEMBL3672050
     RDKit          3D

  0  0  0  0  0  0  0  0  0  0999 V3000
M  V30 BEGIN CTAB
M  V30 COUNTS 76 82 0 0 0
M  V30 BEGIN ATOM
M  V30 1 C 1.549846 -1.830655 3.944826 0
M  V30 2 O 0.373075 -1.048361 3.696611 0
M  V30 3 C -0.158345 -0.253245 4.708377 0
M  V30 4 O 0.449036 -0.269133 5.819275 0
M  V30 5 C -1.357101 0.524713 4.413390 0
M  V30 6 C -1.995074 1.339597 5.325204 0
M  V30 7 N -3.075212 1.901334 4.722799 0
M  V30 8 N -3.124357 1.462587 3.476953 0
M  V30 9 C -3.996339 1.717568 2.474650 0
M  V30 10 C -3.809359 1.110405 1.244752 0
M  V30 11 C -4.714362 1.357027 0.157817 0
M  V30 12 C -5.551997 0.473401 -0.510377 0
M  V30 13 F -5.475074 -0.794567 -0.043893 0
M  V30 14 C -6.358457 0.933739 -1.548587 0
M  V30 15 C -6.362312 2.248719 -1.949280 0
M  V30 16 C -5.540052 3.117666 -1.294114 0
M  V30 17 C -4.734296 2.681006 -0.263518 0
M  V30 18 F -3.967205 3.673005 0.293386 0
M  V30 19 C -2.760881 0.249498 0.999965 0
M  V30 20 C -2.468485 -0.445832 -0.218309 0
M  V30 21 C -2.346687 -1.831374 -0.045130 0
M  V30 22 C -2.067095 -2.642157 -1.156659 0
M  V30 23 C -1.902575 -2.120142 -2.449671 0
M  V30 24 C -1.612455 -3.130221 -3.491284 0
M  V30 25 N -0.248142 -3.353061 -3.737985 0
M  V30 26 C 0.516660 -2.331610 -4.312184 0
M  V30 27 C 1.342321 -1.634411 -3.269646 0
M  V30 28 C 1.632473 -2.562691 -2.094149 0
M  V30 29 C 2.904269 -2.159952 -1.425992 0
M  V30 30 N 4.170406 -2.413346 -1.806793 0
M  V30 31 N 5.023894 -1.870893 -0.954808 0
M  V30 32 C 4.345530 -1.251035 0.000851 0
M  V30 33 C 4.864491 -0.506152 1.159193 0
M  V30 34 C 6.242463 -0.419553 1.312091 0
M  V30 35 C 6.690072 0.285962 2.409191 0
M  V30 36 C 5.858127 0.886755 3.326805 0
M  V30 37 C 4.500289 0.768860 3.125979 0
M  V30 38 C 3.561681 1.402891 4.087561 0
M  V30 39 N 4.026177 0.083771 2.060255 0
M  V30 40 N 3.048221 -1.436665 -0.300402 0
M  V30 41 C 1.678574 -4.013432 -2.494943 0
M  V30 42 C 0.377498 -4.447360 -3.125669 0
M  V30 43 C -2.030812 -0.753582 -2.574104 0
M  V30 44 C -2.304633 0.054070 -1.491599 0
M  V30 45 N -1.905443 0.023049 2.044914 0
M  V30 46 C -2.092267 0.619003 3.246468 0
M  V30 47 H 2.241608 -1.792959 3.087451 0
M  V30 48 H 1.231449 -2.865519 4.090180 0
M  V30 49 H 2.103145 -1.428687 4.829979 0
M  V30 50 H -1.774833 1.576970 6.373255 0
M  V30 51 H -4.836885 2.362548 2.557002 0
M  V30 52 H -6.981270 0.169888 -2.013206 0
M  V30 53 H -7.030416 2.492639 -2.768315 0
M  V30 54 H -5.578500 4.143701 -1.645882 0
M  V30 55 H -2.458490 -2.337691 0.926661 0
M  V30 56 H -1.981587 -3.717242 -0.972718 0
M  V30 57 H -2.126709 -2.773162 -4.431328 0
M  V30 58 H -2.169881 -4.075571 -3.233156 0
M  V30 59 H 1.201514 -2.748839 -5.083995 0
M  V30 60 H -0.201357 -1.606588 -4.799794 0
M  V30 61 H 0.843148 -0.711565 -2.857127 0
M  V30 62 H 2.288629 -1.264661 -3.722724 0
M  V30 63 H 0.802703 -2.399371 -1.378917 0
M  V30 64 H 6.058676 -1.917102 -1.015964 0
M  V30 65 H 6.900770 -0.887756 0.597372 0
M  V30 66 H 7.758531 0.350204 2.522836 0
M  V30 67 H 6.208485 1.442964 4.189877 0
M  V30 68 H 3.499805 2.508185 3.877915 0
M  V30 69 H 4.012945 1.246969 5.100510 0
M  V30 70 H 2.543096 0.978474 4.045305 0
M  V30 71 H 1.909937 -4.593655 -1.576271 0
M  V30 72 H 2.546214 -4.112229 -3.194692 0
M  V30 73 H -0.318903 -4.854174 -2.334981 0
M  V30 74 H 0.649589 -5.273888 -3.837299 0
M  V30 75 H -1.902080 -0.385557 -3.558555 0
M  V30 76 H -2.402814 1.098648 -1.578181 0
M  V30 END ATOM
M  V30 BEGIN BOND
M  V30 1 1 1 2
M  V30 2 1 2 3
M  V30 3 2 3 4
M  V30 4 1 3 5
M  V30 5 1 5 6
M  V30 6 2 6 7
M  V30 7 1 7 8
M  V30 8 1 8 9
M  V30 9 2 9 10
M  V30 10 1 10 11
M  V30 11 2 11 12
M  V30 12 1 12 13
M  V30 13 1 12 14
M  V30 14 2 14 15
M  V30 15 1 15 16
M  V30 16 2 16 17
M  V30 17 1 17 18
M  V30 18 1 10 19
M  V30 19 1 19 20
M  V30 20 2 20 21
M  V30 21 1 21 22
M  V30 22 2 22 23
M  V30 23 1 23 24
M  V30 24 1 24 25
M  V30 25 1 25 26
M  V30 26 1 26 27
M  V30 27 1 27 28
M  V30 28 1 28 29
M  V30 29 2 29 30
M  V30 30 1 30 31
M  V30 31 1 31 32
M  V30 32 1 32 33
M  V30 33 2 33 34
M  V30 34 1 34 35
M  V30 35 2 35 36
M  V30 36 1 36 37
M  V30 37 1 37 38
M  V30 38 2 37 39
M  V30 39 2 32 40
M  V30 40 1 28 41
M  V30 41 1 41 42
M  V30 42 1 23 43
M  V30 43 2 43 44
M  V30 44 2 19 45
M  V30 45 1 45 46
M  V30 46 2 46 5
M  V30 47 1 46 8
M  V30 48 1 17 11
M  V30 49 1 44 20
M  V30 50 1 42 25
M  V30 51 1 40 29
M  V30 52 1 39 33
M  V30 53 1 1 47
M  V30 54 1 1 48
M  V30 55 1 1 49
M  V30 56 1 6 50
M  V30 57 1 9 51
M  V30 58 1 14 52
M  V30 59 1 15 53
M  V30 60 1 16 54
M  V30 61 1 21 55
M  V30 62 1 22 56
M  V30 63 1 24 57
M  V30 64 1 24 58
M  V30 65 1 26 59
M  V30 66 1 26 60
M  V30 67 1 27 61
M  V30 68 1 27 62
M  V30 69 1 28 63
M  V30 70 1 31 64
M  V30 71 1 34 65
M  V30 72 1 35 66
M  V30 73 1 36 67
M  V30 74 1 38 68
M  V30 75 1 38 69
M  V30 76 1 38 70
M  V30 77 1 41 71
M  V30 78 1 41 72
M  V30 79 1 42 73
M  V30 80 1 42 74
M  V30 81 1 43 75
M  V30 82 1 44 76
M  V30 END BOND
M  V30 END CTAB
M  END
>  <Dataset>  (436) 
ChEMBL_Kinases

>  <Ligand_Instance>  (436) 
nan

>  <PDB_ID>  (436) 
nan

>  <Standardized_SMILES>  (436) 
COC(=O)c1cnn2cc(-c3c(F)cccc3F)c(-c3ccc(CN4CCC(c5n[nH]c(-c6cccc(C)n6)n5)CC4)cc3)nc12

>  <Name>  (436) 
nan

>  <Pocket>  (436) 
nan

>  <ATP_Site>  (436) 
nan

>  <Peripheral>  (436) 
nan

>  <Num_H_Atoms_ProtBoundConf>  (436) 
nan

>  <Num_Resolved_Atoms>  (436) 
nan

>  <Num_Not_Resolved_Atoms>  (436) 
nan

$$$$
CHEMBL4127640
     RDKit          3D

  0  0  0  0  0  0  0  0  0  0999 V3000
M  V30 BEGIN CTAB
M  V30 COUNTS 49 51 0 0 0
M  V30 BEGIN ATOM
M  V30 1 C -5.907330 1.049421 -5.360123 0
M  V30 2 O -5.139961 0.939354 -4.153660 0
M  V30 3 C -4.086529 1.856718 -4.031665 0
M  V30 4 C -3.773534 2.804398 -4.964956 0
M  V30 5 C -2.719681 3.681102 -4.784446 0
M  V30 6 C -1.932085 3.626377 -3.630246 0
M  V30 7 C -2.301933 2.645818 -2.727379 0
M  V30 8 C -3.346761 1.756251 -2.876957 0
M  V30 9 N -3.561614 0.816849 -1.815747 0
M  V30 10 C -2.757962 0.741844 -0.621965 0
M  V30 11 N -3.022024 1.451750 0.490208 0
M  V30 12 C -2.255166 1.355625 1.577644 0
M  V30 13 C -1.147790 0.510722 1.597045 0
M  V30 14 C -0.868095 -0.218664 0.468716 0
M  V30 15 C 0.254129 -1.143983 0.339531 0
M  V30 16 C 0.416156 -1.812599 -0.848153 0
M  V30 17 C 1.433833 -2.709347 -1.096665 0
M  V30 18 C 2.303020 -2.887396 -0.025262 0
M  V30 19 C 3.395838 -3.826332 -0.245146 0
M  V30 20 N 3.597583 -4.539401 -1.461656 0
M  V30 21 O 4.384186 -4.339525 0.287899 0
M  V30 22 C 2.204839 -2.261199 1.177457 0
M  V30 23 C 3.182266 -2.528032 2.236120 0
M  V30 24 C 4.344649 -1.545856 2.088707 0
M  V30 25 C 2.500772 -2.218811 3.575532 0
M  V30 26 C 1.160416 -1.376966 1.353767 0
M  V30 27 N -1.688711 -0.065678 -0.584906 0
M  V30 28 H -5.221697 1.050393 -6.243957 0
M  V30 29 H -6.414720 2.042713 -5.364724 0
M  V30 30 H -6.616580 0.221669 -5.494742 0
M  V30 31 H -4.370344 2.864039 -5.864859 0
M  V30 32 H -2.476434 4.438270 -5.539191 0
M  V30 33 H -1.096693 4.284278 -3.433798 0
M  V30 34 H -1.679968 2.604891 -1.819355 0
M  V30 35 H -4.367880 0.146656 -1.941349 0
M  V30 36 H -2.508632 1.946846 2.446720 0
M  V30 37 H -0.509016 0.411677 2.461113 0
M  V30 38 H -0.282125 -1.657708 -1.682643 0
M  V30 39 H 1.538185 -3.219598 -2.034967 0
M  V30 40 H 3.408796 -4.257975 -2.468813 0
M  V30 41 H 3.443164 -4.343643 -2.476315 0
M  V30 42 H 3.511333 -3.576444 2.309804 0
M  V30 43 H 4.165718 -0.622883 2.685666 0
M  V30 44 H 5.287581 -2.050725 2.450652 0
M  V30 45 H 4.539041 -1.304256 1.023089 0
M  V30 46 H 1.517878 -2.725155 3.570785 0
M  V30 47 H 3.114505 -2.734520 4.361482 0
M  V30 48 H 2.438109 -1.131198 3.773015 0
M  V30 49 H 1.058773 -0.866037 2.298729 0
M  V30 END ATOM
M  V30 BEGIN BOND
M  V30 1 1 1 2
M  V30 2 1 2 3
M  V30 3 2 3 4
M  V30 4 1 4 5
M  V30 5 2 5 6
M  V30 6 1 6 7
M  V30 7 2 7 8
M  V30 8 1 8 9
M  V30 9 1 9 10
M  V30 10 2 10 11
M  V30 11 1 11 12
M  V30 12 2 12 13
M  V30 13 1 13 14
M  V30 14 1 14 15
M  V30 15 2 15 16
M  V30 16 1 16 17
M  V30 17 2 17 18
M  V30 18 1 18 19
M  V30 19 1 19 20
M  V30 20 2 19 21
M  V30 21 1 18 22
M  V30 22 1 22 23
M  V30 23 1 23 24
M  V30 24 1 23 25
M  V30 25 2 22 26
M  V30 26 2 14 27
M  V30 27 1 8 3
M  V30 28 1 27 10
M  V30 29 1 26 15
M  V30 30 1 1 28
M  V30 31 1 1 29
M  V30 32 1 1 30
M  V30 33 1 4 31
M  V30 34 1 5 32
M  V30 35 1 6 33
M  V30 36 1 7 34
M  V30 37 1 9 35
M  V30 38 1 12 36
M  V30 39 1 13 37
M  V30 40 1 16 38
M  V30 41 1 17 39
M  V30 42 1 20 40
M  V30 43 1 20 41
M  V30 44 1 23 42
M  V30 45 1 24 43
M  V30 46 1 24 44
M  V30 47 1 24 45
M  V30 48 1 25 46
M  V30 49 1 25 47
M  V30 50 1 25 48
M  V30 51 1 26 49
M  V30 END BOND
M  V30 END CTAB
M  END
>  <Dataset>  (437) 
ChEMBL_Kinases

>  <Ligand_Instance>  (437) 
nan

>  <PDB_ID>  (437) 
nan

>  <Standardized_SMILES>  (437) 
COc1ccccc1Nc1nccc(-c2ccc(C(N)=O)c(C(C)C)c2)n1

>  <Name>  (437) 
nan

>  <Pocket>  (437) 
nan

>  <ATP_Site>  (437) 
nan

>  <Peripheral>  (437) 
nan

>  <Num_H_Atoms_ProtBoundConf>  (437) 
nan

>  <Num_Resolved_Atoms>  (437) 
nan

>  <Num_Not_Resolved_Atoms>  (437) 
nan

$$$$
CHEMBL3672049
     RDKit          3D

  0  0  0  0  0  0  0  0  0  0999 V3000
M  V30 BEGIN CTAB
M  V30 COUNTS 74 80 0 0 0
M  V30 BEGIN ATOM
M  V30 1 C 3.303148 -6.192107 6.140842 0
M  V30 2 C 2.934248 -5.170998 5.126123 0
M  V30 3 N 2.250469 -5.307546 3.986894 0
M  V30 4 C 2.150900 -4.105517 3.375369 0
M  V30 5 N 1.572019 -3.686592 2.214152 0
M  V30 6 C 1.663621 -2.361819 1.889005 0
M  V30 7 C 1.006342 -2.049559 0.620153 0
M  V30 8 C -0.291581 -2.146676 0.222811 0
M  V30 9 C -0.638212 -1.777035 -1.059677 0
M  V30 10 C 0.280342 -1.306646 -1.973224 0
M  V30 11 C -0.123314 -0.921449 -3.342107 0
M  V30 12 N -0.512215 0.454586 -3.481308 0
M  V30 13 C -1.632231 0.903675 -2.694115 0
M  V30 14 C -2.536573 0.273471 -3.712454 0
M  V30 15 C -3.779028 1.018471 -3.988099 0
M  V30 16 N -3.952281 2.354242 -4.208573 0
M  V30 17 N -5.256786 2.594390 -4.418097 0
M  V30 18 C -5.938422 1.438685 -4.338255 0
M  V30 19 C -7.359006 1.151271 -4.486356 0
M  V30 20 C -8.285966 2.130354 -4.754271 0
M  V30 21 C -9.634418 1.821909 -4.888372 0
M  V30 22 C -10.086068 0.516956 -4.755655 0
M  V30 23 C -9.127865 -0.436933 -4.486969 0
M  V30 24 N -7.830522 -0.115735 -4.361826 0
M  V30 25 N -5.000452 0.513178 -4.076435 0
M  V30 26 C -1.385580 0.601624 -4.656556 0
M  V30 27 C 1.619312 -1.201389 -1.578057 0
M  V30 28 C 1.967303 -1.575764 -0.281271 0
M  V30 29 C 2.325858 -1.432550 2.702465 0
M  V30 30 C 2.289852 -0.087326 2.187713 0
M  V30 31 C 0.956516 0.359240 2.189559 0
M  V30 32 C 0.614133 1.639011 1.736144 0
M  V30 33 C 1.576746 2.513872 1.268275 0
M  V30 34 C 2.878701 2.033375 1.284111 0
M  V30 35 C 3.228807 0.775895 1.727654 0
M  V30 36 C 2.902689 -1.909290 3.880418 0
M  V30 37 N 3.580472 -0.953559 4.681786 0
M  V30 38 C 4.992245 -0.795951 5.023810 0
M  V30 39 C 5.893371 -0.677531 3.837441 0
M  V30 40 C 5.503935 -1.845985 5.954776 0
M  V30 41 N 2.790453 -3.234526 4.170148 0
M  V30 42 N 3.256660 -3.889638 5.219657 0
M  V30 43 H 4.234258 -5.896029 6.686375 0
M  V30 44 H 2.480224 -6.348863 6.883563 0
M  V30 45 H 3.564514 -7.166706 5.657650 0
M  V30 46 H -0.923132 -2.524212 1.008043 0
M  V30 47 H -1.687598 -1.881761 -1.304830 0
M  V30 48 H -0.883879 -1.653970 -3.674129 0
M  V30 49 H 0.725992 -1.066325 -4.073471 0
M  V30 50 H -1.687765 0.526522 -1.660401 0
M  V30 51 H -1.685142 1.997154 -2.717604 0
M  V30 52 H -2.728210 -0.804748 -3.583082 0
M  V30 53 H -5.708615 3.521645 -4.616174 0
M  V30 54 H -7.994907 3.150497 -4.866399 0
M  V30 55 H -10.377719 2.568126 -5.098353 0
M  V30 56 H -11.105424 0.170409 -4.840653 0
M  V30 57 H -9.327254 -1.503998 -4.355665 0
M  V30 58 H -1.165146 -0.144855 -5.424639 0
M  V30 59 H -1.433816 1.613846 -5.061721 0
M  V30 60 H 2.290410 -0.831807 -2.320794 0
M  V30 61 H 3.037296 -1.439247 -0.124896 0
M  V30 62 H 0.054095 -0.179235 2.518058 0
M  V30 63 H -0.393894 2.028727 1.716953 0
M  V30 64 H 1.356230 3.496224 0.914752 0
M  V30 65 H 3.675083 2.675818 0.929464 0
M  V30 66 H 4.202940 0.361050 1.757232 0
M  V30 67 H 2.837546 -0.304725 5.034446 0
M  V30 68 H 5.052926 0.176910 5.563236 0
M  V30 69 H 6.141023 0.342700 3.533414 0
M  V30 70 H 6.885175 -1.138762 4.122126 0
M  V30 71 H 5.526187 -1.232884 2.949433 0
M  V30 72 H 6.365225 -1.385120 6.523917 0
M  V30 73 H 5.955651 -2.725049 5.459483 0
M  V30 74 H 4.786318 -2.128627 6.758502 0
M  V30 END ATOM
M  V30 BEGIN BOND
M  V30 1 1 1 2
M  V30 2 1 2 3
M  V30 3 2 3 4
M  V30 4 1 4 5
M  V30 5 2 5 6
M  V30 6 1 6 7
M  V30 7 2 7 8
M  V30 8 1 8 9
M  V30 9 2 9 10
M  V30 10 1 10 11
M  V30 11 1 11 12
M  V30 12 1 12 13
M  V30 13 1 13 14
M  V30 14 1 14 15
M  V30 15 2 15 16
M  V30 16 1 16 17
M  V30 17 1 17 18
M  V30 18 1 18 19
M  V30 19 2 19 20
M  V30 20 1 20 21
M  V30 21 2 21 22
M  V30 22 1 22 23
M  V30 23 2 23 24
M  V30 24 2 18 25
M  V30 25 1 14 26
M  V30 26 1 10 27
M  V30 27 2 27 28
M  V30 28 1 6 29
M  V30 29 1 29 30
M  V30 30 2 30 31
M  V30 31 1 31 32
M  V30 32 2 32 33
M  V30 33 1 33 34
M  V30 34 2 34 35
M  V30 35 2 29 36
M  V30 36 1 36 37
M  V30 37 1 37 38
M  V30 38 1 38 39
M  V30 39 1 38 40
M  V30 40 1 36 41
M  V30 41 1 41 42
M  V30 42 2 42 2
M  V30 43 1 41 4
M  V30 44 1 28 7
M  V30 45 1 35 30
M  V30 46 1 26 12
M  V30 47 1 25 15
M  V30 48 1 24 19
M  V30 49 1 1 43
M  V30 50 1 1 44
M  V30 51 1 1 45
M  V30 52 1 8 46
M  V30 53 1 9 47
M  V30 54 1 11 48
M  V30 55 1 11 49
M  V30 56 1 13 50
M  V30 57 1 13 51
M  V30 58 1 14 52
M  V30 59 1 17 53
M  V30 60 1 20 54
M  V30 61 1 21 55
M  V30 62 1 22 56
M  V30 63 1 23 57
M  V30 64 1 26 58
M  V30 65 1 26 59
M  V30 66 1 27 60
M  V30 67 1 28 61
M  V30 68 1 31 62
M  V30 69 1 32 63
M  V30 70 1 33 64
M  V30 71 1 34 65
M  V30 72 1 35 66
M  V30 73 1 37 67
M  V30 74 1 38 68
M  V30 75 1 39 69
M  V30 76 1 39 70
M  V30 77 1 39 71
M  V30 78 1 40 72
M  V30 79 1 40 73
M  V30 80 1 40 74
M  V30 END BOND
M  V30 END CTAB
M  END
>  <Dataset>  (438) 
ChEMBL_Kinases

>  <Ligand_Instance>  (438) 
nan

>  <PDB_ID>  (438) 
nan

>  <Standardized_SMILES>  (438) 
Cc1nc2nc(-c3ccc(CN4CC(c5n[nH]c(-c6ccccn6)n5)C4)cc3)c(-c3ccccc3)c(NC(C)C)n2n1

>  <Name>  (438) 
nan

>  <Pocket>  (438) 
nan

>  <ATP_Site>  (438) 
nan

>  <Peripheral>  (438) 
nan

>  <Num_H_Atoms_ProtBoundConf>  (438) 
nan

>  <Num_Resolved_Atoms>  (438) 
nan

>  <Num_Not_Resolved_Atoms>  (438) 
nan

$$$$
CHEMBL4127463
     RDKit          3D

  0  0  0  0  0  0  0  0  0  0999 V3000
M  V30 BEGIN CTAB
M  V30 COUNTS 56 59 0 0 0
M  V30 BEGIN ATOM
M  V30 1 C 2.303098 0.761019 4.577810 0
M  V30 2 N 3.000245 0.527170 3.313708 0
M  V30 3 C 3.627436 -0.760903 3.372288 0
M  V30 4 C 4.033952 1.552233 3.155469 0
M  V30 5 C 3.331982 2.902948 2.938860 0
M  V30 6 N 2.565441 2.683494 1.688089 0
M  V30 7 C 3.405450 2.661777 0.489921 0
M  V30 8 C 1.144828 2.424938 1.561323 0
M  V30 9 C -0.029246 2.978884 2.006768 0
M  V30 10 N -1.173730 2.353349 1.659506 0
M  V30 11 C -1.203269 1.242025 0.915245 0
M  V30 12 C -0.064265 0.667570 0.457219 0
M  V30 13 C 0.054620 -0.546230 -0.385088 0
M  V30 14 C 1.360773 -0.900909 -0.735015 0
M  V30 15 C 1.674089 -2.017552 -1.503558 0
M  V30 16 C 0.631668 -2.809239 -1.938401 0
M  V30 17 N 0.530794 -3.938802 -2.671167 0
M  V30 18 C -0.759636 -4.304730 -2.797085 0
M  V30 19 C -1.574511 -3.406142 -2.135867 0
M  V30 20 C -3.026798 -3.338757 -1.959644 0
M  V30 21 C -3.685563 -2.137473 -2.162588 0
M  V30 22 C -5.047121 -2.096918 -1.970947 0
M  V30 23 C -5.739166 -3.231602 -1.584330 0
M  V30 24 C -7.201603 -3.377307 -1.336986 0
M  V30 25 F -7.910371 -2.268007 -1.713630 0
M  V30 26 F -7.649979 -4.527926 -1.985879 0
M  V30 27 F -7.353766 -3.493516 0.043899 0
M  V30 28 C -5.028739 -4.419099 -1.392123 0
M  V30 29 C -3.653937 -4.510209 -1.574697 0
M  V30 30 C -0.681522 -2.463022 -1.593544 0
M  V30 31 C -0.960171 -1.344155 -0.827206 0
M  V30 32 N 1.059019 1.301376 0.810873 0
M  V30 33 H 1.420442 1.403308 4.430311 0
M  V30 34 H 1.945523 -0.216633 4.957368 0
M  V30 35 H 3.075227 1.217838 5.253136 0
M  V30 36 H 3.693316 -1.249784 2.370951 0
M  V30 37 H 4.673833 -0.638316 3.725326 0
M  V30 38 H 3.031379 -1.424513 4.071701 0
M  V30 39 H 4.611855 1.625564 4.072973 0
M  V30 40 H 4.703870 1.297899 2.322100 0
M  V30 41 H 2.670959 3.174491 3.776111 0
M  V30 42 H 4.048527 3.720307 2.776654 0
M  V30 43 H 4.295684 3.269676 0.633590 0
M  V30 44 H 2.866324 3.080336 -0.386642 0
M  V30 45 H 3.711114 1.600988 0.359340 0
M  V30 46 H 0.229738 3.849996 2.575196 0
M  V30 47 H -2.113863 0.769716 0.648939 0
M  V30 48 H 2.261654 -0.337901 -0.436630 0
M  V30 49 H 2.674840 -2.268144 -1.764817 0
M  V30 50 H 1.379176 -4.422934 -3.057166 0
M  V30 51 H -1.157908 -5.174186 -3.328694 0
M  V30 52 H -3.188557 -1.229298 -2.474897 0
M  V30 53 H -5.675895 -1.224558 -2.097304 0
M  V30 54 H -5.504340 -5.368130 -1.090968 0
M  V30 55 H -3.089508 -5.421177 -1.429393 0
M  V30 56 H -1.919886 -1.004697 -0.507560 0
M  V30 END ATOM
M  V30 BEGIN BOND
M  V30 1 1 1 2
M  V30 2 1 2 3
M  V30 3 1 2 4
M  V30 4 1 4 5
M  V30 5 1 5 6
M  V30 6 1 6 7
M  V30 7 1 6 8
M  V30 8 2 8 9
M  V30 9 1 9 10
M  V30 10 2 10 11
M  V30 11 1 11 12
M  V30 12 1 12 13
M  V30 13 2 13 14
M  V30 14 1 14 15
M  V30 15 2 15 16
M  V30 16 1 16 17
M  V30 17 1 17 18
M  V30 18 2 18 19
M  V30 19 1 19 20
M  V30 20 2 20 21
M  V30 21 1 21 22
M  V30 22 2 22 23
M  V30 23 1 23 24
M  V30 24 1 24 25
M  V30 25 1 24 26
M  V30 26 1 24 27
M  V30 27 1 23 28
M  V30 28 2 28 29
M  V30 29 1 19 30
M  V30 30 2 30 31
M  V30 31 2 12 32
M  V30 32 1 32 8
M  V30 33 1 31 13
M  V30 34 1 30 16
M  V30 35 1 29 20
M  V30 36 1 1 33
M  V30 37 1 1 34
M  V30 38 1 1 35
M  V30 39 1 3 36
M  V30 40 1 3 37
M  V30 41 1 3 38
M  V30 42 1 4 39
M  V30 43 1 4 40
M  V30 44 1 5 41
M  V30 45 1 5 42
M  V30 46 1 7 43
M  V30 47 1 7 44
M  V30 48 1 7 45
M  V30 49 1 9 46
M  V30 50 1 11 47
M  V30 51 1 14 48
M  V30 52 1 15 49
M  V30 53 1 17 50
M  V30 54 1 18 51
M  V30 55 1 21 52
M  V30 56 1 22 53
M  V30 57 1 28 54
M  V30 58 1 29 55
M  V30 59 1 31 56
M  V30 END BOND
M  V30 END CTAB
M  END
>  <Dataset>  (439) 
ChEMBL_Kinases

>  <Ligand_Instance>  (439) 
nan

>  <PDB_ID>  (439) 
nan

>  <Standardized_SMILES>  (439) 
CN(C)CCN(C)c1cncc(-c2ccc3[nH]cc(-c4ccc(C(F)(F)F)cc4)c3c2)n1

>  <Name>  (439) 
nan

>  <Pocket>  (439) 
nan

>  <ATP_Site>  (439) 
nan

>  <Peripheral>  (439) 
nan

>  <Num_H_Atoms_ProtBoundConf>  (439) 
nan

>  <Num_Resolved_Atoms>  (439) 
nan

>  <Num_Not_Resolved_Atoms>  (439) 
nan

$$$$
CHEMBL3672039
     RDKit          3D

  0  0  0  0  0  0  0  0  0  0999 V3000
M  V30 BEGIN CTAB
M  V30 COUNTS 70 77 0 0 0
M  V30 BEGIN ATOM
M  V30 1 C 3.402297 -5.622649 3.940799 0
M  V30 2 C 2.959717 -4.299357 3.433585 0
M  V30 3 C 1.737664 -3.791796 3.888476 0
M  V30 4 C 1.386322 -2.560262 3.377534 0
M  V30 5 C 2.145665 -1.843714 2.485428 0
M  V30 6 C 3.327486 -2.451855 2.114974 0
M  V30 7 C 4.230947 -1.792570 1.165042 0
M  V30 8 N 4.018400 -0.583863 0.574572 0
M  V30 9 C 5.063350 -0.300983 -0.243741 0
M  V30 10 C 5.367600 0.851720 -1.124906 0
M  V30 11 C 5.062628 2.224702 -0.553546 0
M  V30 12 N 3.695135 1.789603 -0.633621 0
M  V30 13 C 2.669556 2.779895 -0.782000 0
M  V30 14 C 1.373295 2.052121 -0.779210 0
M  V30 15 C 0.754001 1.862152 0.465070 0
M  V30 16 C -0.449679 1.197770 0.583258 0
M  V30 17 C -1.103732 0.686853 -0.520865 0
M  V30 18 C -2.370478 -0.007563 -0.373162 0
M  V30 19 N -2.364040 -1.373338 -0.450253 0
M  V30 20 C -3.514405 -2.079508 -0.311004 0
M  V30 21 N -3.834093 -3.395772 -0.332993 0
M  V30 22 C -5.154458 -3.555531 -0.136232 0
M  V30 23 C -5.757163 -4.918564 -0.113875 0
M  V30 24 C -5.221296 -5.984988 -0.992566 0
M  V30 25 C -5.004383 -6.041086 0.492776 0
M  V30 26 N -5.652249 -2.312844 0.009080 0
M  V30 27 N -4.667512 -1.427144 -0.095782 0
M  V30 28 C -4.704491 -0.070543 -0.014778 0
M  V30 29 C -3.548204 0.669304 -0.153138 0
M  V30 30 C -3.658729 2.092884 -0.060639 0
M  V30 31 C -3.246458 3.031263 0.868709 0
M  V30 32 C -3.486698 4.358867 0.694748 0
M  V30 33 C -4.147545 4.849914 -0.403432 0
M  V30 34 F -4.372643 6.182923 -0.548979 0
M  V30 35 C -4.583013 3.945162 -1.368170 0
M  V30 36 C -4.334138 2.595260 -1.182924 0
M  V30 37 C -0.498275 0.871362 -1.747304 0
M  V30 38 C 0.709005 1.536819 -1.873401 0
M  V30 39 C 4.111136 1.181098 -1.915804 0
M  V30 40 N 5.896583 -1.361330 -0.127200 0
M  V30 41 N 5.394267 -2.246684 0.714001 0
M  V30 42 N 3.764774 -3.660335 2.559192 0
M  V30 43 H 4.504536 -5.689605 3.877903 0
M  V30 44 H 2.902174 -6.454972 3.390142 0
M  V30 45 H 3.119424 -5.766380 5.012318 0
M  V30 46 H 1.172575 -4.379245 4.585054 0
M  V30 47 H 0.436468 -2.176717 3.734902 0
M  V30 48 H 1.846059 -0.893452 2.109754 0
M  V30 49 H 6.306531 0.785428 -1.696232 0
M  V30 50 H 5.346926 2.984043 -1.299894 0
M  V30 51 H 5.497145 2.317190 0.442079 0
M  V30 52 H 2.777398 3.393654 -1.696059 0
M  V30 53 H 2.700165 3.437720 0.103371 0
M  V30 54 H 1.243475 2.251725 1.355099 0
M  V30 55 H -0.843866 1.101314 1.586953 0
M  V30 56 H -6.843488 -4.933448 0.056437 0
M  V30 57 H -5.906830 -6.737791 -1.466960 0
M  V30 58 H -4.314686 -5.811476 -1.622425 0
M  V30 59 H -3.962799 -5.951790 0.846822 0
M  V30 60 H -5.550772 -6.862213 0.999287 0
M  V30 61 H -5.651204 0.443858 0.160811 0
M  V30 62 H -2.743002 2.543751 1.692938 0
M  V30 63 H -3.130087 5.027973 1.470436 0
M  V30 64 H -5.089923 4.381922 -2.199104 0
M  V30 65 H -4.738507 2.020516 -2.026758 0
M  V30 66 H -0.978033 0.485579 -2.653607 0
M  V30 67 H 1.197602 1.693012 -2.807717 0
M  V30 68 H 4.236601 1.921972 -2.718291 0
M  V30 69 H 3.492775 0.298706 -2.106502 0
M  V30 70 H 5.858966 -3.142988 0.960031 0
M  V30 END ATOM
M  V30 BEGIN BOND
M  V30 1 1 1 2
M  V30 2 2 2 3
M  V30 3 1 3 4
M  V30 4 2 4 5
M  V30 5 1 5 6
M  V30 6 1 6 7
M  V30 7 2 7 8
M  V30 8 1 8 9
M  V30 9 1 9 10
M  V30 10 1 10 11
M  V30 11 1 11 12
M  V30 12 1 12 13
M  V30 13 1 13 14
M  V30 14 2 14 15
M  V30 15 1 15 16
M  V30 16 2 16 17
M  V30 17 1 17 18
M  V30 18 2 18 19
M  V30 19 1 19 20
M  V30 20 2 20 21
M  V30 21 1 21 22
M  V30 22 1 22 23
M  V30 23 1 23 24
M  V30 24 1 24 25
M  V30 25 2 22 26
M  V30 26 1 26 27
M  V30 27 1 27 28
M  V30 28 2 28 29
M  V30 29 1 29 30
M  V30 30 2 30 31
M  V30 31 1 31 32
M  V30 32 2 32 33
M  V30 33 1 33 34
M  V30 34 1 33 35
M  V30 35 2 35 36
M  V30 36 1 17 37
M  V30 37 2 37 38
M  V30 38 1 12 39
M  V30 39 2 9 40
M  V30 40 1 40 41
M  V30 41 2 6 42
M  V30 42 1 42 2
M  V30 43 1 41 7
M  V30 44 1 39 10
M  V30 45 1 38 14
M  V30 46 1 29 18
M  V30 47 1 36 30
M  V30 48 1 27 20
M  V30 49 1 25 23
M  V30 50 1 1 43
M  V30 51 1 1 44
M  V30 52 1 1 45
M  V30 53 1 3 46
M  V30 54 1 4 47
M  V30 55 1 5 48
M  V30 56 1 10 49
M  V30 57 1 11 50
M  V30 58 1 11 51
M  V30 59 1 13 52
M  V30 60 1 13 53
M  V30 61 1 15 54
M  V30 62 1 16 55
M  V30 63 1 23 56
M  V30 64 1 24 57
M  V30 65 1 24 58
M  V30 66 1 25 59
M  V30 67 1 25 60
M  V30 68 1 28 61
M  V30 69 1 31 62
M  V30 70 1 32 63
M  V30 71 1 35 64
M  V30 72 1 36 65
M  V30 73 1 37 66
M  V30 74 1 38 67
M  V30 75 1 39 68
M  V30 76 1 39 69
M  V30 77 1 41 70
M  V30 END BOND
M  V30 END CTAB
M  END
>  <Dataset>  (440) 
ChEMBL_Kinases

>  <Ligand_Instance>  (440) 
nan

>  <PDB_ID>  (440) 
nan

>  <Standardized_SMILES>  (440) 
Cc1cccc(-c2nc(C3CN(Cc4ccc(-c5nc6nc(C7CC7)nn6cc5-c5ccc(F)cc5)cc4)C3)n[nH]2)n1

>  <Name>  (440) 
nan

>  <Pocket>  (440) 
nan

>  <ATP_Site>  (440) 
nan

>  <Peripheral>  (440) 
nan

>  <Num_H_Atoms_ProtBoundConf>  (440) 
nan

>  <Num_Resolved_Atoms>  (440) 
nan

>  <Num_Not_Resolved_Atoms>  (440) 
nan

$$$$
CHEMBL3672047
     RDKit          3D

  0  0  0  0  0  0  0  0  0  0999 V3000
M  V30 BEGIN CTAB
M  V30 COUNTS 75 82 0 0 0
M  V30 BEGIN ATOM
M  V30 1 C 2.633938 -5.917072 5.047690 0
M  V30 2 C 2.166596 -4.690869 4.350803 0
M  V30 3 N 0.897476 -4.642985 3.888180 0
M  V30 4 C 0.663911 -3.459841 3.291254 0
M  V30 5 N -0.440362 -2.945393 2.680588 0
M  V30 6 C -0.389464 -1.684034 2.146545 0
M  V30 7 C -1.647028 -1.332389 1.542800 0
M  V30 8 C -2.330705 -0.203169 1.968890 0
M  V30 9 C -3.537144 0.119899 1.382955 0
M  V30 10 C -4.149292 -0.623130 0.360414 0
M  V30 11 C -5.438996 -0.037064 -0.072695 0
M  V30 12 N -5.371814 0.913419 -1.129682 0
M  V30 13 C -5.065142 0.289283 -2.393505 0
M  V30 14 C -4.158746 1.433524 -2.785417 0
M  V30 15 C -2.899679 1.031386 -3.438393 0
M  V30 16 N -2.156601 1.535775 -4.459583 0
M  V30 17 N -1.100700 0.739419 -4.639928 0
M  V30 18 C -1.156598 -0.265434 -3.750357 0
M  V30 19 C -0.139517 -1.312014 -3.698695 0
M  V30 20 C -0.248674 -2.328356 -2.764260 0
M  V30 21 C 0.771950 -3.248502 -2.827106 0
M  V30 22 C 1.839559 -3.269359 -3.676382 0
M  V30 23 C 1.852397 -2.208257 -4.569176 0
M  V30 24 N 0.882715 -1.247983 -4.581337 0
M  V30 25 N -2.276218 -0.101343 -2.986803 0
M  V30 26 C -4.087148 1.600179 -1.260728 0
M  V30 27 C -3.458046 -1.739624 -0.048137 0
M  V30 28 C -2.254471 -2.059306 0.537458 0
M  V30 29 C 0.816738 -0.977420 2.259604 0
M  V30 30 C 0.658433 0.314879 1.649524 0
M  V30 31 C 0.468466 0.246995 0.267845 0
M  V30 32 C 0.279706 1.384195 -0.515100 0
M  V30 33 C 0.273670 2.644845 0.059720 0
M  V30 34 C 0.459457 2.718463 1.414543 0
M  V30 35 C 0.645263 1.599730 2.185755 0
M  V30 36 C 1.900766 -1.516411 2.873986 0
M  V30 37 N 3.094264 -0.768743 2.958912 0
M  V30 38 C 3.660950 0.472864 2.588809 0
M  V30 39 C 3.746447 0.811838 1.130076 0
M  V30 40 C 5.257007 0.684701 1.161192 0
M  V30 41 C 5.187160 0.482534 2.635132 0
M  V30 42 N 1.804074 -2.760855 3.383951 0
M  V30 43 N 2.680800 -3.504175 4.012869 0
M  V30 44 H 2.269242 -6.819272 4.506193 0
M  V30 45 H 2.321388 -5.913372 6.111693 0
M  V30 46 H 3.754158 -5.984674 4.945717 0
M  V30 47 H -1.886631 0.369466 2.746707 0
M  V30 48 H -3.972115 1.021720 1.801830 0
M  V30 49 H -5.951000 0.476002 0.783022 0
M  V30 50 H -6.156532 -0.877240 -0.311930 0
M  V30 51 H -4.638326 -0.706610 -2.404264 0
M  V30 52 H -6.004694 0.295826 -3.006863 0
M  V30 53 H -4.658813 2.272637 -3.288918 0
M  V30 54 H -0.453922 1.017555 -5.392436 0
M  V30 55 H -1.065707 -2.350518 -2.080827 0
M  V30 56 H 0.705540 -4.066776 -2.093864 0
M  V30 57 H 2.591475 -4.037940 -3.648816 0
M  V30 58 H 2.671897 -2.136239 -5.296816 0
M  V30 59 H -3.212213 1.072075 -0.866570 0
M  V30 60 H -4.205949 2.666736 -1.007316 0
M  V30 61 H -3.953813 -2.292412 -0.824307 0
M  V30 62 H -1.766145 -2.957641 0.160418 0
M  V30 63 H 0.449001 -0.673258 -0.316114 0
M  V30 64 H 0.131975 1.354664 -1.580424 0
M  V30 65 H 0.131965 3.540437 -0.520495 0
M  V30 66 H 0.474291 3.645377 1.974012 0
M  V30 67 H 0.800862 1.562997 3.272800 0
M  V30 68 H 3.833938 -1.288905 3.482695 0
M  V30 69 H 3.284569 1.366093 3.184032 0
M  V30 70 H 3.384624 1.823431 0.876532 0
M  V30 71 H 3.321926 0.064700 0.416428 0
M  V30 72 H 5.728340 1.611586 0.803130 0
M  V30 73 H 5.652258 -0.226720 0.648658 0
M  V30 74 H 5.617069 1.363288 3.194409 0
M  V30 75 H 5.622063 -0.454330 3.050322 0
M  V30 END ATOM
M  V30 BEGIN BOND
M  V30 1 1 1 2
M  V30 2 1 2 3
M  V30 3 2 3 4
M  V30 4 1 4 5
M  V30 5 2 5 6
M  V30 6 1 6 7
M  V30 7 2 7 8
M  V30 8 1 8 9
M  V30 9 2 9 10
M  V30 10 1 10 11
M  V30 11 1 11 12
M  V30 12 1 12 13
M  V30 13 1 13 14
M  V30 14 1 14 15
M  V30 15 2 15 16
M  V30 16 1 16 17
M  V30 17 1 17 18
M  V30 18 1 18 19
M  V30 19 2 19 20
M  V30 20 1 20 21
M  V30 21 2 21 22
M  V30 22 1 22 23
M  V30 23 2 23 24
M  V30 24 2 18 25
M  V30 25 1 14 26
M  V30 26 1 10 27
M  V30 27 2 27 28
M  V30 28 1 6 29
M  V30 29 1 29 30
M  V30 30 2 30 31
M  V30 31 1 31 32
M  V30 32 2 32 33
M  V30 33 1 33 34
M  V30 34 2 34 35
M  V30 35 2 29 36
M  V30 36 1 36 37
M  V30 37 1 37 38
M  V30 38 1 38 39
M  V30 39 1 39 40
M  V30 40 1 40 41
M  V30 41 1 36 42
M  V30 42 1 42 43
M  V30 43 2 43 2
M  V30 44 1 42 4
M  V30 45 1 28 7
M  V30 46 1 35 30
M  V30 47 1 41 38
M  V30 48 1 26 12
M  V30 49 1 25 15
M  V30 50 1 24 19
M  V30 51 1 1 44
M  V30 52 1 1 45
M  V30 53 1 1 46
M  V30 54 1 8 47
M  V30 55 1 9 48
M  V30 56 1 11 49
M  V30 57 1 11 50
M  V30 58 1 13 51
M  V30 59 1 13 52
M  V30 60 1 14 53
M  V30 61 1 17 54
M  V30 62 1 20 55
M  V30 63 1 21 56
M  V30 64 1 22 57
M  V30 65 1 23 58
M  V30 66 1 26 59
M  V30 67 1 26 60
M  V30 68 1 27 61
M  V30 69 1 28 62
M  V30 70 1 31 63
M  V30 71 1 32 64
M  V30 72 1 33 65
M  V30 73 1 34 66
M  V30 74 1 35 67
M  V30 75 1 37 68
M  V30 76 1 38 69
M  V30 77 1 39 70
M  V30 78 1 39 71
M  V30 79 1 40 72
M  V30 80 1 40 73
M  V30 81 1 41 74
M  V30 82 1 41 75
M  V30 END BOND
M  V30 END CTAB
M  END
>  <Dataset>  (441) 
ChEMBL_Kinases

>  <Ligand_Instance>  (441) 
nan

>  <PDB_ID>  (441) 
nan

>  <Standardized_SMILES>  (441) 
Cc1nc2nc(-c3ccc(CN4CC(c5n[nH]c(-c6ccccn6)n5)C4)cc3)c(-c3ccccc3)c(NC3CCC3)n2n1

>  <Name>  (441) 
nan

>  <Pocket>  (441) 
nan

>  <ATP_Site>  (441) 
nan

>  <Peripheral>  (441) 
nan

>  <Num_H_Atoms_ProtBoundConf>  (441) 
nan

>  <Num_Resolved_Atoms>  (441) 
nan

>  <Num_Not_Resolved_Atoms>  (441) 
nan

$$$$
CHEMBL3672046
     RDKit          3D

  0  0  0  0  0  0  0  0  0  0999 V3000
M  V30 BEGIN CTAB
M  V30 COUNTS 69 75 0 0 0
M  V30 BEGIN ATOM
M  V30 1 C 6.725565 -3.293934 7.960791 0
M  V30 2 C 5.464870 -2.605916 7.557674 0
M  V30 3 C 4.389263 -2.464614 8.431340 0
M  V30 4 C 3.286239 -1.811943 7.940246 0
M  V30 5 C 3.286929 -1.334447 6.635352 0
M  V30 6 C 4.361269 -1.483572 5.784791 0
M  V30 7 C 4.326605 -0.970415 4.423089 0
M  V30 8 N 3.279910 -0.322011 3.877255 0
M  V30 9 C 3.589543 0.015594 2.590509 0
M  V30 10 C 2.778805 0.740600 1.558749 0
M  V30 11 C 2.871744 0.156353 0.179655 0
M  V30 12 N 2.794732 1.489780 -0.345826 0
M  V30 13 C 1.505142 2.107582 -0.436185 0
M  V30 14 C 0.528463 1.401263 -1.279817 0
M  V30 15 C 0.295671 1.562539 -2.631383 0
M  V30 16 C -0.664441 0.820177 -3.287842 0
M  V30 17 C -1.409111 -0.103109 -2.582419 0
M  V30 18 C -2.442931 -0.925856 -3.198773 0
M  V30 19 N -2.294888 -1.820044 -4.197456 0
M  V30 20 C -3.290129 -2.531093 -4.703809 0
M  V30 21 N -3.351688 -3.456157 -5.681364 0
M  V30 22 C -4.637885 -3.830152 -5.750474 0
M  V30 23 C -5.181163 -4.842226 -6.697090 0
M  V30 24 N -5.337203 -3.143013 -4.831690 0
M  V30 25 N -4.509732 -2.325330 -4.167422 0
M  V30 26 C -4.761643 -1.458108 -3.170896 0
M  V30 27 C -6.181560 -1.344422 -2.681385 0
M  V30 28 C -3.700494 -0.720618 -2.653258 0
M  V30 29 C -4.024154 0.209845 -1.571145 0
M  V30 30 C -4.540747 -0.044171 -0.309531 0
M  V30 31 C -4.757746 1.021198 0.533729 0
M  V30 32 C -4.490049 2.306568 0.188214 0
M  V30 33 C -3.974890 2.574834 -1.065934 0
M  V30 34 C -3.744922 1.532284 -1.936294 0
M  V30 35 C -1.218085 -0.305982 -1.227227 0
M  V30 36 C -0.240473 0.457647 -0.586219 0
M  V30 37 C 3.483867 1.902925 0.890498 0
M  V30 38 N 4.836843 -0.445788 2.389236 0
M  V30 39 N 5.277188 -1.041213 3.501888 0
M  V30 40 N 5.428195 -2.124773 6.286614 0
M  V30 41 H 7.546336 -2.549289 7.790591 0
M  V30 42 H 6.690290 -3.590900 9.027593 0
M  V30 43 H 6.903142 -4.147082 7.273671 0
M  V30 44 H 4.469525 -2.868670 9.440271 0
M  V30 45 H 2.420872 -1.681499 8.597498 0
M  V30 46 H 2.387292 -0.837544 6.331497 0
M  V30 47 H 1.787486 1.050071 1.894586 0
M  V30 48 H 3.884089 -0.258749 0.011693 0
M  V30 49 H 2.108053 -0.553897 -0.130792 0
M  V30 50 H 1.075568 2.412718 0.556168 0
M  V30 51 H 1.683078 3.098926 -0.948596 0
M  V30 52 H 0.917543 2.303658 -3.113762 0
M  V30 53 H -0.830083 0.960586 -4.341089 0
M  V30 54 H -4.803300 -4.604804 -7.705075 0
M  V30 55 H -6.296824 -4.822440 -6.692149 0
M  V30 56 H -4.799182 -5.843704 -6.352623 0
M  V30 57 H -6.402693 -2.210045 -1.996388 0
M  V30 58 H -6.356299 -0.380154 -2.159775 0
M  V30 59 H -6.853028 -1.375170 -3.558602 0
M  V30 60 H -4.713078 -1.099766 -0.147841 0
M  V30 61 H -5.160036 0.738363 1.493736 0
M  V30 62 H -4.700647 3.076244 0.936586 0
M  V30 63 H -3.773430 3.615155 -1.305801 0
M  V30 64 H -3.341924 1.854683 -2.887871 0
M  V30 65 H -1.802164 -1.033339 -0.662392 0
M  V30 66 H -0.119977 0.266087 0.490669 0
M  V30 67 H 3.140683 2.885620 1.242512 0
M  V30 68 H 4.565030 1.725907 0.874115 0
M  V30 69 H 6.225604 -1.487024 3.609704 0
M  V30 END ATOM
M  V30 BEGIN BOND
M  V30 1 1 1 2
M  V30 2 2 2 3
M  V30 3 1 3 4
M  V30 4 2 4 5
M  V30 5 1 5 6
M  V30 6 1 6 7
M  V30 7 2 7 8
M  V30 8 1 8 9
M  V30 9 1 9 10
M  V30 10 1 10 11
M  V30 11 1 11 12
M  V30 12 1 12 13
M  V30 13 1 13 14
M  V30 14 2 14 15
M  V30 15 1 15 16
M  V30 16 2 16 17
M  V30 17 1 17 18
M  V30 18 2 18 19
M  V30 19 1 19 20
M  V30 20 2 20 21
M  V30 21 1 21 22
M  V30 22 1 22 23
M  V30 23 2 22 24
M  V30 24 1 24 25
M  V30 25 1 25 26
M  V30 26 1 26 27
M  V30 27 2 26 28
M  V30 28 1 28 29
M  V30 29 2 29 30
M  V30 30 1 30 31
M  V30 31 2 31 32
M  V30 32 1 32 33
M  V30 33 2 33 34
M  V30 34 1 17 35
M  V30 35 2 35 36
M  V30 36 1 12 37
M  V30 37 2 9 38
M  V30 38 1 38 39
M  V30 39 2 6 40
M  V30 40 1 40 2
M  V30 41 1 39 7
M  V30 42 1 37 10
M  V30 43 1 36 14
M  V30 44 1 28 18
M  V30 45 1 34 29
M  V30 46 1 25 20
M  V30 47 1 1 41
M  V30 48 1 1 42
M  V30 49 1 1 43
M  V30 50 1 3 44
M  V30 51 1 4 45
M  V30 52 1 5 46
M  V30 53 1 10 47
M  V30 54 1 11 48
M  V30 55 1 11 49
M  V30 56 1 13 50
M  V30 57 1 13 51
M  V30 58 1 15 52
M  V30 59 1 16 53
M  V30 60 1 23 54
M  V30 61 1 23 55
M  V30 62 1 23 56
M  V30 63 1 27 57
M  V30 64 1 27 58
M  V30 65 1 27 59
M  V30 66 1 30 60
M  V30 67 1 31 61
M  V30 68 1 32 62
M  V30 69 1 33 63
M  V30 70 1 34 64
M  V30 71 1 35 65
M  V30 72 1 36 66
M  V30 73 1 37 67
M  V30 74 1 37 68
M  V30 75 1 39 69
M  V30 END BOND
M  V30 END CTAB
M  END
>  <Dataset>  (442) 
ChEMBL_Kinases

>  <Ligand_Instance>  (442) 
nan

>  <PDB_ID>  (442) 
nan

>  <Standardized_SMILES>  (442) 
Cc1cccc(-c2nc(C3CN(Cc4ccc(-c5nc6nc(C)nn6c(C)c5-c5ccccc5)cc4)C3)n[nH]2)n1

>  <Name>  (442) 
nan

>  <Pocket>  (442) 
nan

>  <ATP_Site>  (442) 
nan

>  <Peripheral>  (442) 
nan

>  <Num_H_Atoms_ProtBoundConf>  (442) 
nan

>  <Num_Resolved_Atoms>  (442) 
nan

>  <Num_Not_Resolved_Atoms>  (442) 
nan

$$$$
CHEMBL3672045
     RDKit          3D

  0  0  0  0  0  0  0  0  0  0999 V3000
M  V30 BEGIN CTAB
M  V30 COUNTS 66 72 0 0 0
M  V30 BEGIN ATOM
M  V30 1 C 6.558204 -2.766641 5.294272 0
M  V30 2 C 5.466363 -2.169014 4.481600 0
M  V30 3 N 5.585671 -1.837161 3.182808 0
M  V30 4 C 4.422462 -1.316979 2.725979 0
M  V30 5 N 3.993666 -0.832115 1.535323 0
M  V30 6 C 2.747162 -0.358701 1.340675 0
M  V30 7 C 2.326941 0.149554 0.039994 0
M  V30 8 C 1.887990 1.422024 -0.140830 0
M  V30 9 C 1.513771 1.835476 -1.403361 0
M  V30 10 C 1.552205 1.023177 -2.545416 0
M  V30 11 C 1.115015 1.670045 -3.776090 0
M  V30 12 N -0.262142 1.596249 -4.103609 0
M  V30 13 C -0.815907 0.298259 -4.343168 0
M  V30 14 C -2.073672 0.642652 -3.564669 0
M  V30 15 C -2.431333 -0.390981 -2.565898 0
M  V30 16 N -1.606043 -0.989785 -1.688335 0
M  V30 17 N -2.311599 -1.854421 -0.976205 0
M  V30 18 C -3.590435 -1.838773 -1.366612 0
M  V30 19 C -4.640330 -2.665729 -0.796764 0
M  V30 20 C -5.951794 -2.635164 -1.213022 0
M  V30 21 C -6.949248 -3.424723 -0.667811 0
M  V30 22 C -6.591398 -4.299606 0.364491 0
M  V30 23 C -5.259408 -4.297152 0.751728 0
M  V30 24 N -4.322493 -3.511813 0.193284 0
M  V30 25 N -3.668620 -0.927845 -2.357027 0
M  V30 26 C -1.207295 1.785901 -3.024916 0
M  V30 27 C 2.004331 -0.263900 -2.320339 0
M  V30 28 C 2.379491 -0.684486 -1.063144 0
M  V30 29 C 1.920910 -0.397638 2.443461 0
M  V30 30 C 0.556125 0.095168 2.349304 0
M  V30 31 C -0.529291 -0.313090 1.604716 0
M  V30 32 C -1.726522 0.354978 1.718409 0
M  V30 33 C -1.906646 1.435492 2.554978 0
M  V30 34 C -0.827844 1.853100 3.304957 0
M  V30 35 C 0.401272 1.190984 3.208004 0
M  V30 36 C 2.310445 -0.881502 3.675974 0
M  V30 37 C 1.431515 -0.924650 4.854195 0
M  V30 38 N 3.582445 -1.338508 3.783237 0
M  V30 39 N 4.210458 -1.853210 4.846712 0
M  V30 40 H 6.873933 -3.711667 4.799930 0
M  V30 41 H 7.409878 -2.069493 5.271451 0
M  V30 42 H 6.189744 -2.982752 6.326341 0
M  V30 43 H 1.843286 2.081315 0.714480 0
M  V30 44 H 1.175640 2.872419 -1.447613 0
M  V30 45 H 1.509502 2.723946 -3.776573 0
M  V30 46 H 1.670023 1.199332 -4.638166 0
M  V30 47 H -1.000798 0.017905 -5.386728 0
M  V30 48 H -0.226328 -0.500840 -3.854008 0
M  V30 49 H -2.909284 0.966308 -4.182908 0
M  V30 50 H -1.902167 -2.448623 -0.225248 0
M  V30 51 H -6.192423 -1.937309 -2.023808 0
M  V30 52 H -7.983206 -3.381609 -1.016385 0
M  V30 53 H -7.333708 -4.949317 0.836413 0
M  V30 54 H -4.930006 -4.965134 1.556724 0
M  V30 55 H -0.876361 1.534892 -2.009678 0
M  V30 56 H -1.716797 2.760750 -3.166439 0
M  V30 57 H 2.031742 -0.876111 -3.209620 0
M  V30 58 H 2.716976 -1.722672 -1.019517 0
M  V30 59 H -0.274425 -1.162550 0.988836 0
M  V30 60 H -2.522254 -0.014794 1.114064 0
M  V30 61 H -2.883614 1.916891 2.594568 0
M  V30 62 H -1.009127 2.702039 3.947398 0
M  V30 63 H 1.144196 1.645760 3.864441 0
M  V30 64 H 1.535212 -0.044169 5.525456 0
M  V30 65 H 0.353568 -0.947436 4.541752 0
M  V30 66 H 1.569158 -1.860851 5.455194 0
M  V30 END ATOM
M  V30 BEGIN BOND
M  V30 1 1 1 2
M  V30 2 1 2 3
M  V30 3 2 3 4
M  V30 4 1 4 5
M  V30 5 2 5 6
M  V30 6 1 6 7
M  V30 7 2 7 8
M  V30 8 1 8 9
M  V30 9 2 9 10
M  V30 10 1 10 11
M  V30 11 1 11 12
M  V30 12 1 12 13
M  V30 13 1 13 14
M  V30 14 1 14 15
M  V30 15 2 15 16
M  V30 16 1 16 17
M  V30 17 1 17 18
M  V30 18 1 18 19
M  V30 19 2 19 20
M  V30 20 1 20 21
M  V30 21 2 21 22
M  V30 22 1 22 23
M  V30 23 2 23 24
M  V30 24 2 18 25
M  V30 25 1 14 26
M  V30 26 1 10 27
M  V30 27 2 27 28
M  V30 28 1 6 29
M  V30 29 1 29 30
M  V30 30 2 30 31
M  V30 31 1 31 32
M  V30 32 2 32 33
M  V30 33 1 33 34
M  V30 34 2 34 35
M  V30 35 2 29 36
M  V30 36 1 36 37
M  V30 37 1 36 38
M  V30 38 1 38 39
M  V30 39 2 39 2
M  V30 40 1 38 4
M  V30 41 1 28 7
M  V30 42 1 35 30
M  V30 43 1 26 12
M  V30 44 1 25 15
M  V30 45 1 24 19
M  V30 46 1 1 40
M  V30 47 1 1 41
M  V30 48 1 1 42
M  V30 49 1 8 43
M  V30 50 1 9 44
M  V30 51 1 11 45
M  V30 52 1 11 46
M  V30 53 1 13 47
M  V30 54 1 13 48
M  V30 55 1 14 49
M  V30 56 1 17 50
M  V30 57 1 20 51
M  V30 58 1 21 52
M  V30 59 1 22 53
M  V30 60 1 23 54
M  V30 61 1 26 55
M  V30 62 1 26 56
M  V30 63 1 27 57
M  V30 64 1 28 58
M  V30 65 1 31 59
M  V30 66 1 32 60
M  V30 67 1 33 61
M  V30 68 1 34 62
M  V30 69 1 35 63
M  V30 70 1 37 64
M  V30 71 1 37 65
M  V30 72 1 37 66
M  V30 END BOND
M  V30 END CTAB
M  END
>  <Dataset>  (443) 
ChEMBL_Kinases

>  <Ligand_Instance>  (443) 
nan

>  <PDB_ID>  (443) 
nan

>  <Standardized_SMILES>  (443) 
Cc1nc2nc(-c3ccc(CN4CC(c5n[nH]c(-c6ccccn6)n5)C4)cc3)c(-c3ccccc3)c(C)n2n1

>  <Name>  (443) 
nan

>  <Pocket>  (443) 
nan

>  <ATP_Site>  (443) 
nan

>  <Peripheral>  (443) 
nan

>  <Num_H_Atoms_ProtBoundConf>  (443) 
nan

>  <Num_Resolved_Atoms>  (443) 
nan

>  <Num_Not_Resolved_Atoms>  (443) 
nan

$$$$
CHEMBL4127042
     RDKit          3D

  0  0  0  0  0  0  0  0  0  0999 V3000
M  V30 BEGIN CTAB
M  V30 COUNTS 67 71 0 0 0
M  V30 BEGIN ATOM
M  V30 1 C 5.580814 -2.464959 6.915895 0
M  V30 2 N 4.992861 -3.158306 5.814864 0
M  V30 3 C 5.860999 -3.518629 4.753152 0
M  V30 4 C 6.124005 -2.452984 3.739255 0
M  V30 5 C 4.855274 -1.841682 3.230516 0
M  V30 6 C 4.707057 -1.226033 2.028683 0
M  V30 7 C 3.501527 -0.683616 1.640443 0
M  V30 8 N 3.334668 -0.043247 0.379915 0
M  V30 9 C 2.084470 0.559393 0.061794 0
M  V30 10 N 1.897335 1.887459 0.318396 0
M  V30 11 C 0.690512 2.459677 0.013071 0
M  V30 12 C -0.302880 1.663779 -0.548767 0
M  V30 13 C -1.477173 2.520579 -0.839861 0
M  V30 14 C -1.279027 3.599574 -1.914705 0
M  V30 15 C -2.262553 2.445952 -2.076475 0
M  V30 16 C -0.114933 0.325109 -0.805567 0
M  V30 17 N -1.229200 -0.387212 -1.333824 0
M  V30 18 C -0.859203 -1.749600 -1.560786 0
M  V30 19 C -1.931308 -2.670484 -2.021489 0
M  V30 20 C -2.615882 -2.302619 -3.288827 0
M  V30 21 N -3.370106 -1.046513 -3.211191 0
M  V30 22 C -4.519246 -1.249242 -2.340532 0
M  V30 23 N -5.068732 -2.366516 -1.999662 0
M  V30 24 C -5.171251 -0.026111 -1.755625 0
M  V30 25 C -6.311409 -0.356830 -0.848029 0
M  V30 26 C -7.287455 0.034848 -1.934793 0
M  V30 27 C -6.140390 0.636260 -2.714381 0
M  V30 28 N 1.093365 -0.162313 -0.480267 0
M  V30 29 C 2.450590 -0.793641 2.527136 0
M  V30 30 C 2.612287 -1.430583 3.764464 0
M  V30 31 C 3.827556 -1.970884 4.142293 0
M  V30 32 C 3.738340 -2.582640 5.475121 0
M  V30 33 H 4.860441 -1.713354 7.293508 0
M  V30 34 H 5.801122 -3.126626 7.781087 0
M  V30 35 H 6.469231 -1.890157 6.578661 0
M  V30 36 H 5.549799 -4.464931 4.306523 0
M  V30 37 H 6.862675 -3.742673 5.229611 0
M  V30 38 H 6.707731 -1.647733 4.201072 0
M  V30 39 H 6.709138 -2.878930 2.905592 0
M  V30 40 H 5.553329 -1.168527 1.379668 0
M  V30 41 H 4.140580 -0.032301 -0.283820 0
M  V30 42 H 0.682381 3.507304 0.267018 0
M  V30 43 H -2.007879 2.921031 0.048111 0
M  V30 44 H -0.336362 3.599552 -2.478093 0
M  V30 45 H -1.736171 4.582943 -1.796231 0
M  V30 46 H -2.051144 1.865246 -2.967550 0
M  V30 47 H -3.358668 2.716305 -2.023098 0
M  V30 48 H -2.128146 0.051617 -1.497963 0
M  V30 49 H -0.522099 -2.152825 -0.555211 0
M  V30 50 H 0.065420 -1.844474 -2.182762 0
M  V30 51 H -2.637872 -2.876684 -1.184047 0
M  V30 52 H -1.429306 -3.663809 -2.201713 0
M  V30 53 H -3.213411 -3.108302 -3.723788 0
M  V30 54 H -1.803349 -2.114051 -4.040510 0
M  V30 55 H -3.290982 -0.074371 -3.614009 0
M  V30 56 H -4.674258 -3.250275 -2.369013 0
M  V30 57 H -4.434660 0.690284 -1.381049 0
M  V30 58 H -6.375428 0.254529 0.086173 0
M  V30 59 H -6.399624 -1.443994 -0.564684 0
M  V30 60 H -8.068717 0.752361 -1.604558 0
M  V30 61 H -7.768014 -0.859700 -2.404777 0
M  V30 62 H -6.071584 0.287786 -3.766028 0
M  V30 63 H -6.116622 1.748201 -2.696822 0
M  V30 64 H 1.513190 -0.355658 2.191839 0
M  V30 65 H 1.675296 -1.424187 4.335212 0
M  V30 66 H 3.438224 -1.856965 6.259745 0
M  V30 67 H 2.995589 -3.434833 5.446459 0
M  V30 END ATOM
M  V30 BEGIN BOND
M  V30 1 1 1 2
M  V30 2 1 2 3
M  V30 3 1 3 4
M  V30 4 1 4 5
M  V30 5 2 5 6
M  V30 6 1 6 7
M  V30 7 1 7 8
M  V30 8 1 8 9
M  V30 9 2 9 10
M  V30 10 1 10 11
M  V30 11 2 11 12
M  V30 12 1 12 13
M  V30 13 1 13 14
M  V30 14 1 14 15
M  V30 15 1 12 16
M  V30 16 1 16 17
M  V30 17 1 17 18
M  V30 18 1 18 19
M  V30 19 1 19 20
M  V30 20 1 20 21
M  V30 21 1 21 22
M  V30 22 2 22 23 CFG=2
M  V30 23 1 22 24
M  V30 24 1 24 25
M  V30 25 1 25 26
M  V30 26 1 26 27
M  V30 27 2 16 28
M  V30 28 2 7 29
M  V30 29 1 29 30
M  V30 30 2 30 31
M  V30 31 1 31 32
M  V30 32 1 32 2
M  V30 33 1 31 5
M  V30 34 1 28 9
M  V30 35 1 15 13
M  V30 36 1 27 24
M  V30 37 1 1 33
M  V30 38 1 1 34
M  V30 39 1 1 35
M  V30 40 1 3 36
M  V30 41 1 3 37
M  V30 42 1 4 38
M  V30 43 1 4 39
M  V30 44 1 6 40
M  V30 45 1 8 41
M  V30 46 1 11 42
M  V30 47 1 13 43
M  V30 48 1 14 44
M  V30 49 1 14 45
M  V30 50 1 15 46
M  V30 51 1 15 47
M  V30 52 1 17 48
M  V30 53 1 18 49
M  V30 54 1 18 50
M  V30 55 1 19 51
M  V30 56 1 19 52
M  V30 57 1 20 53
M  V30 58 1 20 54
M  V30 59 1 21 55
M  V30 60 1 23 56
M  V30 61 1 24 57
M  V30 62 1 25 58
M  V30 63 1 25 59
M  V30 64 1 26 60
M  V30 65 1 26 61
M  V30 66 1 27 62
M  V30 67 1 27 63
M  V30 68 1 29 64
M  V30 69 1 30 65
M  V30 70 1 32 66
M  V30 71 1 32 67
M  V30 END BOND
M  V30 END CTAB
M  END
>  <Dataset>  (444) 
ChEMBL_Kinases

>  <Ligand_Instance>  (444) 
nan

>  <PDB_ID>  (444) 
nan

>  <Standardized_SMILES>  (444) 
CN1CCc2cc(Nc3ncc(C4CC4)c(NCCCNC(=N)C4CCC4)n3)ccc2C1

>  <Name>  (444) 
nan

>  <Pocket>  (444) 
nan

>  <ATP_Site>  (444) 
nan

>  <Peripheral>  (444) 
nan

>  <Num_H_Atoms_ProtBoundConf>  (444) 
nan

>  <Num_Resolved_Atoms>  (444) 
nan

>  <Num_Not_Resolved_Atoms>  (444) 
nan

$$$$
CHEMBL3672044
     RDKit          3D

  0  0  0  0  0  0  0  0  0  0999 V3000
M  V30 BEGIN CTAB
M  V30 COUNTS 71 77 0 0 0
M  V30 BEGIN ATOM
M  V30 1 C 5.491378 -0.631630 7.216249 0
M  V30 2 C 6.225689 -1.585038 6.321190 0
M  V30 3 C 7.348246 -2.313477 7.017096 0
M  V30 4 N 6.654080 -0.992840 5.066980 0
M  V30 5 C 5.568116 -0.511097 4.286074 0
M  V30 6 N 4.807571 0.599909 4.035379 0
M  V30 7 C 3.888746 0.284258 3.105017 0
M  V30 8 N 2.919515 1.020928 2.526295 0
M  V30 9 C 2.084417 0.480102 1.584037 0
M  V30 10 C 1.002322 1.132784 0.868438 0
M  V30 11 C -0.090077 1.710618 1.490970 0
M  V30 12 C -1.103924 2.320789 0.788524 0
M  V30 13 C -1.082055 2.387322 -0.582333 0
M  V30 14 C -2.009888 2.960958 -1.579477 0
M  V30 15 N -2.980291 2.035967 -2.073182 0
M  V30 16 C -3.890288 1.610625 -1.037102 0
M  V30 17 C -5.094282 2.054294 -1.849887 0
M  V30 18 C -5.946856 0.921791 -2.286745 0
M  V30 19 N -7.270355 0.642486 -2.352345 0
M  V30 20 N -7.420680 -0.591445 -2.850464 0
M  V30 21 C -6.202797 -1.100546 -3.102834 0
M  V30 22 C -5.934735 -2.426025 -3.648656 0
M  V30 23 C -4.648111 -2.863705 -3.873389 0
M  V30 24 C -4.292258 -4.112923 -4.389891 0
M  V30 25 C -5.375820 -4.921093 -4.673359 0
M  V30 26 C -6.676114 -4.512616 -4.459414 0
M  V30 27 N -6.928179 -3.283691 -3.956021 0
M  V30 28 N -5.307806 -0.186132 -2.762195 0
M  V30 29 C -4.068767 2.523850 -2.849523 0
M  V30 30 C 0.012698 1.810595 -1.244275 0
M  V30 31 C 1.028823 1.196754 -0.504924 0
M  V30 32 C 2.260346 -0.861523 1.232651 0
M  V30 33 C 1.495342 -1.626815 0.272794 0
M  V30 34 C 2.039480 -2.152744 -0.905700 0
M  V30 35 C 1.310641 -2.884671 -1.815710 0
M  V30 36 C -0.022055 -3.131943 -1.589349 0
M  V30 37 C -0.603099 -2.644075 -0.458269 0
M  V30 38 C 0.137989 -1.908971 0.451489 0
M  V30 39 C 3.256914 -1.597568 1.834939 0
M  V30 40 N 4.058165 -1.005728 2.767122 0
M  V30 41 N 5.075553 -1.491948 3.480864 0
M  V30 42 H 6.168586 0.147771 7.570146 0
M  V30 43 H 5.031410 -1.251503 8.028201 0
M  V30 44 H 4.626191 -0.242773 6.630774 0
M  V30 45 H 5.471546 -2.381408 6.046833 0
M  V30 46 H 7.521782 -1.972541 8.045382 0
M  V30 47 H 8.287152 -2.195028 6.404831 0
M  V30 48 H 7.183994 -3.418948 7.062111 0
M  V30 49 H 7.627527 -0.879888 4.680937 0
M  V30 50 H -0.168753 1.693553 2.568468 0
M  V30 51 H -1.974817 2.792700 1.202382 0
M  V30 52 H -2.614448 3.762085 -1.050794 0
M  V30 53 H -1.482106 3.526181 -2.374811 0
M  V30 54 H -3.861524 0.507975 -0.970052 0
M  V30 55 H -3.843128 2.131501 -0.067006 0
M  V30 56 H -5.660994 2.910530 -1.453670 0
M  V30 57 H -8.366610 -1.012071 -2.989548 0
M  V30 58 H -3.816015 -2.202779 -3.636102 0
M  V30 59 H -3.249457 -4.364674 -4.529502 0
M  V30 60 H -5.141683 -5.905124 -5.077060 0
M  V30 61 H -7.502823 -5.171003 -4.692079 0
M  V30 62 H -4.076351 3.583394 -3.108412 0
M  V30 63 H -4.158440 1.902554 -3.787564 0
M  V30 64 H 0.194912 1.769713 -2.307877 0
M  V30 65 H 1.895761 0.737931 -0.992016 0
M  V30 66 H 3.101031 -1.974572 -1.118784 0
M  V30 67 H 1.824960 -3.246893 -2.698343 0
M  V30 68 H -0.550245 -3.708658 -2.329213 0
M  V30 69 H -1.645717 -2.821600 -0.251749 0
M  V30 70 H -0.376881 -1.546161 1.335291 0
M  V30 71 H 3.474819 -2.655481 1.627762 0
M  V30 END ATOM
M  V30 BEGIN BOND
M  V30 1 1 1 2
M  V30 2 1 2 3
M  V30 3 1 2 4
M  V30 4 1 4 5
M  V30 5 1 5 6
M  V30 6 2 6 7
M  V30 7 1 7 8
M  V30 8 2 8 9
M  V30 9 1 9 10
M  V30 10 2 10 11
M  V30 11 1 11 12
M  V30 12 2 12 13
M  V30 13 1 13 14
M  V30 14 1 14 15
M  V30 15 1 15 16
M  V30 16 1 16 17
M  V30 17 1 17 18
M  V30 18 2 18 19
M  V30 19 1 19 20
M  V30 20 1 20 21
M  V30 21 1 21 22
M  V30 22 2 22 23
M  V30 23 1 23 24
M  V30 24 2 24 25
M  V30 25 1 25 26
M  V30 26 2 26 27
M  V30 27 2 21 28
M  V30 28 1 17 29
M  V30 29 1 13 30
M  V30 30 2 30 31
M  V30 31 1 9 32
M  V30 32 1 32 33
M  V30 33 2 33 34
M  V30 34 1 34 35
M  V30 35 2 35 36
M  V30 36 1 36 37
M  V30 37 2 37 38
M  V30 38 2 32 39
M  V30 39 1 39 40
M  V30 40 1 40 41
M  V30 41 2 41 5
M  V30 42 1 40 7
M  V30 43 1 31 10
M  V30 44 1 38 33
M  V30 45 1 29 15
M  V30 46 1 28 18
M  V30 47 1 27 22
M  V30 48 1 1 42
M  V30 49 1 1 43
M  V30 50 1 1 44
M  V30 51 1 2 45
M  V30 52 1 3 46
M  V30 53 1 3 47
M  V30 54 1 3 48
M  V30 55 1 4 49
M  V30 56 1 11 50
M  V30 57 1 12 51
M  V30 58 1 14 52
M  V30 59 1 14 53
M  V30 60 1 16 54
M  V30 61 1 16 55
M  V30 62 1 17 56
M  V30 63 1 20 57
M  V30 64 1 23 58
M  V30 65 1 24 59
M  V30 66 1 25 60
M  V30 67 1 26 61
M  V30 68 1 29 62
M  V30 69 1 29 63
M  V30 70 1 30 64
M  V30 71 1 31 65
M  V30 72 1 34 66
M  V30 73 1 35 67
M  V30 74 1 36 68
M  V30 75 1 37 69
M  V30 76 1 38 70
M  V30 77 1 39 71
M  V30 END BOND
M  V30 END CTAB
M  END
>  <Dataset>  (445) 
ChEMBL_Kinases

>  <Ligand_Instance>  (445) 
nan

>  <PDB_ID>  (445) 
nan

>  <Standardized_SMILES>  (445) 
CC(C)Nc1nc2nc(-c3ccc(CN4CC(c5n[nH]c(-c6ccccn6)n5)C4)cc3)c(-c3ccccc3)cn2n1

>  <Name>  (445) 
nan

>  <Pocket>  (445) 
nan

>  <ATP_Site>  (445) 
nan

>  <Peripheral>  (445) 
nan

>  <Num_H_Atoms_ProtBoundConf>  (445) 
nan

>  <Num_Resolved_Atoms>  (445) 
nan

>  <Num_Not_Resolved_Atoms>  (445) 
nan

$$$$
CHEMBL3672042
     RDKit          3D

  0  0  0  0  0  0  0  0  0  0999 V3000
M  V30 BEGIN CTAB
M  V30 COUNTS 70 76 0 0 0
M  V30 BEGIN ATOM
M  V30 1 C 1.657058 -0.936961 4.919949 0
M  V30 2 C 3.160057 -0.849306 4.690696 0
M  V30 3 C 3.556089 0.562265 4.384240 0
M  V30 4 C 4.173767 1.560572 5.118179 0
M  V30 5 N 4.290425 2.660480 4.340664 0
M  V30 6 N 3.776655 2.407644 3.149518 0
M  V30 7 C 3.673275 3.196199 2.068552 0
M  V30 8 C 3.091364 2.721817 0.910950 0
M  V30 9 C 2.889725 3.413749 -0.348368 0
M  V30 10 C 4.055266 3.801142 -0.967758 0
M  V30 11 C 4.021831 4.470942 -2.173337 0
M  V30 12 C 2.801131 4.764748 -2.781202 0
M  V30 13 C 1.621056 4.373705 -2.156328 0
M  V30 14 C 1.672448 3.700783 -0.944119 0
M  V30 15 C 2.618720 1.423829 0.886212 0
M  V30 16 C 1.966485 0.669606 -0.175902 0
M  V30 17 C 0.685938 0.195224 0.114848 0
M  V30 18 C -0.017821 -0.539971 -0.848590 0
M  V30 19 C 0.556547 -0.799006 -2.096007 0
M  V30 20 C -0.325589 -1.578074 -2.959780 0
M  V30 21 N -0.171729 -3.003214 -2.903655 0
M  V30 22 C -0.311907 -3.689386 -1.674902 0
M  V30 23 C -1.189962 -4.755155 -2.256642 0
M  V30 24 C -2.402987 -5.074202 -1.475141 0
M  V30 25 N -3.083844 -6.213566 -1.155229 0
M  V30 26 N -4.120397 -5.867675 -0.399038 0
M  V30 27 C -4.120671 -4.534164 -0.226249 0
M  V30 28 C -5.074921 -3.735244 0.536726 0
M  V30 29 C -6.119932 -4.388190 1.177771 0
M  V30 30 C -7.032692 -3.619465 1.911466 0
M  V30 31 C -6.851260 -2.248738 1.963283 0
M  V30 32 C -5.816561 -1.637462 1.323808 0
M  V30 33 C -5.670141 -0.161333 1.414438 0
M  V30 34 N -4.967355 -2.391563 0.636206 0
M  V30 35 N -3.061583 -4.037151 -0.888996 0
M  V30 36 C -1.371633 -3.729394 -3.365599 0
M  V30 37 C 1.823690 -0.318415 -2.357146 0
M  V30 38 C 2.515877 0.404714 -1.409474 0
M  V30 39 N 2.744123 0.657455 2.006766 0
M  V30 40 C 3.320582 1.132478 3.148333 0
M  V30 41 H 1.394619 -2.004030 4.808393 0
M  V30 42 H 1.171875 -0.288644 4.163073 0
M  V30 43 H 1.409566 -0.595468 5.931710 0
M  V30 44 H 3.463387 -1.559405 3.917103 0
M  V30 45 H 3.625970 -1.184535 5.659464 0
M  V30 46 H 4.473112 1.381801 6.140932 0
M  V30 47 H 4.015987 4.221158 2.003360 0
M  V30 48 H 5.045730 3.613912 -0.567592 0
M  V30 49 H 4.872067 4.811204 -2.728602 0
M  V30 50 H 2.718222 5.287507 -3.725908 0
M  V30 51 H 0.640298 4.564007 -2.562922 0
M  V30 52 H 0.807220 3.360768 -0.389826 0
M  V30 53 H 0.232675 0.399514 1.099042 0
M  V30 54 H -0.999114 -0.859728 -0.526570 0
M  V30 55 H -0.090293 -1.292740 -4.028108 0
M  V30 56 H -1.396970 -1.319277 -2.847360 0
M  V30 57 H -0.770975 -3.222340 -0.811989 0
M  V30 58 H 0.686688 -4.106263 -1.348318 0
M  V30 59 H -0.639094 -5.640856 -2.633157 0
M  V30 60 H -4.830531 -6.508432 0.005656 0
M  V30 61 H -6.253136 -5.468629 1.129488 0
M  V30 62 H -7.871693 -4.091792 2.432806 0
M  V30 63 H -7.565829 -1.658100 2.536491 0
M  V30 64 H -4.647794 0.135668 1.096265 0
M  V30 65 H -5.910358 0.173200 2.461160 0
M  V30 66 H -6.463157 0.319242 0.784857 0
M  V30 67 H -1.199544 -4.163213 -4.368276 0
M  V30 68 H -2.305772 -3.177064 -3.212368 0
M  V30 69 H 2.200387 -0.550576 -3.322031 0
M  V30 70 H 3.507105 0.779073 -1.617410 0
M  V30 END ATOM
M  V30 BEGIN BOND
M  V30 1 1 1 2
M  V30 2 1 2 3
M  V30 3 1 3 4
M  V30 4 2 4 5
M  V30 5 1 5 6
M  V30 6 1 6 7
M  V30 7 2 7 8
M  V30 8 1 8 9
M  V30 9 2 9 10
M  V30 10 1 10 11
M  V30 11 2 11 12
M  V30 12 1 12 13
M  V30 13 2 13 14
M  V30 14 1 8 15
M  V30 15 1 15 16
M  V30 16 2 16 17
M  V30 17 1 17 18
M  V30 18 2 18 19
M  V30 19 1 19 20
M  V30 20 1 20 21
M  V30 21 1 21 22
M  V30 22 1 22 23
M  V30 23 1 23 24
M  V30 24 2 24 25
M  V30 25 1 25 26
M  V30 26 1 26 27
M  V30 27 1 27 28
M  V30 28 2 28 29
M  V30 29 1 29 30
M  V30 30 2 30 31
M  V30 31 1 31 32
M  V30 32 1 32 33
M  V30 33 2 32 34
M  V30 34 2 27 35
M  V30 35 1 23 36
M  V30 36 1 19 37
M  V30 37 2 37 38
M  V30 38 2 15 39
M  V30 39 1 39 40
M  V30 40 2 40 3
M  V30 41 1 40 6
M  V30 42 1 14 9
M  V30 43 1 38 16
M  V30 44 1 36 21
M  V30 45 1 35 24
M  V30 46 1 34 28
M  V30 47 1 1 41
M  V30 48 1 1 42
M  V30 49 1 1 43
M  V30 50 1 2 44
M  V30 51 1 2 45
M  V30 52 1 4 46
M  V30 53 1 7 47
M  V30 54 1 10 48
M  V30 55 1 11 49
M  V30 56 1 12 50
M  V30 57 1 13 51
M  V30 58 1 14 52
M  V30 59 1 17 53
M  V30 60 1 18 54
M  V30 61 1 20 55
M  V30 62 1 20 56
M  V30 63 1 22 57
M  V30 64 1 22 58
M  V30 65 1 23 59
M  V30 66 1 26 60
M  V30 67 1 29 61
M  V30 68 1 30 62
M  V30 69 1 31 63
M  V30 70 1 33 64
M  V30 71 1 33 65
M  V30 72 1 33 66
M  V30 73 1 36 67
M  V30 74 1 36 68
M  V30 75 1 37 69
M  V30 76 1 38 70
M  V30 END BOND
M  V30 END CTAB
M  END
>  <Dataset>  (446) 
ChEMBL_Kinases

>  <Ligand_Instance>  (446) 
nan

>  <PDB_ID>  (446) 
nan

>  <Standardized_SMILES>  (446) 
CCc1cnn2cc(-c3ccccc3)c(-c3ccc(CN4CC(c5n[nH]c(-c6cccc(C)n6)n5)C4)cc3)nc12

>  <Name>  (446) 
nan

>  <Pocket>  (446) 
nan

>  <ATP_Site>  (446) 
nan

>  <Peripheral>  (446) 
nan

>  <Num_H_Atoms_ProtBoundConf>  (446) 
nan

>  <Num_Resolved_Atoms>  (446) 
nan

>  <Num_Not_Resolved_Atoms>  (446) 
nan

$$$$
CHEMBL3672041
     RDKit          3D

  0  0  0  0  0  0  0  0  0  0999 V3000
M  V30 BEGIN CTAB
M  V30 COUNTS 70 77 0 0 0
M  V30 BEGIN ATOM
M  V30 1 C 8.308382 -1.437219 4.415272 0
M  V30 2 C 7.184698 -1.364676 3.447447 0
M  V30 3 C 6.554576 -2.533837 3.086425 0
M  V30 4 C 5.510847 -2.477019 2.188488 0
M  V30 5 C 5.166562 -1.219259 1.705804 0
M  V30 6 C 5.797648 -0.046594 2.067276 0
M  V30 7 C 5.381820 1.238944 1.519812 0
M  V30 8 N 4.390825 1.423193 0.647815 0
M  V30 9 C 4.332306 2.745200 0.399390 0
M  V30 10 C 3.285973 3.225540 -0.564146 0
M  V30 11 C 3.299704 2.543701 -1.910962 0
M  V30 12 N 1.934125 2.121930 -1.657443 0
M  V30 13 C 1.710230 0.745433 -1.934354 0
M  V30 14 C 0.342369 0.256050 -1.682476 0
M  V30 15 C -0.681632 0.265384 -2.605819 0
M  V30 16 C -1.942952 -0.210624 -2.309213 0
M  V30 17 C -2.212492 -0.717208 -1.054666 0
M  V30 18 C -3.466726 -1.264584 -0.541169 0
M  V30 19 N -3.339892 -2.584005 -0.213474 0
M  V30 20 C -4.371847 -3.295834 0.282136 0
M  V30 21 N -4.514641 -4.582663 0.679690 0
M  V30 22 C -5.793743 -4.768732 1.101965 0
M  V30 23 C -6.441319 -6.016928 1.636138 0
M  V30 24 C -6.020168 -7.337919 1.015214 0
M  V30 25 C -5.494222 -6.960559 2.371913 0
M  V30 26 N -6.417591 -3.566412 0.950115 0
M  V30 27 N -5.567519 -2.676316 0.457336 0
M  V30 28 C -5.743203 -1.378900 0.149800 0
M  V30 29 C -4.687655 -0.649888 -0.357316 0
M  V30 30 C -4.699378 0.756417 -0.741286 0
M  V30 31 C -5.615068 1.027132 -1.761786 0
M  V30 32 C -5.796322 2.300113 -2.284317 0
M  V30 33 C -5.028426 3.318235 -1.755997 0
M  V30 34 C -4.112715 3.071476 -0.741893 0
M  V30 35 C -3.957436 1.802922 -0.247609 0
M  V30 36 C -1.201094 -0.746330 -0.083572 0
M  V30 37 C 0.057013 -0.259551 -0.414853 0
M  V30 38 C 1.924067 2.580290 -0.307724 0
M  V30 39 N 5.283836 3.382511 1.114315 0
M  V30 40 N 5.921023 2.429202 1.800435 0
M  V30 41 N 6.805073 -0.177055 2.945371 0
M  V30 42 H 9.227594 -0.930278 4.014066 0
M  V30 43 H 8.020382 -0.931228 5.340103 0
M  V30 44 H 8.635581 -2.497620 4.557507 0
M  V30 45 H 6.846295 -3.517102 3.482290 0
M  V30 46 H 4.961997 -3.362829 1.855148 0
M  V30 47 H 4.348123 -1.169880 1.001634 0
M  V30 48 H 3.293272 4.306512 -0.700130 0
M  V30 49 H 4.048133 1.715887 -1.896010 0
M  V30 50 H 3.459534 3.203519 -2.778633 0
M  V30 51 H 2.445624 0.134381 -1.331071 0
M  V30 52 H 2.039161 0.553783 -2.989317 0
M  V30 53 H -0.486703 0.654954 -3.582199 0
M  V30 54 H -2.772625 -0.230154 -2.977826 0
M  V30 55 H -7.489054 -5.995471 1.935880 0
M  V30 56 H -6.740065 -8.162019 0.924145 0
M  V30 57 H -5.258522 -7.320382 0.186980 0
M  V30 58 H -5.890879 -7.543788 3.224862 0
M  V30 59 H -4.444860 -6.634888 2.502823 0
M  V30 60 H -6.673209 -0.838583 0.269779 0
M  V30 61 H -6.257362 0.269311 -2.227730 0
M  V30 62 H -6.509806 2.500716 -3.076726 0
M  V30 63 H -5.158196 4.325015 -2.155510 0
M  V30 64 H -3.503825 3.853223 -0.316046 0
M  V30 65 H -3.278198 1.507260 0.534543 0
M  V30 66 H -1.323554 -1.129021 0.935907 0
M  V30 67 H 0.846646 -0.278812 0.330279 0
M  V30 68 H 1.179151 3.422838 -0.217837 0
M  V30 69 H 1.909886 1.859982 0.508269 0
M  V30 70 H 6.722213 2.638790 2.451239 0
M  V30 END ATOM
M  V30 BEGIN BOND
M  V30 1 1 1 2
M  V30 2 2 2 3
M  V30 3 1 3 4
M  V30 4 2 4 5
M  V30 5 1 5 6
M  V30 6 1 6 7
M  V30 7 2 7 8
M  V30 8 1 8 9
M  V30 9 1 9 10
M  V30 10 1 10 11
M  V30 11 1 11 12
M  V30 12 1 12 13
M  V30 13 1 13 14
M  V30 14 2 14 15
M  V30 15 1 15 16
M  V30 16 2 16 17
M  V30 17 1 17 18
M  V30 18 2 18 19
M  V30 19 1 19 20
M  V30 20 2 20 21
M  V30 21 1 21 22
M  V30 22 1 22 23
M  V30 23 1 23 24
M  V30 24 1 24 25
M  V30 25 2 22 26
M  V30 26 1 26 27
M  V30 27 1 27 28
M  V30 28 2 28 29
M  V30 29 1 29 30
M  V30 30 2 30 31
M  V30 31 1 31 32
M  V30 32 2 32 33
M  V30 33 1 33 34
M  V30 34 2 34 35
M  V30 35 1 17 36
M  V30 36 2 36 37
M  V30 37 1 12 38
M  V30 38 2 9 39
M  V30 39 1 39 40
M  V30 40 2 6 41
M  V30 41 1 41 2
M  V30 42 1 40 7
M  V30 43 1 38 10
M  V30 44 1 37 14
M  V30 45 1 29 18
M  V30 46 1 35 30
M  V30 47 1 27 20
M  V30 48 1 25 23
M  V30 49 1 1 42
M  V30 50 1 1 43
M  V30 51 1 1 44
M  V30 52 1 3 45
M  V30 53 1 4 46
M  V30 54 1 5 47
M  V30 55 1 10 48
M  V30 56 1 11 49
M  V30 57 1 11 50
M  V30 58 1 13 51
M  V30 59 1 13 52
M  V30 60 1 15 53
M  V30 61 1 16 54
M  V30 62 1 23 55
M  V30 63 1 24 56
M  V30 64 1 24 57
M  V30 65 1 25 58
M  V30 66 1 25 59
M  V30 67 1 28 60
M  V30 68 1 31 61
M  V30 69 1 32 62
M  V30 70 1 33 63
M  V30 71 1 34 64
M  V30 72 1 35 65
M  V30 73 1 36 66
M  V30 74 1 37 67
M  V30 75 1 38 68
M  V30 76 1 38 69
M  V30 77 1 40 70
M  V30 END BOND
M  V30 END CTAB
M  END
>  <Dataset>  (447) 
ChEMBL_Kinases

>  <Ligand_Instance>  (447) 
nan

>  <PDB_ID>  (447) 
nan

>  <Standardized_SMILES>  (447) 
Cc1cccc(-c2nc(C3CN(Cc4ccc(-c5nc6nc(C7CC7)nn6cc5-c5ccccc5)cc4)C3)n[nH]2)n1

>  <Name>  (447) 
nan

>  <Pocket>  (447) 
nan

>  <ATP_Site>  (447) 
nan

>  <Peripheral>  (447) 
nan

>  <Num_H_Atoms_ProtBoundConf>  (447) 
nan

>  <Num_Resolved_Atoms>  (447) 
nan

>  <Num_Not_Resolved_Atoms>  (447) 
nan

$$$$
CHEMBL4126838
     RDKit          3D

  0  0  0  0  0  0  0  0  0  0999 V3000
M  V30 BEGIN CTAB
M  V30 COUNTS 55 58 0 0 0
M  V30 BEGIN ATOM
M  V30 1 C 5.080967 4.299604 4.289981 0
M  V30 2 N 5.180279 2.876840 4.476748 0
M  V30 3 C 5.000482 2.548941 5.855337 0
M  V30 4 C 4.213940 2.194160 3.676028 0
M  V30 5 C 4.540893 2.323898 2.181419 0
M  V30 6 C 3.432783 1.558291 1.479510 0
M  V30 7 O 3.583761 1.574116 0.068580 0
M  V30 8 C 2.612179 0.901082 -0.673499 0
M  V30 9 C 2.643772 0.839445 -2.052538 0
M  V30 10 N 1.689299 0.179718 -2.772235 0
M  V30 11 C 0.686912 -0.429173 -2.113999 0
M  V30 12 C 0.605904 -0.399616 -0.737677 0
M  V30 13 C -0.449780 -1.033684 0.053652 0
M  V30 14 C -0.373876 -0.904950 1.423761 0
M  V30 15 C -1.356828 -1.488222 2.234358 0
M  V30 16 C -2.418603 -2.200187 1.708273 0
M  V30 17 N -3.462729 -2.839821 2.218978 0
M  V30 18 C -4.147478 -3.339867 1.178744 0
M  V30 19 C -3.534647 -3.016585 -0.012480 0
M  V30 20 C -4.105442 -3.453483 -1.284180 0
M  V30 21 C -5.485441 -3.329800 -1.471485 0
M  V30 22 C -6.086060 -3.724104 -2.650004 0
M  V30 23 C -5.316612 -4.250225 -3.664893 0
M  V30 24 C -5.815309 -4.727299 -5.001074 0
M  V30 25 F -7.195788 -4.791789 -4.976576 0
M  V30 26 F -5.438580 -3.901650 -6.027909 0
M  V30 27 F -5.370016 -6.011760 -5.255622 0
M  V30 28 C -3.953357 -4.363994 -3.459627 0
M  V30 29 C -3.304724 -3.978522 -2.285129 0
M  V30 30 C -2.409703 -2.274811 0.334670 0
M  V30 31 C -1.483664 -1.731188 -0.532131 0
M  V30 32 N 1.578457 0.267188 -0.093815 0
M  V30 33 H 5.097131 4.812112 5.292780 0
M  V30 34 H 4.095753 4.559549 3.855969 0
M  V30 35 H 5.913732 4.662866 3.668032 0
M  V30 36 H 4.840493 1.488139 6.065100 0
M  V30 37 H 5.947494 2.820343 6.402230 0
M  V30 38 H 4.188069 3.140280 6.337542 0
M  V30 39 H 4.234771 1.099838 3.868506 0
M  V30 40 H 3.175850 2.532359 3.833754 0
M  V30 41 H 5.546212 1.981593 1.941823 0
M  V30 42 H 4.431768 3.397212 1.930399 0
M  V30 43 H 2.481225 2.045472 1.797628 0
M  V30 44 H 3.353748 0.519824 1.867168 0
M  V30 45 H 3.456698 1.333607 -2.570369 0
M  V30 46 H -0.073623 -0.954802 -2.658106 0
M  V30 47 H 0.421403 -0.364450 1.924291 0
M  V30 48 H -1.260145 -1.362322 3.318562 0
M  V30 49 H -3.603309 -2.867462 3.260197 0
M  V30 50 H -5.053592 -3.909721 1.357847 0
M  V30 51 H -6.121529 -2.915941 -0.685632 0
M  V30 52 H -7.150666 -3.652532 -2.858467 0
M  V30 53 H -3.305532 -4.768016 -4.224012 0
M  V30 54 H -2.255538 -4.071017 -2.139724 0
M  V30 55 H -1.556320 -1.840418 -1.593439 0
M  V30 END ATOM
M  V30 BEGIN BOND
M  V30 1 1 1 2
M  V30 2 1 2 3
M  V30 3 1 2 4
M  V30 4 1 4 5
M  V30 5 1 5 6
M  V30 6 1 6 7
M  V30 7 1 7 8
M  V30 8 2 8 9
M  V30 9 1 9 10
M  V30 10 2 10 11
M  V30 11 1 11 12
M  V30 12 1 12 13
M  V30 13 2 13 14
M  V30 14 1 14 15
M  V30 15 2 15 16
M  V30 16 1 16 17
M  V30 17 1 17 18
M  V30 18 2 18 19
M  V30 19 1 19 20
M  V30 20 2 20 21
M  V30 21 1 21 22
M  V30 22 2 22 23
M  V30 23 1 23 24
M  V30 24 1 24 25
M  V30 25 1 24 26
M  V30 26 1 24 27
M  V30 27 1 23 28
M  V30 28 2 28 29
M  V30 29 1 19 30
M  V30 30 2 30 31
M  V30 31 2 12 32
M  V30 32 1 32 8
M  V30 33 1 31 13
M  V30 34 1 30 16
M  V30 35 1 29 20
M  V30 36 1 1 33
M  V30 37 1 1 34
M  V30 38 1 1 35
M  V30 39 1 3 36
M  V30 40 1 3 37
M  V30 41 1 3 38
M  V30 42 1 4 39
M  V30 43 1 4 40
M  V30 44 1 5 41
M  V30 45 1 5 42
M  V30 46 1 6 43
M  V30 47 1 6 44
M  V30 48 1 9 45
M  V30 49 1 11 46
M  V30 50 1 14 47
M  V30 51 1 15 48
M  V30 52 1 17 49
M  V30 53 1 18 50
M  V30 54 1 21 51
M  V30 55 1 22 52
M  V30 56 1 28 53
M  V30 57 1 29 54
M  V30 58 1 31 55
M  V30 END BOND
M  V30 END CTAB
M  END
>  <Dataset>  (448) 
ChEMBL_Kinases

>  <Ligand_Instance>  (448) 
nan

>  <PDB_ID>  (448) 
nan

>  <Standardized_SMILES>  (448) 
CN(C)CCCOc1cncc(-c2ccc3[nH]cc(-c4ccc(C(F)(F)F)cc4)c3c2)n1

>  <Name>  (448) 
nan

>  <Pocket>  (448) 
nan

>  <ATP_Site>  (448) 
nan

>  <Peripheral>  (448) 
nan

>  <Num_H_Atoms_ProtBoundConf>  (448) 
nan

>  <Num_Resolved_Atoms>  (448) 
nan

>  <Num_Not_Resolved_Atoms>  (448) 
nan

$$$$
CHEMBL3672040
     RDKit          3D

  0  0  0  0  0  0  0  0  0  0999 V3000
M  V30 BEGIN CTAB
M  V30 COUNTS 72 79 0 0 0
M  V30 BEGIN ATOM
M  V30 1 C 2.058957 -0.071791 3.436079 0
M  V30 2 C 1.918654 1.299444 3.559766 0
M  V30 3 C 2.088589 2.119566 2.454933 0
M  V30 4 C 2.398790 1.596877 1.215408 0
M  V30 5 C 2.603828 2.310917 -0.011022 0
M  V30 6 C 3.555893 3.264726 -0.307027 0
M  V30 7 N 3.620740 3.850455 -1.516828 0
M  V30 8 N 4.462079 4.783293 -1.983327 0
M  V30 9 C 4.114561 5.040319 -3.257254 0
M  V30 10 C 4.716266 5.995159 -4.247293 0
M  V30 11 C 3.815791 6.643971 -5.248235 0
M  V30 12 C 4.693582 5.569416 -5.723153 0
M  V30 13 N 3.059358 4.259075 -3.559858 0
M  V30 14 C 2.730728 3.504828 -2.487480 0
M  V30 15 N 1.778348 2.566605 -2.227832 0
M  V30 16 C 1.705130 1.966366 -1.001505 0
M  V30 17 C 0.606913 1.009439 -0.986560 0
M  V30 18 C -0.513851 1.037239 -0.211508 0
M  V30 19 C -1.462842 0.041573 -0.326041 0
M  V30 20 C -1.358861 -1.024258 -1.202079 0
M  V30 21 C -2.444540 -2.031055 -1.242982 0
M  V30 22 N -2.313844 -3.108977 -0.323648 0
M  V30 23 C -1.073916 -3.810694 -0.580396 0
M  V30 24 C -0.862195 -4.728255 0.612848 0
M  V30 25 C -2.037787 -5.632574 0.782181 0
M  V30 26 C -2.742085 -5.382594 2.081945 0
M  V30 27 C -2.903229 -6.381926 3.014841 0
M  V30 28 N -3.543534 -6.070074 4.144339 0
M  V30 29 C -4.023192 -4.817892 4.377599 0
M  V30 30 C -4.675165 -4.579632 5.575527 0
M  V30 31 C -5.187548 -3.327963 5.876339 0
M  V30 32 C -5.024599 -2.320057 4.934580 0
M  V30 33 C -4.368586 -2.564034 3.731896 0
M  V30 34 C -3.857159 -3.823563 3.437743 0
M  V30 35 N -3.217887 -4.126268 2.304771 0
M  V30 36 C -3.076581 -5.459747 -0.301755 0
M  V30 37 C -3.399782 -4.034034 -0.586582 0
M  V30 38 C -0.211707 -1.030365 -1.978700 0
M  V30 39 C 0.745540 -0.041185 -1.874497 0
M  V30 40 C 2.536107 0.229605 1.103843 0
M  V30 41 C 2.372049 -0.617262 2.191705 0
M  V30 42 H 1.919398 -0.695550 4.325375 0
M  V30 43 H 1.678808 1.777525 4.490176 0
M  V30 44 H 1.993004 3.199347 2.483033 0
M  V30 45 H 4.228657 3.491839 0.504654 0
M  V30 46 H 5.570624 6.594467 -3.934715 0
M  V30 47 H 2.723515 6.426835 -5.237988 0
M  V30 48 H 4.043825 7.666914 -5.576535 0
M  V30 49 H 4.230545 4.595770 -5.982926 0
M  V30 50 H 5.551909 5.844364 -6.369133 0
M  V30 51 H -0.590908 1.872095 0.471570 0
M  V30 52 H -2.307441 0.152700 0.326179 0
M  V30 53 H -3.393303 -1.453626 -1.058985 0
M  V30 54 H -2.550957 -2.412189 -2.301328 0
M  V30 55 H -0.212062 -3.110384 -0.665723 0
M  V30 56 H -1.166619 -4.434142 -1.488344 0
M  V30 57 H 0.117600 -5.231220 0.600545 0
M  V30 58 H -0.841006 -4.026029 1.496701 0
M  V30 59 H -1.715197 -6.698991 0.754108 0
M  V30 60 H -2.529430 -7.375291 2.843854 0
M  V30 61 H -4.822871 -5.336267 6.335340 0
M  V30 62 H -5.700489 -3.126060 6.810038 0
M  V30 63 H -5.423639 -1.348050 5.170327 0
M  V30 64 H -4.249340 -1.777041 3.012613 0
M  V30 65 H -4.003867 -5.956631 0.054508 0
M  V30 66 H -2.760364 -6.019958 -1.215378 0
M  V30 67 H -4.321323 -3.677041 -0.078724 0
M  V30 68 H -3.635348 -3.971320 -1.680599 0
M  V30 69 H -0.096853 -1.842596 -2.675660 0
M  V30 70 H 1.615873 -0.146414 -2.539785 0
M  V30 71 H 2.777984 -0.306397 0.187496 0
M  V30 72 H 2.468536 -1.699465 2.159153 0
M  V30 END ATOM
M  V30 BEGIN BOND
M  V30 1 2 1 2
M  V30 2 1 2 3
M  V30 3 2 3 4
M  V30 4 1 4 5
M  V30 5 2 5 6
M  V30 6 1 6 7
M  V30 7 1 7 8
M  V30 8 2 8 9
M  V30 9 1 9 10
M  V30 10 1 10 11
M  V30 11 1 11 12
M  V30 12 1 9 13
M  V30 13 2 13 14
M  V30 14 1 14 15
M  V30 15 2 15 16
M  V30 16 1 16 17
M  V30 17 2 17 18
M  V30 18 1 18 19
M  V30 19 2 19 20
M  V30 20 1 20 21
M  V30 21 1 21 22
M  V30 22 1 22 23
M  V30 23 1 23 24
M  V30 24 1 24 25
M  V30 25 1 25 26
M  V30 26 2 26 27
M  V30 27 1 27 28
M  V30 28 2 28 29
M  V30 29 1 29 30
M  V30 30 2 30 31
M  V30 31 1 31 32
M  V30 32 2 32 33
M  V30 33 1 33 34
M  V30 34 2 34 35
M  V30 35 1 25 36
M  V30 36 1 36 37
M  V30 37 1 20 38
M  V30 38 2 38 39
M  V30 39 1 4 40
M  V30 40 2 40 41
M  V30 41 1 41 1
M  V30 42 1 16 5
M  V30 43 1 39 17
M  V30 44 1 14 7
M  V30 45 1 37 22
M  V30 46 1 12 10
M  V30 47 1 35 26
M  V30 48 1 34 29
M  V30 49 1 1 42
M  V30 50 1 2 43
M  V30 51 1 3 44
M  V30 52 1 6 45
M  V30 53 1 10 46
M  V30 54 1 11 47
M  V30 55 1 11 48
M  V30 56 1 12 49
M  V30 57 1 12 50
M  V30 58 1 18 51
M  V30 59 1 19 52
M  V30 60 1 21 53
M  V30 61 1 21 54
M  V30 62 1 23 55
M  V30 63 1 23 56
M  V30 64 1 24 57
M  V30 65 1 24 58
M  V30 66 1 25 59
M  V30 67 1 27 60
M  V30 68 1 30 61
M  V30 69 1 31 62
M  V30 70 1 32 63
M  V30 71 1 33 64
M  V30 72 1 36 65
M  V30 73 1 36 66
M  V30 74 1 37 67
M  V30 75 1 37 68
M  V30 76 1 38 69
M  V30 77 1 39 70
M  V30 78 1 40 71
M  V30 79 1 41 72
M  V30 END BOND
M  V30 END CTAB
M  END
>  <Dataset>  (449) 
ChEMBL_Kinases

>  <Ligand_Instance>  (449) 
nan

>  <PDB_ID>  (449) 
nan

>  <Standardized_SMILES>  (449) 
c1ccc(-c2cn3nc(C4CC4)nc3nc2-c2ccc(CN3CCC(c4cnc5ccccc5n4)CC3)cc2)cc1

>  <Name>  (449) 
nan

>  <Pocket>  (449) 
nan

>  <ATP_Site>  (449) 
nan

>  <Peripheral>  (449) 
nan

>  <Num_H_Atoms_ProtBoundConf>  (449) 
nan

>  <Num_Resolved_Atoms>  (449) 
nan

>  <Num_Not_Resolved_Atoms>  (449) 
nan

$$$$
CHEMBL3672048
     RDKit          3D

  0  0  0  0  0  0  0  0  0  0999 V3000
M  V30 BEGIN CTAB
M  V30 COUNTS 71 77 0 0 0
M  V30 BEGIN ATOM
M  V30 1 C 7.686777 0.272793 -1.366771 0
M  V30 2 N 6.610260 0.247038 -0.396542 0
M  V30 3 C 5.461602 0.964458 0.037379 0
M  V30 4 C 4.209375 0.688336 -0.525161 0
M  V30 5 C 4.026878 -0.307427 -1.543986 0
M  V30 6 C 3.195876 -1.373848 -1.233743 0
M  V30 7 C 3.009702 -2.349201 -2.212006 0
M  V30 8 C 3.631262 -2.266683 -3.461737 0
M  V30 9 C 4.440563 -1.172363 -3.684666 0
M  V30 10 C 4.670269 -0.165894 -2.757586 0
M  V30 11 C 3.154787 1.433862 -0.042560 0
M  V30 12 C 1.823802 1.187392 -0.590579 0
M  V30 13 C 0.919810 0.745615 0.381063 0
M  V30 14 C -0.400955 0.461409 0.025536 0
M  V30 15 C -0.811119 0.617384 -1.285120 0
M  V30 16 C -2.215944 0.295758 -1.571656 0
M  V30 17 N -2.481921 -1.052610 -1.946865 0
M  V30 18 C -3.856527 -1.367853 -2.204182 0
M  V30 19 C -3.809401 -2.559856 -1.243897 0
M  V30 20 C -4.702980 -2.400995 -0.065489 0
M  V30 21 N -4.745378 -1.318518 0.720507 0
M  V30 22 N -5.646032 -1.480095 1.690712 0
M  V30 23 C -6.198206 -2.691624 1.529910 0
M  V30 24 C -7.231885 -3.259869 2.384405 0
M  V30 25 C -7.767641 -4.507821 2.175273 0
M  V30 26 C -8.746590 -5.091385 2.950706 0
M  V30 27 C -9.184885 -4.307076 4.011110 0
M  V30 28 C -8.671435 -3.045560 4.256329 0
M  V30 29 C -9.159263 -2.240616 5.391332 0
M  V30 30 N -7.703969 -2.562019 3.426405 0
M  V30 31 N -5.611309 -3.239339 0.454296 0
M  V30 32 C -2.379293 -2.088912 -0.980402 0
M  V30 33 C 0.091383 1.053934 -2.233143 0
M  V30 34 C 1.400123 1.339432 -1.899512 0
M  V30 35 N 3.341057 2.364484 0.910938 0
M  V30 36 C 4.542231 2.635032 1.456007 0
M  V30 37 N 5.044167 3.469436 2.388821 0
M  V30 38 C 6.369145 3.281168 2.514209 0
M  V30 39 C 7.323497 3.977448 3.418642 0
M  V30 40 N 6.667646 2.308501 1.633069 0
M  V30 41 N 5.574808 1.909283 0.987524 0
M  V30 42 H 7.512659 1.138512 -2.033687 0
M  V30 43 H 8.670553 0.285686 -0.875455 0
M  V30 44 H 7.565949 -0.642792 -1.978510 0
M  V30 45 H 6.544613 -0.546578 0.302064 0
M  V30 46 H 2.707663 -1.451074 -0.270762 0
M  V30 47 H 2.368149 -3.189956 -1.997143 0
M  V30 48 H 3.494789 -3.016430 -4.228809 0
M  V30 49 H 4.957298 -1.048831 -4.645799 0
M  V30 50 H 5.316983 0.669619 -2.991170 0
M  V30 51 H 1.177780 0.599977 1.440997 0
M  V30 52 H -1.082831 0.121887 0.793646 0
M  V30 53 H -2.932974 0.666595 -0.784066 0
M  V30 54 H -2.491742 0.928294 -2.466153 0
M  V30 55 H -4.118747 -1.713008 -3.217090 0
M  V30 56 H -4.515272 -0.555686 -1.809492 0
M  V30 57 H -3.898271 -3.533030 -1.761850 0
M  V30 58 H -5.831117 -0.743510 2.411637 0
M  V30 59 H -7.400469 -5.096294 1.333447 0
M  V30 60 H -9.151004 -6.075816 2.763800 0
M  V30 61 H -9.964899 -4.715554 4.666907 0
M  V30 62 H -10.212153 -2.495812 5.663568 0
M  V30 63 H -9.119685 -1.140681 5.150822 0
M  V30 64 H -8.497037 -2.386417 6.290177 0
M  V30 65 H -2.262873 -1.837939 0.070609 0
M  V30 66 H -1.689504 -2.929648 -1.225864 0
M  V30 67 H -0.223784 1.177403 -3.258469 0
M  V30 68 H 2.161334 1.684095 -2.583544 0
M  V30 69 H 7.486568 5.024256 3.120467 0
M  V30 70 H 6.913241 3.897187 4.463286 0
M  V30 71 H 8.281767 3.392915 3.427466 0
M  V30 END ATOM
M  V30 BEGIN BOND
M  V30 1 1 1 2
M  V30 2 1 2 3
M  V30 3 2 3 4
M  V30 4 1 4 5
M  V30 5 2 5 6
M  V30 6 1 6 7
M  V30 7 2 7 8
M  V30 8 1 8 9
M  V30 9 2 9 10
M  V30 10 1 4 11
M  V30 11 1 11 12
M  V30 12 2 12 13
M  V30 13 1 13 14
M  V30 14 2 14 15
M  V30 15 1 15 16
M  V30 16 1 16 17
M  V30 17 1 17 18
M  V30 18 1 18 19
M  V30 19 1 19 20
M  V30 20 2 20 21
M  V30 21 1 21 22
M  V30 22 1 22 23
M  V30 23 1 23 24
M  V30 24 2 24 25
M  V30 25 1 25 26
M  V30 26 2 26 27
M  V30 27 1 27 28
M  V30 28 1 28 29
M  V30 29 2 28 30
M  V30 30 2 23 31
M  V30 31 1 19 32
M  V30 32 1 15 33
M  V30 33 2 33 34
M  V30 34 2 11 35
M  V30 35 1 35 36
M  V30 36 2 36 37
M  V30 37 1 37 38
M  V30 38 1 38 39
M  V30 39 2 38 40
M  V30 40 1 40 41
M  V30 41 1 41 3
M  V30 42 1 10 5
M  V30 43 1 34 12
M  V30 44 1 41 36
M  V30 45 1 32 17
M  V30 46 1 31 20
M  V30 47 1 30 24
M  V30 48 1 1 42
M  V30 49 1 1 43
M  V30 50 1 1 44
M  V30 51 1 2 45
M  V30 52 1 6 46
M  V30 53 1 7 47
M  V30 54 1 8 48
M  V30 55 1 9 49
M  V30 56 1 10 50
M  V30 57 1 13 51
M  V30 58 1 14 52
M  V30 59 1 16 53
M  V30 60 1 16 54
M  V30 61 1 18 55
M  V30 62 1 18 56
M  V30 63 1 19 57
M  V30 64 1 22 58
M  V30 65 1 25 59
M  V30 66 1 26 60
M  V30 67 1 27 61
M  V30 68 1 29 62
M  V30 69 1 29 63
M  V30 70 1 29 64
M  V30 71 1 32 65
M  V30 72 1 32 66
M  V30 73 1 33 67
M  V30 74 1 34 68
M  V30 75 1 39 69
M  V30 76 1 39 70
M  V30 77 1 39 71
M  V30 END BOND
M  V30 END CTAB
M  END
>  <Dataset>  (450) 
ChEMBL_Kinases

>  <Ligand_Instance>  (450) 
nan

>  <PDB_ID>  (450) 
nan

>  <Standardized_SMILES>  (450) 
CNc1c(-c2ccccc2)c(-c2ccc(CN3CC(c4n[nH]c(-c5cccc(C)n5)n4)C3)cc2)nc2nc(C)nn12

>  <Name>  (450) 
nan

>  <Pocket>  (450) 
nan

>  <ATP_Site>  (450) 
nan

>  <Peripheral>  (450) 
nan

>  <Num_H_Atoms_ProtBoundConf>  (450) 
nan

>  <Num_Resolved_Atoms>  (450) 
nan

>  <Num_Not_Resolved_Atoms>  (450) 
nan

$$$$
CHEMBL3672013
     RDKit          3D

  0  0  0  0  0  0  0  0  0  0999 V3000
M  V30 BEGIN CTAB
M  V30 COUNTS 66 72 0 0 0
M  V30 BEGIN ATOM
M  V30 1 N 2.172681 -3.982316 4.523716 0
M  V30 2 C 2.595692 -3.124123 3.874773 0
M  V30 3 C 3.108544 -2.046111 3.083095 0
M  V30 4 C 4.458100 -1.869528 2.858693 0
M  V30 5 C 4.852856 -0.812633 2.090850 0
M  V30 6 C 4.000865 0.098782 1.517920 0
M  V30 7 N 4.083618 1.197746 0.744944 0
M  V30 8 C 2.838228 1.681347 0.500786 0
M  V30 9 C 2.539875 2.892969 -0.317535 0
M  V30 10 C 1.778621 2.602794 -1.560366 0
M  V30 11 C 0.291824 2.607379 -1.449819 0
M  V30 12 N -0.277821 3.347747 -0.422285 0
M  V30 13 C -1.656604 3.055627 -0.144901 0
M  V30 14 C -1.947304 1.666401 0.211032 0
M  V30 15 C -1.911734 1.126270 1.481384 0
M  V30 16 C -2.211000 -0.212246 1.732895 0
M  V30 17 C -2.560480 -1.059175 0.695853 0
M  V30 18 C -2.884526 -2.467742 0.877640 0
M  V30 19 N -3.899598 -2.924121 1.667475 0
M  V30 20 C -4.134523 -4.254817 1.786009 0
M  V30 21 C -5.096135 -4.932095 2.521525 0
M  V30 22 C -4.904738 -6.299315 2.296470 0
M  V30 23 N -3.861505 -6.390679 1.455310 0
M  V30 24 N -3.402834 -5.191679 1.150294 0
M  V30 25 C -2.380380 -4.778305 0.352201 0
M  V30 26 C -2.124881 -3.427971 0.218150 0
M  V30 27 C -1.019487 -3.113926 -0.655833 0
M  V30 28 C 0.180249 -2.479220 -0.400149 0
M  V30 29 C 1.096756 -2.289522 -1.411905 0
M  V30 30 C 0.854043 -2.720098 -2.699564 0
M  V30 31 C -0.345507 -3.360896 -2.980440 0
M  V30 32 C -1.270374 -3.551098 -1.954448 0
M  V30 33 C -2.614697 -0.581399 -0.597452 0
M  V30 34 C -2.308143 0.749603 -0.781179 0
M  V30 35 C 0.435281 3.840316 0.664150 0
M  V30 36 C 1.913169 3.982282 0.507519 0
M  V30 37 N 1.996731 0.865763 1.132797 0
M  V30 38 C 2.655365 -0.114509 1.767554 0
M  V30 39 C 2.188052 -1.171646 2.541032 0
M  V30 40 H 5.101180 -2.588175 3.312609 0
M  V30 41 H 5.909731 -0.691368 1.927207 0
M  V30 42 H 3.541649 3.271594 -0.637570 0
M  V30 43 H 2.105745 1.617367 -1.951639 0
M  V30 44 H 2.099311 3.326951 -2.366719 0
M  V30 45 H -0.049481 1.534171 -1.350813 0
M  V30 46 H -0.116040 2.941022 -2.428792 0
M  V30 47 H -2.203439 3.273324 -1.110100 0
M  V30 48 H -2.109423 3.783784 0.571158 0
M  V30 49 H -1.636947 1.799365 2.283872 0
M  V30 50 H -2.175111 -0.606191 2.732948 0
M  V30 51 H -5.857028 -4.528399 3.152754 0
M  V30 52 H -5.454728 -7.153972 2.692649 0
M  V30 53 H -1.799604 -5.552279 -0.153872 0
M  V30 54 H 0.258977 -2.187497 0.637635 0
M  V30 55 H 2.011586 -1.777844 -1.102895 0
M  V30 56 H 1.614208 -2.545261 -3.467346 0
M  V30 57 H -0.487070 -3.677243 -3.997705 0
M  V30 58 H -2.154813 -4.061091 -2.314940 0
M  V30 59 H -2.881480 -1.196413 -1.445333 0
M  V30 60 H -2.357890 1.112189 -1.817786 0
M  V30 61 H 0.056730 4.860394 0.906735 0
M  V30 62 H 0.245293 3.243944 1.580712 0
M  V30 63 H 2.174709 4.973051 0.080553 0
M  V30 64 H 2.392058 3.943524 1.515706 0
M  V30 65 H 0.981336 0.999492 1.115147 0
M  V30 66 H 1.119043 -1.248594 2.674872 0
M  V30 END ATOM
M  V30 BEGIN BOND
M  V30 1 3 1 2
M  V30 2 1 2 3
M  V30 3 2 3 4
M  V30 4 1 4 5
M  V30 5 2 5 6
M  V30 6 1 6 7
M  V30 7 2 7 8
M  V30 8 1 8 9
M  V30 9 1 9 10
M  V30 10 1 10 11
M  V30 11 1 11 12
M  V30 12 1 12 13
M  V30 13 1 13 14
M  V30 14 2 14 15
M  V30 15 1 15 16
M  V30 16 2 16 17
M  V30 17 1 17 18
M  V30 18 2 18 19
M  V30 19 1 19 20
M  V30 20 2 20 21
M  V30 21 1 21 22
M  V30 22 2 22 23
M  V30 23 1 23 24
M  V30 24 1 24 25
M  V30 25 2 25 26
M  V30 26 1 26 27
M  V30 27 2 27 28
M  V30 28 1 28 29
M  V30 29 2 29 30
M  V30 30 1 30 31
M  V30 31 2 31 32
M  V30 32 1 17 33
M  V30 33 2 33 34
M  V30 34 1 12 35
M  V30 35 1 35 36
M  V30 36 1 8 37
M  V30 37 1 37 38
M  V30 38 2 38 39
M  V30 39 1 39 3
M  V30 40 1 38 6
M  V30 41 1 36 9
M  V30 42 1 34 14
M  V30 43 1 26 18
M  V30 44 1 32 27
M  V30 45 1 24 20
M  V30 46 1 4 40
M  V30 47 1 5 41
M  V30 48 1 9 42
M  V30 49 1 10 43
M  V30 50 1 10 44
M  V30 51 1 11 45
M  V30 52 1 11 46
M  V30 53 1 13 47
M  V30 54 1 13 48
M  V30 55 1 15 49
M  V30 56 1 16 50
M  V30 57 1 21 51
M  V30 58 1 22 52
M  V30 59 1 25 53
M  V30 60 1 28 54
M  V30 61 1 29 55
M  V30 62 1 30 56
M  V30 63 1 31 57
M  V30 64 1 32 58
M  V30 65 1 33 59
M  V30 66 1 34 60
M  V30 67 1 35 61
M  V30 68 1 35 62
M  V30 69 1 36 63
M  V30 70 1 36 64
M  V30 71 1 37 65
M  V30 72 1 39 66
M  V30 END BOND
M  V30 END CTAB
M  END
>  <Dataset>  (451) 
ChEMBL_Kinases

>  <Ligand_Instance>  (451) 
nan

>  <PDB_ID>  (451) 
nan

>  <Standardized_SMILES>  (451) 
N#Cc1ccc2nc(C3CCN(Cc4ccc(-c5nc6ccnn6cc5-c5ccccc5)cc4)CC3)[nH]c2c1

>  <Name>  (451) 
nan

>  <Pocket>  (451) 
nan

>  <ATP_Site>  (451) 
nan

>  <Peripheral>  (451) 
nan

>  <Num_H_Atoms_ProtBoundConf>  (451) 
nan

>  <Num_Resolved_Atoms>  (451) 
nan

>  <Num_Not_Resolved_Atoms>  (451) 
nan

$$$$
CHEMBL3672012
     RDKit          3D

  0  0  0  0  0  0  0  0  0  0999 V3000
M  V30 BEGIN CTAB
M  V30 COUNTS 66 72 0 0 0
M  V30 BEGIN ATOM
M  V30 1 C 1.688697 -2.581783 3.341378 0
M  V30 2 C 2.613256 -1.696398 3.847210 0
M  V30 3 C 3.040615 -0.631155 3.043311 0
M  V30 4 C 2.556228 -0.438889 1.740424 0
M  V30 5 C 3.183606 0.725794 1.184350 0
M  V30 6 C 4.563527 0.769102 1.010259 0
M  V30 7 N 5.130146 1.889635 0.496802 0
M  V30 8 C 6.438776 2.105585 0.262108 0
M  V30 9 C 6.498485 3.380344 -0.255364 0
M  V30 10 N 5.261333 3.890907 -0.319902 0
M  V30 11 C 4.384702 2.958456 0.152796 0
M  V30 12 N 3.026479 2.921960 0.321007 0
M  V30 13 C 2.429680 1.821790 0.829745 0
M  V30 14 C 0.983308 1.915963 0.942419 0
M  V30 15 C 0.168946 1.757587 2.037404 0
M  V30 16 C -1.197438 1.909376 1.943690 0
M  V30 17 C -1.858878 2.230758 0.750855 0
M  V30 18 C -3.294453 2.367288 0.744207 0
M  V30 19 N -4.138594 1.327758 0.383257 0
M  V30 20 C -4.144344 0.781496 -0.908631 0
M  V30 21 C -3.211727 -0.343468 -1.199844 0
M  V30 22 C -2.812932 -1.137837 0.038217 0
M  V30 23 C -2.520992 -2.512932 -0.469369 0
M  V30 24 C -3.481855 -3.348827 -1.000289 0
M  V30 25 N -3.159268 -4.587714 -1.452587 0
M  V30 26 C -1.891976 -5.048867 -1.401136 0
M  V30 27 C -1.566998 -6.312558 -1.863785 0
M  V30 28 C -0.255421 -6.796020 -1.813716 0
M  V30 29 C 0.709756 -5.939874 -1.273729 0
M  V30 30 C 0.385479 -4.681912 -0.813208 0
M  V30 31 C -0.914570 -4.221224 -0.870397 0
M  V30 32 N -1.275603 -3.018790 -0.440617 0
M  V30 33 C -3.988439 -1.080606 0.956053 0
M  V30 34 C -4.245890 0.333141 1.390579 0
M  V30 35 C -1.028481 2.391779 -0.367976 0
M  V30 36 C 0.360923 2.237423 -0.272575 0
M  V30 37 C 1.630447 -1.335636 1.249740 0
M  V30 38 C 1.247356 -2.351385 2.066779 0
M  V30 39 H 1.321937 -3.422857 3.918277 0
M  V30 40 H 2.957759 -1.882773 4.853722 0
M  V30 41 H 3.773544 -0.025709 3.595701 0
M  V30 42 H 5.144741 -0.121200 1.300157 0
M  V30 43 H 7.258120 1.422365 0.442743 0
M  V30 44 H 7.398714 3.866525 -0.552201 0
M  V30 45 H 0.708913 1.512608 2.930095 0
M  V30 46 H -1.676407 1.753456 2.893587 0
M  V30 47 H -3.605210 2.726185 1.772810 0
M  V30 48 H -3.538007 3.264422 0.099024 0
M  V30 49 H -5.196318 0.391467 -1.076880 0
M  V30 50 H -4.025546 1.511478 -1.736127 0
M  V30 51 H -3.703872 -1.031405 -1.933905 0
M  V30 52 H -2.328276 0.046664 -1.734181 0
M  V30 53 H -1.912704 -0.679766 0.503192 0
M  V30 54 H -4.514242 -2.986851 -1.047587 0
M  V30 55 H -2.356308 -6.952161 -2.280346 0
M  V30 56 H 0.018027 -7.777624 -2.168657 0
M  V30 57 H 1.738329 -6.328357 -1.238278 0
M  V30 58 H 1.173427 -4.069395 -0.407613 0
M  V30 59 H -4.877670 -1.482508 0.416416 0
M  V30 60 H -3.798570 -1.695954 1.846919 0
M  V30 61 H -3.602007 0.508463 2.276340 0
M  V30 62 H -5.300017 0.344396 1.785377 0
M  V30 63 H -1.546662 2.634119 -1.260770 0
M  V30 64 H 0.872516 2.391697 -1.219841 0
M  V30 65 H 1.335572 -1.095797 0.261667 0
M  V30 66 H 0.523108 -3.046053 1.668131 0
M  V30 END ATOM
M  V30 BEGIN BOND
M  V30 1 2 1 2
M  V30 2 1 2 3
M  V30 3 2 3 4
M  V30 4 1 4 5
M  V30 5 2 5 6
M  V30 6 1 6 7
M  V30 7 1 7 8
M  V30 8 2 8 9
M  V30 9 1 9 10
M  V30 10 2 10 11
M  V30 11 1 11 12
M  V30 12 2 12 13
M  V30 13 1 13 14
M  V30 14 2 14 15
M  V30 15 1 15 16
M  V30 16 2 16 17
M  V30 17 1 17 18
M  V30 18 1 18 19
M  V30 19 1 19 20
M  V30 20 1 20 21
M  V30 21 1 21 22
M  V30 22 1 22 23
M  V30 23 2 23 24
M  V30 24 1 24 25
M  V30 25 2 25 26
M  V30 26 1 26 27
M  V30 27 2 27 28
M  V30 28 1 28 29
M  V30 29 2 29 30
M  V30 30 1 30 31
M  V30 31 2 31 32
M  V30 32 1 22 33
M  V30 33 1 33 34
M  V30 34 1 17 35
M  V30 35 2 35 36
M  V30 36 1 4 37
M  V30 37 2 37 38
M  V30 38 1 38 1
M  V30 39 1 13 5
M  V30 40 1 36 14
M  V30 41 1 11 7
M  V30 42 1 34 19
M  V30 43 1 32 23
M  V30 44 1 31 26
M  V30 45 1 1 39
M  V30 46 1 2 40
M  V30 47 1 3 41
M  V30 48 1 6 42
M  V30 49 1 8 43
M  V30 50 1 9 44
M  V30 51 1 15 45
M  V30 52 1 16 46
M  V30 53 1 18 47
M  V30 54 1 18 48
M  V30 55 1 20 49
M  V30 56 1 20 50
M  V30 57 1 21 51
M  V30 58 1 21 52
M  V30 59 1 22 53
M  V30 60 1 24 54
M  V30 61 1 27 55
M  V30 62 1 28 56
M  V30 63 1 29 57
M  V30 64 1 30 58
M  V30 65 1 33 59
M  V30 66 1 33 60
M  V30 67 1 34 61
M  V30 68 1 34 62
M  V30 69 1 35 63
M  V30 70 1 36 64
M  V30 71 1 37 65
M  V30 72 1 38 66
M  V30 END BOND
M  V30 END CTAB
M  END
>  <Dataset>  (452) 
ChEMBL_Kinases

>  <Ligand_Instance>  (452) 
nan

>  <PDB_ID>  (452) 
nan

>  <Standardized_SMILES>  (452) 
c1ccc(-c2cn3ccnc3nc2-c2ccc(CN3CCC(c4cnc5ccccc5n4)CC3)cc2)cc1

>  <Name>  (452) 
nan

>  <Pocket>  (452) 
nan

>  <ATP_Site>  (452) 
nan

>  <Peripheral>  (452) 
nan

>  <Num_H_Atoms_ProtBoundConf>  (452) 
nan

>  <Num_Resolved_Atoms>  (452) 
nan

>  <Num_Not_Resolved_Atoms>  (452) 
nan

$$$$
CHEMBL4111518
     RDKit          3D

  0  0  0  0  0  0  0  0  0  0999 V3000
M  V30 BEGIN CTAB
M  V30 COUNTS 47 49 0 0 0
M  V30 BEGIN ATOM
M  V30 1 C 2.854040 -3.339014 1.809202 0
M  V30 2 O 3.644788 -3.499455 0.649720 0
M  V30 3 C 3.837431 -2.491385 -0.275077 0
M  V30 4 C 4.636520 -2.765474 -1.378097 0
M  V30 5 C 4.859632 -1.774193 -2.341067 0
M  V30 6 C 4.286396 -0.527523 -2.193906 0
M  V30 7 C 3.493041 -0.258481 -1.096912 0
M  V30 8 C 2.802914 1.034516 -0.792241 0 CFG=1
M  V30 9 C 2.866900 2.006431 -1.948167 0
M  V30 10 N 1.470614 0.723334 -0.385193 0
M  V30 11 C 0.961393 0.979425 0.915647 0
M  V30 12 O 1.890726 1.515314 1.605336 0
M  V30 13 C -0.377052 0.696100 1.414027 0
M  V30 14 C -0.557701 1.074180 2.751942 0
M  V30 15 C -1.769753 0.874835 3.377882 0
M  V30 16 C -2.853898 0.305489 2.744278 0
M  V30 17 C -4.155198 0.072597 3.358785 0
M  V30 18 C -4.552534 -0.443288 4.577427 0
M  V30 19 N -5.910237 -0.428993 4.622115 0
M  V30 20 N -6.374193 0.074840 3.480786 0
M  V30 21 C -5.323871 0.396959 2.673881 0
M  V30 22 C -2.671954 -0.064304 1.430338 0
M  V30 23 O -3.660107 -0.642647 0.671512 0
M  V30 24 C -3.854780 -2.034319 0.598371 0
M  V30 25 C -1.467483 0.129418 0.794951 0
M  V30 26 F -1.254034 -0.218153 -0.483206 0
M  V30 27 C 3.271180 -1.237910 -0.143203 0
M  V30 28 H 3.239591 -2.511075 2.452263 0
M  V30 29 H 2.908111 -4.285726 2.393533 0
M  V30 30 H 1.809902 -3.204134 1.489120 0
M  V30 31 H 5.099946 -3.729797 -1.523771 0
M  V30 32 H 5.474655 -1.923591 -3.227771 0
M  V30 33 H 4.409781 0.285075 -2.888631 0
M  V30 34 H 3.415725 1.500622 0.006652 0
M  V30 35 H 2.569693 3.001929 -1.505817 0
M  V30 36 H 2.260762 1.722677 -2.806914 0
M  V30 37 H 3.941461 2.146980 -2.198492 0
M  V30 38 H 0.835379 0.282640 -1.083814 0
M  V30 39 H 0.237313 1.537731 3.357097 0
M  V30 40 H -1.888054 1.172687 4.407424 0
M  V30 41 H -3.785913 -0.762250 5.272863 0
M  V30 42 H -7.406036 0.173465 3.311322 0
M  V30 43 H -5.524523 0.829499 1.682708 0
M  V30 44 H -3.905033 -2.414477 -0.443892 0
M  V30 45 H -3.030544 -2.513751 1.178488 0
M  V30 46 H -4.827021 -2.287035 1.054282 0
M  V30 47 H 2.662111 -1.124038 0.755818 0
M  V30 END ATOM
M  V30 BEGIN BOND
M  V30 1 1 1 2
M  V30 2 1 2 3
M  V30 3 2 3 4
M  V30 4 1 4 5
M  V30 5 2 5 6
M  V30 6 1 6 7
M  V30 7 1 7 8
M  V30 8 1 8 9
M  V30 9 1 8 10
M  V30 10 1 10 11
M  V30 11 2 11 12
M  V30 12 1 11 13
M  V30 13 2 13 14
M  V30 14 1 14 15
M  V30 15 2 15 16
M  V30 16 1 16 17
M  V30 17 1 17 18
M  V30 18 2 18 19
M  V30 19 1 19 20
M  V30 20 1 20 21
M  V30 21 1 16 22
M  V30 22 1 22 23
M  V30 23 1 23 24
M  V30 24 2 22 25
M  V30 25 1 25 26
M  V30 26 2 7 27
M  V30 27 1 27 3
M  V30 28 1 25 13
M  V30 29 2 21 17
M  V30 30 1 1 28
M  V30 31 1 1 29
M  V30 32 1 1 30
M  V30 33 1 4 31
M  V30 34 1 5 32
M  V30 35 1 6 33
M  V30 36 1 8 34 CFG=1
M  V30 37 1 9 35
M  V30 38 1 9 36
M  V30 39 1 9 37
M  V30 40 1 10 38
M  V30 41 1 14 39
M  V30 42 1 15 40
M  V30 43 1 18 41
M  V30 44 1 20 42
M  V30 45 1 21 43
M  V30 46 1 24 44
M  V30 47 1 24 45
M  V30 48 1 24 46
M  V30 49 1 27 47
M  V30 END BOND
M  V30 END CTAB
M  END
>  <Dataset>  (453) 
ChEMBL_Kinases

>  <Ligand_Instance>  (453) 
nan

>  <PDB_ID>  (453) 
nan

>  <Standardized_SMILES>  (453) 
COc1cccc([C@@H](C)NC(=O)c2ccc(-c3cn[nH]c3)c(OC)c2F)c1

>  <Name>  (453) 
nan

>  <Pocket>  (453) 
nan

>  <ATP_Site>  (453) 
nan

>  <Peripheral>  (453) 
nan

>  <Num_H_Atoms_ProtBoundConf>  (453) 
nan

>  <Num_Resolved_Atoms>  (453) 
nan

>  <Num_Not_Resolved_Atoms>  (453) 
nan

$$$$
CHEMBL4111347
     RDKit          3D

  0  0  0  0  0  0  0  0  0  0999 V3000
M  V30 BEGIN CTAB
M  V30 COUNTS 46 48 0 0 0
M  V30 BEGIN ATOM
M  V30 1 C 2.109092 -6.345103 -2.716357 0
M  V30 2 O 1.389271 -5.144921 -2.741485 0
M  V30 3 C 1.843126 -3.987995 -2.161759 0
M  V30 4 C 3.018591 -3.752023 -1.474232 0
M  V30 5 C 3.296725 -2.490644 -0.958898 0
M  V30 6 C 2.388347 -1.453304 -1.133089 0
M  V30 7 C 1.193272 -1.683328 -1.827729 0
M  V30 8 C 0.337209 -0.472667 -1.923368 0 CFG=1
M  V30 9 C -0.992616 -0.741543 -2.536372 0
M  V30 10 N 0.286854 0.147565 -0.630941 0
M  V30 11 C 0.714834 1.309302 0.064011 0
M  V30 12 O 1.373237 2.065286 -0.728902 0
M  V30 13 C 0.333554 1.396574 1.475078 0
M  V30 14 C 1.174363 1.155778 2.543432 0
M  V30 15 C 0.722884 1.259096 3.845051 0
M  V30 16 C -0.601637 1.612796 4.029021 0
M  V30 17 C -1.192363 1.750046 5.377387 0
M  V30 18 C -0.588824 2.156351 6.545627 0
M  V30 19 N -1.529453 2.118750 7.522007 0
M  V30 20 N -2.689669 1.714071 7.045129 0
M  V30 21 C -2.504286 1.484474 5.738853 0
M  V30 22 C -1.473727 1.861940 2.988112 0
M  V30 23 C -1.007397 1.754489 1.686672 0
M  V30 24 C -1.931756 2.022435 0.555010 0
M  V30 25 C 0.940799 -2.961766 -2.335202 0
M  V30 26 H 2.547979 -6.566398 -1.702904 0
M  V30 27 H 2.983575 -6.338371 -3.404248 0
M  V30 28 H 1.468727 -7.214813 -2.963050 0
M  V30 29 H 3.644773 -4.625501 -1.403466 0
M  V30 30 H 4.235186 -2.401132 -0.438122 0
M  V30 31 H 2.698453 -0.507408 -0.694686 0
M  V30 32 H 0.884355 0.224218 -2.625784 0
M  V30 33 H -1.480259 0.249419 -2.744133 0
M  V30 34 H -0.861018 -1.195986 -3.522017 0
M  V30 35 H -1.618524 -1.403987 -1.918985 0
M  V30 36 H -0.276476 -0.596742 -0.118807 0
M  V30 37 H 2.199243 0.881814 2.317749 0
M  V30 38 H 1.365576 1.074524 4.694313 0
M  V30 39 H 0.449238 2.436888 6.594694 0
M  V30 40 H -3.633569 1.550698 7.437777 0
M  V30 41 H -3.220257 1.136987 4.975014 0
M  V30 42 H -2.512077 2.140885 3.110458 0
M  V30 43 H -2.967935 2.033679 0.933730 0
M  V30 44 H -1.733464 3.020922 0.115504 0
M  V30 45 H -1.867815 1.201991 -0.170993 0
M  V30 46 H -0.027847 -2.923814 -2.831197 0
M  V30 END ATOM
M  V30 BEGIN BOND
M  V30 1 1 1 2
M  V30 2 1 2 3
M  V30 3 2 3 4
M  V30 4 1 4 5
M  V30 5 2 5 6
M  V30 6 1 6 7
M  V30 7 1 7 8
M  V30 8 1 8 9
M  V30 9 1 8 10
M  V30 10 1 10 11
M  V30 11 2 11 12
M  V30 12 1 11 13
M  V30 13 2 13 14
M  V30 14 1 14 15
M  V30 15 2 15 16
M  V30 16 1 16 17
M  V30 17 1 17 18
M  V30 18 2 18 19
M  V30 19 1 19 20
M  V30 20 1 20 21
M  V30 21 1 16 22
M  V30 22 2 22 23
M  V30 23 1 23 24
M  V30 24 2 7 25
M  V30 25 1 25 3
M  V30 26 1 23 13
M  V30 27 2 21 17
M  V30 28 1 1 26
M  V30 29 1 1 27
M  V30 30 1 1 28
M  V30 31 1 4 29
M  V30 32 1 5 30
M  V30 33 1 6 31
M  V30 34 1 8 32 CFG=3
M  V30 35 1 9 33
M  V30 36 1 9 34
M  V30 37 1 9 35
M  V30 38 1 10 36
M  V30 39 1 14 37
M  V30 40 1 15 38
M  V30 41 1 18 39
M  V30 42 1 20 40
M  V30 43 1 21 41
M  V30 44 1 22 42
M  V30 45 1 24 43
M  V30 46 1 24 44
M  V30 47 1 24 45
M  V30 48 1 25 46
M  V30 END BOND
M  V30 END CTAB
M  END
>  <Dataset>  (454) 
ChEMBL_Kinases

>  <Ligand_Instance>  (454) 
nan

>  <PDB_ID>  (454) 
nan

>  <Standardized_SMILES>  (454) 
COc1cccc([C@@H](C)NC(=O)c2ccc(-c3cn[nH]c3)cc2C)c1

>  <Name>  (454) 
nan

>  <Pocket>  (454) 
nan

>  <ATP_Site>  (454) 
nan

>  <Peripheral>  (454) 
nan

>  <Num_H_Atoms_ProtBoundConf>  (454) 
nan

>  <Num_Resolved_Atoms>  (454) 
nan

>  <Num_Not_Resolved_Atoms>  (454) 
nan

$$$$
CHEMBL3672011
     RDKit          3D

  0  0  0  0  0  0  0  0  0  0999 V3000
M  V30 BEGIN CTAB
M  V30 COUNTS 66 72 0 0 0
M  V30 BEGIN ATOM
M  V30 1 N -1.265264 -1.067758 6.438945 0
M  V30 2 C -0.688278 -0.216993 5.857871 0
M  V30 3 C 0.003258 0.812053 5.131545 0
M  V30 4 C 0.827311 1.689475 5.844208 0
M  V30 5 C 1.432051 2.626539 5.040646 0
M  V30 6 C 1.285743 2.744329 3.679770 0
M  V30 7 N 1.712629 3.507792 2.661619 0
M  V30 8 C 1.186485 3.108228 1.490303 0
M  V30 9 C 1.421247 3.703186 0.127641 0
M  V30 10 C 2.051625 2.738848 -0.814385 0
M  V30 11 C 1.143691 1.863809 -1.593510 0
M  V30 12 N -0.187002 2.360564 -1.624784 0
M  V30 13 C -1.100312 1.673233 -2.476422 0
M  V30 14 C -1.197741 0.255911 -2.049091 0
M  V30 15 C -2.126655 -0.125478 -1.106408 0
M  V30 16 C -2.367668 -1.404469 -0.589935 0
M  V30 17 C -1.530083 -2.391331 -1.133681 0
M  V30 18 C -1.741013 -3.743412 -0.632322 0
M  V30 19 N -2.951494 -4.310111 -0.774226 0
M  V30 20 C -3.230441 -5.560268 -0.337031 0
M  V30 21 N -4.423577 -6.215926 -0.436085 0
M  V30 22 C -4.212885 -7.423828 0.137271 0
M  V30 23 C -2.903350 -7.424508 0.548627 0
M  V30 24 N -2.265249 -6.275739 0.266362 0
M  V30 25 C -1.042836 -5.748838 0.428626 0
M  V30 26 C -0.728310 -4.468392 -0.010257 0
M  V30 27 C 0.598523 -3.903391 0.177649 0
M  V30 28 C 0.591661 -2.795122 1.000287 0
M  V30 29 C 1.828052 -2.184546 1.244912 0
M  V30 30 C 2.975489 -2.688827 0.677768 0
M  V30 31 C 2.982820 -3.806596 -0.152181 0
M  V30 32 C 1.748265 -4.405263 -0.387874 0
M  V30 33 C -0.584354 -2.057048 -2.080357 0
M  V30 34 C -0.407897 -0.770227 -2.539443 0
M  V30 35 C -0.303365 3.796643 -1.689702 0
M  V30 36 C 0.200866 4.382811 -0.400982 0
M  V30 37 N 0.391456 2.055803 1.728493 0
M  V30 38 C 0.457517 1.844401 3.047731 0
M  V30 39 C -0.199151 0.857638 3.777194 0
M  V30 40 H 0.980358 1.646876 6.911011 0
M  V30 41 H 2.091763 3.348887 5.517776 0
M  V30 42 H 2.179105 4.507048 0.325868 0
M  V30 43 H 2.720478 3.273344 -1.550001 0
M  V30 44 H 2.790817 2.143533 -0.201251 0
M  V30 45 H 1.100895 0.864869 -1.073164 0
M  V30 46 H 1.505541 1.643800 -2.621957 0
M  V30 47 H -0.755339 1.672975 -3.548556 0
M  V30 48 H -2.083304 2.174493 -2.506689 0
M  V30 49 H -2.764207 0.677389 -0.704292 0
M  V30 50 H -3.139151 -1.530665 0.149464 0
M  V30 51 H -4.932849 -8.231237 0.252313 0
M  V30 52 H -2.425788 -8.275892 1.055959 0
M  V30 53 H -0.311793 -6.368430 0.917823 0
M  V30 54 H -0.270060 -2.350655 1.474959 0
M  V30 55 H 1.902590 -1.311811 1.881022 0
M  V30 56 H 3.976456 -2.263880 0.824846 0
M  V30 57 H 3.863442 -4.228939 -0.613408 0
M  V30 58 H 1.599635 -5.274946 -1.007786 0
M  V30 59 H 0.044839 -2.867593 -2.471934 0
M  V30 60 H 0.335127 -0.521795 -3.279634 0
M  V30 61 H -1.353634 4.060402 -1.839414 0
M  V30 62 H 0.286585 4.129609 -2.566302 0
M  V30 63 H 0.405578 5.451970 -0.605344 0
M  V30 64 H -0.576242 4.343314 0.385169 0
M  V30 65 H -0.152887 1.526146 1.034282 0
M  V30 66 H -0.842940 0.153692 3.297681 0
M  V30 END ATOM
M  V30 BEGIN BOND
M  V30 1 3 1 2
M  V30 2 1 2 3
M  V30 3 2 3 4
M  V30 4 1 4 5
M  V30 5 2 5 6
M  V30 6 1 6 7
M  V30 7 2 7 8
M  V30 8 1 8 9
M  V30 9 1 9 10
M  V30 10 1 10 11
M  V30 11 1 11 12
M  V30 12 1 12 13
M  V30 13 1 13 14
M  V30 14 2 14 15
M  V30 15 1 15 16
M  V30 16 2 16 17
M  V30 17 1 17 18
M  V30 18 2 18 19
M  V30 19 1 19 20
M  V30 20 2 20 21
M  V30 21 1 21 22
M  V30 22 2 22 23
M  V30 23 1 23 24
M  V30 24 1 24 25
M  V30 25 2 25 26
M  V30 26 1 26 27
M  V30 27 2 27 28
M  V30 28 1 28 29
M  V30 29 2 29 30
M  V30 30 1 30 31
M  V30 31 2 31 32
M  V30 32 1 17 33
M  V30 33 2 33 34
M  V30 34 1 12 35
M  V30 35 1 35 36
M  V30 36 1 8 37
M  V30 37 1 37 38
M  V30 38 2 38 39
M  V30 39 1 39 3
M  V30 40 1 38 6
M  V30 41 1 36 9
M  V30 42 1 34 14
M  V30 43 1 26 18
M  V30 44 1 32 27
M  V30 45 1 24 20
M  V30 46 1 4 40
M  V30 47 1 5 41
M  V30 48 1 9 42
M  V30 49 1 10 43
M  V30 50 1 10 44
M  V30 51 1 11 45
M  V30 52 1 11 46
M  V30 53 1 13 47
M  V30 54 1 13 48
M  V30 55 1 15 49
M  V30 56 1 16 50
M  V30 57 1 22 51
M  V30 58 1 23 52
M  V30 59 1 25 53
M  V30 60 1 28 54
M  V30 61 1 29 55
M  V30 62 1 30 56
M  V30 63 1 31 57
M  V30 64 1 32 58
M  V30 65 1 33 59
M  V30 66 1 34 60
M  V30 67 1 35 61
M  V30 68 1 35 62
M  V30 69 1 36 63
M  V30 70 1 36 64
M  V30 71 1 37 65
M  V30 72 1 39 66
M  V30 END BOND
M  V30 END CTAB
M  END
>  <Dataset>  (455) 
ChEMBL_Kinases

>  <Ligand_Instance>  (455) 
nan

>  <PDB_ID>  (455) 
nan

>  <Standardized_SMILES>  (455) 
N#Cc1ccc2nc(C3CCN(Cc4ccc(-c5nc6nccn6cc5-c5ccccc5)cc4)CC3)[nH]c2c1

>  <Name>  (455) 
nan

>  <Pocket>  (455) 
nan

>  <ATP_Site>  (455) 
nan

>  <Peripheral>  (455) 
nan

>  <Num_H_Atoms_ProtBoundConf>  (455) 
nan

>  <Num_Resolved_Atoms>  (455) 
nan

>  <Num_Not_Resolved_Atoms>  (455) 
nan

$$$$
CHEMBL411083
     RDKit          3D

  0  0  0  0  0  0  0  0  0  0999 V3000
M  V30 BEGIN CTAB
M  V30 COUNTS 58 61 0 0 0
M  V30 BEGIN ATOM
M  V30 1 C 3.339392 -1.562914 2.816577 0
M  V30 2 C 2.385921 -0.415758 2.550590 0
M  V30 3 C 1.033990 -0.874793 2.243129 0
M  V30 4 O 1.674447 -1.915663 2.441550 0
M  V30 5 C -0.288112 -0.420101 1.904490 0
M  V30 6 C -0.495033 0.931359 1.799074 0
M  V30 7 C 0.501631 1.971776 1.998094 0
M  V30 8 C 0.633338 2.459972 3.275769 0
M  V30 9 C 1.543468 3.449353 3.579765 0
M  V30 10 C 2.359620 3.988816 2.608854 0
M  V30 11 C 2.236706 3.506322 1.320357 0
M  V30 12 C 1.329530 2.518652 1.012041 0
M  V30 13 C -1.761062 1.365471 1.474588 0
M  V30 14 C -2.048501 2.705408 1.350124 0
M  V30 15 C -3.334899 3.129685 1.021105 0
M  V30 16 Cl -3.634230 4.845145 0.878355 0
M  V30 17 C -4.356926 2.203144 0.811400 0
M  V30 18 C -4.075098 0.847675 0.935145 0
M  V30 19 C -2.791149 0.473385 1.261522 0
M  V30 20 C -2.449658 -0.856448 1.398671 0
M  V30 21 O -3.387859 -1.684028 1.205322 0
M  V30 22 N -1.217710 -1.339693 1.716867 0
M  V30 23 C -1.061959 -2.776808 1.811949 0
M  V30 24 C -0.673423 -3.245102 0.432530 0
M  V30 25 C -1.546433 -3.638262 -0.584894 0
M  V30 26 C -0.837511 -4.004282 -1.711318 0
M  V30 27 S -1.493359 -4.567640 -3.220555 0
M  V30 28 C -1.089455 -3.564055 -4.600264 0
M  V30 29 O -2.997541 -4.616120 -3.108710 0
M  V30 30 O -1.026637 -5.968134 -3.516450 0
M  V30 31 N 0.441535 -3.822175 -1.343562 0
M  V30 32 C 1.617260 -4.046899 -2.141255 0
M  V30 33 C 2.090949 -2.850138 -2.908914 0
M  V30 34 F 3.231650 -3.204433 -3.637339 0
M  V30 35 F 2.513159 -1.844995 -2.026756 0
M  V30 36 N 0.552911 -3.381889 -0.101851 0
M  V30 37 H 4.320475 -1.078884 3.026473 0
M  V30 38 H 3.512175 -2.214777 1.952804 0
M  V30 39 H 3.086948 -2.118349 3.752608 0
M  V30 40 H 2.809856 0.136249 1.696960 0
M  V30 41 H 2.450366 0.221179 3.473878 0
M  V30 42 H 0.054227 2.116463 4.104869 0
M  V30 43 H 1.697587 3.877544 4.563604 0
M  V30 44 H 3.087557 4.754698 2.761349 0
M  V30 45 H 2.821079 3.848839 0.469490 0
M  V30 46 H 1.199023 2.110930 0.017959 0
M  V30 47 H -1.259156 3.439404 1.511361 0
M  V30 48 H -5.350879 2.558425 0.556029 0
M  V30 49 H -4.856560 0.116549 0.775814 0
M  V30 50 H -2.058915 -3.235014 1.995481 0
M  V30 51 H -0.310524 -3.101819 2.541324 0
M  V30 52 H -2.638665 -3.668047 -0.540397 0
M  V30 53 H -1.904796 -3.527173 -5.359023 0
M  V30 54 H -0.163734 -3.869108 -5.130809 0
M  V30 55 H -0.978097 -2.494064 -4.259394 0
M  V30 56 H 1.451954 -4.901992 -2.855889 0
M  V30 57 H 2.496107 -4.365985 -1.508243 0
M  V30 58 H 1.359626 -2.438752 -3.604988 0
M  V30 END ATOM
M  V30 BEGIN BOND
M  V30 1 1 1 2
M  V30 2 1 2 3
M  V30 3 2 3 4
M  V30 4 1 3 5
M  V30 5 2 5 6
M  V30 6 1 6 7
M  V30 7 2 7 8
M  V30 8 1 8 9
M  V30 9 2 9 10
M  V30 10 1 10 11
M  V30 11 2 11 12
M  V30 12 1 6 13
M  V30 13 2 13 14
M  V30 14 1 14 15
M  V30 15 1 15 16
M  V30 16 2 15 17
M  V30 17 1 17 18
M  V30 18 2 18 19
M  V30 19 1 19 20
M  V30 20 2 20 21
M  V30 21 1 20 22
M  V30 22 1 22 23
M  V30 23 1 23 24
M  V30 24 1 24 25
M  V30 25 2 25 26
M  V30 26 1 26 27
M  V30 27 1 27 28
M  V30 28 2 27 29
M  V30 29 2 27 30
M  V30 30 1 26 31
M  V30 31 1 31 32
M  V30 32 1 32 33
M  V30 33 1 33 34
M  V30 34 1 33 35
M  V30 35 1 31 36
M  V30 36 1 22 5
M  V30 37 2 36 24
M  V30 38 1 12 7
M  V30 39 1 19 13
M  V30 40 1 1 37
M  V30 41 1 1 38
M  V30 42 1 1 39
M  V30 43 1 2 40
M  V30 44 1 2 41
M  V30 45 1 8 42
M  V30 46 1 9 43
M  V30 47 1 10 44
M  V30 48 1 11 45
M  V30 49 1 12 46
M  V30 50 1 14 47
M  V30 51 1 17 48
M  V30 52 1 18 49
M  V30 53 1 23 50
M  V30 54 1 23 51
M  V30 55 1 25 52
M  V30 56 1 28 53
M  V30 57 1 28 54
M  V30 58 1 28 55
M  V30 59 1 32 56
M  V30 60 1 32 57
M  V30 61 1 33 58
M  V30 END BOND
M  V30 END CTAB
M  END
>  <Dataset>  (456) 
ChEMBL_Kinases

>  <Ligand_Instance>  (456) 
nan

>  <PDB_ID>  (456) 
nan

>  <Standardized_SMILES>  (456) 
CCC(=O)c1c(-c2ccccc2)c2cc(Cl)ccc2c(=O)n1Cc1cc(S(C)(=O)=O)n(CC(F)F)n1

>  <Name>  (456) 
nan

>  <Pocket>  (456) 
nan

>  <ATP_Site>  (456) 
nan

>  <Peripheral>  (456) 
nan

>  <Num_H_Atoms_ProtBoundConf>  (456) 
nan

>  <Num_Resolved_Atoms>  (456) 
nan

>  <Num_Not_Resolved_Atoms>  (456) 
nan

$$$$
CHEMBL3672010
     RDKit          3D

  0  0  0  0  0  0  0  0  0  0999 V3000
M  V30 BEGIN CTAB
M  V30 COUNTS 64 70 0 0 0
M  V30 BEGIN ATOM
M  V30 1 C 1.407492 -1.986584 3.366796 0
M  V30 2 C 1.910746 -1.156187 4.338203 0
M  V30 3 C 2.585262 0.002785 3.975843 0
M  V30 4 C 2.744652 0.311268 2.639035 0
M  V30 5 C 3.418401 1.473376 2.068422 0
M  V30 6 C 4.742449 1.842326 2.198502 0
M  V30 7 N 5.203284 2.941256 1.607909 0
M  V30 8 C 6.463930 3.435382 1.638016 0
M  V30 9 C 6.440557 4.584037 0.878868 0
M  V30 10 N 5.198414 4.740695 0.427648 0
M  V30 11 C 4.397157 3.743903 0.855819 0
M  V30 12 N 3.102355 3.388644 0.725088 0
M  V30 13 C 2.590944 2.279137 1.308442 0
M  V30 14 C 1.170302 2.112601 1.020473 0
M  V30 15 C 0.857057 1.941400 -0.327662 0
M  V30 16 C -0.482307 1.782549 -0.620563 0
M  V30 17 C -1.531993 1.779329 0.307000 0
M  V30 18 C -2.937019 1.597347 -0.131884 0
M  V30 19 N -3.279498 0.228890 -0.097773 0
M  V30 20 C -4.579655 -0.142513 -0.519864 0
M  V30 21 C -4.598928 -1.538744 -1.076802 0
M  V30 22 C -3.470195 -1.903202 -1.964264 0
M  V30 23 C -3.032525 -3.331085 -1.779271 0
M  V30 24 N -2.545980 -3.860661 -0.645929 0
M  V30 25 C -2.243631 -5.162723 -0.793850 0
M  V30 26 C -1.727635 -6.117523 0.065188 0
M  V30 27 C -1.509203 -7.420097 -0.356805 0
M  V30 28 C -1.840517 -7.671263 -1.664349 0
M  V30 29 N -2.342814 -6.732502 -2.492606 0
M  V30 30 C -2.561735 -5.463521 -2.101328 0
M  V30 31 N -3.037879 -4.327090 -2.669396 0
M  V30 32 C -2.227045 -1.063591 -1.757858 0
M  V30 33 C -2.245931 -0.729212 -0.259077 0
M  V30 34 C -1.163761 1.954972 1.645971 0
M  V30 35 C 0.168136 2.116283 1.969404 0
M  V30 36 C 2.234293 -0.531108 1.660716 0
M  V30 37 C 1.556827 -1.694809 2.012037 0
M  V30 38 H 0.873963 -2.902679 3.629398 0
M  V30 39 H 1.803999 -1.367019 5.393808 0
M  V30 40 H 3.016506 0.719073 4.659525 0
M  V30 41 H 5.325256 1.159205 2.809676 0
M  V30 42 H 7.341227 3.054482 2.133564 0
M  V30 43 H 7.211623 5.291814 0.631279 0
M  V30 44 H 1.555932 1.921426 -1.157401 0
M  V30 45 H -0.774115 1.644098 -1.673517 0
M  V30 46 H -2.992585 1.938127 -1.194717 0
M  V30 47 H -3.587415 2.246433 0.492317 0
M  V30 48 H -5.396757 -0.016847 0.196968 0
M  V30 49 H -4.833828 0.525191 -1.390782 0
M  V30 50 H -4.601246 -2.273857 -0.223121 0
M  V30 51 H -5.555141 -1.717596 -1.597335 0
M  V30 52 H -3.818507 -1.819290 -3.031923 0
M  V30 53 H -1.473948 -5.886592 1.099579 0
M  V30 54 H -1.107887 -8.190905 0.287564 0
M  V30 55 H -1.693369 -8.685400 -2.066648 0
M  V30 56 H -3.361869 -4.261288 -3.676104 0
M  V30 57 H -1.324030 -1.639729 -1.990554 0
M  V30 58 H -2.296706 -0.103292 -2.303214 0
M  V30 59 H -2.586632 -1.664593 0.270145 0
M  V30 60 H -1.291461 -0.393547 0.126245 0
M  V30 61 H -1.945224 1.957181 2.379492 0
M  V30 62 H 0.461187 2.252323 2.998463 0
M  V30 63 H 2.290565 -0.405930 0.588231 0
M  V30 64 H 1.136920 -2.389935 1.292674 0
M  V30 END ATOM
M  V30 BEGIN BOND
M  V30 1 2 1 2
M  V30 2 1 2 3
M  V30 3 2 3 4
M  V30 4 1 4 5
M  V30 5 2 5 6
M  V30 6 1 6 7
M  V30 7 1 7 8
M  V30 8 2 8 9
M  V30 9 1 9 10
M  V30 10 2 10 11
M  V30 11 1 11 12
M  V30 12 2 12 13
M  V30 13 1 13 14
M  V30 14 2 14 15
M  V30 15 1 15 16
M  V30 16 2 16 17
M  V30 17 1 17 18
M  V30 18 1 18 19
M  V30 19 1 19 20
M  V30 20 1 20 21
M  V30 21 1 21 22
M  V30 22 1 22 23
M  V30 23 2 23 24
M  V30 24 1 24 25
M  V30 25 2 25 26
M  V30 26 1 26 27
M  V30 27 2 27 28
M  V30 28 1 28 29
M  V30 29 2 29 30
M  V30 30 1 30 31
M  V30 31 1 22 32
M  V30 32 1 32 33
M  V30 33 1 17 34
M  V30 34 2 34 35
M  V30 35 1 4 36
M  V30 36 2 36 37
M  V30 37 1 37 1
M  V30 38 1 13 5
M  V30 39 1 35 14
M  V30 40 1 11 7
M  V30 41 1 33 19
M  V30 42 1 31 23
M  V30 43 1 30 25
M  V30 44 1 1 38
M  V30 45 1 2 39
M  V30 46 1 3 40
M  V30 47 1 6 41
M  V30 48 1 8 42
M  V30 49 1 9 43
M  V30 50 1 15 44
M  V30 51 1 16 45
M  V30 52 1 18 46
M  V30 53 1 18 47
M  V30 54 1 20 48
M  V30 55 1 20 49
M  V30 56 1 21 50
M  V30 57 1 21 51
M  V30 58 1 22 52
M  V30 59 1 26 53
M  V30 60 1 27 54
M  V30 61 1 28 55
M  V30 62 1 31 56
M  V30 63 1 32 57
M  V30 64 1 32 58
M  V30 65 1 33 59
M  V30 66 1 33 60
M  V30 67 1 34 61
M  V30 68 1 35 62
M  V30 69 1 36 63
M  V30 70 1 37 64
M  V30 END BOND
M  V30 END CTAB
M  END
>  <Dataset>  (457) 
ChEMBL_Kinases

>  <Ligand_Instance>  (457) 
nan

>  <PDB_ID>  (457) 
nan

>  <Standardized_SMILES>  (457) 
c1ccc(-c2cn3ccnc3nc2-c2ccc(CN3CCC(c4nc5cccnc5[nH]4)CC3)cc2)cc1

>  <Name>  (457) 
nan

>  <Pocket>  (457) 
nan

>  <ATP_Site>  (457) 
nan

>  <Peripheral>  (457) 
nan

>  <Num_H_Atoms_ProtBoundConf>  (457) 
nan

>  <Num_Resolved_Atoms>  (457) 
nan

>  <Num_Not_Resolved_Atoms>  (457) 
nan

$$$$
CHEMBL4109840
     RDKit          3D

  0  0  0  0  0  0  0  0  0  0999 V3000
M  V30 BEGIN CTAB
M  V30 COUNTS 43 45 0 0 0
M  V30 BEGIN ATOM
M  V30 1 C -0.027661 -6.671451 -2.856164 0
M  V30 2 O 0.551180 -5.382468 -2.809936 0
M  V30 3 C -0.155306 -4.324820 -2.262379 0
M  V30 4 C -1.434492 -4.376057 -1.722338 0
M  V30 5 C -2.013958 -3.250697 -1.214035 0
M  V30 6 C -1.316044 -2.050072 -1.239476 0
M  V30 7 C -0.049190 -1.954610 -1.764044 0
M  V30 8 C 0.682669 -0.659794 -1.782538 0 CFG=1
M  V30 9 C 0.150562 0.126943 -2.952829 0
M  V30 10 N 0.527219 -0.040939 -0.508209 0
M  V30 11 C 1.573028 0.294720 0.393982 0
M  V30 12 O 2.726859 -0.008165 -0.028408 0
M  V30 13 C 1.340052 0.931125 1.690724 0
M  V30 14 C 0.104150 1.286464 2.207936 0
M  V30 15 C 0.013917 1.884935 3.451585 0
M  V30 16 C 1.130167 2.152088 4.223101 0
M  V30 17 C 0.961055 2.781370 5.516955 0
M  V30 18 C 1.592129 2.397832 6.692222 0
M  V30 19 N 1.184312 3.219483 7.686171 0
M  V30 20 N 0.317987 4.109836 7.184638 0
M  V30 21 C 0.170568 3.857510 5.865233 0
M  V30 22 C 2.376780 1.799572 3.713826 0
M  V30 23 Cl 3.803484 2.129816 4.676248 0
M  V30 24 C 2.454949 1.197391 2.460113 0
M  V30 25 C 0.510232 -3.110248 -2.270652 0
M  V30 26 H 0.530977 -7.342100 -3.535552 0
M  V30 27 H 0.036800 -7.148471 -1.852391 0
M  V30 28 H -1.110009 -6.592909 -3.142925 0
M  V30 29 H -1.911026 -5.347535 -1.739793 0
M  V30 30 H -3.029059 -3.330701 -0.794513 0
M  V30 31 H -1.832400 -1.200253 -0.821669 0
M  V30 32 H 1.764868 -0.869573 -2.022464 0
M  V30 33 H -0.804381 0.598728 -2.642324 0
M  V30 34 H -0.103921 -0.574082 -3.774938 0
M  V30 35 H 0.839102 0.930117 -3.288928 0
M  V30 36 H -0.456175 0.181456 -0.223481 0
M  V30 37 H -0.755212 1.068861 1.588822 0
M  V30 38 H -0.993654 2.130670 3.780687 0
M  V30 39 H 2.292752 1.580727 6.801245 0
M  V30 40 H -0.191838 4.885985 7.660142 0
M  V30 41 H -0.452252 4.370967 5.117711 0
M  V30 42 H 3.464254 0.938997 2.104707 0
M  V30 43 H 1.511491 -3.000027 -2.677269 0
M  V30 END ATOM
M  V30 BEGIN BOND
M  V30 1 1 1 2
M  V30 2 1 2 3
M  V30 3 2 3 4
M  V30 4 1 4 5
M  V30 5 2 5 6
M  V30 6 1 6 7
M  V30 7 1 7 8
M  V30 8 1 8 9
M  V30 9 1 8 10
M  V30 10 1 10 11
M  V30 11 2 11 12
M  V30 12 1 11 13
M  V30 13 2 13 14
M  V30 14 1 14 15
M  V30 15 2 15 16
M  V30 16 1 16 17
M  V30 17 1 17 18
M  V30 18 2 18 19
M  V30 19 1 19 20
M  V30 20 1 20 21
M  V30 21 1 16 22
M  V30 22 1 22 23
M  V30 23 2 22 24
M  V30 24 2 7 25
M  V30 25 1 25 3
M  V30 26 1 24 13
M  V30 27 2 21 17
M  V30 28 1 1 26
M  V30 29 1 1 27
M  V30 30 1 1 28
M  V30 31 1 4 29
M  V30 32 1 5 30
M  V30 33 1 6 31
M  V30 34 1 8 32 CFG=3
M  V30 35 1 9 33
M  V30 36 1 9 34
M  V30 37 1 9 35
M  V30 38 1 10 36
M  V30 39 1 14 37
M  V30 40 1 15 38
M  V30 41 1 18 39
M  V30 42 1 20 40
M  V30 43 1 21 41
M  V30 44 1 24 42
M  V30 45 1 25 43
M  V30 END BOND
M  V30 END CTAB
M  END
>  <Dataset>  (458) 
ChEMBL_Kinases

>  <Ligand_Instance>  (458) 
nan

>  <PDB_ID>  (458) 
nan

>  <Standardized_SMILES>  (458) 
COc1cccc([C@@H](C)NC(=O)c2ccc(-c3cn[nH]c3)c(Cl)c2)c1

>  <Name>  (458) 
nan

>  <Pocket>  (458) 
nan

>  <ATP_Site>  (458) 
nan

>  <Peripheral>  (458) 
nan

>  <Num_H_Atoms_ProtBoundConf>  (458) 
nan

>  <Num_Resolved_Atoms>  (458) 
nan

>  <Num_Not_Resolved_Atoms>  (458) 
nan

$$$$
CHEMBL3356433
     RDKit          3D

  0  0  0  0  0  0  0  0  0  0999 V3000
M  V30 BEGIN CTAB
M  V30 COUNTS 62 65 0 0 0
M  V30 BEGIN ATOM
M  V30 1 C 3.355600 -0.949169 2.751629 0
M  V30 2 C 4.027567 0.153254 3.483422 0
M  V30 3 C 5.201775 0.038469 4.232750 0
M  V30 4 N 5.493382 1.252766 4.746939 0
M  V30 5 C 4.567601 2.152816 4.369987 0
M  V30 6 N 4.373073 3.465736 4.591308 0
M  V30 7 C 3.298419 4.090842 4.045828 0
M  V30 8 N 2.424595 3.408663 3.285145 0
M  V30 9 C 2.576136 2.077709 3.030555 0
M  V30 10 N 1.554197 1.512813 2.179115 0
M  V30 11 C 1.546452 0.949350 0.840508 0
M  V30 12 C 0.449859 1.568224 -0.002062 0
M  V30 13 C -0.854708 1.625774 0.750033 0
M  V30 14 C -1.241115 3.075917 0.904127 0
M  V30 15 N -2.511541 3.080297 1.642539 0
M  V30 16 C -1.953495 0.949447 0.000983 0
M  V30 17 O -2.981094 1.581569 -0.350037 0
M  V30 18 N -1.897813 -0.406014 -0.344711 0
M  V30 19 C -2.810537 -1.234386 -1.039849 0
M  V30 20 C -4.026517 -0.857290 -1.552326 0
M  V30 21 C -4.895153 -1.688798 -2.225423 0
M  V30 22 C -4.545792 -3.000827 -2.414058 0
M  V30 23 C -3.333133 -3.422399 -1.915662 0
M  V30 24 O -2.952083 -4.739114 -2.089639 0
M  V30 25 C -2.222241 -5.212858 -3.174099 0
M  V30 26 O -1.700553 -4.746627 -4.242950 0
M  V30 27 N -1.845586 -6.585723 -3.321625 0
M  V30 28 C -1.084827 -6.802463 -4.551346 0
M  V30 29 C -2.102899 -7.731297 -2.462478 0
M  V30 30 C -2.495503 -2.558287 -1.249047 0
M  V30 31 C -0.777672 1.014384 2.105738 0
M  V30 32 C 0.314782 1.581770 2.930263 0
M  V30 33 C 3.674985 1.475058 3.598281 0
M  V30 34 H 2.259814 -0.951611 2.917141 0
M  V30 35 H 3.662036 -0.992114 1.691001 0
M  V30 36 H 3.703527 -1.914281 3.215018 0
M  V30 37 H 5.726031 -0.909012 4.332035 0
M  V30 38 H 6.333635 1.461427 5.359537 0
M  V30 39 H 3.217385 5.148489 4.274954 0
M  V30 40 H 2.510310 1.204879 0.370391 0
M  V30 41 H 1.434825 -0.147236 0.814868 0
M  V30 42 H 0.303426 0.912127 -0.879942 0
M  V30 43 H 0.772782 2.555596 -0.378151 0
M  V30 44 H -1.399041 3.521956 -0.107040 0
M  V30 45 H -0.432964 3.587232 1.457828 0
M  V30 46 H -2.385133 3.530510 2.579090 0
M  V30 47 H -3.219845 3.585487 1.096384 0
M  V30 48 H -0.996895 -0.865602 -0.011465 0
M  V30 49 H -4.359707 0.148283 -1.440471 0
M  V30 50 H -5.849365 -1.322428 -2.608419 0
M  V30 51 H -5.157620 -3.711033 -2.923015 0
M  V30 52 H -0.680084 -7.826751 -4.633392 0
M  V30 53 H -1.756854 -6.641239 -5.436335 0
M  V30 54 H -0.283646 -6.027588 -4.582254 0
M  V30 55 H -2.807118 -8.397286 -2.977596 0
M  V30 56 H -1.113918 -8.222146 -2.270930 0
M  V30 57 H -2.510319 -7.371915 -1.487270 0
M  V30 58 H -1.547802 -2.968528 -0.883301 0
M  V30 59 H -1.769607 1.070101 2.611640 0
M  V30 60 H -0.599519 -0.089629 1.961871 0
M  V30 61 H 0.400511 1.033672 3.900173 0
M  V30 62 H 0.117810 2.656796 3.167521 0
M  V30 END ATOM
M  V30 BEGIN BOND
M  V30 1 1 1 2
M  V30 2 2 2 3
M  V30 3 1 3 4
M  V30 4 1 4 5
M  V30 5 2 5 6
M  V30 6 1 6 7
M  V30 7 2 7 8
M  V30 8 1 8 9
M  V30 9 1 9 10
M  V30 10 1 10 11
M  V30 11 1 11 12
M  V30 12 1 12 13
M  V30 13 1 13 14
M  V30 14 1 14 15
M  V30 15 1 13 16
M  V30 16 2 16 17
M  V30 17 1 16 18
M  V30 18 1 18 19
M  V30 19 2 19 20
M  V30 20 1 20 21
M  V30 21 2 21 22
M  V30 22 1 22 23
M  V30 23 1 23 24
M  V30 24 1 24 25
M  V30 25 2 25 26
M  V30 26 1 25 27
M  V30 27 1 27 28
M  V30 28 1 27 29
M  V30 29 2 23 30
M  V30 30 1 13 31
M  V30 31 1 31 32
M  V30 32 2 9 33
M  V30 33 1 33 2
M  V30 34 1 33 5
M  V30 35 1 32 10
M  V30 36 1 30 19
M  V30 37 1 1 34
M  V30 38 1 1 35
M  V30 39 1 1 36
M  V30 40 1 3 37
M  V30 41 1 4 38
M  V30 42 1 7 39
M  V30 43 1 11 40
M  V30 44 1 11 41
M  V30 45 1 12 42
M  V30 46 1 12 43
M  V30 47 1 14 44
M  V30 48 1 14 45
M  V30 49 1 15 46
M  V30 50 1 15 47
M  V30 51 1 18 48
M  V30 52 1 20 49
M  V30 53 1 21 50
M  V30 54 1 22 51
M  V30 55 1 28 52
M  V30 56 1 28 53
M  V30 57 1 28 54
M  V30 58 1 29 55
M  V30 59 1 29 56
M  V30 60 1 29 57
M  V30 61 1 30 58
M  V30 62 1 31 59
M  V30 63 1 31 60
M  V30 64 1 32 61
M  V30 65 1 32 62
M  V30 END BOND
M  V30 END CTAB
M  END
>  <Dataset>  (459) 
ChEMBL_Kinases

>  <Ligand_Instance>  (459) 
nan

>  <PDB_ID>  (459) 
nan

>  <Standardized_SMILES>  (459) 
Cc1c[nH]c2ncnc(N3CCC(CN)(C(=O)Nc4cccc(OC(=O)N(C)C)c4)CC3)c12

>  <Name>  (459) 
LX-7101

>  <Pocket>  (459) 
nan

>  <ATP_Site>  (459) 
nan

>  <Peripheral>  (459) 
nan

>  <Num_H_Atoms_ProtBoundConf>  (459) 
nan

>  <Num_Resolved_Atoms>  (459) 
nan

>  <Num_Not_Resolved_Atoms>  (459) 
nan

$$$$
CHEMBL3672022
     RDKit          3D

  0  0  0  0  0  0  0  0  0  0999 V3000
M  V30 BEGIN CTAB
M  V30 COUNTS 67 73 0 0 0
M  V30 BEGIN ATOM
M  V30 1 C 5.150529 -0.675161 7.793659 0
M  V30 2 C 4.641522 -0.094349 6.523736 0
M  V30 3 N 3.783028 -0.737014 5.678409 0
M  V30 4 C 3.526425 0.071739 4.626885 0
M  V30 5 N 2.745175 -0.086759 3.518254 0
M  V30 6 C 2.647863 0.890833 2.584832 0
M  V30 7 C 1.773627 0.580040 1.454892 0
M  V30 8 C 2.175670 0.490761 0.136981 0
M  V30 9 C 1.263340 0.190216 -0.854089 0
M  V30 10 C -0.068614 -0.029538 -0.567074 0
M  V30 11 C -1.129675 -0.354172 -1.527889 0
M  V30 12 N -1.329226 -1.742432 -1.774246 0
M  V30 13 C -1.674518 -2.539840 -0.644347 0
M  V30 14 C -1.500998 -4.001565 -1.057187 0
M  V30 15 C -2.046716 -4.235456 -2.439979 0
M  V30 16 N -3.440450 -3.856987 -2.548449 0
M  V30 17 N -4.018255 -3.243844 -3.562220 0
M  V30 18 C -5.328534 -3.059137 -3.301020 0
M  V30 19 C -5.594301 -3.583857 -2.054163 0
M  V30 20 C -6.734983 -3.682687 -1.275437 0
M  V30 21 N -7.971841 -3.163787 -1.760633 0
M  V30 22 N -6.676397 -4.267346 -0.063142 0
M  V30 23 C -5.469110 -4.741974 0.342640 0
M  V30 24 N -4.364450 -4.649937 -0.403768 0
M  V30 25 C -4.383761 -4.079690 -1.605039 0
M  V30 26 C -1.206575 -3.465157 -3.443814 0
M  V30 27 C -0.442616 -2.353918 -2.711812 0
M  V30 28 C -0.440433 0.069134 0.779913 0
M  V30 29 C 0.450852 0.368729 1.794886 0
M  V30 30 C 3.359104 2.055414 2.780309 0
M  V30 31 C 3.195917 3.048711 1.729183 0
M  V30 32 C 1.897352 3.526924 1.581594 0
M  V30 33 C 1.640277 4.482822 0.598646 0
M  V30 34 C 2.658026 4.942696 -0.209925 0
M  V30 35 C 3.949795 4.458524 -0.053672 0
M  V30 36 C 4.220335 3.511847 0.915044 0
M  V30 37 C 4.146898 2.213441 3.899652 0
M  V30 38 N 4.228708 1.222857 4.819054 0
M  V30 39 N 4.896666 1.105438 5.969567 0
M  V30 40 H 6.014789 -1.332812 7.582701 0
M  V30 41 H 5.323545 0.089654 8.565860 0
M  V30 42 H 4.383036 -1.370941 8.243520 0
M  V30 43 H 3.220899 0.664605 -0.077293 0
M  V30 44 H 1.554726 0.115156 -1.892055 0
M  V30 45 H -2.107778 0.047950 -1.147454 0
M  V30 46 H -0.899695 0.174063 -2.467609 0
M  V30 47 H -2.739203 -2.368833 -0.397809 0
M  V30 48 H -0.984361 -2.403035 0.208747 0
M  V30 49 H -0.428751 -4.282402 -1.069595 0
M  V30 50 H -1.988229 -4.652752 -0.312197 0
M  V30 51 H -1.984970 -5.310421 -2.657112 0
M  V30 52 H -6.097896 -2.594268 -3.904456 0
M  V30 53 H -7.836050 -2.114388 -1.746133 0
M  V30 54 H -8.033237 -2.110054 -1.820750 0
M  V30 55 H -5.357352 -5.224486 1.311612 0
M  V30 56 H -0.482606 -4.113252 -3.984132 0
M  V30 57 H -1.861434 -3.012503 -4.230164 0
M  V30 58 H -0.065421 -1.617366 -3.419774 0
M  V30 59 H 0.433683 -2.871504 -2.262973 0
M  V30 60 H -1.484413 -0.095981 1.060815 0
M  V30 61 H 0.083434 0.428166 2.824227 0
M  V30 62 H 1.033291 3.250005 2.142471 0
M  V30 63 H 0.650678 4.914704 0.411296 0
M  V30 64 H 2.463243 5.686414 -0.976255 0
M  V30 65 H 4.785584 4.785027 -0.661423 0
M  V30 66 H 5.196499 3.088526 1.096655 0
M  V30 67 H 4.689094 3.144991 4.013828 0
M  V30 END ATOM
M  V30 BEGIN BOND
M  V30 1 1 1 2
M  V30 2 1 2 3
M  V30 3 2 3 4
M  V30 4 1 4 5
M  V30 5 2 5 6
M  V30 6 1 6 7
M  V30 7 2 7 8
M  V30 8 1 8 9
M  V30 9 2 9 10
M  V30 10 1 10 11
M  V30 11 1 11 12
M  V30 12 1 12 13
M  V30 13 1 13 14
M  V30 14 1 14 15
M  V30 15 1 15 16
M  V30 16 1 16 17
M  V30 17 2 17 18
M  V30 18 1 18 19
M  V30 19 2 19 20
M  V30 20 1 20 21
M  V30 21 1 20 22
M  V30 22 2 22 23
M  V30 23 1 23 24
M  V30 24 2 24 25
M  V30 25 1 15 26
M  V30 26 1 26 27
M  V30 27 1 10 28
M  V30 28 2 28 29
M  V30 29 1 6 30
M  V30 30 1 30 31
M  V30 31 2 31 32
M  V30 32 1 32 33
M  V30 33 2 33 34
M  V30 34 1 34 35
M  V30 35 2 35 36
M  V30 36 2 30 37
M  V30 37 1 37 38
M  V30 38 1 38 39
M  V30 39 2 39 2
M  V30 40 1 38 4
M  V30 41 1 29 7
M  V30 42 1 36 31
M  V30 43 1 27 12
M  V30 44 1 25 16
M  V30 45 1 25 19
M  V30 46 1 1 40
M  V30 47 1 1 41
M  V30 48 1 1 42
M  V30 49 1 8 43
M  V30 50 1 9 44
M  V30 51 1 11 45
M  V30 52 1 11 46
M  V30 53 1 13 47
M  V30 54 1 13 48
M  V30 55 1 14 49
M  V30 56 1 14 50
M  V30 57 1 15 51
M  V30 58 1 18 52
M  V30 59 1 21 53
M  V30 60 1 21 54
M  V30 61 1 23 55
M  V30 62 1 26 56
M  V30 63 1 26 57
M  V30 64 1 27 58
M  V30 65 1 27 59
M  V30 66 1 28 60
M  V30 67 1 29 61
M  V30 68 1 32 62
M  V30 69 1 33 63
M  V30 70 1 34 64
M  V30 71 1 35 65
M  V30 72 1 36 66
M  V30 73 1 37 67
M  V30 END BOND
M  V30 END CTAB
M  END
>  <Dataset>  (460) 
ChEMBL_Kinases

>  <Ligand_Instance>  (460) 
nan

>  <PDB_ID>  (460) 
nan

>  <Standardized_SMILES>  (460) 
Cc1nc2nc(-c3ccc(CN4CCC(n5ncc6c(N)ncnc65)CC4)cc3)c(-c3ccccc3)cn2n1

>  <Name>  (460) 
nan

>  <Pocket>  (460) 
nan

>  <ATP_Site>  (460) 
nan

>  <Peripheral>  (460) 
nan

>  <Num_H_Atoms_ProtBoundConf>  (460) 
nan

>  <Num_Resolved_Atoms>  (460) 
nan

>  <Num_Not_Resolved_Atoms>  (460) 
nan

$$$$
CHEMBL4105556
     RDKit          3D

  0  0  0  0  0  0  0  0  0  0999 V3000
M  V30 BEGIN CTAB
M  V30 COUNTS 62 66 0 0 0
M  V30 BEGIN ATOM
M  V30 1 C -3.841424 2.863025 7.722668 0
M  V30 2 C -2.607269 2.681708 6.907777 0
M  V30 3 C -2.266998 1.409771 6.497848 0
M  V30 4 C -1.101218 1.544226 5.774669 0
M  V30 5 N -0.150812 0.770195 5.051248 0
M  V30 6 C 0.003902 0.338751 3.705070 0
M  V30 7 C 0.674701 1.129600 2.800213 0
M  V30 8 C 0.839232 0.734723 1.492488 0
M  V30 9 N 1.518636 1.519968 0.521073 0
M  V30 10 C 1.804083 1.070737 -0.817202 0
M  V30 11 C 0.948137 1.870625 -1.774179 0
M  V30 12 N 0.465868 3.058692 -1.111381 0
M  V30 13 C -0.267483 3.920695 -1.983206 0
M  V30 14 C 1.506574 3.736230 -0.375364 0
M  V30 15 C 1.994411 2.863301 0.763398 0
M  V30 16 N 0.314600 -0.442386 1.171113 0
M  V30 17 C -0.350546 -1.270396 1.987514 0
M  V30 18 N -0.920505 -2.525614 1.667832 0
M  V30 19 C -0.938393 -3.178985 0.411734 0
M  V30 20 C -0.442789 -2.677440 -0.771214 0
M  V30 21 C -0.452017 -3.309146 -1.995870 0
M  V30 22 C -1.008283 -4.569652 -2.065633 0
M  V30 23 N -1.021884 -5.228093 -3.327393 0
M  V30 24 C 0.148958 -6.009357 -3.552057 0
M  V30 25 O 1.117782 -6.137690 -2.756261 0
M  V30 26 C 0.274366 -6.761070 -4.842897 0
M  V30 27 C 1.192052 -7.928478 -4.910040 0
M  V30 28 C 1.681503 -6.634179 -5.514098 0
M  V30 29 C -1.522406 -5.126252 -0.912541 0
M  V30 30 C -1.481814 -4.441093 0.280853 0
M  V30 31 N -0.465545 -0.819704 3.223598 0
M  V30 32 N -0.779888 2.862764 5.769640 0
M  V30 33 N -1.689204 3.549562 6.453806 0
M  V30 34 H -3.663361 3.759358 8.387467 0
M  V30 35 H -4.700941 3.141155 7.083050 0
M  V30 36 H -4.028154 2.028742 8.398176 0
M  V30 37 H -2.630448 0.395571 6.576015 0
M  V30 38 H 0.639685 0.411465 5.597358 0
M  V30 39 H 1.060783 2.062916 3.165687 0
M  V30 40 H 1.682464 -0.025751 -0.935247 0
M  V30 41 H 2.873958 1.349561 -1.041589 0
M  V30 42 H 0.077209 1.287963 -2.143452 0
M  V30 43 H 1.523150 2.228970 -2.658504 0
M  V30 44 H -1.250633 4.125531 -1.502995 0
M  V30 45 H 0.210710 4.901084 -2.183856 0
M  V30 46 H -0.481486 3.384790 -2.911284 0
M  V30 47 H 2.314724 4.094393 -1.024860 0
M  V30 48 H 1.042465 4.629317 0.099596 0
M  V30 49 H 1.768864 3.276468 1.743525 0
M  V30 50 H 3.114493 2.804472 0.659631 0
M  V30 51 H -1.393141 -3.054405 2.441469 0
M  V30 52 H 0.001364 -1.695873 -0.777421 0
M  V30 53 H -0.044567 -2.852385 -2.879695 0
M  V30 54 H -1.763035 -5.195540 -4.060867 0
M  V30 55 H -0.551913 -6.682434 -5.566366 0
M  V30 56 H 1.744106 -8.193368 -3.963499 0
M  V30 57 H 0.987744 -8.805826 -5.522915 0
M  V30 58 H 1.694055 -6.562663 -6.618826 0
M  V30 59 H 2.419145 -6.012351 -4.972566 0
M  V30 60 H -1.954578 -6.111052 -0.979066 0
M  V30 61 H -1.907926 -4.957879 1.124684 0
M  V30 62 H -1.762243 4.580492 6.656856 0
M  V30 END ATOM
M  V30 BEGIN BOND
M  V30 1 1 1 2
M  V30 2 2 2 3
M  V30 3 1 3 4
M  V30 4 1 4 5
M  V30 5 1 5 6
M  V30 6 2 6 7
M  V30 7 1 7 8
M  V30 8 1 8 9
M  V30 9 1 9 10
M  V30 10 1 10 11
M  V30 11 1 11 12
M  V30 12 1 12 13
M  V30 13 1 12 14
M  V30 14 1 14 15
M  V30 15 2 8 16
M  V30 16 1 16 17
M  V30 17 1 17 18
M  V30 18 1 18 19
M  V30 19 2 19 20
M  V30 20 1 20 21
M  V30 21 2 21 22
M  V30 22 1 22 23
M  V30 23 1 23 24
M  V30 24 2 24 25
M  V30 25 1 24 26
M  V30 26 1 26 27
M  V30 27 1 27 28
M  V30 28 1 22 29
M  V30 29 2 29 30
M  V30 30 2 17 31
M  V30 31 2 4 32
M  V30 32 1 32 33
M  V30 33 1 33 2
M  V30 34 1 31 6
M  V30 35 1 15 9
M  V30 36 1 30 19
M  V30 37 1 28 26
M  V30 38 1 1 34
M  V30 39 1 1 35
M  V30 40 1 1 36
M  V30 41 1 3 37
M  V30 42 1 5 38
M  V30 43 1 7 39
M  V30 44 1 10 40
M  V30 45 1 10 41
M  V30 46 1 11 42
M  V30 47 1 11 43
M  V30 48 1 13 44
M  V30 49 1 13 45
M  V30 50 1 13 46
M  V30 51 1 14 47
M  V30 52 1 14 48
M  V30 53 1 15 49
M  V30 54 1 15 50
M  V30 55 1 18 51
M  V30 56 1 20 52
M  V30 57 1 21 53
M  V30 58 1 23 54
M  V30 59 1 26 55
M  V30 60 1 27 56
M  V30 61 1 27 57
M  V30 62 1 28 58
M  V30 63 1 28 59
M  V30 64 1 29 60
M  V30 65 1 30 61
M  V30 66 1 33 62
M  V30 END BOND
M  V30 END CTAB
M  END
>  <Dataset>  (461) 
ChEMBL_Kinases

>  <Ligand_Instance>  (461) 
nan

>  <PDB_ID>  (461) 
nan

>  <Standardized_SMILES>  (461) 
Cc1cc(Nc2cc(N3CCN(C)CC3)nc(Nc3ccc(NC(=O)C4CC4)cc3)n2)n[nH]1

>  <Name>  (461) 
nan

>  <Pocket>  (461) 
nan

>  <ATP_Site>  (461) 
nan

>  <Peripheral>  (461) 
nan

>  <Num_H_Atoms_ProtBoundConf>  (461) 
nan

>  <Num_Resolved_Atoms>  (461) 
nan

>  <Num_Not_Resolved_Atoms>  (461) 
nan

$$$$
CHEMBL367162
     RDKit          3D

  0  0  0  0  0  0  0  0  0  0999 V3000
M  V30 BEGIN CTAB
M  V30 COUNTS 65 69 0 0 0
M  V30 BEGIN ATOM
M  V30 1 O 1.487937 0.071394 4.677541 0
M  V30 2 C 2.606655 0.436313 4.286287 0
M  V30 3 N 2.938093 0.415067 2.908078 0
M  V30 4 C 1.961593 -0.035131 1.968403 0 CFG=2
M  V30 5 C 2.504905 -1.244624 1.196432 0
M  V30 6 C 3.454113 -0.594082 0.250305 0
M  V30 7 C 4.624502 -0.953127 -0.416123 0
M  V30 8 C 5.255449 -0.042225 -1.251176 0
M  V30 9 C 4.764323 1.233230 -1.456035 0
M  V30 10 C 3.596585 1.611201 -0.799532 0
M  V30 11 C 2.978184 0.683632 0.033850 0
M  V30 12 C 1.734250 0.913023 0.807578 0
M  V30 13 O 0.586868 0.431731 0.160821 0
M  V30 14 C -0.572862 1.106659 -0.096764 0
M  V30 15 O -0.695946 2.306327 0.260396 0
M  V30 16 C -1.661500 0.420816 -0.788171 0
M  V30 17 C -2.806019 1.142868 -1.024328 0
M  V30 18 C -3.886417 0.541443 -1.680924 0
M  V30 19 O -4.993241 1.355248 -1.870671 0
M  V30 20 C -3.819968 -0.769231 -2.095533 0
M  V30 21 C -4.916682 -1.332682 -2.827218 0
M  V30 22 O -5.534919 -0.364094 -3.395617 0
M  V30 23 C -5.560113 -2.564631 -3.148649 0
M  V30 24 C -6.274294 -2.629325 -4.322793 0
M  V30 25 O -6.363157 -1.569948 -5.241821 0
M  V30 26 C -6.968716 -3.785368 -4.673227 0
M  V30 27 C -6.954729 -4.882016 -3.855041 0
M  V30 28 C -6.261394 -4.877178 -2.668555 0
M  V30 29 C -5.601554 -3.704191 -2.386318 0
M  V30 30 C -5.004093 -3.745571 -1.078349 0
M  V30 31 O -4.944746 -4.695090 -0.263149 0
M  V30 32 O -4.357630 -3.406801 0.060584 0
M  V30 33 C -2.643278 -1.436942 -1.830620 0
M  V30 34 O -2.375013 -2.754050 -2.177970 0
M  V30 35 C -1.558179 -0.882175 -1.186773 0
M  V30 36 C 3.567563 0.886353 5.283298 0
M  V30 37 C 3.173994 0.878659 6.615978 0
M  V30 38 C 3.994113 1.281723 7.656825 0
M  V30 39 C 5.273166 1.716866 7.371253 0
M  V30 40 O 6.096644 2.120802 8.410576 0
M  V30 41 C 5.678670 1.729733 6.045676 0
M  V30 42 C 4.844754 1.321376 5.002323 0
M  V30 43 H 3.868303 0.714642 2.543975 0
M  V30 44 H 1.003339 -0.332461 2.434300 0
M  V30 45 H 2.962624 -1.994928 1.835553 0
M  V30 46 H 1.696249 -1.724742 0.606988 0
M  V30 47 H 5.001032 -1.956515 -0.247884 0
M  V30 48 H 6.178558 -0.332867 -1.773696 0
M  V30 49 H 5.249777 1.947069 -2.104085 0
M  V30 50 H 3.222154 2.605139 -0.965126 0
M  V30 51 H 1.596592 1.951242 1.105095 0
M  V30 52 H -2.871610 2.171199 -0.704166 0
M  V30 53 H -5.008196 2.234108 -2.331874 0
M  V30 54 H -6.347549 -1.755453 -6.221193 0
M  V30 55 H -7.515084 -3.813121 -5.587038 0
M  V30 56 H -7.512078 -5.740237 -4.191683 0
M  V30 57 H -6.281722 -5.765317 -2.059898 0
M  V30 58 H -4.217262 -2.451444 0.376136 0
M  V30 59 H -2.434080 -2.990310 -3.177367 0
M  V30 60 H -0.623026 -1.355315 -0.954585 0
M  V30 61 H 2.185157 0.549768 6.910869 0
M  V30 62 H 3.638833 1.257211 8.691144 0
M  V30 63 H 6.308826 1.430900 9.147098 0
M  V30 64 H 6.683174 2.072110 5.823867 0
M  V30 65 H 5.167013 1.335533 3.987514 0
M  V30 END ATOM
M  V30 BEGIN BOND
M  V30 1 2 1 2
M  V30 2 1 2 3
M  V30 3 1 3 4
M  V30 4 1 4 5
M  V30 5 1 5 6
M  V30 6 2 6 7
M  V30 7 1 7 8
M  V30 8 2 8 9
M  V30 9 1 9 10
M  V30 10 2 10 11
M  V30 11 1 11 12
M  V30 12 1 12 13
M  V30 13 1 13 14
M  V30 14 2 14 15
M  V30 15 1 14 16
M  V30 16 2 16 17
M  V30 17 1 17 18
M  V30 18 1 18 19
M  V30 19 2 18 20
M  V30 20 1 20 21
M  V30 21 2 21 22
M  V30 22 1 21 23
M  V30 23 2 23 24
M  V30 24 1 24 25
M  V30 25 1 24 26
M  V30 26 2 26 27
M  V30 27 1 27 28
M  V30 28 2 28 29
M  V30 29 1 29 30
M  V30 30 2 30 31
M  V30 31 1 30 32
M  V30 32 1 20 33
M  V30 33 1 33 34
M  V30 34 2 33 35
M  V30 35 1 2 36
M  V30 36 2 36 37
M  V30 37 1 37 38
M  V30 38 2 38 39
M  V30 39 1 39 40
M  V30 40 1 39 41
M  V30 41 2 41 42
M  V30 42 1 12 4
M  V30 43 1 35 16
M  V30 44 1 42 36
M  V30 45 1 11 6
M  V30 46 1 29 23
M  V30 47 1 3 43
M  V30 48 1 4 44 CFG=1
M  V30 49 1 5 45
M  V30 50 1 5 46
M  V30 51 1 7 47
M  V30 52 1 8 48
M  V30 53 1 9 49
M  V30 54 1 10 50
M  V30 55 1 12 51
M  V30 56 1 17 52
M  V30 57 1 19 53
M  V30 58 1 25 54
M  V30 59 1 26 55
M  V30 60 1 27 56
M  V30 61 1 28 57
M  V30 62 1 32 58
M  V30 63 1 34 59
M  V30 64 1 35 60
M  V30 65 1 37 61
M  V30 66 1 38 62
M  V30 67 1 40 63
M  V30 68 1 41 64
M  V30 69 1 42 65
M  V30 END BOND
M  V30 END CTAB
M  END
>  <Dataset>  (462) 
ChEMBL_Kinases

>  <Ligand_Instance>  (462) 
nan

>  <PDB_ID>  (462) 
nan

>  <Standardized_SMILES>  (462) 
O=C(N[C@@H]1Cc2ccccc2C1OC(=O)c1cc(O)c(C(=O)c2c(O)cccc2C(=O)O)c(O)c1)c1ccc(O)cc1

>  <Name>  (462) 
nan

>  <Pocket>  (462) 
nan

>  <ATP_Site>  (462) 
nan

>  <Peripheral>  (462) 
nan

>  <Num_H_Atoms_ProtBoundConf>  (462) 
nan

>  <Num_Resolved_Atoms>  (462) 
nan

>  <Num_Not_Resolved_Atoms>  (462) 
nan

$$$$
CHEMBL367150
     RDKit          3D

  0  0  0  0  0  0  0  0  0  0999 V3000
M  V30 BEGIN CTAB
M  V30 COUNTS 57 60 0 0 0
M  V30 BEGIN ATOM
M  V30 1 C 3.578569 -2.642736 4.814824 0
M  V30 2 N 4.928392 -2.055142 4.777945 0
M  V30 3 C 5.279326 -1.873302 6.190212 0
M  V30 4 S 4.754326 -0.478527 4.061053 0
M  V30 5 O 6.116484 0.156162 4.094324 0
M  V30 6 O 3.770524 0.289127 4.895705 0
M  V30 7 C 4.143596 -0.584271 2.440425 0
M  V30 8 C 2.762928 -0.577695 2.254043 0
M  V30 9 C 2.279817 -0.656898 0.950255 0
M  V30 10 C 3.124764 -0.741202 -0.162428 0
M  V30 11 N 2.529409 -0.815817 -1.471389 0
M  V30 12 C 1.111836 -0.911479 -1.509081 0
M  V30 13 C 0.210043 0.130140 -1.449709 0
M  V30 14 C -1.150814 -0.082648 -1.502299 0
M  V30 15 N -2.066079 1.001623 -1.433802 0
M  V30 16 C -3.471007 0.761477 -1.493787 0 CFG=1
M  V30 17 C -4.006511 -0.134902 -0.401553 0
M  V30 18 C -5.328384 -0.660460 -0.899101 0
M  V30 19 C -6.046477 0.252883 -1.815427 0 CFG=2
M  V30 20 N -6.000866 -0.241902 -3.191562 0
M  V30 21 C -5.714391 1.699623 -1.748768 0
M  V30 22 C -4.290499 2.028682 -1.405238 0
M  V30 23 N -1.544382 -1.363030 -1.615156 0
M  V30 24 C -0.667999 -2.398287 -1.674949 0
M  V30 25 C -0.970348 -3.738488 -1.790673 0
M  V30 26 Cl -2.514338 -4.528303 -1.895652 0
M  V30 27 C 0.282145 -4.340667 -1.805795 0
M  V30 28 N 1.223905 -3.387689 -1.704293 0
M  V30 29 N 0.670164 -2.183971 -1.622460 0
M  V30 30 C 4.489419 -0.746321 0.046300 0
M  V30 31 C 4.990236 -0.668584 1.334838 0
M  V30 32 H 3.523589 -3.518942 5.484245 0
M  V30 33 H 3.287266 -2.892305 3.781804 0
M  V30 34 H 2.895122 -1.847018 5.224909 0
M  V30 35 H 4.565180 -1.164547 6.672262 0
M  V30 36 H 5.260552 -2.818395 6.747064 0
M  V30 37 H 6.282766 -1.403304 6.300811 0
M  V30 38 H 2.090366 -0.512853 3.097244 0
M  V30 39 H 1.201217 -0.648387 0.847781 0
M  V30 40 H 3.185566 -0.794602 -2.281781 0
M  V30 41 H 0.635413 1.115934 -1.358860 0
M  V30 42 H -1.689693 1.967513 -1.338301 0
M  V30 43 H -3.698767 0.266891 -2.459830 0
M  V30 44 H -3.319992 -0.931710 -0.102554 0
M  V30 45 H -4.228564 0.527596 0.478385 0
M  V30 46 H -5.922949 -0.978151 -0.011828 0
M  V30 47 H -5.090914 -1.599916 -1.453277 0
M  V30 48 H -7.141912 0.166617 -1.548884 0
M  V30 49 H -5.475088 -1.111310 -3.305749 0
M  V30 50 H -5.850309 0.504863 -3.883466 0
M  V30 51 H -6.451831 2.270773 -1.123199 0
M  V30 52 H -5.877757 2.110787 -2.788651 0
M  V30 53 H -4.286572 2.305734 -0.323178 0
M  V30 54 H -3.878185 2.873819 -1.960647 0
M  V30 55 H 0.411081 -5.421492 -1.889810 0
M  V30 56 H 5.093578 -0.813799 -0.850064 0
M  V30 57 H 6.069063 -0.674945 1.469862 0
M  V30 END ATOM
M  V30 BEGIN BOND
M  V30 1 1 1 2
M  V30 2 1 2 3
M  V30 3 1 2 4
M  V30 4 2 4 5
M  V30 5 2 4 6
M  V30 6 1 4 7
M  V30 7 2 7 8
M  V30 8 1 8 9
M  V30 9 2 9 10
M  V30 10 1 10 11
M  V30 11 1 11 12
M  V30 12 2 12 13
M  V30 13 1 13 14
M  V30 14 1 14 15
M  V30 15 1 15 16
M  V30 16 1 16 17
M  V30 17 1 17 18
M  V30 18 1 18 19
M  V30 19 1 19 20
M  V30 20 1 19 21
M  V30 21 1 21 22
M  V30 22 2 14 23
M  V30 23 1 23 24
M  V30 24 2 24 25
M  V30 25 1 25 26
M  V30 26 1 25 27
M  V30 27 2 27 28
M  V30 28 1 28 29
M  V30 29 1 10 30
M  V30 30 2 30 31
M  V30 31 1 31 7
M  V30 32 1 29 12
M  V30 33 1 22 16
M  V30 34 1 29 24
M  V30 35 1 1 32
M  V30 36 1 1 33
M  V30 37 1 1 34
M  V30 38 1 3 35
M  V30 39 1 3 36
M  V30 40 1 3 37
M  V30 41 1 8 38
M  V30 42 1 9 39
M  V30 43 1 11 40
M  V30 44 1 13 41
M  V30 45 1 15 42
M  V30 46 1 16 43 CFG=3
M  V30 47 1 17 44
M  V30 48 1 17 45
M  V30 49 1 18 46
M  V30 50 1 18 47
M  V30 51 1 19 48 CFG=1
M  V30 52 1 20 49
M  V30 53 1 20 50
M  V30 54 1 21 51
M  V30 55 1 21 52
M  V30 56 1 22 53
M  V30 57 1 22 54
M  V30 58 1 27 55
M  V30 59 1 30 56
M  V30 60 1 31 57
M  V30 END BOND
M  V30 END CTAB
M  END
>  <Dataset>  (463) 
ChEMBL_Kinases

>  <Ligand_Instance>  (463) 
nan

>  <PDB_ID>  (463) 
nan

>  <Standardized_SMILES>  (463) 
CN(C)S(=O)(=O)c1ccc(Nc2cc(N[C@H]3CC[C@H](N)CC3)nc3c(Cl)cnn23)cc1

>  <Name>  (463) 
nan

>  <Pocket>  (463) 
nan

>  <ATP_Site>  (463) 
nan

>  <Peripheral>  (463) 
nan

>  <Num_H_Atoms_ProtBoundConf>  (463) 
nan

>  <Num_Resolved_Atoms>  (463) 
nan

>  <Num_Not_Resolved_Atoms>  (463) 
nan

$$$$
CHEMBL3781102
     RDKit          3D

  0  0  0  0  0  0  0  0  0  0999 V3000
M  V30 BEGIN CTAB
M  V30 COUNTS 76 80 0 0 0
M  V30 BEGIN ATOM
M  V30 1 C 1.264760 -2.752290 6.475216 0
M  V30 2 C 2.304587 -2.114184 5.639594 0
M  V30 3 O 2.033160 -1.020126 5.048206 0
M  V30 4 N 3.601896 -2.669438 5.464646 0
M  V30 5 C 4.674874 -2.171396 4.704718 0
M  V30 6 C 4.673607 -2.627558 3.407461 0
M  V30 7 C 5.628159 -2.271121 2.483323 0
M  V30 8 C 5.876770 -2.566079 1.069799 0
M  V30 9 O 5.431849 -1.652369 0.137481 0
M  V30 10 C 4.187260 -1.216578 -0.152680 0
M  V30 11 C 2.963588 -1.524762 0.357018 0
M  V30 12 C 1.806797 -0.942163 -0.105742 0
M  V30 13 C 1.809621 -0.011226 -1.112680 0
M  V30 14 N 0.621308 0.585523 -1.584693 0
M  V30 15 C -0.710411 0.376774 -1.153576 0
M  V30 16 O -0.968726 -0.430591 -0.229792 0
M  V30 17 N -1.884908 0.980160 -1.636142 0
M  V30 18 C -3.192863 0.714049 -1.145629 0
M  V30 19 C -3.585114 1.548155 -0.091408 0
M  V30 20 C -4.879081 1.151746 0.261637 0
M  V30 21 C -5.784112 1.695346 1.322752 0
M  V30 22 C -5.533956 0.937373 2.618132 0
M  V30 23 C -7.215902 1.425678 0.913947 0
M  V30 24 C -5.530699 3.146542 1.583869 0
M  V30 25 N -5.208902 0.136124 -0.556122 0
M  V30 26 N -4.216871 -0.124320 -1.386880 0
M  V30 27 C -3.974662 -1.047424 -2.442717 0
M  V30 28 C -3.638265 -2.317975 -1.986517 0
M  V30 29 C -3.369746 -3.338176 -2.879402 0
M  V30 30 C -3.440792 -3.075744 -4.241309 0
M  V30 31 C -3.176747 -4.078155 -5.294348 0
M  V30 32 C -3.774881 -1.813894 -4.700295 0
M  V30 33 C -4.043259 -0.794331 -3.807202 0
M  V30 34 C 3.005542 0.324386 -1.648389 0
M  V30 35 C 3.059211 1.257334 -2.665063 0
M  V30 36 C 4.247466 1.639817 -3.250366 0
M  V30 37 C 5.432834 1.083022 -2.819332 0
M  V30 38 C 5.353434 0.155141 -1.804460 0
M  V30 39 C 4.186595 -0.265004 -1.181621 0
M  V30 40 C 6.605290 -1.400526 2.981289 0
M  V30 41 C 6.612699 -0.936834 4.288384 0
M  V30 42 N 5.646411 -1.325600 5.142372 0
M  V30 43 H 1.194659 -2.228264 7.438477 0
M  V30 44 H 0.260900 -2.716216 5.983150 0
M  V30 45 H 1.538044 -3.813410 6.670197 0
M  V30 46 H 3.768625 -3.581457 5.982356 0
M  V30 47 H 3.954968 -3.308550 2.965872 0
M  V30 48 H 6.950837 -2.837698 0.936313 0
M  V30 49 H 5.346675 -3.547237 0.824437 0
M  V30 50 H 2.981325 -2.248447 1.127028 0
M  V30 51 H 0.950078 -1.298434 0.403009 0
M  V30 52 H 0.572278 1.288645 -2.346988 0
M  V30 53 H -1.754568 1.667471 -2.409014 0
M  V30 54 H -3.152465 2.356600 0.461326 0
M  V30 55 H -4.431431 0.885048 2.744074 0
M  V30 56 H -5.966478 -0.064891 2.638300 0
M  V30 57 H -5.891387 1.536475 3.496366 0
M  V30 58 H -7.817641 1.098090 1.807453 0
M  V30 59 H -7.219124 0.568380 0.213900 0
M  V30 60 H -7.636846 2.351567 0.468101 0
M  V30 61 H -4.923159 3.587601 0.751555 0
M  V30 62 H -4.929410 3.296639 2.501825 0
M  V30 63 H -6.482159 3.705021 1.709356 0
M  V30 64 H -3.565676 -2.587836 -0.932653 0
M  V30 65 H -3.100727 -4.355102 -2.565341 0
M  V30 66 H -2.726753 -3.610339 -6.193032 0
M  V30 67 H -2.438410 -4.804629 -4.910062 0
M  V30 68 H -4.099980 -4.656185 -5.546120 0
M  V30 69 H -3.850563 -1.532780 -5.740033 0
M  V30 70 H -4.314130 0.229222 -4.064678 0
M  V30 71 H 2.249768 1.776942 -3.109737 0
M  V30 72 H 4.362629 2.369975 -4.056806 0
M  V30 73 H 6.389109 1.349315 -3.245296 0
M  V30 74 H 6.318917 -0.268638 -1.485793 0
M  V30 75 H 7.456017 -0.986924 2.433123 0
M  V30 76 H 7.340863 -0.269091 4.713311 0
M  V30 END ATOM
M  V30 BEGIN BOND
M  V30 1 1 1 2
M  V30 2 2 2 3
M  V30 3 1 2 4
M  V30 4 1 4 5
M  V30 5 2 5 6
M  V30 6 1 6 7
M  V30 7 1 7 8
M  V30 8 1 8 9
M  V30 9 1 9 10
M  V30 10 2 10 11
M  V30 11 1 11 12
M  V30 12 2 12 13
M  V30 13 1 13 14
M  V30 14 1 14 15
M  V30 15 2 15 16
M  V30 16 1 15 17
M  V30 17 1 17 18
M  V30 18 2 18 19
M  V30 19 1 19 20
M  V30 20 1 20 21
M  V30 21 1 21 22
M  V30 22 1 21 23
M  V30 23 1 21 24
M  V30 24 2 20 25
M  V30 25 1 25 26
M  V30 26 1 26 27
M  V30 27 2 27 28
M  V30 28 1 28 29
M  V30 29 2 29 30
M  V30 30 1 30 31
M  V30 31 1 30 32
M  V30 32 2 32 33
M  V30 33 1 13 34
M  V30 34 2 34 35
M  V30 35 1 35 36
M  V30 36 2 36 37
M  V30 37 1 37 38
M  V30 38 2 38 39
M  V30 39 2 7 40
M  V30 40 1 40 41
M  V30 41 2 41 42
M  V30 42 1 42 5
M  V30 43 1 39 10
M  V30 44 1 26 18
M  V30 45 1 33 27
M  V30 46 1 39 34
M  V30 47 1 1 43
M  V30 48 1 1 44
M  V30 49 1 1 45
M  V30 50 1 4 46
M  V30 51 1 6 47
M  V30 52 1 8 48
M  V30 53 1 8 49
M  V30 54 1 11 50
M  V30 55 1 12 51
M  V30 56 1 14 52
M  V30 57 1 17 53
M  V30 58 1 19 54
M  V30 59 1 22 55
M  V30 60 1 22 56
M  V30 61 1 22 57
M  V30 62 1 23 58
M  V30 63 1 23 59
M  V30 64 1 23 60
M  V30 65 1 24 61
M  V30 66 1 24 62
M  V30 67 1 24 63
M  V30 68 1 28 64
M  V30 69 1 29 65
M  V30 70 1 31 66
M  V30 71 1 31 67
M  V30 72 1 31 68
M  V30 73 1 32 69
M  V30 74 1 33 70
M  V30 75 1 35 71
M  V30 76 1 36 72
M  V30 77 1 37 73
M  V30 78 1 38 74
M  V30 79 1 40 75
M  V30 80 1 41 76
M  V30 END BOND
M  V30 END CTAB
M  END
>  <Dataset>  (464) 
ChEMBL_Kinases

>  <Ligand_Instance>  (464) 
nan

>  <PDB_ID>  (464) 
nan

>  <Standardized_SMILES>  (464) 
CC(=O)Nc1cc(COc2ccc(NC(=O)Nc3cc(C(C)(C)C)nn3-c3ccc(C)cc3)c3ccccc23)ccn1

>  <Name>  (464) 
nan

>  <Pocket>  (464) 
nan

>  <ATP_Site>  (464) 
nan

>  <Peripheral>  (464) 
nan

>  <Num_H_Atoms_ProtBoundConf>  (464) 
nan

>  <Num_Resolved_Atoms>  (464) 
nan

>  <Num_Not_Resolved_Atoms>  (464) 
nan

$$$$
CHEMBL3781244
     RDKit          3D

  0  0  0  0  0  0  0  0  0  0999 V3000
M  V30 BEGIN CTAB
M  V30 COUNTS 84 88 0 0 0
M  V30 BEGIN ATOM
M  V30 1 C 5.451451 2.279488 4.719706 0
M  V30 2 C 4.841278 2.483557 3.367756 0
M  V30 3 C 4.745132 3.724838 2.804950 0
M  V30 4 C 4.171542 3.833426 1.562803 0
M  V30 5 C 3.681640 2.786161 0.832245 0
M  V30 6 N 3.080895 2.863679 -0.458314 0
M  V30 7 N 3.518128 3.048618 -1.675784 0
M  V30 8 C 2.476869 3.029914 -2.560583 0
M  V30 9 C 2.641436 3.225552 -4.039612 0
M  V30 10 C 1.259766 3.110229 -4.694488 0
M  V30 11 C 3.245971 4.559692 -4.327882 0
M  V30 12 C 3.480154 2.093723 -4.613343 0
M  V30 13 C 1.336811 2.814633 -1.775536 0
M  V30 14 C 1.742554 2.711556 -0.435977 0
M  V30 15 N 0.621396 2.496206 0.410709 0
M  V30 16 C 0.073047 1.260073 0.843867 0
M  V30 17 O 0.691232 0.220293 0.425579 0
M  V30 18 N -1.076791 1.234135 1.677579 0
M  V30 19 C -1.685087 0.048297 2.163181 0
M  V30 20 C -2.607890 -0.518773 1.321595 0
M  V30 21 C -3.246802 -1.666972 1.729901 0
M  V30 22 C -3.043165 -2.307137 2.919715 0
M  V30 23 O -3.547143 -3.417453 3.511881 0
M  V30 24 C -4.482739 -4.353522 3.101814 0
M  V30 25 C -4.120037 -5.125884 1.888347 0
M  V30 26 C -3.325198 -6.240753 2.200073 0
M  V30 27 C -2.829406 -7.144486 1.302520 0
M  V30 28 N -3.144445 -6.926006 -0.002206 0
M  V30 29 C -3.904587 -5.871821 -0.357419 0
M  V30 30 N -4.222875 -5.642653 -1.743571 0
M  V30 31 C -3.145064 -4.814728 -2.152040 0
M  V30 32 O -2.337916 -4.593232 -1.177746 0
M  V30 33 C -2.891886 -4.228282 -3.514902 0
M  V30 34 N -1.680603 -3.447236 -3.500857 0
M  V30 35 C -1.733430 -2.242029 -2.742104 0
M  V30 36 C -1.098300 -3.226073 -4.800244 0
M  V30 37 C -4.403345 -4.964948 0.546832 0
M  V30 38 C -2.095878 -1.712730 3.768512 0
M  V30 39 C -1.724337 -2.184811 5.021225 0
M  V30 40 C -0.788327 -1.573306 5.821498 0
M  V30 41 C -0.170280 -0.425840 5.376386 0
M  V30 42 C -0.490470 0.099050 4.143263 0
M  V30 43 C -1.421003 -0.545870 3.396013 0
M  V30 44 C 3.801924 1.536507 1.445739 0
M  V30 45 C 4.366205 1.366311 2.685243 0
M  V30 46 H 6.152738 3.098358 4.978418 0
M  V30 47 H 4.611826 2.207419 5.461282 0
M  V30 48 H 5.932183 1.288237 4.686277 0
M  V30 49 H 5.116607 4.609369 3.335069 0
M  V30 50 H 4.096333 4.839129 1.111173 0
M  V30 51 H 1.353502 3.170363 -5.780296 0
M  V30 52 H 0.856988 2.085142 -4.460794 0
M  V30 53 H 0.568259 3.869760 -4.311155 0
M  V30 54 H 4.227852 4.406655 -4.821788 0
M  V30 55 H 3.298583 5.166068 -3.401715 0
M  V30 56 H 2.593123 5.074447 -5.082094 0
M  V30 57 H 2.980354 1.156138 -4.295956 0
M  V30 58 H 4.516641 2.127936 -4.253251 0
M  V30 59 H 3.393774 2.111288 -5.739079 0
M  V30 60 H 0.415318 2.777264 -2.344601 0
M  V30 61 H 0.157056 3.356614 0.726117 0
M  V30 62 H -1.495597 2.153253 1.942894 0
M  V30 63 H -2.907795 -0.150789 0.336570 0
M  V30 64 H -3.979511 -2.154729 1.123658 0
M  V30 65 H -4.706670 -5.056364 3.951278 0
M  V30 66 H -5.459955 -3.816486 2.916698 0
M  V30 67 H -3.016992 -6.503037 3.227738 0
M  V30 68 H -2.226804 -7.996602 1.536248 0
M  V30 69 H -4.923033 -5.854007 -2.518204 0
M  V30 70 H -3.733758 -3.652422 -3.870816 0
M  V30 71 H -2.713372 -5.124771 -4.166148 0
M  V30 72 H -0.760276 -2.039966 -2.210588 0
M  V30 73 H -2.536358 -2.256655 -1.998286 0
M  V30 74 H -1.915753 -1.371935 -3.417343 0
M  V30 75 H 0.005940 -3.125109 -4.701772 0
M  V30 76 H -1.334765 -4.072929 -5.468490 0
M  V30 77 H -1.542655 -2.290372 -5.236575 0
M  V30 78 H -5.021083 -4.104288 0.358527 0
M  V30 79 H -2.205825 -3.081181 5.366067 0
M  V30 80 H -0.575979 -2.035688 6.784308 0
M  V30 81 H 0.559320 0.035070 6.018453 0
M  V30 82 H 0.015580 0.992202 3.828493 0
M  V30 83 H 3.432540 0.635617 0.927195 0
M  V30 84 H 4.427503 0.362442 3.096498 0
M  V30 END ATOM
M  V30 BEGIN BOND
M  V30 1 1 1 2
M  V30 2 2 2 3
M  V30 3 1 3 4
M  V30 4 2 4 5
M  V30 5 1 5 6
M  V30 6 1 6 7
M  V30 7 2 7 8
M  V30 8 1 8 9
M  V30 9 1 9 10
M  V30 10 1 9 11
M  V30 11 1 9 12
M  V30 12 1 8 13
M  V30 13 2 13 14
M  V30 14 1 14 15
M  V30 15 1 15 16
M  V30 16 2 16 17
M  V30 17 1 16 18
M  V30 18 1 18 19
M  V30 19 2 19 20
M  V30 20 1 20 21
M  V30 21 2 21 22
M  V30 22 1 22 23
M  V30 23 1 23 24
M  V30 24 1 24 25
M  V30 25 2 25 26
M  V30 26 1 26 27
M  V30 27 2 27 28
M  V30 28 1 28 29
M  V30 29 1 29 30
M  V30 30 1 30 31
M  V30 31 2 31 32
M  V30 32 1 31 33
M  V30 33 1 33 34
M  V30 34 1 34 35
M  V30 35 1 34 36
M  V30 36 2 29 37
M  V30 37 1 22 38
M  V30 38 2 38 39
M  V30 39 1 39 40
M  V30 40 2 40 41
M  V30 41 1 41 42
M  V30 42 2 42 43
M  V30 43 1 5 44
M  V30 44 2 44 45
M  V30 45 1 45 2
M  V30 46 1 14 6
M  V30 47 1 43 19
M  V30 48 1 37 25
M  V30 49 1 43 38
M  V30 50 1 1 46
M  V30 51 1 1 47
M  V30 52 1 1 48
M  V30 53 1 3 49
M  V30 54 1 4 50
M  V30 55 1 10 51
M  V30 56 1 10 52
M  V30 57 1 10 53
M  V30 58 1 11 54
M  V30 59 1 11 55
M  V30 60 1 11 56
M  V30 61 1 12 57
M  V30 62 1 12 58
M  V30 63 1 12 59
M  V30 64 1 13 60
M  V30 65 1 15 61
M  V30 66 1 18 62
M  V30 67 1 20 63
M  V30 68 1 21 64
M  V30 69 1 24 65
M  V30 70 1 24 66
M  V30 71 1 26 67
M  V30 72 1 27 68
M  V30 73 1 30 69
M  V30 74 1 33 70
M  V30 75 1 33 71
M  V30 76 1 35 72
M  V30 77 1 35 73
M  V30 78 1 35 74
M  V30 79 1 36 75
M  V30 80 1 36 76
M  V30 81 1 36 77
M  V30 82 1 37 78
M  V30 83 1 39 79
M  V30 84 1 40 80
M  V30 85 1 41 81
M  V30 86 1 42 82
M  V30 87 1 44 83
M  V30 88 1 45 84
M  V30 END BOND
M  V30 END CTAB
M  END
>  <Dataset>  (465) 
ChEMBL_Kinases

>  <Ligand_Instance>  (465) 
nan

>  <PDB_ID>  (465) 
nan

>  <Standardized_SMILES>  (465) 
Cc1ccc(-n2nc(C(C)(C)C)cc2NC(=O)Nc2ccc(OCc3ccnc(NC(=O)CN(C)C)c3)c3ccccc23)cc1

>  <Name>  (465) 
nan

>  <Pocket>  (465) 
nan

>  <ATP_Site>  (465) 
nan

>  <Peripheral>  (465) 
nan

>  <Num_H_Atoms_ProtBoundConf>  (465) 
nan

>  <Num_Resolved_Atoms>  (465) 
nan

>  <Num_Not_Resolved_Atoms>  (465) 
nan

$$$$
CHEMBL3781245
     RDKit          3D

  0  0  0  0  0  0  0  0  0  0999 V3000
M  V30 BEGIN CTAB
M  V30 COUNTS 80 84 0 0 0
M  V30 BEGIN ATOM
M  V30 1 C 1.345265 -8.832592 -3.266944 0
M  V30 2 S 2.417457 -7.387852 -3.055871 0
M  V30 3 C 3.384457 -7.064762 -4.555965 0
M  V30 4 C 4.249754 -5.865786 -4.286888 0
M  V30 5 O 4.911960 -5.604112 -5.307761 0
M  V30 6 N 4.239989 -5.210264 -3.030120 0
M  V30 7 C 5.058532 -4.074738 -2.766481 0
M  V30 8 C 4.519309 -2.854155 -3.068168 0
M  V30 9 C 5.268550 -1.718566 -2.822070 0
M  V30 10 C 5.099827 -0.255919 -2.952281 0
M  V30 11 O 4.727033 0.421685 -1.802038 0
M  V30 12 C 3.584226 0.294864 -1.084946 0
M  V30 13 C 2.464831 -0.477346 -1.253999 0
M  V30 14 C 1.410318 -0.420727 -0.362759 0
M  V30 15 C 1.470461 0.448072 0.751678 0
M  V30 16 N 0.263897 0.308820 1.462672 0
M  V30 17 C -1.024461 0.820238 1.652278 0
M  V30 18 O -1.380404 1.872773 1.010118 0
M  V30 19 N -1.942323 0.203705 2.532953 0
M  V30 20 C -3.218790 0.798199 2.703384 0
M  V30 21 C -3.524687 1.329261 3.964854 0
M  V30 22 C -4.821295 1.832334 3.781787 0
M  V30 23 C -5.714570 2.497549 4.788116 0
M  V30 24 C -6.552183 1.389300 5.455189 0
M  V30 25 C -6.588873 3.515432 4.122150 0
M  V30 26 C -4.929979 3.132058 5.910386 0
M  V30 27 N -5.200593 1.600323 2.527505 0
M  V30 28 N -4.263774 0.976146 1.833271 0
M  V30 29 C -4.055908 0.498003 0.509981 0
M  V30 30 C -3.550586 -0.736395 0.177669 0
M  V30 31 C -3.398296 -1.045324 -1.179952 0
M  V30 32 C -3.753993 -0.123303 -2.155683 0
M  V30 33 C -3.612502 -0.379203 -3.626179 0
M  V30 34 C -4.270224 1.140981 -1.819462 0
M  V30 35 C -4.423538 1.450265 -0.461622 0
M  V30 36 C 2.593492 1.231297 0.933801 0
M  V30 37 C 2.479987 2.003826 2.051297 0
M  V30 38 C 3.572571 2.846407 2.324701 0
M  V30 39 C 4.638113 2.819345 1.462633 0
M  V30 40 C 4.671285 2.007564 0.357229 0
M  V30 41 C 3.627063 1.136149 0.007750 0
M  V30 42 C 6.541344 -1.935830 -2.273379 0
M  V30 43 C 7.065367 -3.199669 -1.976931 0
M  V30 44 N 6.284576 -4.273417 -2.239881 0
M  V30 45 H 1.946216 -9.753236 -3.386005 0
M  V30 46 H 0.642773 -8.694576 -4.125446 0
M  V30 47 H 0.762115 -8.932504 -2.308652 0
M  V30 48 H 4.004302 -7.971982 -4.738190 0
M  V30 49 H 2.762818 -6.821361 -5.423984 0
M  V30 50 H 3.594792 -5.590773 -2.286293 0
M  V30 51 H 3.578278 -2.598007 -3.492093 0
M  V30 52 H 5.983408 0.207610 -3.459049 0
M  V30 53 H 4.236866 -0.140657 -3.690059 0
M  V30 54 H 2.482335 -1.097501 -2.119160 0
M  V30 55 H 0.615804 -1.093602 -0.647370 0
M  V30 56 H 0.492669 -0.519545 2.099330 0
M  V30 57 H -1.692052 -0.649762 3.066955 0
M  V30 58 H -2.955892 1.376040 4.878884 0
M  V30 59 H -6.864382 1.788706 6.434783 0
M  V30 60 H -5.812421 0.562362 5.653988 0
M  V30 61 H -7.369246 1.036561 4.805496 0
M  V30 62 H -5.930071 4.278156 3.661825 0
M  V30 63 H -7.138058 3.036849 3.262607 0
M  V30 64 H -7.283012 4.010009 4.816153 0
M  V30 65 H -4.216630 2.337663 6.273469 0
M  V30 66 H -5.623051 3.307469 6.763010 0
M  V30 67 H -4.371284 4.020110 5.607195 0
M  V30 68 H -3.285894 -1.427130 0.956183 0
M  V30 69 H -2.998218 -2.012266 -1.489471 0
M  V30 70 H -4.613995 -0.618765 -4.044268 0
M  V30 71 H -3.111241 0.462164 -4.121464 0
M  V30 72 H -2.975341 -1.279242 -3.784978 0
M  V30 73 H -4.544714 1.862575 -2.563013 0
M  V30 74 H -4.826939 2.441350 -0.239838 0
M  V30 75 H 1.657003 2.021892 2.713569 0
M  V30 76 H 3.572674 3.488477 3.171934 0
M  V30 77 H 5.524457 3.454233 1.620047 0
M  V30 78 H 5.535154 2.002001 -0.321096 0
M  V30 79 H 7.303565 -1.204038 -1.995765 0
M  V30 80 H 8.025937 -3.432467 -1.557446 0
M  V30 END ATOM
M  V30 BEGIN BOND
M  V30 1 1 1 2
M  V30 2 1 2 3
M  V30 3 1 3 4
M  V30 4 2 4 5
M  V30 5 1 4 6
M  V30 6 1 6 7
M  V30 7 2 7 8
M  V30 8 1 8 9
M  V30 9 1 9 10
M  V30 10 1 10 11
M  V30 11 1 11 12
M  V30 12 2 12 13
M  V30 13 1 13 14
M  V30 14 2 14 15
M  V30 15 1 15 16
M  V30 16 1 16 17
M  V30 17 2 17 18
M  V30 18 1 17 19
M  V30 19 1 19 20
M  V30 20 2 20 21
M  V30 21 1 21 22
M  V30 22 1 22 23
M  V30 23 1 23 24
M  V30 24 1 23 25
M  V30 25 1 23 26
M  V30 26 2 22 27
M  V30 27 1 27 28
M  V30 28 1 28 29
M  V30 29 2 29 30
M  V30 30 1 30 31
M  V30 31 2 31 32
M  V30 32 1 32 33
M  V30 33 1 32 34
M  V30 34 2 34 35
M  V30 35 1 15 36
M  V30 36 2 36 37
M  V30 37 1 37 38
M  V30 38 2 38 39
M  V30 39 1 39 40
M  V30 40 2 40 41
M  V30 41 2 9 42
M  V30 42 1 42 43
M  V30 43 2 43 44
M  V30 44 1 44 7
M  V30 45 1 41 12
M  V30 46 1 28 20
M  V30 47 1 35 29
M  V30 48 1 41 36
M  V30 49 1 1 45
M  V30 50 1 1 46
M  V30 51 1 1 47
M  V30 52 1 3 48
M  V30 53 1 3 49
M  V30 54 1 6 50
M  V30 55 1 8 51
M  V30 56 1 10 52
M  V30 57 1 10 53
M  V30 58 1 13 54
M  V30 59 1 14 55
M  V30 60 1 16 56
M  V30 61 1 19 57
M  V30 62 1 21 58
M  V30 63 1 24 59
M  V30 64 1 24 60
M  V30 65 1 24 61
M  V30 66 1 25 62
M  V30 67 1 25 63
M  V30 68 1 25 64
M  V30 69 1 26 65
M  V30 70 1 26 66
M  V30 71 1 26 67
M  V30 72 1 30 68
M  V30 73 1 31 69
M  V30 74 1 33 70
M  V30 75 1 33 71
M  V30 76 1 33 72
M  V30 77 1 34 73
M  V30 78 1 35 74
M  V30 79 1 37 75
M  V30 80 1 38 76
M  V30 81 1 39 77
M  V30 82 1 40 78
M  V30 83 1 42 79
M  V30 84 1 43 80
M  V30 END BOND
M  V30 END CTAB
M  END
>  <Dataset>  (466) 
ChEMBL_Kinases

>  <Ligand_Instance>  (466) 
nan

>  <PDB_ID>  (466) 
nan

>  <Standardized_SMILES>  (466) 
CSCC(=O)Nc1cc(COc2ccc(NC(=O)Nc3cc(C(C)(C)C)nn3-c3ccc(C)cc3)c3ccccc23)ccn1

>  <Name>  (466) 
nan

>  <Pocket>  (466) 
nan

>  <ATP_Site>  (466) 
nan

>  <Peripheral>  (466) 
nan

>  <Num_H_Atoms_ProtBoundConf>  (466) 
nan

>  <Num_Resolved_Atoms>  (466) 
nan

>  <Num_Not_Resolved_Atoms>  (466) 
nan

$$$$
CHEMBL3356461
     RDKit          3D

  0  0  0  0  0  0  0  0  0  0999 V3000
M  V30 BEGIN CTAB
M  V30 COUNTS 38 41 0 0 0
M  V30 BEGIN ATOM
M  V30 1 C 0.903118 -3.237005 2.536952 0
M  V30 2 C -0.314371 -3.182912 1.639407 0
M  V30 3 C -0.820530 -4.578895 1.545586 0
M  V30 4 O -1.581275 -4.959596 2.470399 0
M  V30 5 N -0.527827 -5.515742 0.517475 0
M  V30 6 N 0.057269 -5.019823 -0.647173 0
M  V30 7 C 0.292407 -3.755798 -0.714857 0
M  V30 8 C 0.910569 -3.395442 -2.007173 0
M  V30 9 O 0.652949 -2.033657 -2.295563 0
M  V30 10 C 0.398903 -1.052316 -1.374083 0
M  V30 11 C 0.464603 0.273998 -1.749638 0
M  V30 12 C 0.201221 1.229223 -0.788187 0
M  V30 13 C -0.122080 0.938037 0.519128 0
M  V30 14 N -0.391881 1.917176 1.509499 0
M  V30 15 C -0.370958 3.330961 1.326353 0
M  V30 16 C 0.904031 3.977091 0.893015 0
M  V30 17 N 0.588193 5.097471 1.793675 0
M  V30 18 C -0.182856 4.153341 2.580635 0
M  V30 19 C -0.173025 -0.402393 0.837140 0
M  V30 20 C 0.079691 -1.403649 -0.078283 0
M  V30 21 N 0.018218 -2.786608 0.286228 0
M  V30 22 H 0.511948 -3.251530 3.571627 0
M  V30 23 H 1.629769 -2.429156 2.348100 0
M  V30 24 H 1.433340 -4.197761 2.376915 0
M  V30 25 H -1.120713 -2.549855 2.077619 0
M  V30 26 H -0.762945 -6.530883 0.678754 0
M  V30 27 H 2.032247 -3.493786 -1.916931 0
M  V30 28 H 0.560994 -3.992211 -2.865195 0
M  V30 29 H 0.718157 0.556917 -2.779570 0
M  V30 30 H 0.257984 2.241707 -1.104920 0
M  V30 31 H -0.631866 1.611968 2.473628 0
M  V30 32 H -1.283043 3.687856 0.811479 0
M  V30 33 H 1.788320 3.457255 1.295307 0
M  V30 34 H 0.977772 4.315721 -0.160891 0
M  V30 35 H 1.417859 5.508787 2.274163 0
M  V30 36 H 0.474574 3.706634 3.345114 0
M  V30 37 H -1.091618 4.596207 2.998748 0
M  V30 38 H -0.424429 -0.652467 1.857698 0
M  V30 END ATOM
M  V30 BEGIN BOND
M  V30 1 1 1 2
M  V30 2 1 2 3
M  V30 3 2 3 4
M  V30 4 1 3 5
M  V30 5 1 5 6
M  V30 6 2 6 7
M  V30 7 1 7 8
M  V30 8 1 8 9
M  V30 9 1 9 10
M  V30 10 2 10 11
M  V30 11 1 11 12
M  V30 12 2 12 13
M  V30 13 1 13 14
M  V30 14 1 14 15
M  V30 15 1 15 16
M  V30 16 1 16 17
M  V30 17 1 17 18
M  V30 18 1 13 19
M  V30 19 2 19 20
M  V30 20 1 20 21
M  V30 21 1 21 2
M  V30 22 1 21 7
M  V30 23 1 20 10
M  V30 24 1 18 15
M  V30 25 1 1 22
M  V30 26 1 1 23
M  V30 27 1 1 24
M  V30 28 1 2 25
M  V30 29 1 5 26
M  V30 30 1 8 27
M  V30 31 1 8 28
M  V30 32 1 11 29
M  V30 33 1 12 30
M  V30 34 1 14 31
M  V30 35 1 15 32
M  V30 36 1 16 33
M  V30 37 1 16 34
M  V30 38 1 17 35
M  V30 39 1 18 36
M  V30 40 1 18 37
M  V30 41 1 19 38
M  V30 END BOND
M  V30 END CTAB
M  END
>  <Dataset>  (467) 
ChEMBL_Kinases

>  <Ligand_Instance>  (467) 
nan

>  <PDB_ID>  (467) 
nan

>  <Standardized_SMILES>  (467) 
CC1C(=O)NN=C2COc3ccc(NC4CNC4)cc3N21

>  <Name>  (467) 
nan

>  <Pocket>  (467) 
nan

>  <ATP_Site>  (467) 
nan

>  <Peripheral>  (467) 
nan

>  <Num_H_Atoms_ProtBoundConf>  (467) 
nan

>  <Num_Resolved_Atoms>  (467) 
nan

>  <Num_Not_Resolved_Atoms>  (467) 
nan

$$$$
CHEMBL3356464
     RDKit          3D

  0  0  0  0  0  0  0  0  0  0999 V3000
M  V30 BEGIN CTAB
M  V30 COUNTS 41 44 0 0 0
M  V30 BEGIN ATOM
M  V30 1 C 0.370034 -4.574003 1.287282 0
M  V30 2 C 0.439467 -3.120373 1.594663 0
M  V30 3 C 0.673566 -2.637770 2.876309 0
M  V30 4 C 0.725265 -1.274327 3.089499 0
M  V30 5 C 0.551335 -0.355248 2.066279 0
M  V30 6 C 0.319944 -0.854325 0.800700 0
M  V30 7 C 0.261420 -2.229301 0.549992 0
M  V30 8 N 0.016546 -2.640055 -0.795895 0
M  V30 9 C -0.166326 -1.709193 -1.869811 0
M  V30 10 C -0.414374 -2.298601 -3.223406 0
M  V30 11 N 0.659243 -1.486138 -3.799963 0
M  V30 12 C 1.045979 -1.062990 -2.452221 0
M  V30 13 N 0.610359 1.049757 2.318069 0
M  V30 14 C 0.856497 1.454439 3.671327 0
M  V30 15 N 1.111247 2.685987 3.964690 0
M  V30 16 N 1.160041 3.680752 2.986941 0
M  V30 17 C 0.916351 3.285333 1.639979 0
M  V30 18 O 1.154102 4.181802 0.762578 0
M  V30 19 C 0.422759 1.946616 1.219656 0
M  V30 20 C -1.074539 1.993243 0.952161 0
M  V30 21 C 0.833854 0.486503 4.814854 0
M  V30 22 O 0.961469 -0.834825 4.385255 0
M  V30 23 H 0.943819 -4.793738 0.367376 0
M  V30 24 H 0.665984 -5.191068 2.141887 0
M  V30 25 H -0.716669 -4.793263 1.112884 0
M  V30 26 H 0.806264 -3.345787 3.657229 0
M  V30 27 H 0.177632 -0.165782 -0.033060 0
M  V30 28 H -0.035044 -3.655837 -1.027861 0
M  V30 29 H -0.986121 -0.987317 -1.586317 0
M  V30 30 H -0.141514 -3.382080 -3.323692 0
M  V30 31 H -1.366062 -2.029798 -3.714066 0
M  V30 32 H 0.345297 -0.713482 -4.414933 0
M  V30 33 H 1.046366 0.056828 -2.327707 0
M  V30 34 H 2.015780 -1.526756 -2.199504 0
M  V30 35 H 1.366710 4.678360 3.226960 0
M  V30 36 H 0.912019 1.719718 0.282209 0
M  V30 37 H -1.583415 1.057730 1.304610 0
M  V30 38 H -1.569978 2.836126 1.484104 0
M  V30 39 H -1.296096 2.034544 -0.132553 0
M  V30 40 H -0.115244 0.631062 5.394978 0
M  V30 41 H 1.648868 0.787209 5.503603 0
M  V30 END ATOM
M  V30 BEGIN BOND
M  V30 1 1 1 2
M  V30 2 2 2 3
M  V30 3 1 3 4
M  V30 4 2 4 5
M  V30 5 1 5 6
M  V30 6 2 6 7
M  V30 7 1 7 8
M  V30 8 1 8 9
M  V30 9 1 9 10
M  V30 10 1 10 11
M  V30 11 1 11 12
M  V30 12 1 5 13
M  V30 13 1 13 14
M  V30 14 2 14 15
M  V30 15 1 15 16
M  V30 16 1 16 17
M  V30 17 2 17 18
M  V30 18 1 17 19
M  V30 19 1 19 20
M  V30 20 1 14 21
M  V30 21 1 21 22
M  V30 22 1 7 2
M  V30 23 1 12 9
M  V30 24 1 19 13
M  V30 25 1 22 4
M  V30 26 1 1 23
M  V30 27 1 1 24
M  V30 28 1 1 25
M  V30 29 1 3 26
M  V30 30 1 6 27
M  V30 31 1 8 28
M  V30 32 1 9 29
M  V30 33 1 10 30
M  V30 34 1 10 31
M  V30 35 1 11 32
M  V30 36 1 12 33
M  V30 37 1 12 34
M  V30 38 1 16 35
M  V30 39 1 19 36
M  V30 40 1 20 37
M  V30 41 1 20 38
M  V30 42 1 20 39
M  V30 43 1 21 40
M  V30 44 1 21 41
M  V30 END BOND
M  V30 END CTAB
M  END
>  <Dataset>  (468) 
ChEMBL_Kinases

>  <Ligand_Instance>  (468) 
nan

>  <PDB_ID>  (468) 
nan

>  <Standardized_SMILES>  (468) 
Cc1cc2c(cc1NC1CNC1)N1C(=NNC(=O)C1C)CO2

>  <Name>  (468) 
nan

>  <Pocket>  (468) 
nan

>  <ATP_Site>  (468) 
nan

>  <Peripheral>  (468) 
nan

>  <Num_H_Atoms_ProtBoundConf>  (468) 
nan

>  <Num_Resolved_Atoms>  (468) 
nan

>  <Num_Not_Resolved_Atoms>  (468) 
nan

$$$$
CHEMBL3356465
     RDKit          3D

  0  0  0  0  0  0  0  0  0  0999 V3000
M  V30 BEGIN CTAB
M  V30 COUNTS 38 41 0 0 0
M  V30 BEGIN ATOM
M  V30 1 C -0.847337 -2.854974 2.912244 0
M  V30 2 C 0.565593 -2.675404 2.419289 0
M  V30 3 C 1.407055 -3.620296 3.243442 0
M  V30 4 O 1.512152 -4.829319 2.908007 0
M  V30 5 N 2.100107 -3.190431 4.407623 0
M  V30 6 N 2.202877 -1.815009 4.656423 0
M  V30 7 C 1.688926 -0.935775 3.862743 0
M  V30 8 C 1.880662 0.492733 4.260868 0
M  V30 9 O 1.769818 1.359707 3.153942 0
M  V30 10 C 1.082355 1.018209 2.000392 0
M  V30 11 C 0.796078 2.017059 1.093019 0
M  V30 12 C 0.112372 1.674827 -0.053330 0
M  V30 13 F -0.151239 2.689986 -0.901817 0
M  V30 14 C -0.309905 0.404201 -0.365752 0
M  V30 15 N -1.003796 0.047201 -1.547665 0
M  V30 16 C -1.371125 0.891438 -2.638380 0
M  V30 17 C -0.285254 1.502335 -3.448631 0
M  V30 18 N -0.436662 0.404857 -4.414683 0
M  V30 19 C -1.779357 0.226209 -3.911057 0
M  V30 20 C 0.001522 -0.549408 0.572114 0
M  V30 21 C 0.678554 -0.274146 1.731519 0
M  V30 22 N 0.979646 -1.297423 2.675886 0
M  V30 23 H -1.603723 -2.877739 2.095656 0
M  V30 24 H -1.146403 -2.043959 3.622180 0
M  V30 25 H -0.989642 -3.805691 3.500483 0
M  V30 26 H 0.742791 -3.014002 1.396798 0
M  V30 27 H 2.538824 -3.864845 5.089536 0
M  V30 28 H 2.874980 0.679938 4.725611 0
M  V30 29 H 1.105204 0.767212 5.015789 0
M  V30 30 H 1.104116 3.023169 1.290695 0
M  V30 31 H -1.299340 -0.944159 -1.671932 0
M  V30 32 H -2.115941 1.685843 -2.378494 0
M  V30 33 H -0.484295 2.471939 -3.916046 0
M  V30 34 H 0.755846 1.445728 -3.070470 0
M  V30 35 H 0.220077 -0.386033 -4.281650 0
M  V30 36 H -2.518185 0.793568 -4.512597 0
M  V30 37 H -2.005731 -0.865908 -3.838809 0
M  V30 38 H -0.296899 -1.572772 0.399237 0
M  V30 END ATOM
M  V30 BEGIN BOND
M  V30 1 1 1 2
M  V30 2 1 2 3
M  V30 3 2 3 4
M  V30 4 1 3 5
M  V30 5 1 5 6
M  V30 6 2 6 7
M  V30 7 1 7 8
M  V30 8 1 8 9
M  V30 9 1 9 10
M  V30 10 2 10 11
M  V30 11 1 11 12
M  V30 12 1 12 13
M  V30 13 2 12 14
M  V30 14 1 14 15
M  V30 15 1 15 16
M  V30 16 1 16 17
M  V30 17 1 17 18
M  V30 18 1 18 19
M  V30 19 1 14 20
M  V30 20 2 20 21
M  V30 21 1 21 22
M  V30 22 1 22 2
M  V30 23 1 22 7
M  V30 24 1 21 10
M  V30 25 1 19 16
M  V30 26 1 1 23
M  V30 27 1 1 24
M  V30 28 1 1 25
M  V30 29 1 2 26
M  V30 30 1 5 27
M  V30 31 1 8 28
M  V30 32 1 8 29
M  V30 33 1 11 30
M  V30 34 1 15 31
M  V30 35 1 16 32
M  V30 36 1 17 33
M  V30 37 1 17 34
M  V30 38 1 18 35
M  V30 39 1 19 36
M  V30 40 1 19 37
M  V30 41 1 20 38
M  V30 END BOND
M  V30 END CTAB
M  END
>  <Dataset>  (469) 
ChEMBL_Kinases

>  <Ligand_Instance>  (469) 
nan

>  <PDB_ID>  (469) 
nan

>  <Standardized_SMILES>  (469) 
CC1C(=O)NN=C2COc3cc(F)c(NC4CNC4)cc3N21

>  <Name>  (469) 
nan

>  <Pocket>  (469) 
nan

>  <ATP_Site>  (469) 
nan

>  <Peripheral>  (469) 
nan

>  <Num_H_Atoms_ProtBoundConf>  (469) 
nan

>  <Num_Resolved_Atoms>  (469) 
nan

>  <Num_Not_Resolved_Atoms>  (469) 
nan

$$$$
CHEMBL4105629
     RDKit          3D

  0  0  0  0  0  0  0  0  0  0999 V3000
M  V30 BEGIN CTAB
M  V30 COUNTS 37 40 0 0 0
M  V30 BEGIN ATOM
M  V30 1 C -0.558038 -1.779123 5.804130 0
M  V30 2 C -0.476127 -1.077581 4.610410 0
M  V30 3 C 0.028752 -1.659670 3.463668 0
M  V30 4 C 0.108333 -0.908250 2.215532 0
M  V30 5 C -0.262121 -1.362798 0.955750 0
M  V30 6 N -0.045248 -0.385075 0.040144 0
M  V30 7 C -0.258087 -0.340083 -1.394961 0
M  V30 8 C 0.955394 -0.803975 -2.144761 0
M  V30 9 C 0.766330 -0.769180 -3.642533 0
M  V30 10 C -0.283504 -1.548182 -4.319181 0
M  V30 11 C -0.319294 -0.012499 -4.285033 0
M  V30 12 C 0.461922 0.702445 0.684123 0
M  V30 13 C 0.868185 1.972499 0.273342 0
M  V30 14 N 1.346437 2.880691 1.153179 0
M  V30 15 C 1.452484 2.596560 2.476104 0
M  V30 16 C 1.050919 1.341113 2.882329 0
M  V30 17 C 0.557028 0.382136 2.022722 0
M  V30 18 C 0.467022 -2.973200 3.491407 0
M  V30 19 C 0.358143 -3.626189 4.724280 0
M  V30 20 N -0.135341 -3.051576 5.837974 0
M  V30 21 H -0.955639 -1.340078 6.731721 0
M  V30 22 H -0.828933 -0.055206 4.632404 0
M  V30 23 H -0.661828 -2.319437 0.679487 0
M  V30 24 H -0.630259 0.639527 -1.688149 0
M  V30 25 H -1.077364 -1.073207 -1.625763 0
M  V30 26 H 1.157495 -1.853194 -1.824655 0
M  V30 27 H 1.817249 -0.155459 -1.892141 0
M  V30 28 H 1.751755 -0.752401 -4.186569 0
M  V30 29 H -0.086986 -1.974315 -5.332676 0
M  V30 30 H -1.011317 -2.112169 -3.710556 0
M  V30 31 H -1.187868 0.399420 -3.750670 0
M  V30 32 H -0.102187 0.531593 -5.234197 0
M  V30 33 H 0.796083 2.226120 -0.766534 0
M  V30 34 H 1.836606 3.325641 3.183606 0
M  V30 35 H 1.139894 1.127150 3.935510 0
M  V30 36 H 0.871886 -3.489087 2.633984 0
M  V30 37 H 0.685875 -4.659386 4.809544 0
M  V30 END ATOM
M  V30 BEGIN BOND
M  V30 1 2 1 2
M  V30 2 1 2 3
M  V30 3 1 3 4
M  V30 4 2 4 5
M  V30 5 1 5 6
M  V30 6 1 6 7
M  V30 7 1 7 8
M  V30 8 1 8 9
M  V30 9 1 9 10
M  V30 10 1 10 11
M  V30 11 1 6 12
M  V30 12 2 12 13
M  V30 13 1 13 14
M  V30 14 2 14 15
M  V30 15 1 15 16
M  V30 16 2 16 17
M  V30 17 2 3 18
M  V30 18 1 18 19
M  V30 19 2 19 20
M  V30 20 1 20 1
M  V30 21 1 17 4
M  V30 22 1 11 9
M  V30 23 1 17 12
M  V30 24 1 1 21
M  V30 25 1 2 22
M  V30 26 1 5 23
M  V30 27 1 7 24
M  V30 28 1 7 25
M  V30 29 1 8 26
M  V30 30 1 8 27
M  V30 31 1 9 28
M  V30 32 1 10 29
M  V30 33 1 10 30
M  V30 34 1 11 31
M  V30 35 1 11 32
M  V30 36 1 13 33
M  V30 37 1 15 34
M  V30 38 1 16 35
M  V30 39 1 18 36
M  V30 40 1 19 37
M  V30 END BOND
M  V30 END CTAB
M  END
>  <Dataset>  (470) 
ChEMBL_Kinases

>  <Ligand_Instance>  (470) 
nan

>  <PDB_ID>  (470) 
nan

>  <Standardized_SMILES>  (470) 
c1cc(-c2cn(CCC3CC3)c3cnccc23)ccn1

>  <Name>  (470) 
nan

>  <Pocket>  (470) 
nan

>  <ATP_Site>  (470) 
nan

>  <Peripheral>  (470) 
nan

>  <Num_H_Atoms_ProtBoundConf>  (470) 
nan

>  <Num_Resolved_Atoms>  (470) 
nan

>  <Num_Not_Resolved_Atoms>  (470) 
nan

$$$$
CHEMBL3672021
     RDKit          3D

  0  0  0  0  0  0  0  0  0  0999 V3000
M  V30 BEGIN CTAB
M  V30 COUNTS 70 76 0 0 0
M  V30 BEGIN ATOM
M  V30 1 C 2.851087 -6.688806 2.567848 0
M  V30 2 C 2.915924 -5.222408 2.363144 0
M  V30 3 N 1.882366 -4.541997 1.820606 0
M  V30 4 C 2.238006 -3.246937 1.765704 0
M  V30 5 N 1.635191 -2.149043 1.338344 0
M  V30 6 C 2.198648 -0.906243 1.378935 0
M  V30 7 C 1.412107 0.168057 0.877185 0
M  V30 8 C 0.961277 1.253513 1.603511 0
M  V30 9 C 0.200358 2.257712 1.042643 0
M  V30 10 C -0.159721 2.236985 -0.293125 0
M  V30 11 C -0.955089 3.203517 -1.053536 0
M  V30 12 N -2.351928 2.991150 -1.099488 0
M  V30 13 C -3.056437 2.982567 0.119929 0
M  V30 14 C -3.665335 1.666080 0.495165 0
M  V30 15 C -4.494450 1.136325 -0.627257 0
M  V30 16 C -4.247407 -0.341300 -0.731263 0
M  V30 17 N -5.187792 -1.298693 -0.666080 0
M  V30 18 C -4.551070 -2.477148 -0.798908 0
M  V30 19 C -5.025168 -3.781155 -0.806150 0
M  V30 20 C -4.179960 -4.871856 -0.959713 0
M  V30 21 C -2.833174 -4.655180 -1.109054 0
M  V30 22 C -1.788004 -5.710569 -1.285087 0
M  V30 23 F -1.417709 -6.095680 -0.001934 0
M  V30 24 F -0.720234 -5.232029 -2.006749 0
M  V30 25 F -2.328637 -6.787568 -1.939968 0
M  V30 26 C -2.342560 -3.346875 -1.103479 0
M  V30 27 C -3.198090 -2.274588 -0.949621 0
M  V30 28 N -3.061927 -0.941542 -0.901065 0
M  V30 29 C -4.293034 1.836777 -1.926371 0
M  V30 30 C -2.866624 2.244932 -2.183745 0
M  V30 31 C 0.289896 1.142710 -1.042987 0
M  V30 32 C 1.057062 0.133182 -0.471219 0
M  V30 33 C 3.473302 -0.828223 1.903160 0
M  V30 34 C 4.062378 0.515307 1.938614 0
M  V30 35 C 4.247781 1.117576 0.696263 0
M  V30 36 C 4.802530 2.392135 0.662476 0
M  V30 37 C 5.175802 3.082940 1.805171 0
M  V30 38 C 4.972540 2.442104 3.030445 0
M  V30 39 C 4.431095 1.195063 3.085135 0
M  V30 40 C 4.139244 -1.949597 2.360866 0
M  V30 41 N 3.494833 -3.122602 2.275127 0
M  V30 42 N 3.898642 -4.340220 2.637449 0
M  V30 43 H 3.532240 -7.028442 3.368980 0
M  V30 44 H 1.807132 -6.982952 2.880532 0
M  V30 45 H 3.040649 -7.228973 1.595005 0
M  V30 46 H 1.218056 1.302946 2.631418 0
M  V30 47 H -0.167047 3.118304 1.579391 0
M  V30 48 H -0.797269 4.200788 -0.546845 0
M  V30 49 H -0.539438 3.328240 -2.066924 0
M  V30 50 H -3.929765 3.689916 0.000191 0
M  V30 51 H -2.449458 3.420974 0.915706 0
M  V30 52 H -2.947551 0.915331 0.875089 0
M  V30 53 H -4.367300 1.892178 1.350043 0
M  V30 54 H -5.600991 1.207101 -0.407378 0
M  V30 55 H -6.088009 -3.978456 -0.689610 0
M  V30 56 H -4.510070 -5.903006 -0.970965 0
M  V30 57 H -1.285135 -3.123590 -1.218047 0
M  V30 58 H -2.105177 -0.508481 -0.992291 0
M  V30 59 H -4.595378 1.160280 -2.754556 0
M  V30 60 H -4.987392 2.704235 -1.979182 0
M  V30 61 H -2.280515 1.346386 -2.482783 0
M  V30 62 H -2.928201 2.959292 -3.061562 0
M  V30 63 H 0.067181 1.023782 -2.100046 0
M  V30 64 H 1.391032 -0.710353 -1.095475 0
M  V30 65 H 3.987757 0.659272 -0.255805 0
M  V30 66 H 4.966659 2.903611 -0.285066 0
M  V30 67 H 5.607381 4.076066 1.765147 0
M  V30 68 H 5.241183 2.921396 3.975881 0
M  V30 69 H 4.260259 0.671182 4.014831 0
M  V30 70 H 5.125221 -1.859726 2.761910 0
M  V30 END ATOM
M  V30 BEGIN BOND
M  V30 1 1 1 2
M  V30 2 1 2 3
M  V30 3 2 3 4
M  V30 4 1 4 5
M  V30 5 2 5 6
M  V30 6 1 6 7
M  V30 7 2 7 8
M  V30 8 1 8 9
M  V30 9 2 9 10
M  V30 10 1 10 11
M  V30 11 1 11 12
M  V30 12 1 12 13
M  V30 13 1 13 14
M  V30 14 1 14 15
M  V30 15 1 15 16
M  V30 16 2 16 17
M  V30 17 1 17 18
M  V30 18 2 18 19
M  V30 19 1 19 20
M  V30 20 2 20 21
M  V30 21 1 21 22
M  V30 22 1 22 23
M  V30 23 1 22 24
M  V30 24 1 22 25
M  V30 25 1 21 26
M  V30 26 2 26 27
M  V30 27 1 27 28
M  V30 28 1 15 29
M  V30 29 1 29 30
M  V30 30 1 10 31
M  V30 31 2 31 32
M  V30 32 1 6 33
M  V30 33 1 33 34
M  V30 34 2 34 35
M  V30 35 1 35 36
M  V30 36 2 36 37
M  V30 37 1 37 38
M  V30 38 2 38 39
M  V30 39 2 33 40
M  V30 40 1 40 41
M  V30 41 1 41 42
M  V30 42 2 42 2
M  V30 43 1 41 4
M  V30 44 1 32 7
M  V30 45 1 39 34
M  V30 46 1 30 12
M  V30 47 1 28 16
M  V30 48 1 27 18
M  V30 49 1 1 43
M  V30 50 1 1 44
M  V30 51 1 1 45
M  V30 52 1 8 46
M  V30 53 1 9 47
M  V30 54 1 11 48
M  V30 55 1 11 49
M  V30 56 1 13 50
M  V30 57 1 13 51
M  V30 58 1 14 52
M  V30 59 1 14 53
M  V30 60 1 15 54
M  V30 61 1 19 55
M  V30 62 1 20 56
M  V30 63 1 26 57
M  V30 64 1 28 58
M  V30 65 1 29 59
M  V30 66 1 29 60
M  V30 67 1 30 61
M  V30 68 1 30 62
M  V30 69 1 31 63
M  V30 70 1 32 64
M  V30 71 1 35 65
M  V30 72 1 36 66
M  V30 73 1 37 67
M  V30 74 1 38 68
M  V30 75 1 39 69
M  V30 76 1 40 70
M  V30 END BOND
M  V30 END CTAB
M  END
>  <Dataset>  (471) 
ChEMBL_Kinases

>  <Ligand_Instance>  (471) 
nan

>  <PDB_ID>  (471) 
nan

>  <Standardized_SMILES>  (471) 
Cc1nc2nc(-c3ccc(CN4CCC(c5nc6ccc(C(F)(F)F)cc6[nH]5)CC4)cc3)c(-c3ccccc3)cn2n1

>  <Name>  (471) 
nan

>  <Pocket>  (471) 
nan

>  <ATP_Site>  (471) 
nan

>  <Peripheral>  (471) 
nan

>  <Num_H_Atoms_ProtBoundConf>  (471) 
nan

>  <Num_Resolved_Atoms>  (471) 
nan

>  <Num_Not_Resolved_Atoms>  (471) 
nan

$$$$
CHEMBL3672020
     RDKit          3D

  0  0  0  0  0  0  0  0  0  0999 V3000
M  V30 BEGIN CTAB
M  V30 COUNTS 68 74 0 0 0
M  V30 BEGIN ATOM
M  V30 1 C 2.414027 5.360448 7.654346 0
M  V30 2 C 2.377188 4.604265 6.393144 0
M  V30 3 N 1.404236 4.716666 5.440186 0
M  V30 4 C 1.766330 3.850439 4.466870 0
M  V30 5 N 1.253616 3.483304 3.277246 0
M  V30 6 C 1.811718 2.583134 2.476793 0
M  V30 7 C 1.353502 2.106369 1.187392 0
M  V30 8 C 1.990779 2.186092 -0.034273 0
M  V30 9 C 1.405681 1.664902 -1.170766 0
M  V30 10 C 0.164796 1.043117 -1.145623 0
M  V30 11 C -0.482896 0.465321 -2.351091 0
M  V30 12 N -0.161483 -0.898090 -2.560710 0
M  V30 13 C -0.770924 -1.450913 -3.725951 0
M  V30 14 C -1.677116 -2.625373 -3.408615 0
M  V30 15 C -2.378311 -2.385493 -2.091560 0
M  V30 16 C -3.419439 -3.447510 -1.872198 0
M  V30 17 N -4.732869 -3.161103 -1.756875 0
M  V30 18 C -5.452059 -4.293401 -1.559768 0
M  V30 19 C -6.792832 -4.549029 -1.381178 0
M  V30 20 C -7.146667 -5.867669 -1.202785 0
M  V30 21 C -6.288465 -6.960542 -1.184814 0
M  V30 22 C -6.728987 -8.306204 -0.993287 0
M  V30 23 N -7.100511 -9.397016 -0.852196 0
M  V30 24 C -4.945338 -6.612981 -1.372481 0
M  V30 25 C -4.520271 -5.313298 -1.557160 0
M  V30 26 N -3.284182 -4.777830 -1.749530 0
M  V30 27 C -1.364225 -2.408998 -0.998750 0
M  V30 28 C -0.101160 -1.749013 -1.437711 0
M  V30 29 C -0.477493 0.965960 0.099042 0
M  V30 30 C 0.105974 1.486776 1.238266 0
M  V30 31 C 3.006923 1.955937 2.857321 0
M  V30 32 C 3.732662 0.956573 2.082791 0
M  V30 33 C 5.025475 1.351055 1.739587 0
M  V30 34 C 5.804984 0.465407 0.995018 0
M  V30 35 C 5.304419 -0.763479 0.613804 0
M  V30 36 C 4.002743 -1.129497 0.974046 0
M  V30 37 C 3.206429 -0.263995 1.715748 0
M  V30 38 C 3.538774 2.339588 4.096200 0
M  V30 39 N 2.919962 3.258312 4.857676 0
M  V30 40 N 3.335093 3.701210 6.055486 0
M  V30 41 H 3.468875 5.543326 7.942982 0
M  V30 42 H 1.899302 6.339242 7.591808 0
M  V30 43 H 1.990215 4.732891 8.486907 0
M  V30 44 H 2.939677 2.672684 -0.006776 0
M  V30 45 H 1.928102 1.743628 -2.104707 0
M  V30 46 H -1.538780 0.724305 -2.324215 0
M  V30 47 H -0.066629 1.035617 -3.230143 0
M  V30 48 H 0.006666 -1.714498 -4.474658 0
M  V30 49 H -1.408721 -0.672547 -4.195158 0
M  V30 50 H -2.379846 -2.840733 -4.239243 0
M  V30 51 H -1.023756 -3.513152 -3.282056 0
M  V30 52 H -2.911856 -1.420191 -2.068422 0
M  V30 53 H -7.526066 -3.766804 -1.379929 0
M  V30 54 H -8.198220 -6.124403 -1.059092 0
M  V30 55 H -4.222286 -7.415368 -1.370550 0
M  V30 56 H -2.385995 -5.287037 -1.796148 0
M  V30 57 H -1.833023 -1.850279 -0.134851 0
M  V30 58 H -1.199754 -3.429404 -0.581844 0
M  V30 59 H 0.604301 -2.592111 -1.706555 0
M  V30 60 H 0.355622 -1.301281 -0.537421 0
M  V30 61 H -1.444974 0.489163 0.147405 0
M  V30 62 H -0.484235 1.370551 2.160604 0
M  V30 63 H 5.455715 2.309048 2.020877 0
M  V30 64 H 6.812801 0.794645 0.736748 0
M  V30 65 H 5.943832 -1.430224 0.031962 0
M  V30 66 H 3.625613 -2.106954 0.662699 0
M  V30 67 H 2.197914 -0.517639 2.008309 0
M  V30 68 H 4.478199 1.863216 4.422597 0
M  V30 END ATOM
M  V30 BEGIN BOND
M  V30 1 1 1 2
M  V30 2 1 2 3
M  V30 3 2 3 4
M  V30 4 1 4 5
M  V30 5 2 5 6
M  V30 6 1 6 7
M  V30 7 2 7 8
M  V30 8 1 8 9
M  V30 9 2 9 10
M  V30 10 1 10 11
M  V30 11 1 11 12
M  V30 12 1 12 13
M  V30 13 1 13 14
M  V30 14 1 14 15
M  V30 15 1 15 16
M  V30 16 2 16 17
M  V30 17 1 17 18
M  V30 18 2 18 19
M  V30 19 1 19 20
M  V30 20 2 20 21
M  V30 21 1 21 22
M  V30 22 3 22 23
M  V30 23 1 21 24
M  V30 24 2 24 25
M  V30 25 1 25 26
M  V30 26 1 15 27
M  V30 27 1 27 28
M  V30 28 1 10 29
M  V30 29 2 29 30
M  V30 30 1 6 31
M  V30 31 1 31 32
M  V30 32 2 32 33
M  V30 33 1 33 34
M  V30 34 2 34 35
M  V30 35 1 35 36
M  V30 36 2 36 37
M  V30 37 2 31 38
M  V30 38 1 38 39
M  V30 39 1 39 40
M  V30 40 2 40 2
M  V30 41 1 39 4
M  V30 42 1 30 7
M  V30 43 1 37 32
M  V30 44 1 28 12
M  V30 45 1 26 16
M  V30 46 1 25 18
M  V30 47 1 1 41
M  V30 48 1 1 42
M  V30 49 1 1 43
M  V30 50 1 8 44
M  V30 51 1 9 45
M  V30 52 1 11 46
M  V30 53 1 11 47
M  V30 54 1 13 48
M  V30 55 1 13 49
M  V30 56 1 14 50
M  V30 57 1 14 51
M  V30 58 1 15 52
M  V30 59 1 19 53
M  V30 60 1 20 54
M  V30 61 1 24 55
M  V30 62 1 26 56
M  V30 63 1 27 57
M  V30 64 1 27 58
M  V30 65 1 28 59
M  V30 66 1 28 60
M  V30 67 1 29 61
M  V30 68 1 30 62
M  V30 69 1 33 63
M  V30 70 1 34 64
M  V30 71 1 35 65
M  V30 72 1 36 66
M  V30 73 1 37 67
M  V30 74 1 38 68
M  V30 END BOND
M  V30 END CTAB
M  END
>  <Dataset>  (472) 
ChEMBL_Kinases

>  <Ligand_Instance>  (472) 
nan

>  <PDB_ID>  (472) 
nan

>  <Standardized_SMILES>  (472) 
Cc1nc2nc(-c3ccc(CN4CCC(c5nc6ccc(C#N)cc6[nH]5)CC4)cc3)c(-c3ccccc3)cn2n1

>  <Name>  (472) 
nan

>  <Pocket>  (472) 
nan

>  <ATP_Site>  (472) 
nan

>  <Peripheral>  (472) 
nan

>  <Num_H_Atoms_ProtBoundConf>  (472) 
nan

>  <Num_Resolved_Atoms>  (472) 
nan

>  <Num_Not_Resolved_Atoms>  (472) 
nan

$$$$
CHEMBL4125686
     RDKit          3D

  0  0  0  0  0  0  0  0  0  0999 V3000
M  V30 BEGIN CTAB
M  V30 COUNTS 41 44 0 0 0
M  V30 BEGIN ATOM
M  V30 1 O -2.562729 -3.652377 2.764535 0
M  V30 2 C -2.116267 -3.643949 1.614306 0
M  V30 3 O -2.750508 -4.644404 0.901862 0
M  V30 4 C -1.106703 -2.785803 1.004743 0
M  V30 5 C -0.833948 -3.006503 -0.350023 0
M  V30 6 C 0.071718 -2.282718 -1.089010 0
M  V30 7 C 0.741929 -1.281691 -0.434819 0
M  V30 8 C 1.703783 -0.512871 -1.220364 0
M  V30 9 C 2.611331 -1.131066 -2.080516 0
M  V30 10 N 3.389677 -0.232613 -2.691749 0
M  V30 11 C 3.017110 0.985984 -2.253229 0
M  V30 12 N 3.430554 2.250639 -2.508206 0
M  V30 13 C 2.871391 3.336966 -1.915814 0
M  V30 14 C 1.827479 3.150467 -1.005887 0
M  V30 15 C 1.346004 1.873362 -0.691631 0
M  V30 16 C 1.984615 0.842319 -1.349630 0
M  V30 17 C 0.480646 -1.054879 0.903797 0
M  V30 18 C -0.425487 -1.776790 1.650542 0
M  V30 19 C -0.665473 -1.516761 3.061380 0
M  V30 20 C -1.836109 -0.607585 3.330444 0
M  V30 21 C -1.216278 0.734648 3.109369 0
M  V30 22 C 0.033189 0.650639 3.946059 0
M  V30 23 C 0.480494 -0.776731 3.762720 0
M  V30 24 H -2.995941 -5.528800 1.327051 0
M  V30 25 H -1.362479 -3.799758 -0.876119 0
M  V30 26 H 0.234289 -2.505623 -2.131952 0
M  V30 27 H 2.711214 -2.205675 -2.264345 0
M  V30 28 H 4.147896 -0.438917 -3.382895 0
M  V30 29 H 3.239066 4.323516 -2.154788 0
M  V30 30 H 1.357950 4.016457 -0.512477 0
M  V30 31 H 0.544015 1.717223 0.006240 0
M  V30 32 H 1.074400 -0.238256 1.291536 0
M  V30 33 H -0.837754 -2.468244 3.603303 0
M  V30 34 H -2.117861 -0.667068 4.397990 0
M  V30 35 H -2.734649 -0.817604 2.737958 0
M  V30 36 H -1.877134 1.573196 3.424897 0
M  V30 37 H -0.885959 0.879260 2.047058 0
M  V30 38 H -0.288612 0.804668 4.997282 0
M  V30 39 H 0.808604 1.380357 3.637456 0
M  V30 40 H 0.651888 -1.264036 4.774730 0
M  V30 41 H 1.407484 -0.775029 3.173277 0
M  V30 END ATOM
M  V30 BEGIN BOND
M  V30 1 2 1 2
M  V30 2 1 2 3
M  V30 3 1 2 4
M  V30 4 2 4 5
M  V30 5 1 5 6
M  V30 6 2 6 7
M  V30 7 1 7 8
M  V30 8 2 8 9
M  V30 9 1 9 10
M  V30 10 1 10 11
M  V30 11 2 11 12
M  V30 12 1 12 13
M  V30 13 2 13 14
M  V30 14 1 14 15
M  V30 15 2 15 16
M  V30 16 1 7 17
M  V30 17 2 17 18
M  V30 18 1 18 19
M  V30 19 1 19 20
M  V30 20 1 20 21
M  V30 21 1 21 22
M  V30 22 1 22 23
M  V30 23 1 18 4
M  V30 24 1 23 19
M  V30 25 1 16 8
M  V30 26 1 16 11
M  V30 27 1 3 24
M  V30 28 1 5 25
M  V30 29 1 6 26
M  V30 30 1 9 27
M  V30 31 1 10 28
M  V30 32 1 13 29
M  V30 33 1 14 30
M  V30 34 1 15 31
M  V30 35 1 17 32
M  V30 36 1 19 33
M  V30 37 1 20 34
M  V30 38 1 20 35
M  V30 39 1 21 36
M  V30 40 1 21 37
M  V30 41 1 22 38
M  V30 42 1 22 39
M  V30 43 1 23 40
M  V30 44 1 23 41
M  V30 END BOND
M  V30 END CTAB
M  END
>  <Dataset>  (473) 
ChEMBL_Kinases

>  <Ligand_Instance>  (473) 
nan

>  <PDB_ID>  (473) 
nan

>  <Standardized_SMILES>  (473) 
O=C(O)c1ccc(-c2c[nH]c3ncccc23)cc1C1CCCC1

>  <Name>  (473) 
nan

>  <Pocket>  (473) 
nan

>  <ATP_Site>  (473) 
nan

>  <Peripheral>  (473) 
nan

>  <Num_H_Atoms_ProtBoundConf>  (473) 
nan

>  <Num_Resolved_Atoms>  (473) 
nan

>  <Num_Not_Resolved_Atoms>  (473) 
nan

$$$$
CHEMBL3672019
     RDKit          3D

  0  0  0  0  0  0  0  0  0  0999 V3000
M  V30 BEGIN CTAB
M  V30 COUNTS 65 71 0 0 0
M  V30 BEGIN ATOM
M  V30 1 N 6.143622 -0.737106 2.349949 0
M  V30 2 C 5.369615 0.245057 3.012087 0
M  V30 3 N 5.446516 0.530441 4.343535 0
M  V30 4 C 4.650335 1.495715 4.860544 0
M  V30 5 N 3.777675 2.192193 4.108209 0
M  V30 6 C 3.637533 1.978819 2.801047 0
M  V30 7 C 4.463286 0.981379 2.278233 0
M  V30 8 C 4.138212 0.945255 0.920087 0
M  V30 9 N 3.174301 1.881269 0.697794 0
M  V30 10 N 2.877001 2.502715 1.842875 0
M  V30 11 C 1.902459 3.537856 1.942125 0
M  V30 12 C 0.962064 3.528238 0.742909 0
M  V30 13 C 0.123864 2.266709 0.682858 0
M  V30 14 N -0.242788 1.786654 1.965351 0
M  V30 15 C 0.121074 0.458410 2.305000 0
M  V30 16 C -0.470012 -0.574505 1.423836 0
M  V30 17 C -1.731870 -1.020084 1.833982 0
M  V30 18 C -2.421621 -1.989236 1.122619 0
M  V30 19 C -1.874239 -2.547925 -0.024926 0
M  V30 20 C -2.670563 -3.545875 -0.690933 0
M  V30 21 N -2.971813 -4.656426 0.004078 0
M  V30 22 C -3.696962 -5.670257 -0.462839 0
M  V30 23 C -4.185548 -6.897375 -0.075367 0
M  V30 24 C -4.922447 -7.500342 -1.100200 0
M  V30 25 N -4.865291 -6.603971 -2.116389 0
M  V30 26 N -4.156059 -5.555140 -1.734429 0
M  V30 27 C -3.899778 -4.477053 -2.497649 0
M  V30 28 C -3.144617 -3.443894 -1.982325 0
M  V30 29 C -2.825072 -2.245031 -2.749398 0
M  V30 30 C -3.167288 -0.932094 -2.500093 0
M  V30 31 C -2.740641 0.031990 -3.386504 0
M  V30 32 C -1.990523 -0.259686 -4.505365 0
M  V30 33 C -1.641750 -1.590494 -4.761036 0
M  V30 34 C -2.068300 -2.570997 -3.871071 0
M  V30 35 C -0.640966 -2.103763 -0.414346 0
M  V30 36 C 0.055369 -1.140728 0.284178 0
M  V30 37 C -0.232497 2.750919 3.010655 0
M  V30 38 C 1.046489 3.494560 3.181488 0
M  V30 39 H 5.558987 -1.582406 2.606282 0
M  V30 40 H 7.004761 -0.437120 1.827222 0
M  V30 41 H 4.695263 1.737015 5.910937 0
M  V30 42 H 4.525314 0.330896 0.140556 0
M  V30 43 H 2.438321 4.519753 1.868933 0
M  V30 44 H 0.323442 4.457663 0.799333 0
M  V30 45 H 1.595296 3.561544 -0.163101 0
M  V30 46 H 0.587029 1.560895 -0.001757 0
M  V30 47 H -0.833936 2.590175 0.176281 0
M  V30 48 H 1.216166 0.271826 2.297100 0
M  V30 49 H -0.179976 0.287986 3.370769 0
M  V30 50 H -2.230376 -0.625345 2.731806 0
M  V30 51 H -3.403724 -2.304477 1.482272 0
M  V30 52 H -3.988295 -7.300190 0.926790 0
M  V30 53 H -5.401796 -8.474013 -1.016755 0
M  V30 54 H -4.248621 -4.352148 -3.512670 0
M  V30 55 H -3.749706 -0.807542 -1.608775 0
M  V30 56 H -3.047576 1.052300 -3.128005 0
M  V30 57 H -1.729952 0.597500 -5.106239 0
M  V30 58 H -1.053799 -1.768599 -5.649190 0
M  V30 59 H -1.738026 -3.543916 -4.177033 0
M  V30 60 H -0.208352 -2.533973 -1.306627 0
M  V30 61 H 1.031416 -0.773015 0.003517 0
M  V30 62 H -1.066429 3.477682 2.833120 0
M  V30 63 H -0.498488 2.255204 3.967724 0
M  V30 64 H 0.811696 4.550513 3.430561 0
M  V30 65 H 1.581526 3.097791 4.061169 0
M  V30 END ATOM
M  V30 BEGIN BOND
M  V30 1 1 1 2
M  V30 2 2 2 3
M  V30 3 1 3 4
M  V30 4 2 4 5
M  V30 5 1 5 6
M  V30 6 2 6 7
M  V30 7 1 7 8
M  V30 8 2 8 9
M  V30 9 1 9 10
M  V30 10 1 10 11
M  V30 11 1 11 12
M  V30 12 1 12 13
M  V30 13 1 13 14
M  V30 14 1 14 15
M  V30 15 1 15 16
M  V30 16 2 16 17
M  V30 17 1 17 18
M  V30 18 2 18 19
M  V30 19 1 19 20
M  V30 20 2 20 21
M  V30 21 1 21 22
M  V30 22 2 22 23
M  V30 23 1 23 24
M  V30 24 2 24 25
M  V30 25 1 25 26
M  V30 26 1 26 27
M  V30 27 2 27 28
M  V30 28 1 28 29
M  V30 29 2 29 30
M  V30 30 1 30 31
M  V30 31 2 31 32
M  V30 32 1 32 33
M  V30 33 2 33 34
M  V30 34 1 19 35
M  V30 35 2 35 36
M  V30 36 1 14 37
M  V30 37 1 37 38
M  V30 38 1 7 2
M  V30 39 1 38 11
M  V30 40 1 10 6
M  V30 41 1 36 16
M  V30 42 1 28 20
M  V30 43 1 34 29
M  V30 44 1 26 22
M  V30 45 1 1 39
M  V30 46 1 1 40
M  V30 47 1 4 41
M  V30 48 1 8 42
M  V30 49 1 11 43
M  V30 50 1 12 44
M  V30 51 1 12 45
M  V30 52 1 13 46
M  V30 53 1 13 47
M  V30 54 1 15 48
M  V30 55 1 15 49
M  V30 56 1 17 50
M  V30 57 1 18 51
M  V30 58 1 23 52
M  V30 59 1 24 53
M  V30 60 1 27 54
M  V30 61 1 30 55
M  V30 62 1 31 56
M  V30 63 1 32 57
M  V30 64 1 33 58
M  V30 65 1 34 59
M  V30 66 1 35 60
M  V30 67 1 36 61
M  V30 68 1 37 62
M  V30 69 1 37 63
M  V30 70 1 38 64
M  V30 71 1 38 65
M  V30 END BOND
M  V30 END CTAB
M  END
>  <Dataset>  (474) 
ChEMBL_Kinases

>  <Ligand_Instance>  (474) 
nan

>  <PDB_ID>  (474) 
nan

>  <Standardized_SMILES>  (474) 
Nc1ncnc2c1cnn2C1CCN(Cc2ccc(-c3nc4ccnn4cc3-c3ccccc3)cc2)CC1

>  <Name>  (474) 
nan

>  <Pocket>  (474) 
nan

>  <ATP_Site>  (474) 
nan

>  <Peripheral>  (474) 
nan

>  <Num_H_Atoms_ProtBoundConf>  (474) 
nan

>  <Num_Resolved_Atoms>  (474) 
nan

>  <Num_Not_Resolved_Atoms>  (474) 
nan

$$$$
CHEMBL3672018
     RDKit          3D

  0  0  0  0  0  0  0  0  0  0999 V3000
M  V30 BEGIN CTAB
M  V30 COUNTS 65 71 0 0 0
M  V30 BEGIN ATOM
M  V30 1 F 5.297780 -1.378613 6.440986 0
M  V30 2 C 4.383458 -1.133022 5.471094 0
M  V30 3 C 3.395335 -2.074390 5.247634 0
M  V30 4 C 2.443626 -1.864031 4.268660 0
M  V30 5 C 2.542058 -0.688833 3.551575 0
M  V30 6 N 1.739112 -0.242748 2.541946 0
M  V30 7 C 2.185846 0.950944 2.117896 0
M  V30 8 C 1.558941 1.749641 1.020600 0
M  V30 9 C 2.468460 1.993400 -0.138093 0
M  V30 10 C 1.548644 2.410339 -1.299379 0
M  V30 11 N 0.467119 3.176059 -0.817595 0
M  V30 12 C -0.799042 3.064921 -1.378920 0
M  V30 13 C -1.423567 1.705022 -1.323320 0
M  V30 14 C -2.187942 1.394718 -0.192696 0
M  V30 15 C -2.776009 0.127492 -0.130725 0
M  V30 16 C -2.602510 -0.795099 -1.167558 0
M  V30 17 C -3.317046 -2.025869 -0.847271 0
M  V30 18 N -4.654276 -2.095357 -0.650725 0
M  V30 19 C -5.263045 -3.264517 -0.354491 0
M  V30 20 C -6.585803 -3.613135 -0.108886 0
M  V30 21 C -6.655744 -4.973664 0.148170 0
M  V30 22 N -5.391089 -5.403757 0.052194 0
M  V30 23 N -4.564910 -4.429615 -0.238742 0
M  V30 24 C -3.223181 -4.402961 -0.428170 0
M  V30 25 C -2.588012 -3.198619 -0.734466 0
M  V30 26 C -1.143258 -3.210419 -0.931607 0
M  V30 27 C -0.157598 -2.565345 -0.214893 0
M  V30 28 C 1.162209 -2.710366 -0.569448 0
M  V30 29 C 1.498107 -3.511134 -1.654717 0
M  V30 30 C 0.534145 -4.167966 -2.389339 0
M  V30 31 C -0.797504 -4.015424 -2.023587 0
M  V30 32 C -1.850802 -0.448830 -2.247447 0
M  V30 33 C -1.266356 0.794500 -2.321584 0
M  V30 34 C 0.668433 3.929502 0.355438 0
M  V30 35 C 1.014711 3.040460 1.528827 0
M  V30 36 N 3.269303 1.295146 2.833489 0
M  V30 37 C 3.503696 0.294719 3.723084 0
M  V30 38 C 4.429588 0.035415 4.712831 0
M  V30 39 H 3.291183 -3.004600 5.792289 0
M  V30 40 H 1.644978 -2.560513 4.044001 0
M  V30 41 H 0.671822 1.185050 0.604756 0
M  V30 42 H 3.073214 1.120515 -0.432831 0
M  V30 43 H 3.135588 2.843482 0.137396 0
M  V30 44 H 2.153565 2.955655 -2.052175 0
M  V30 45 H 1.178975 1.497636 -1.786961 0
M  V30 46 H -0.815936 3.424192 -2.449416 0
M  V30 47 H -1.496157 3.753503 -0.859241 0
M  V30 48 H -2.289721 2.141409 0.577091 0
M  V30 49 H -3.348885 -0.001675 0.798204 0
M  V30 50 H -7.432368 -2.924762 -0.117383 0
M  V30 51 H -7.547775 -5.562181 0.378027 0
M  V30 52 H -2.652858 -5.316511 -0.340398 0
M  V30 53 H -0.547812 -1.975140 0.602937 0
M  V30 54 H 1.890185 -2.184406 0.024344 0
M  V30 55 H 2.540282 -3.626065 -1.935140 0
M  V30 56 H 0.851272 -4.784978 -3.232946 0
M  V30 57 H -1.472214 -4.568933 -2.659984 0
M  V30 58 H -1.793169 -1.244197 -2.975846 0
M  V30 59 H -0.694480 0.999584 -3.191418 0
M  V30 60 H 1.458524 4.702387 0.280096 0
M  V30 61 H -0.286695 4.482470 0.568967 0
M  V30 62 H 0.088939 2.880377 2.156920 0
M  V30 63 H 1.803291 3.500824 2.168958 0
M  V30 64 H 3.841328 2.141129 2.757007 0
M  V30 65 H 5.210983 0.769380 4.896769 0
M  V30 END ATOM
M  V30 BEGIN BOND
M  V30 1 1 1 2
M  V30 2 2 2 3
M  V30 3 1 3 4
M  V30 4 2 4 5
M  V30 5 1 5 6
M  V30 6 2 6 7
M  V30 7 1 7 8
M  V30 8 1 8 9
M  V30 9 1 9 10
M  V30 10 1 10 11
M  V30 11 1 11 12
M  V30 12 1 12 13
M  V30 13 2 13 14
M  V30 14 1 14 15
M  V30 15 2 15 16
M  V30 16 1 16 17
M  V30 17 2 17 18
M  V30 18 1 18 19
M  V30 19 2 19 20
M  V30 20 1 20 21
M  V30 21 2 21 22
M  V30 22 1 22 23
M  V30 23 1 23 24
M  V30 24 2 24 25
M  V30 25 1 25 26
M  V30 26 2 26 27
M  V30 27 1 27 28
M  V30 28 2 28 29
M  V30 29 1 29 30
M  V30 30 2 30 31
M  V30 31 1 16 32
M  V30 32 2 32 33
M  V30 33 1 11 34
M  V30 34 1 34 35
M  V30 35 1 7 36
M  V30 36 1 36 37
M  V30 37 2 37 38
M  V30 38 1 38 2
M  V30 39 1 37 5
M  V30 40 1 35 8
M  V30 41 1 33 13
M  V30 42 1 25 17
M  V30 43 1 31 26
M  V30 44 1 23 19
M  V30 45 1 3 39
M  V30 46 1 4 40
M  V30 47 1 8 41
M  V30 48 1 9 42
M  V30 49 1 9 43
M  V30 50 1 10 44
M  V30 51 1 10 45
M  V30 52 1 12 46
M  V30 53 1 12 47
M  V30 54 1 14 48
M  V30 55 1 15 49
M  V30 56 1 20 50
M  V30 57 1 21 51
M  V30 58 1 24 52
M  V30 59 1 27 53
M  V30 60 1 28 54
M  V30 61 1 29 55
M  V30 62 1 30 56
M  V30 63 1 31 57
M  V30 64 1 32 58
M  V30 65 1 33 59
M  V30 66 1 34 60
M  V30 67 1 34 61
M  V30 68 1 35 62
M  V30 69 1 35 63
M  V30 70 1 36 64
M  V30 71 1 38 65
M  V30 END BOND
M  V30 END CTAB
M  END
>  <Dataset>  (475) 
ChEMBL_Kinases

>  <Ligand_Instance>  (475) 
nan

>  <PDB_ID>  (475) 
nan

>  <Standardized_SMILES>  (475) 
Fc1ccc2nc(C3CCN(Cc4ccc(-c5nc6ccnn6cc5-c5ccccc5)cc4)CC3)[nH]c2c1

>  <Name>  (475) 
nan

>  <Pocket>  (475) 
nan

>  <ATP_Site>  (475) 
nan

>  <Peripheral>  (475) 
nan

>  <Num_H_Atoms_ProtBoundConf>  (475) 
nan

>  <Num_Resolved_Atoms>  (475) 
nan

>  <Num_Not_Resolved_Atoms>  (475) 
nan

$$$$
CHEMBL411907
     RDKit          3D

  0  0  0  0  0  0  0  0  0  0999 V3000
M  V30 BEGIN CTAB
M  V30 COUNTS 73 76 0 0 0
M  V30 BEGIN ATOM
M  V30 1 C 5.907284 0.730343 1.887390 0
M  V30 2 C 5.373002 -0.141635 1.050929 0
M  V30 3 C 4.968828 -1.522020 1.096465 0
M  V30 4 N 3.553887 -1.841986 0.818373 0
M  V30 5 C 3.220216 -1.558984 -0.540311 0
M  V30 6 C 2.253484 -1.094577 -1.346087 0
M  V30 7 C 2.126341 -0.891093 -2.818042 0
M  V30 8 O 3.199112 -1.269909 -3.373270 0
M  V30 9 O 0.889904 -0.361189 -3.099438 0
M  V30 10 C -0.304971 -0.398432 -2.413459 0 CFG=2
M  V30 11 C -0.777756 1.051374 -2.180191 0
M  V30 12 O -0.999551 1.707147 -3.361546 0
M  V30 13 C -1.418230 3.026236 -3.228629 0
M  V30 14 C -0.264116 -1.095793 -1.046458 0 CFG=1
M  V30 15 C -0.318985 -2.565063 -1.293995 0
M  V30 16 C 1.086276 -0.700564 -0.541793 0
M  V30 17 C 1.342664 0.041379 0.515136 0
M  V30 18 O 2.529530 0.521677 0.995454 0
M  V30 19 C 0.164746 0.432203 1.326340 0
M  V30 20 O 0.326607 1.134212 2.373494 0
M  V30 21 C -1.212107 0.023685 0.949737 0
M  V30 22 C -1.372725 -0.709398 -0.183702 0
M  V30 23 C -2.723192 -1.182769 -0.557257 0 CFG=2
M  V30 24 O -3.062751 -1.125979 -1.897822 0
M  V30 25 C -3.549135 -2.278471 -2.523578 0
M  V30 26 C -3.981457 -2.476906 -3.933999 0
M  V30 27 O -3.694312 -3.392692 -1.915530 0
M  V30 28 C -3.817692 -0.384891 0.179923 0
M  V30 29 C -3.462506 -0.521638 1.632617 0 CFG=2
M  V30 30 C -3.052964 -1.885353 2.064145 0
M  V30 31 C -4.415692 0.064922 2.584866 0
M  V30 32 O -5.586636 0.243001 2.402956 0
M  V30 33 C -3.571645 0.362526 3.775780 0
M  V30 34 C -2.112408 0.336852 3.286928 0
M  V30 35 C -2.303596 0.460147 1.822784 0 CFG=1
M  V30 36 C 2.835223 -2.582580 1.844403 0
M  V30 37 C 2.614102 -2.021997 3.160514 0
M  V30 38 C 3.286785 -2.947447 3.869911 0
M  V30 39 H 6.342385 1.319322 2.681644 0
M  V30 40 H 6.116367 1.732565 1.600771 0
M  V30 41 H 5.151326 0.214919 0.053649 0
M  V30 42 H 5.592304 -2.081871 0.342329 0
M  V30 43 H 5.189788 -2.017709 2.061631 0
M  V30 44 H 4.059325 -1.813242 -1.258007 0
M  V30 45 H -1.074425 -0.878343 -3.027738 0
M  V30 46 H 0.083293 1.560894 -1.665979 0
M  V30 47 H -1.615586 1.095899 -1.483346 0
M  V30 48 H -1.575248 3.441630 -4.263047 0
M  V30 49 H -2.361253 3.056589 -2.663666 0
M  V30 50 H -0.625025 3.672301 -2.783081 0
M  V30 51 H -0.910319 -3.124834 -0.530121 0
M  V30 52 H 0.722188 -2.969195 -1.202632 0
M  V30 53 H -0.635817 -2.833583 -2.325915 0
M  V30 54 H 2.921811 1.419902 0.863616 0
M  V30 55 H -2.892956 -2.235982 -0.168108 0
M  V30 56 H -5.000281 -2.912314 -3.973215 0
M  V30 57 H -3.283291 -3.167799 -4.430072 0
M  V30 58 H -4.048046 -1.506015 -4.474480 0
M  V30 59 H -4.755193 -0.856085 -0.104296 0
M  V30 60 H -3.761931 0.674934 -0.076364 0
M  V30 61 H -2.006482 -2.131976 1.792567 0
M  V30 62 H -3.793746 -2.631360 1.693570 0
M  V30 63 H -3.148970 -1.919608 3.185111 0
M  V30 64 H -3.759159 1.385665 4.160463 0
M  V30 65 H -3.665705 -0.377507 4.566311 0
M  V30 66 H -1.593663 1.265530 3.627232 0
M  V30 67 H -1.598725 -0.571104 3.621335 0
M  V30 68 H -2.646568 1.495822 1.596351 0
M  V30 69 H 1.844262 -2.947941 1.415161 0
M  V30 70 H 3.402708 -3.587346 1.826380 0
M  V30 71 H 2.070073 -1.262722 2.694114 0
M  V30 72 H 3.775302 -3.778853 3.426825 0
M  V30 73 H 3.046429 -2.420545 4.801098 0
M  V30 END ATOM
M  V30 BEGIN BOND
M  V30 1 2 1 2
M  V30 2 1 2 3
M  V30 3 1 3 4
M  V30 4 1 4 5
M  V30 5 2 5 6
M  V30 6 1 6 7
M  V30 7 2 7 8
M  V30 8 1 7 9
M  V30 9 1 9 10
M  V30 10 1 10 11
M  V30 11 1 11 12
M  V30 12 1 12 13
M  V30 13 1 10 14
M  V30 14 1 14 15 CFG=3
M  V30 15 1 14 16
M  V30 16 2 16 17
M  V30 17 1 17 18
M  V30 18 1 17 19
M  V30 19 2 19 20
M  V30 20 1 19 21
M  V30 21 2 21 22
M  V30 22 1 22 23
M  V30 23 1 23 24
M  V30 24 1 24 25
M  V30 25 1 25 26
M  V30 26 2 25 27
M  V30 27 1 23 28
M  V30 28 1 28 29
M  V30 29 1 29 30 CFG=1
M  V30 30 1 29 31
M  V30 31 2 31 32
M  V30 32 1 31 33
M  V30 33 1 33 34
M  V30 34 1 34 35
M  V30 35 1 4 36
M  V30 36 1 36 37
M  V30 37 2 37 38
M  V30 38 1 16 6
M  V30 39 1 35 21
M  V30 40 1 22 14
M  V30 41 1 35 29
M  V30 42 1 1 39
M  V30 43 1 1 40
M  V30 44 1 2 41
M  V30 45 1 3 42
M  V30 46 1 3 43
M  V30 47 1 5 44
M  V30 48 1 10 45 CFG=3
M  V30 49 1 11 46
M  V30 50 1 11 47
M  V30 51 1 13 48
M  V30 52 1 13 49
M  V30 53 1 13 50
M  V30 54 1 15 51
M  V30 55 1 15 52
M  V30 56 1 15 53
M  V30 57 1 18 54
M  V30 58 1 23 55 CFG=1
M  V30 59 1 26 56
M  V30 60 1 26 57
M  V30 61 1 26 58
M  V30 62 1 28 59
M  V30 63 1 28 60
M  V30 64 1 30 61
M  V30 65 1 30 62
M  V30 66 1 30 63
M  V30 67 1 33 64
M  V30 68 1 33 65
M  V30 69 1 34 66
M  V30 70 1 34 67
M  V30 71 1 35 68 CFG=1
M  V30 72 1 36 69
M  V30 73 1 36 70
M  V30 74 1 37 71
M  V30 75 1 38 72
M  V30 76 1 38 73
M  V30 END BOND
M  V30 END CTAB
M  END
>  <Dataset>  (476) 
ChEMBL_Kinases

>  <Ligand_Instance>  (476) 
nan

>  <PDB_ID>  (476) 
nan

>  <Standardized_SMILES>  (476) 
C=CCN(/C=C1/C(=O)O[C@H](COC)[C@@]2(C)C1=C(O)C(=O)C1=C2[C@H](OC(C)=O)C[C@]2(C)C(=O)CC[C@@H]12)CC=C

>  <Name>  (476) 
SONOLISIB

>  <Pocket>  (476) 
nan

>  <ATP_Site>  (476) 
nan

>  <Peripheral>  (476) 
nan

>  <Num_H_Atoms_ProtBoundConf>  (476) 
nan

>  <Num_Resolved_Atoms>  (476) 
nan

>  <Num_Not_Resolved_Atoms>  (476) 
nan

$$$$
CHEMBL411662
     RDKit          3D

  0  0  0  0  0  0  0  0  0  0999 V3000
M  V30 BEGIN CTAB
M  V30 COUNTS 47 51 0 0 0
M  V30 BEGIN ATOM
M  V30 1 O 3.286927 2.670082 2.221933 0
M  V30 2 C 2.239851 2.074750 2.582338 0
M  V30 3 N 1.595273 2.111099 3.854453 0
M  V30 4 C 0.450066 1.283471 3.788474 0
M  V30 5 O -0.228882 1.203669 4.820645 0
M  V30 6 C 0.315063 0.689019 2.485197 0
M  V30 7 C 1.392403 1.175592 1.785993 0
M  V30 8 C 1.602639 0.816768 0.466901 0
M  V30 9 C 2.733259 1.309761 -0.312902 0
M  V30 10 C 2.425406 2.489152 -0.973020 0
M  V30 11 C 3.361538 3.132754 -1.775103 0
M  V30 12 C 4.620785 2.547978 -1.890638 0
M  V30 13 C 4.927422 1.368545 -1.230001 0
M  V30 14 C 3.989294 0.737416 -0.435405 0
M  V30 15 Cl 4.225578 -0.734629 0.447738 0
M  V30 16 C 0.697506 -0.042098 -0.118636 0
M  V30 17 C -0.407448 -0.550570 0.573900 0
M  V30 18 C -0.563813 -0.157940 1.882664 0
M  V30 19 C -1.683615 -0.755160 2.369767 0
M  V30 20 C -2.401691 -0.806939 3.525934 0
M  V30 21 C -3.552490 -1.542051 3.691116 0
M  V30 22 O -4.288667 -1.595810 4.874704 0
M  V30 23 C -4.055812 -2.298841 2.636851 0
M  V30 24 C -3.344528 -2.261722 1.455471 0
M  V30 25 C -2.173585 -1.501176 1.320427 0
M  V30 26 N -1.415570 -1.397245 0.208830 0
M  V30 27 C -1.462215 -1.949972 -1.101916 0
M  V30 28 C -0.704711 -3.200578 -1.345433 0
M  V30 29 C -1.068394 -4.387808 -0.523315 0
M  V30 30 O -0.897250 -4.218955 0.835054 0
M  V30 31 H 2.010958 2.697477 4.623934 0
M  V30 32 H 1.482261 3.018647 -0.947264 0
M  V30 33 H 3.181880 4.047369 -2.310670 0
M  V30 34 H 5.398827 3.001523 -2.503232 0
M  V30 35 H 5.890843 0.877937 -1.289697 0
M  V30 36 H 0.867970 -0.315667 -1.142890 0
M  V30 37 H -2.126833 -0.284359 4.384180 0
M  V30 38 H -4.957045 -0.830554 4.998494 0
M  V30 39 H -4.955576 -2.885427 2.734948 0
M  V30 40 H -3.725959 -2.845275 0.630569 0
M  V30 41 H -2.531445 -2.144331 -1.393588 0
M  V30 42 H -1.116092 -1.217714 -1.889734 0
M  V30 43 H 0.398030 -3.064161 -1.284130 0
M  V30 44 H -0.925657 -3.491765 -2.417678 0
M  V30 45 H -0.344028 -5.201957 -0.815003 0
M  V30 46 H -2.059633 -4.811998 -0.785881 0
M  V30 47 H -1.512754 -4.702578 1.407220 0
M  V30 END ATOM
M  V30 BEGIN BOND
M  V30 1 2 1 2
M  V30 2 1 2 3
M  V30 3 1 3 4
M  V30 4 2 4 5
M  V30 5 1 4 6
M  V30 6 2 6 7
M  V30 7 1 7 8
M  V30 8 1 8 9
M  V30 9 2 9 10
M  V30 10 1 10 11
M  V30 11 2 11 12
M  V30 12 1 12 13
M  V30 13 2 13 14
M  V30 14 1 14 15
M  V30 15 2 8 16
M  V30 16 1 16 17
M  V30 17 2 17 18
M  V30 18 1 18 19
M  V30 19 2 19 20
M  V30 20 1 20 21
M  V30 21 1 21 22
M  V30 22 2 21 23
M  V30 23 1 23 24
M  V30 24 2 24 25
M  V30 25 1 25 26
M  V30 26 1 26 27
M  V30 27 1 27 28
M  V30 28 1 28 29
M  V30 29 1 29 30
M  V30 30 1 7 2
M  V30 31 1 14 9
M  V30 32 1 26 17
M  V30 33 1 18 6
M  V30 34 1 25 19
M  V30 35 1 3 31
M  V30 36 1 10 32
M  V30 37 1 11 33
M  V30 38 1 12 34
M  V30 39 1 13 35
M  V30 40 1 16 36
M  V30 41 1 20 37
M  V30 42 1 22 38
M  V30 43 1 23 39
M  V30 44 1 24 40
M  V30 45 1 27 41
M  V30 46 1 27 42
M  V30 47 1 28 43
M  V30 48 1 28 44
M  V30 49 1 29 45
M  V30 50 1 29 46
M  V30 51 1 30 47
M  V30 END BOND
M  V30 END CTAB
M  END
>  <Dataset>  (477) 
ChEMBL_Kinases

>  <Ligand_Instance>  (477) 
nan

>  <PDB_ID>  (477) 
nan

>  <Standardized_SMILES>  (477) 
O=C1NC(=O)c2c1c(-c1ccccc1Cl)cc1c2c2cc(O)ccc2n1CCCO

>  <Name>  (477) 
nan

>  <Pocket>  (477) 
nan

>  <ATP_Site>  (477) 
nan

>  <Peripheral>  (477) 
nan

>  <Num_H_Atoms_ProtBoundConf>  (477) 
nan

>  <Num_Resolved_Atoms>  (477) 
nan

>  <Num_Not_Resolved_Atoms>  (477) 
nan

$$$$
CHEMBL4115120
     RDKit          3D

  0  0  0  0  0  0  0  0  0  0999 V3000
M  V30 BEGIN CTAB
M  V30 COUNTS 46 49 0 0 0
M  V30 BEGIN ATOM
M  V30 1 C 2.332662 -3.925271 4.460353 0
M  V30 2 C 3.131617 -2.666080 4.277617 0
M  V30 3 C 2.984414 -1.691681 3.293360 0
M  V30 4 C 3.966273 -0.742947 3.573976 0
M  V30 5 C 4.143080 0.482538 2.734692 0 CFG=2
M  V30 6 C 5.140948 0.091591 1.641761 0
M  V30 7 O 4.597406 1.557517 3.468928 0
M  V30 8 C 2.864627 0.897278 2.144254 0
M  V30 9 C 1.802725 1.221965 1.646055 0
M  V30 10 C 0.544678 1.581629 1.051491 0
M  V30 11 C 0.030619 2.863697 1.164349 0
M  V30 12 C -1.193210 3.108038 0.552871 0
M  V30 13 C -1.879894 2.109420 -0.146228 0
M  V30 14 C -1.326569 0.827259 -0.237038 0
M  V30 15 C -0.117611 0.579858 0.365121 0
M  V30 16 C -1.929346 -0.306306 -0.931271 0
M  V30 17 N -1.196050 -1.406078 -1.232951 0
M  V30 18 C -2.007178 -2.277346 -1.864689 0
M  V30 19 C -1.652107 -3.599380 -2.375850 0
M  V30 20 N -2.641331 -4.383661 -3.017674 0
M  V30 21 O -0.439648 -3.914882 -2.179608 0
M  V30 22 C -3.242169 -1.670644 -1.932552 0
M  V30 23 N -3.217817 -0.445624 -1.359203 0
M  V30 24 C -4.256884 0.533085 -1.199762 0
M  V30 25 C -3.850026 1.906984 -1.657545 0
M  V30 26 O -3.080495 2.592488 -0.669819 0
M  V30 27 N 4.624063 -1.175440 4.663202 0
M  V30 28 O 4.119511 -2.309541 5.064559 0
M  V30 29 H 1.645153 -3.839638 5.333058 0
M  V30 30 H 2.963378 -4.810251 4.606630 0
M  V30 31 H 1.673381 -4.089319 3.583314 0
M  V30 32 H 2.242605 -1.712265 2.493923 0
M  V30 33 H 4.889343 -0.886010 1.225419 0
M  V30 34 H 5.012059 0.852056 0.827073 0
M  V30 35 H 6.174141 0.208493 1.996190 0
M  V30 36 H 5.302037 1.341899 4.126327 0
M  V30 37 H 0.574212 3.623132 1.708023 0
M  V30 38 H -1.639533 4.096337 0.611721 0
M  V30 39 H 0.286069 -0.432866 0.274646 0
M  V30 40 H -3.374819 -5.124415 -2.849499 0
M  V30 41 H -3.234445 -5.075183 -2.507392 0
M  V30 42 H -4.162144 -2.058167 -2.371288 0
M  V30 43 H -4.664473 0.548362 -0.152498 0
M  V30 44 H -5.109077 0.226971 -1.844234 0
M  V30 45 H -3.195312 1.781609 -2.534571 0
M  V30 46 H -4.746568 2.464319 -1.937340 0
M  V30 END ATOM
M  V30 BEGIN BOND
M  V30 1 1 1 2
M  V30 2 2 2 3
M  V30 3 1 3 4
M  V30 4 1 4 5
M  V30 5 1 5 6
M  V30 6 1 5 7
M  V30 7 1 5 8 CFG=3
M  V30 8 3 8 9
M  V30 9 1 9 10
M  V30 10 2 10 11
M  V30 11 1 11 12
M  V30 12 2 12 13
M  V30 13 1 13 14
M  V30 14 2 14 15
M  V30 15 1 14 16
M  V30 16 2 16 17
M  V30 17 1 17 18
M  V30 18 1 18 19
M  V30 19 1 19 20
M  V30 20 2 19 21
M  V30 21 2 18 22
M  V30 22 1 22 23
M  V30 23 1 23 24
M  V30 24 1 24 25
M  V30 25 1 25 26
M  V30 26 2 4 27
M  V30 27 1 27 28
M  V30 28 1 28 2
M  V30 29 1 15 10
M  V30 30 1 23 16
M  V30 31 1 26 13
M  V30 32 1 1 29
M  V30 33 1 1 30
M  V30 34 1 1 31
M  V30 35 1 3 32
M  V30 36 1 6 33
M  V30 37 1 6 34
M  V30 38 1 6 35
M  V30 39 1 7 36
M  V30 40 1 11 37
M  V30 41 1 12 38
M  V30 42 1 15 39
M  V30 43 1 20 40
M  V30 44 1 20 41
M  V30 45 1 22 42
M  V30 46 1 24 43
M  V30 47 1 24 44
M  V30 48 1 25 45
M  V30 49 1 25 46
M  V30 END BOND
M  V30 END CTAB
M  END
>  <Dataset>  (478) 
ChEMBL_Kinases

>  <Ligand_Instance>  (478) 
nan

>  <PDB_ID>  (478) 
nan

>  <Standardized_SMILES>  (478) 
Cc1cc([C@](C)(O)C#Cc2ccc3c(c2)-c2nc(C(N)=O)cn2CCO3)no1

>  <Name>  (478) 
nan

>  <Pocket>  (478) 
nan

>  <ATP_Site>  (478) 
nan

>  <Peripheral>  (478) 
nan

>  <Num_H_Atoms_ProtBoundConf>  (478) 
nan

>  <Num_Resolved_Atoms>  (478) 
nan

>  <Num_Not_Resolved_Atoms>  (478) 
nan

$$$$
CHEMBL4114812
     RDKit          3D

  0  0  0  0  0  0  0  0  0  0999 V3000
M  V30 BEGIN CTAB
M  V30 COUNTS 56 60 0 0 0
M  V30 BEGIN ATOM
M  V30 1 N 2.444041 -6.638759 1.201916 0
M  V30 2 C 2.041382 -5.492937 0.465995 0
M  V30 3 O 1.373751 -6.046702 -0.414843 0
M  V30 4 C 2.446075 -4.149957 0.860485 0
M  V30 5 C 3.238950 -4.012992 1.979949 0
M  V30 6 C 3.597144 -2.726368 2.314475 0
M  V30 7 C 3.176413 -1.652351 1.560396 0
M  V30 8 C 2.394162 -1.777186 0.454649 0
M  V30 9 C 1.990328 -0.681448 -0.276454 0
M  V30 10 N 2.372518 0.641957 0.046369 0
M  V30 11 C 2.031990 1.861850 -0.593729 0
M  V30 12 C 0.654263 2.379286 -0.439273 0
M  V30 13 C 0.614515 3.694468 -1.241613 0
M  V30 14 C -0.690071 4.375176 -1.071466 0
M  V30 15 C -1.851858 3.767635 -0.911619 0
M  V30 16 C -1.772864 2.311462 -0.912046 0
M  V30 17 N -2.876053 1.643786 -0.865107 0
M  V30 18 C -2.950858 0.212396 -0.859038 0
M  V30 19 O -4.112651 -0.114765 -1.597155 0
M  V30 20 C -3.290187 -0.182022 0.550354 0
M  V30 21 C -4.278405 0.483927 1.250198 0
M  V30 22 N -4.367835 -0.075291 2.474118 0
M  V30 23 C -3.475423 -1.084857 2.606743 0
M  V30 24 N -3.172699 -1.932248 3.597648 0
M  V30 25 C -2.185744 -2.842597 3.358645 0
M  V30 26 C -1.490624 -2.942482 2.176341 0
M  V30 27 C -1.823219 -2.054138 1.167463 0
M  V30 28 C -2.809028 -1.146203 1.408581 0
M  V30 29 C -0.461470 1.553486 -0.964092 0
M  V30 30 N 1.227947 -0.973448 -1.328289 0
M  V30 31 C 0.879719 -2.224829 -1.653661 0
M  V30 32 N 1.257386 -3.315036 -0.961059 0
M  V30 33 C 2.035309 -3.063591 0.119084 0
M  V30 34 H 1.995057 -6.783410 2.137517 0
M  V30 35 H 3.080777 -7.444765 1.123004 0
M  V30 36 H 3.538265 -4.889080 2.532385 0
M  V30 37 H 4.224849 -2.637709 3.203379 0
M  V30 38 H 3.528971 -0.720673 1.937610 0
M  V30 39 H 2.993547 0.765035 0.872798 0
M  V30 40 H 2.258280 1.845454 -1.698515 0
M  V30 41 H 2.717237 2.674247 -0.221571 0
M  V30 42 H 0.416260 2.682324 0.614009 0
M  V30 43 H 1.463898 4.344278 -0.947761 0
M  V30 44 H 0.690770 3.382106 -2.303716 0
M  V30 45 H -0.665951 5.457391 -1.082326 0
M  V30 46 H -2.796330 4.276510 -0.788557 0
M  V30 47 H -2.081957 -0.319273 -1.241024 0
M  V30 48 H -4.347631 -1.055106 -1.393596 0
M  V30 49 H -4.931917 1.300619 1.007939 0
M  V30 50 H -5.001485 0.163962 3.274651 0
M  V30 51 H -1.906396 -3.547244 4.128122 0
M  V30 52 H -0.720078 -3.664654 2.011022 0
M  V30 53 H -1.305783 -2.104464 0.241902 0
M  V30 54 H -0.637816 0.718761 -0.245026 0
M  V30 55 H -0.315248 1.211617 -2.004344 0
M  V30 56 H 0.259284 -2.257014 -2.539018 0
M  V30 END ATOM
M  V30 BEGIN BOND
M  V30 1 1 1 2
M  V30 2 2 2 3
M  V30 3 1 2 4
M  V30 4 2 4 5
M  V30 5 1 5 6
M  V30 6 2 6 7
M  V30 7 1 7 8
M  V30 8 2 8 9
M  V30 9 1 9 10
M  V30 10 1 10 11
M  V30 11 1 11 12
M  V30 12 1 12 13
M  V30 13 1 13 14
M  V30 14 2 14 15
M  V30 15 1 15 16
M  V30 16 2 16 17
M  V30 17 1 17 18
M  V30 18 1 18 19
M  V30 19 1 18 20
M  V30 20 2 20 21
M  V30 21 1 21 22
M  V30 22 1 22 23
M  V30 23 2 23 24
M  V30 24 1 24 25
M  V30 25 2 25 26
M  V30 26 1 26 27
M  V30 27 2 27 28
M  V30 28 1 16 29
M  V30 29 1 9 30
M  V30 30 2 30 31
M  V30 31 1 31 32
M  V30 32 2 32 33
M  V30 33 1 33 4
M  V30 34 1 33 8
M  V30 35 1 29 12
M  V30 36 1 28 20
M  V30 37 1 28 23
M  V30 38 1 1 34
M  V30 39 1 1 35
M  V30 40 1 5 36
M  V30 41 1 6 37
M  V30 42 1 7 38
M  V30 43 1 10 39
M  V30 44 1 11 40
M  V30 45 1 11 41
M  V30 46 1 12 42
M  V30 47 1 13 43
M  V30 48 1 13 44
M  V30 49 1 14 45
M  V30 50 1 15 46
M  V30 51 1 18 47
M  V30 52 1 19 48
M  V30 53 1 21 49
M  V30 54 1 22 50
M  V30 55 1 25 51
M  V30 56 1 26 52
M  V30 57 1 27 53
M  V30 58 1 29 54
M  V30 59 1 29 55
M  V30 60 1 31 56
M  V30 END BOND
M  V30 END CTAB
M  END
>  <Dataset>  (479) 
ChEMBL_Kinases

>  <Ligand_Instance>  (479) 
nan

>  <PDB_ID>  (479) 
nan

>  <Standardized_SMILES>  (479) 
NC(=O)c1cccc2c(NCC3CC=C/C(=N/C(O)c4c[nH]c5ncccc45)C3)ncnc12

>  <Name>  (479) 
nan

>  <Pocket>  (479) 
nan

>  <ATP_Site>  (479) 
nan

>  <Peripheral>  (479) 
nan

>  <Num_H_Atoms_ProtBoundConf>  (479) 
nan

>  <Num_Resolved_Atoms>  (479) 
nan

>  <Num_Not_Resolved_Atoms>  (479) 
nan

$$$$
CHEMBL4111655
     RDKit          3D

  0  0  0  0  0  0  0  0  0  0999 V3000
M  V30 BEGIN CTAB
M  V30 COUNTS 46 48 0 0 0
M  V30 BEGIN ATOM
M  V30 1 C 1.373104 -6.207375 -1.223873 0
M  V30 2 O 1.245161 -4.797271 -1.322274 0
M  V30 3 C 2.338768 -3.974378 -1.034939 0
M  V30 4 C 3.587708 -4.379651 -0.648954 0
M  V30 5 C 4.571821 -3.446267 -0.398681 0
M  V30 6 C 4.258353 -2.103535 -0.548922 0
M  V30 7 C 2.990083 -1.663639 -0.942097 0
M  V30 8 C 2.738697 -0.187914 -1.079713 0 CFG=1
M  V30 9 C 2.827312 0.202619 -2.514036 0
M  V30 10 N 1.474388 0.065664 -0.445906 0
M  V30 11 C 1.409349 0.881859 0.706862 0
M  V30 12 O 2.461359 1.377614 1.165171 0
M  V30 13 C 0.165039 1.187765 1.409252 0
M  V30 14 C 0.244220 1.999773 2.523990 0
M  V30 15 C -0.908972 2.335718 3.248126 0
M  V30 16 C -2.155506 1.846647 2.842523 0
M  V30 17 C -3.314089 2.236713 3.643432 0
M  V30 18 C -3.621399 3.487016 4.124821 0
M  V30 19 N -4.781859 3.393420 4.813493 0
M  V30 20 N -5.242939 2.167015 4.808239 0
M  V30 21 C -4.366791 1.432245 4.099410 0
M  V30 22 C -2.224472 1.034867 1.725832 0
M  V30 23 C -3.553654 0.520816 1.303662 0
M  V30 24 C -1.069729 0.707975 1.013974 0
M  V30 25 C 2.046648 -2.632170 -1.178856 0
M  V30 26 H 0.593710 -6.723755 -1.808748 0
M  V30 27 H 2.358133 -6.486994 -1.619578 0
M  V30 28 H 1.360958 -6.526129 -0.157176 0
M  V30 29 H 3.741777 -5.428326 -0.558399 0
M  V30 30 H 5.561194 -3.753694 -0.093495 0
M  V30 31 H 5.054987 -1.390879 -0.344479 0
M  V30 32 H 3.526360 0.344830 -0.511657 0
M  V30 33 H 3.460920 1.121255 -2.643510 0
M  V30 34 H 1.843530 0.295854 -3.016943 0
M  V30 35 H 3.379165 -0.591213 -3.061244 0
M  V30 36 H 0.601357 -0.352819 -0.836137 0
M  V30 37 H 1.152998 2.432733 2.926241 0
M  V30 38 H -0.861652 2.980624 4.136909 0
M  V30 39 H -3.049810 4.382334 3.984758 0
M  V30 40 H -6.110317 1.772817 5.246951 0
M  V30 41 H -4.465699 0.362331 3.909074 0
M  V30 42 H -3.636226 0.472061 0.190064 0
M  V30 43 H -4.358260 1.204265 1.644547 0
M  V30 44 H -3.704979 -0.483644 1.747542 0
M  V30 45 H -1.136048 0.072630 0.142723 0
M  V30 46 H 1.083598 -2.236275 -1.480077 0
M  V30 END ATOM
M  V30 BEGIN BOND
M  V30 1 1 1 2
M  V30 2 1 2 3
M  V30 3 2 3 4
M  V30 4 1 4 5
M  V30 5 2 5 6
M  V30 6 1 6 7
M  V30 7 1 7 8
M  V30 8 1 8 9
M  V30 9 1 8 10
M  V30 10 1 10 11
M  V30 11 2 11 12
M  V30 12 1 11 13
M  V30 13 2 13 14
M  V30 14 1 14 15
M  V30 15 2 15 16
M  V30 16 1 16 17
M  V30 17 1 17 18
M  V30 18 2 18 19
M  V30 19 1 19 20
M  V30 20 1 20 21
M  V30 21 1 16 22
M  V30 22 1 22 23
M  V30 23 2 22 24
M  V30 24 2 7 25
M  V30 25 1 25 3
M  V30 26 1 24 13
M  V30 27 2 21 17
M  V30 28 1 1 26
M  V30 29 1 1 27
M  V30 30 1 1 28
M  V30 31 1 4 29
M  V30 32 1 5 30
M  V30 33 1 6 31
M  V30 34 1 8 32 CFG=1
M  V30 35 1 9 33
M  V30 36 1 9 34
M  V30 37 1 9 35
M  V30 38 1 10 36
M  V30 39 1 14 37
M  V30 40 1 15 38
M  V30 41 1 18 39
M  V30 42 1 20 40
M  V30 43 1 21 41
M  V30 44 1 23 42
M  V30 45 1 23 43
M  V30 46 1 23 44
M  V30 47 1 24 45
M  V30 48 1 25 46
M  V30 END BOND
M  V30 END CTAB
M  END
>  <Dataset>  (480) 
ChEMBL_Kinases

>  <Ligand_Instance>  (480) 
nan

>  <PDB_ID>  (480) 
nan

>  <Standardized_SMILES>  (480) 
COc1cccc([C@@H](C)NC(=O)c2ccc(-c3cn[nH]c3)c(C)c2)c1

>  <Name>  (480) 
nan

>  <Pocket>  (480) 
nan

>  <ATP_Site>  (480) 
nan

>  <Peripheral>  (480) 
nan

>  <Num_H_Atoms_ProtBoundConf>  (480) 
nan

>  <Num_Resolved_Atoms>  (480) 
nan

>  <Num_Not_Resolved_Atoms>  (480) 
nan

$$$$
CHEMBL3672015
     RDKit          3D

  0  0  0  0  0  0  0  0  0  0999 V3000
M  V30 BEGIN CTAB
M  V30 COUNTS 66 72 0 0 0
M  V30 BEGIN ATOM
M  V30 1 C 6.018131 -1.614933 7.618384 0
M  V30 2 C 5.137627 -1.044361 6.560080 0
M  V30 3 N 5.098968 -1.416938 5.254288 0
M  V30 4 C 4.180233 -0.677846 4.606996 0
M  V30 5 N 3.784589 -0.677679 3.321606 0
M  V30 6 C 2.832948 0.152660 2.857669 0
M  V30 7 C 2.489321 0.059701 1.442996 0
M  V30 8 C 2.650083 1.043974 0.489522 0
M  V30 9 C 2.286716 0.837785 -0.825313 0
M  V30 10 C 1.748277 -0.372584 -1.218112 0
M  V30 11 C 1.321890 -0.713887 -2.596402 0
M  V30 12 N -0.018607 -0.407313 -2.894471 0
M  V30 13 C -0.526096 -0.698081 -4.172158 0
M  V30 14 C -1.829792 -1.455195 -4.195877 0
M  V30 15 C -2.208752 -1.766026 -2.791401 0
M  V30 16 C -3.487569 -2.504427 -2.645285 0
M  V30 17 N -4.723347 -2.141355 -3.042703 0
M  V30 18 C -5.613984 -3.102310 -2.714687 0
M  V30 19 C -6.972180 -3.250436 -2.875914 0
M  V30 20 C -7.592201 -4.410114 -2.400311 0
M  V30 21 N -6.877498 -5.394551 -1.781255 0
M  V30 22 C -5.531005 -5.274843 -1.607869 0
M  V30 23 C -4.923641 -4.123055 -2.081651 0
M  V30 24 N -3.658298 -3.726761 -2.060756 0
M  V30 25 C -2.320705 -0.427892 -2.049290 0
M  V30 26 C -0.880137 0.026217 -1.874946 0
M  V30 27 C 1.591064 -1.362953 -0.237701 0
M  V30 28 C 1.953044 -1.162312 1.080345 0
M  V30 29 C 2.261163 1.024924 3.760838 0
M  V30 30 C 1.227712 1.930124 3.272513 0
M  V30 31 C 0.028156 1.439102 2.758023 0
M  V30 32 C -0.899113 2.364074 2.318148 0
M  V30 33 C -0.719246 3.730625 2.353416 0
M  V30 34 C 0.490978 4.137001 2.875238 0
M  V30 35 C 1.486201 3.304160 3.342204 0
M  V30 36 C 2.671447 1.022551 5.086431 0
M  V30 37 N 3.631497 0.169771 5.506904 0
M  V30 38 N 4.221253 -0.063294 6.686770 0
M  V30 39 H 6.723040 -0.792219 7.932852 0
M  V30 40 H 5.487256 -1.929788 8.521926 0
M  V30 41 H 6.584946 -2.458706 7.179464 0
M  V30 42 H 3.073558 1.973450 0.836757 0
M  V30 43 H 2.406870 1.589034 -1.564142 0
M  V30 44 H 2.012584 -0.158222 -3.289795 0
M  V30 45 H 1.463497 -1.810205 -2.743384 0
M  V30 46 H 0.217220 -1.303690 -4.733817 0
M  V30 47 H -0.632070 0.249685 -4.774726 0
M  V30 48 H -2.619688 -0.851409 -4.662505 0
M  V30 49 H -1.763084 -2.400270 -4.771528 0
M  V30 50 H -1.397219 -2.384098 -2.358609 0
M  V30 51 H -7.558378 -2.469123 -3.370509 0
M  V30 52 H -8.662691 -4.496152 -2.542728 0
M  V30 53 H -4.943893 -6.053008 -1.114634 0
M  V30 54 H -2.857709 -4.266643 -1.650223 0
M  V30 55 H -2.833096 -0.630102 -1.110309 0
M  V30 56 H -2.826630 0.286866 -2.708841 0
M  V30 57 H -0.578697 -0.363448 -0.870367 0
M  V30 58 H -0.898651 1.144066 -1.750540 0
M  V30 59 H 1.164932 -2.331924 -0.529579 0
M  V30 60 H 1.792100 -1.992410 1.767671 0
M  V30 61 H -0.164286 0.365385 2.707647 0
M  V30 62 H -1.854856 2.007688 1.907182 0
M  V30 63 H -1.462823 4.432278 2.002245 0
M  V30 64 H 0.729202 5.203790 2.946006 0
M  V30 65 H 2.416042 3.691643 3.740670 0
M  V30 66 H 2.210176 1.719708 5.794783 0
M  V30 END ATOM
M  V30 BEGIN BOND
M  V30 1 1 1 2
M  V30 2 1 2 3
M  V30 3 2 3 4
M  V30 4 1 4 5
M  V30 5 2 5 6
M  V30 6 1 6 7
M  V30 7 2 7 8
M  V30 8 1 8 9
M  V30 9 2 9 10
M  V30 10 1 10 11
M  V30 11 1 11 12
M  V30 12 1 12 13
M  V30 13 1 13 14
M  V30 14 1 14 15
M  V30 15 1 15 16
M  V30 16 2 16 17
M  V30 17 1 17 18
M  V30 18 2 18 19
M  V30 19 1 19 20
M  V30 20 2 20 21
M  V30 21 1 21 22
M  V30 22 2 22 23
M  V30 23 1 23 24
M  V30 24 1 15 25
M  V30 25 1 25 26
M  V30 26 1 10 27
M  V30 27 2 27 28
M  V30 28 1 6 29
M  V30 29 1 29 30
M  V30 30 2 30 31
M  V30 31 1 31 32
M  V30 32 2 32 33
M  V30 33 1 33 34
M  V30 34 2 34 35
M  V30 35 2 29 36
M  V30 36 1 36 37
M  V30 37 1 37 38
M  V30 38 2 38 2
M  V30 39 1 37 4
M  V30 40 1 28 7
M  V30 41 1 35 30
M  V30 42 1 26 12
M  V30 43 1 24 16
M  V30 44 1 23 18
M  V30 45 1 1 39
M  V30 46 1 1 40
M  V30 47 1 1 41
M  V30 48 1 8 42
M  V30 49 1 9 43
M  V30 50 1 11 44
M  V30 51 1 11 45
M  V30 52 1 13 46
M  V30 53 1 13 47
M  V30 54 1 14 48
M  V30 55 1 14 49
M  V30 56 1 15 50
M  V30 57 1 19 51
M  V30 58 1 20 52
M  V30 59 1 22 53
M  V30 60 1 24 54
M  V30 61 1 25 55
M  V30 62 1 25 56
M  V30 63 1 26 57
M  V30 64 1 26 58
M  V30 65 1 27 59
M  V30 66 1 28 60
M  V30 67 1 31 61
M  V30 68 1 32 62
M  V30 69 1 33 63
M  V30 70 1 34 64
M  V30 71 1 35 65
M  V30 72 1 36 66
M  V30 END BOND
M  V30 END CTAB
M  END
>  <Dataset>  (481) 
ChEMBL_Kinases

>  <Ligand_Instance>  (481) 
nan

>  <PDB_ID>  (481) 
nan

>  <Standardized_SMILES>  (481) 
Cc1nc2nc(-c3ccc(CN4CCC(c5nc6ccncc6[nH]5)CC4)cc3)c(-c3ccccc3)cn2n1

>  <Name>  (481) 
nan

>  <Pocket>  (481) 
nan

>  <ATP_Site>  (481) 
nan

>  <Peripheral>  (481) 
nan

>  <Num_H_Atoms_ProtBoundConf>  (481) 
nan

>  <Num_Resolved_Atoms>  (481) 
nan

>  <Num_Not_Resolved_Atoms>  (481) 
nan

$$$$
CHEMBL4114796
     RDKit          3D

  0  0  0  0  0  0  0  0  0  0999 V3000
M  V30 BEGIN CTAB
M  V30 COUNTS 50 53 0 0 0
M  V30 BEGIN ATOM
M  V30 1 N 1.428323 -6.468946 0.668570 0
M  V30 2 C 1.757902 -5.755307 1.845013 0
M  V30 3 O 2.085343 -6.534107 2.747531 0
M  V30 4 C 1.698438 -4.300178 1.915880 0
M  V30 5 C 2.040326 -3.677891 3.098984 0
M  V30 6 C 1.965538 -2.294467 3.109295 0
M  V30 7 C 1.567067 -1.610748 1.979941 0
M  V30 8 C 1.227924 -2.242978 0.803813 0
M  V30 9 C 0.839008 -1.491501 -0.282341 0
M  V30 10 N 0.759108 -0.072328 -0.282696 0
M  V30 11 C 0.335619 0.599036 -1.491978 0
M  V30 12 C 0.296126 2.105250 -1.370079 0
M  V30 13 C 1.628498 2.656217 -1.034532 0
M  V30 14 C 1.792615 3.266325 0.279443 0
M  V30 15 C 0.844088 3.359183 1.198412 0
M  V30 16 C -0.446845 2.793822 0.821925 0
M  V30 17 N -1.261388 2.433153 1.743874 0
M  V30 18 C -2.552613 1.867476 1.567799 0
M  V30 19 O -3.402646 2.575903 0.722165 0
M  V30 20 C -2.573315 0.404719 1.338354 0
M  V30 21 C -1.779199 -0.403919 2.149067 0
M  V30 22 C -2.001959 -1.713378 1.707644 0
M  V30 23 N -2.886222 -1.649370 0.688265 0
M  V30 24 N -3.228252 -0.397211 0.464944 0
M  V30 25 C -0.865201 2.618435 -0.559189 0
M  V30 26 N 0.527215 -2.192678 -1.383607 0
M  V30 27 C 0.586170 -3.534062 -1.436068 0
M  V30 28 N 0.972391 -4.260520 -0.354120 0
M  V30 29 C 1.299858 -3.617268 0.786043 0
M  V30 30 H 2.276180 -6.402507 0.052196 0
M  V30 31 H 0.517135 -6.967223 0.451991 0
M  V30 32 H 2.348572 -4.246935 3.965531 0
M  V30 33 H 2.233097 -1.801679 4.036261 0
M  V30 34 H 1.536924 -0.549056 2.073274 0
M  V30 35 H 0.975329 0.565332 0.507074 0
M  V30 36 H 0.999336 0.307288 -2.330658 0
M  V30 37 H -0.684504 0.299914 -1.807782 0
M  V30 38 H 0.073234 2.456454 -2.430135 0
M  V30 39 H 1.992609 3.420231 -1.784246 0
M  V30 40 H 2.424326 1.855172 -1.106329 0
M  V30 41 H 2.780568 3.660440 0.476741 0
M  V30 42 H 1.015903 3.818846 2.152809 0
M  V30 43 H -3.049370 1.993872 2.580386 0
M  V30 44 H -3.969742 1.997281 0.177373 0
M  V30 45 H -1.089021 -0.223054 2.976862 0
M  V30 46 H -1.588368 -2.648245 2.058380 0
M  V30 47 H -3.882911 0.004881 -0.240454 0
M  V30 48 H -1.677232 1.838850 -0.661721 0
M  V30 49 H -1.294406 3.515628 -1.036188 0
M  V30 50 H 0.309944 -3.999587 -2.384455 0
M  V30 END ATOM
M  V30 BEGIN BOND
M  V30 1 1 1 2
M  V30 2 2 2 3
M  V30 3 1 2 4
M  V30 4 2 4 5
M  V30 5 1 5 6
M  V30 6 2 6 7
M  V30 7 1 7 8
M  V30 8 2 8 9
M  V30 9 1 9 10
M  V30 10 1 10 11
M  V30 11 1 11 12
M  V30 12 1 12 13
M  V30 13 1 13 14
M  V30 14 2 14 15
M  V30 15 1 15 16
M  V30 16 2 16 17
M  V30 17 1 17 18
M  V30 18 1 18 19
M  V30 19 1 18 20
M  V30 20 2 20 21
M  V30 21 1 21 22
M  V30 22 2 22 23
M  V30 23 1 23 24
M  V30 24 1 16 25
M  V30 25 1 9 26
M  V30 26 2 26 27
M  V30 27 1 27 28
M  V30 28 2 28 29
M  V30 29 1 29 4
M  V30 30 1 29 8
M  V30 31 1 25 12
M  V30 32 1 24 20
M  V30 33 1 1 30
M  V30 34 1 1 31
M  V30 35 1 5 32
M  V30 36 1 6 33
M  V30 37 1 7 34
M  V30 38 1 10 35
M  V30 39 1 11 36
M  V30 40 1 11 37
M  V30 41 1 12 38
M  V30 42 1 13 39
M  V30 43 1 13 40
M  V30 44 1 14 41
M  V30 45 1 15 42
M  V30 46 1 18 43
M  V30 47 1 19 44
M  V30 48 1 21 45
M  V30 49 1 22 46
M  V30 50 1 24 47
M  V30 51 1 25 48
M  V30 52 1 25 49
M  V30 53 1 27 50
M  V30 END BOND
M  V30 END CTAB
M  END
>  <Dataset>  (482) 
ChEMBL_Kinases

>  <Ligand_Instance>  (482) 
nan

>  <PDB_ID>  (482) 
nan

>  <Standardized_SMILES>  (482) 
NC(=O)c1cccc2c(NCC3CC=C/C(=N/C(O)c4ccn[nH]4)C3)ncnc12

>  <Name>  (482) 
nan

>  <Pocket>  (482) 
nan

>  <ATP_Site>  (482) 
nan

>  <Peripheral>  (482) 
nan

>  <Num_H_Atoms_ProtBoundConf>  (482) 
nan

>  <Num_Resolved_Atoms>  (482) 
nan

>  <Num_Not_Resolved_Atoms>  (482) 
nan

$$$$
CHEMBL4114628
     RDKit          3D

  0  0  0  0  0  0  0  0  0  0999 V3000
M  V30 BEGIN CTAB
M  V30 COUNTS 45 47 0 0 0
M  V30 BEGIN ATOM
M  V30 1 C -0.154032 -3.067563 3.310537 0
M  V30 2 O -1.022587 -3.498624 2.290402 0
M  V30 3 C -1.138545 -2.960212 1.040413 0
M  V30 4 C -0.306929 -1.887938 0.784536 0
M  V30 5 C -0.340512 -1.266045 -0.448322 0
M  V30 6 C 0.461823 -0.127415 -0.889792 0
M  V30 7 O 0.410191 0.418652 -2.018847 0
M  V30 8 N 1.411546 0.474360 -0.018140 0
M  V30 9 C 2.291074 1.581537 -0.238580 0 CFG=2
M  V30 10 C 3.747994 1.228785 -0.038016 0
M  V30 11 N 4.519027 2.433405 -0.291807 0
M  V30 12 C 1.961241 2.671384 0.709627 0
M  V30 13 C 1.718587 2.489360 2.055703 0
M  V30 14 C 1.412966 3.512793 2.925375 0
M  V30 15 C 1.340216 4.802251 2.443029 0
M  V30 16 C 1.570216 5.071175 1.103607 0
M  V30 17 C 1.868552 3.998913 0.302933 0
M  V30 18 C -1.230876 -1.749669 -1.416072 0
M  V30 19 C -2.056163 -2.823162 -1.144609 0
M  V30 20 C -2.022739 -3.444786 0.087409 0
M  V30 21 C -2.828538 -4.581794 0.518545 0
M  V30 22 C -3.454995 -4.633065 1.750796 0
M  V30 23 N -4.111042 -5.815413 1.825315 0
M  V30 24 N -3.937636 -6.506968 0.723898 0
M  V30 25 C -3.160547 -5.784706 -0.095049 0
M  V30 26 H -0.172448 -3.809720 4.130419 0
M  V30 27 H 0.863600 -2.810996 2.952253 0
M  V30 28 H -0.589859 -2.108911 3.698295 0
M  V30 29 H 0.399662 -1.468551 1.486035 0
M  V30 30 H 1.560665 0.122161 0.953511 0
M  V30 31 H 2.187221 2.016558 -1.269510 0
M  V30 32 H 3.917735 0.937188 1.021123 0
M  V30 33 H 4.102809 0.479173 -0.771781 0
M  V30 34 H 4.272648 2.802502 -1.250324 0
M  V30 35 H 4.295062 3.193164 0.383344 0
M  V30 36 H 1.770243 1.486587 2.455668 0
M  V30 37 H 1.236630 3.260772 3.982500 0
M  V30 38 H 1.099383 5.601994 3.132760 0
M  V30 39 H 1.516363 6.070279 0.717189 0
M  V30 40 H 2.045268 4.244905 -0.752121 0
M  V30 41 H -1.352563 -1.346566 -2.425212 0
M  V30 42 H -2.762157 -3.242882 -1.844247 0
M  V30 43 H -3.477161 -3.926867 2.557162 0
M  V30 44 H -4.261593 -7.439435 0.385110 0
M  V30 45 H -2.770966 -5.969612 -1.094919 0
M  V30 END ATOM
M  V30 BEGIN BOND
M  V30 1 1 1 2
M  V30 2 1 2 3
M  V30 3 2 3 4
M  V30 4 1 4 5
M  V30 5 1 5 6
M  V30 6 2 6 7
M  V30 7 1 6 8
M  V30 8 1 8 9
M  V30 9 1 9 10
M  V30 10 1 10 11
M  V30 11 1 9 12
M  V30 12 2 12 13
M  V30 13 1 13 14
M  V30 14 2 14 15
M  V30 15 1 15 16
M  V30 16 2 16 17
M  V30 17 2 5 18
M  V30 18 1 18 19
M  V30 19 2 19 20
M  V30 20 1 20 21
M  V30 21 1 21 22
M  V30 22 2 22 23
M  V30 23 1 23 24
M  V30 24 1 24 25
M  V30 25 1 20 3
M  V30 26 2 25 21
M  V30 27 1 17 12
M  V30 28 1 1 26
M  V30 29 1 1 27
M  V30 30 1 1 28
M  V30 31 1 4 29
M  V30 32 1 8 30
M  V30 33 1 9 31 CFG=3
M  V30 34 1 10 32
M  V30 35 1 10 33
M  V30 36 1 11 34
M  V30 37 1 11 35
M  V30 38 1 13 36
M  V30 39 1 14 37
M  V30 40 1 15 38
M  V30 41 1 16 39
M  V30 42 1 17 40
M  V30 43 1 18 41
M  V30 44 1 19 42
M  V30 45 1 22 43
M  V30 46 1 24 44
M  V30 47 1 25 45
M  V30 END BOND
M  V30 END CTAB
M  END
>  <Dataset>  (483) 
ChEMBL_Kinases

>  <Ligand_Instance>  (483) 
nan

>  <PDB_ID>  (483) 
nan

>  <Standardized_SMILES>  (483) 
COc1cc(C(=O)N[C@H](CN)c2ccccc2)ccc1-c1cn[nH]c1

>  <Name>  (483) 
nan

>  <Pocket>  (483) 
nan

>  <ATP_Site>  (483) 
nan

>  <Peripheral>  (483) 
nan

>  <Num_H_Atoms_ProtBoundConf>  (483) 
nan

>  <Num_Resolved_Atoms>  (483) 
nan

>  <Num_Not_Resolved_Atoms>  (483) 
nan

$$$$
CHEMBL3356085
     RDKit          3D

  0  0  0  0  0  0  0  0  0  0999 V3000
M  V30 BEGIN CTAB
M  V30 COUNTS 35 38 0 0 0
M  V30 BEGIN ATOM
M  V30 1 O 0.662088 -3.080469 4.314470 0
M  V30 2 C 1.176792 -3.064290 3.161308 0
M  V30 3 C 0.724703 -1.982967 2.261691 0
M  V30 4 N 1.430388 -2.075698 1.014031 0
M  V30 5 C 2.372668 -3.069520 0.685323 0
M  V30 6 N 2.719990 -4.006189 1.498992 0
M  V30 7 N 2.134609 -4.033808 2.760444 0
M  V30 8 C 3.071217 -3.148023 -0.637210 0
M  V30 9 O 2.693886 -2.086199 -1.459437 0
M  V30 10 C 1.783895 -1.104534 -1.175660 0
M  V30 11 C 1.495617 -0.136447 -2.096051 0
M  V30 12 C 0.590240 0.862313 -1.847742 0
M  V30 13 C -0.088772 0.938531 -0.627074 0
M  V30 14 N -1.025173 1.973642 -0.367990 0
M  V30 15 C -1.806611 2.207990 0.797897 0
M  V30 16 C -2.762773 1.096285 1.174067 0
M  V30 17 N -3.676583 2.162549 1.620533 0
M  V30 18 C -3.120485 2.959779 0.541843 0
M  V30 19 C 0.230908 -0.055849 0.272031 0
M  V30 20 C 1.136722 -1.062808 0.035393 0
M  V30 21 H 0.914730 -1.021977 2.800184 0
M  V30 22 H -0.378638 -2.107039 2.140860 0
M  V30 23 H 2.362464 -4.765678 3.486627 0
M  V30 24 H 2.943981 -4.115370 -1.138787 0
M  V30 25 H 4.176592 -3.059464 -0.450821 0
M  V30 26 H 2.000200 -0.154575 -3.062381 0
M  V30 27 H 0.406576 1.597382 -2.616033 0
M  V30 28 H -1.178550 2.674352 -1.125131 0
M  V30 29 H -1.285450 2.584646 1.689719 0
M  V30 30 H -2.441331 0.429303 1.996661 0
M  V30 31 H -3.204296 0.628446 0.283888 0
M  V30 32 H -3.283143 2.523936 2.532599 0
M  V30 33 H -3.582061 2.651138 -0.403727 0
M  V30 34 H -3.061013 4.042804 0.739344 0
M  V30 35 H -0.239224 -0.073646 1.229429 0
M  V30 END ATOM
M  V30 BEGIN BOND
M  V30 1 2 1 2
M  V30 2 1 2 3
M  V30 3 1 3 4
M  V30 4 1 4 5
M  V30 5 2 5 6
M  V30 6 1 6 7
M  V30 7 1 5 8
M  V30 8 1 8 9
M  V30 9 1 9 10
M  V30 10 2 10 11
M  V30 11 1 11 12
M  V30 12 2 12 13
M  V30 13 1 13 14
M  V30 14 1 14 15
M  V30 15 1 15 16
M  V30 16 1 16 17
M  V30 17 1 17 18
M  V30 18 1 13 19
M  V30 19 2 19 20
M  V30 20 1 7 2
M  V30 21 1 20 10
M  V30 22 1 20 4
M  V30 23 1 18 15
M  V30 24 1 3 21
M  V30 25 1 3 22
M  V30 26 1 7 23
M  V30 27 1 8 24
M  V30 28 1 8 25
M  V30 29 1 11 26
M  V30 30 1 12 27
M  V30 31 1 14 28
M  V30 32 1 15 29
M  V30 33 1 16 30
M  V30 34 1 16 31
M  V30 35 1 17 32
M  V30 36 1 18 33
M  V30 37 1 18 34
M  V30 38 1 19 35
M  V30 END BOND
M  V30 END CTAB
M  END
>  <Dataset>  (484) 
ChEMBL_Kinases

>  <Ligand_Instance>  (484) 
nan

>  <PDB_ID>  (484) 
nan

>  <Standardized_SMILES>  (484) 
O=C1CN2C(=NN1)COc1ccc(NC3CNC3)cc12

>  <Name>  (484) 
nan

>  <Pocket>  (484) 
nan

>  <ATP_Site>  (484) 
nan

>  <Peripheral>  (484) 
nan

>  <Num_H_Atoms_ProtBoundConf>  (484) 
nan

>  <Num_Resolved_Atoms>  (484) 
nan

>  <Num_Not_Resolved_Atoms>  (484) 
nan

$$$$
CHEMBL4114533
     RDKit          3D

  0  0  0  0  0  0  0  0  0  0999 V3000
M  V30 BEGIN CTAB
M  V30 COUNTS 46 48 0 0 0
M  V30 BEGIN ATOM
M  V30 1 C 1.771645 -4.256038 5.123447 0
M  V30 2 O 1.726476 -3.137368 4.258387 0
M  V30 3 C 2.712631 -2.807462 3.370461 0
M  V30 4 C 3.871506 -3.583377 3.256721 0
M  V30 5 C 4.860759 -3.230508 2.348512 0
M  V30 6 C 4.670850 -2.118645 1.580388 0
M  V30 7 C 3.519093 -1.338804 1.686462 0
M  V30 8 C 3.368894 -0.132950 0.818015 0 CFG=1
M  V30 9 C 4.395507 -0.162938 -0.287801 0
M  V30 10 N 2.014023 -0.172184 0.298501 0
M  V30 11 C 1.045383 0.817606 0.527332 0
M  V30 12 O 1.475931 1.778534 1.251686 0
M  V30 13 C -0.317619 0.803891 0.019934 0
M  V30 14 C -0.728514 -0.255523 -0.754985 0
M  V30 15 C -2.035695 -0.174619 -1.186608 0
M  V30 16 C -2.951681 0.852730 -0.917173 0
M  V30 17 C -4.276330 0.753902 -1.475889 0
M  V30 18 C -4.951006 -0.443934 -1.178940 0
M  V30 19 N -6.175713 -0.450422 -1.757697 0
M  V30 20 N -6.324717 0.699736 -2.421848 0
M  V30 21 C -5.202186 1.404831 -2.252298 0
M  V30 22 C -2.439297 1.860245 -0.135372 0
M  V30 23 C -3.268336 3.004975 0.238466 0
M  V30 24 F -3.697834 3.742869 -0.812380 0
M  V30 25 F -4.430583 2.460311 0.818527 0
M  V30 26 F -2.708364 3.768301 1.243991 0
M  V30 27 C -1.142673 1.857140 0.338191 0
M  V30 28 C 2.534284 -1.686121 2.587435 0
M  V30 29 H 0.782319 -4.564948 5.473459 0
M  V30 30 H 2.372944 -3.968741 6.012443 0
M  V30 31 H 2.283880 -5.135115 4.668111 0
M  V30 32 H 4.030671 -4.462456 3.858312 0
M  V30 33 H 5.748981 -3.816268 2.254190 0
M  V30 34 H 5.455457 -1.867354 0.882946 0
M  V30 35 H 3.565672 0.764721 1.419854 0
M  V30 36 H 4.194053 0.690535 -0.958593 0
M  V30 37 H 5.368006 0.058412 0.202165 0
M  V30 38 H 4.493251 -1.125016 -0.788163 0
M  V30 39 H 1.760964 -1.000852 -0.282878 0
M  V30 40 H -0.124202 -1.096646 -1.029062 0
M  V30 41 H -2.388357 -1.001421 -1.803004 0
M  V30 42 H -4.777377 -1.372375 -0.617704 0
M  V30 43 H -7.117909 1.064471 -2.986872 0
M  V30 44 H -4.943295 2.373091 -2.641416 0
M  V30 45 H -0.764877 2.658305 0.948839 0
M  V30 46 H 1.631683 -1.098988 2.689809 0
M  V30 END ATOM
M  V30 BEGIN BOND
M  V30 1 1 1 2
M  V30 2 1 2 3
M  V30 3 2 3 4
M  V30 4 1 4 5
M  V30 5 2 5 6
M  V30 6 1 6 7
M  V30 7 1 7 8
M  V30 8 1 8 9
M  V30 9 1 8 10
M  V30 10 1 10 11
M  V30 11 2 11 12
M  V30 12 1 11 13
M  V30 13 2 13 14
M  V30 14 1 14 15
M  V30 15 2 15 16
M  V30 16 1 16 17
M  V30 17 1 17 18
M  V30 18 2 18 19
M  V30 19 1 19 20
M  V30 20 1 20 21
M  V30 21 1 16 22
M  V30 22 1 22 23
M  V30 23 1 23 24
M  V30 24 1 23 25
M  V30 25 1 23 26
M  V30 26 2 22 27
M  V30 27 2 7 28
M  V30 28 1 28 3
M  V30 29 1 27 13
M  V30 30 2 21 17
M  V30 31 1 1 29
M  V30 32 1 1 30
M  V30 33 1 1 31
M  V30 34 1 4 32
M  V30 35 1 5 33
M  V30 36 1 6 34
M  V30 37 1 8 35 CFG=1
M  V30 38 1 9 36
M  V30 39 1 9 37
M  V30 40 1 9 38
M  V30 41 1 10 39
M  V30 42 1 14 40
M  V30 43 1 15 41
M  V30 44 1 18 42
M  V30 45 1 20 43
M  V30 46 1 21 44
M  V30 47 1 27 45
M  V30 48 1 28 46
M  V30 END BOND
M  V30 END CTAB
M  END
>  <Dataset>  (485) 
ChEMBL_Kinases

>  <Ligand_Instance>  (485) 
nan

>  <PDB_ID>  (485) 
nan

>  <Standardized_SMILES>  (485) 
COc1cccc([C@@H](C)NC(=O)c2ccc(-c3cn[nH]c3)c(C(F)(F)F)c2)c1

>  <Name>  (485) 
nan

>  <Pocket>  (485) 
nan

>  <ATP_Site>  (485) 
nan

>  <Peripheral>  (485) 
nan

>  <Num_H_Atoms_ProtBoundConf>  (485) 
nan

>  <Num_Resolved_Atoms>  (485) 
nan

>  <Num_Not_Resolved_Atoms>  (485) 
nan

$$$$
CHEMBL3672014
     RDKit          3D

  0  0  0  0  0  0  0  0  0  0999 V3000
M  V30 BEGIN CTAB
M  V30 COUNTS 67 73 0 0 0
M  V30 BEGIN ATOM
M  V30 1 C 4.806616 -1.756618 7.763578 0
M  V30 2 C 4.328615 -1.295148 6.434186 0
M  V30 3 N 3.514046 -1.797995 5.475733 0
M  V30 4 C 3.438985 -0.924184 4.453320 0
M  V30 5 N 2.791928 -0.912941 3.274395 0
M  V30 6 C 2.867295 0.099896 2.381492 0
M  V30 7 C 2.150244 0.077752 1.103279 0
M  V30 8 C 1.177435 0.952977 0.665251 0
M  V30 9 C 0.610553 0.772806 -0.579798 0
M  V30 10 C 0.963542 -0.260020 -1.446532 0
M  V30 11 C 0.362881 -0.439502 -2.761720 0
M  V30 12 N -0.804790 -1.234713 -2.845019 0
M  V30 13 C -1.942638 -0.798328 -2.100428 0
M  V30 14 C -1.977385 -1.541823 -0.785125 0
M  V30 15 C -2.477256 -2.937314 -1.085209 0
M  V30 16 C -3.970008 -2.843705 -1.196290 0
M  V30 17 N -4.808174 -2.144463 -2.004719 0
M  V30 18 C -6.074850 -2.405065 -1.708199 0
M  V30 19 C -7.270905 -1.956949 -2.228620 0
M  V30 20 C -8.466418 -2.394782 -1.728013 0
M  V30 21 C -8.509818 -3.310225 -0.673098 0
M  V30 22 F -9.720049 -3.712609 -0.213304 0
M  V30 23 C -7.306004 -3.747484 -0.165127 0
M  V30 24 C -6.110189 -3.296589 -0.680778 0
M  V30 25 N -4.822659 -3.538781 -0.397724 0
M  V30 26 C -1.926120 -3.345230 -2.417112 0
M  V30 27 C -0.623330 -2.650722 -2.747065 0
M  V30 28 C 1.953452 -1.122189 -0.959839 0
M  V30 29 C 2.562668 -0.987702 0.293431 0
M  V30 30 C 3.670821 1.194242 2.719914 0
M  V30 31 C 3.728295 2.270125 1.732996 0
M  V30 32 C 3.237526 3.465559 2.269657 0
M  V30 33 C 3.199307 4.628814 1.495414 0
M  V30 34 C 3.658839 4.572477 0.182325 0
M  V30 35 C 4.135798 3.392942 -0.325589 0
M  V30 36 C 4.179468 2.237580 0.426590 0
M  V30 37 C 4.342853 1.190494 3.936213 0
M  V30 38 N 4.211179 0.140129 4.765487 0
M  V30 39 N 4.750563 -0.083989 5.965679 0
M  V30 40 H 5.911088 -1.867255 7.710915 0
M  V30 41 H 4.486104 -1.105169 8.592925 0
M  V30 42 H 4.371726 -2.761010 7.945725 0
M  V30 43 H 0.933337 1.725914 1.349163 0
M  V30 44 H -0.151413 1.471212 -0.904754 0
M  V30 45 H 0.221242 0.551320 -3.252524 0
M  V30 46 H 1.143745 -0.941359 -3.404652 0
M  V30 47 H -1.993346 0.298720 -1.963768 0
M  V30 48 H -2.839620 -1.046342 -2.714310 0
M  V30 49 H -2.661917 -1.063879 -0.047611 0
M  V30 50 H -0.978536 -1.635515 -0.327345 0
M  V30 51 H -2.196188 -3.651957 -0.277392 0
M  V30 52 H -7.248852 -1.246968 -3.046963 0
M  V30 53 H -9.382645 -2.002818 -2.183130 0
M  V30 54 H -7.327216 -4.457804 0.653582 0
M  V30 55 H -4.553426 -4.212359 0.379422 0
M  V30 56 H -1.684487 -4.435481 -2.350905 0
M  V30 57 H -2.616487 -3.240751 -3.264874 0
M  V30 58 H -0.325232 -3.037928 -3.743233 0
M  V30 59 H 0.160241 -2.972221 -2.023650 0
M  V30 60 H 2.284640 -1.959701 -1.586710 0
M  V30 61 H 3.317456 -1.714735 0.564496 0
M  V30 62 H 2.859385 3.610433 3.274992 0
M  V30 63 H 2.822039 5.574246 1.888109 0
M  V30 64 H 3.634815 5.460577 -0.424335 0
M  V30 65 H 4.507306 3.283028 -1.338381 0
M  V30 66 H 4.526367 1.254805 0.152814 0
M  V30 67 H 4.958320 2.066059 4.157537 0
M  V30 END ATOM
M  V30 BEGIN BOND
M  V30 1 1 1 2
M  V30 2 1 2 3
M  V30 3 2 3 4
M  V30 4 1 4 5
M  V30 5 2 5 6
M  V30 6 1 6 7
M  V30 7 2 7 8
M  V30 8 1 8 9
M  V30 9 2 9 10
M  V30 10 1 10 11
M  V30 11 1 11 12
M  V30 12 1 12 13
M  V30 13 1 13 14
M  V30 14 1 14 15
M  V30 15 1 15 16
M  V30 16 2 16 17
M  V30 17 1 17 18
M  V30 18 2 18 19
M  V30 19 1 19 20
M  V30 20 2 20 21
M  V30 21 1 21 22
M  V30 22 1 21 23
M  V30 23 2 23 24
M  V30 24 1 24 25
M  V30 25 1 15 26
M  V30 26 1 26 27
M  V30 27 1 10 28
M  V30 28 2 28 29
M  V30 29 1 6 30
M  V30 30 1 30 31
M  V30 31 2 31 32
M  V30 32 1 32 33
M  V30 33 2 33 34
M  V30 34 1 34 35
M  V30 35 2 35 36
M  V30 36 2 30 37
M  V30 37 1 37 38
M  V30 38 1 38 39
M  V30 39 2 39 2
M  V30 40 1 38 4
M  V30 41 1 29 7
M  V30 42 1 36 31
M  V30 43 1 27 12
M  V30 44 1 25 16
M  V30 45 1 24 18
M  V30 46 1 1 40
M  V30 47 1 1 41
M  V30 48 1 1 42
M  V30 49 1 8 43
M  V30 50 1 9 44
M  V30 51 1 11 45
M  V30 52 1 11 46
M  V30 53 1 13 47
M  V30 54 1 13 48
M  V30 55 1 14 49
M  V30 56 1 14 50
M  V30 57 1 15 51
M  V30 58 1 19 52
M  V30 59 1 20 53
M  V30 60 1 23 54
M  V30 61 1 25 55
M  V30 62 1 26 56
M  V30 63 1 26 57
M  V30 64 1 27 58
M  V30 65 1 27 59
M  V30 66 1 28 60
M  V30 67 1 29 61
M  V30 68 1 32 62
M  V30 69 1 33 63
M  V30 70 1 34 64
M  V30 71 1 35 65
M  V30 72 1 36 66
M  V30 73 1 37 67
M  V30 END BOND
M  V30 END CTAB
M  END
>  <Dataset>  (486) 
ChEMBL_Kinases

>  <Ligand_Instance>  (486) 
nan

>  <PDB_ID>  (486) 
nan

>  <Standardized_SMILES>  (486) 
Cc1nc2nc(-c3ccc(CN4CCC(c5nc6ccc(F)cc6[nH]5)CC4)cc3)c(-c3ccccc3)cn2n1

>  <Name>  (486) 
nan

>  <Pocket>  (486) 
nan

>  <ATP_Site>  (486) 
nan

>  <Peripheral>  (486) 
nan

>  <Num_H_Atoms_ProtBoundConf>  (486) 
nan

>  <Num_Resolved_Atoms>  (486) 
nan

>  <Num_Not_Resolved_Atoms>  (486) 
nan

$$$$
CHEMBL4114404
     RDKit          3D

  0  0  0  0  0  0  0  0  0  0999 V3000
M  V30 BEGIN CTAB
M  V30 COUNTS 52 55 0 0 0
M  V30 BEGIN ATOM
M  V30 1 C 1.726012 1.310491 4.200258 0
M  V30 2 C 3.142806 1.112443 3.758492 0
M  V30 3 N 3.906137 0.377296 4.640399 0
M  V30 4 N 5.091375 0.312531 4.069085 0
M  V30 5 C 6.184915 -0.406847 4.680298 0
M  V30 6 C 5.211474 0.936151 2.883982 0
M  V30 7 C 3.984458 1.452831 2.662047 0
M  V30 8 N 3.144084 2.131741 1.867480 0
M  V30 9 C 2.278488 2.832912 1.045640 0
M  V30 10 N 1.970867 4.078786 0.651402 0
M  V30 11 C 0.883951 4.242519 -0.164874 0
M  V30 12 C 0.093604 3.192761 -0.598236 0
M  V30 13 C 0.414113 1.926036 -0.195342 0
M  V30 14 C -0.333440 0.700939 -0.608787 0
M  V30 15 C 0.280280 -0.440137 -0.057663 0
M  V30 16 C -0.230101 -1.731376 -0.273838 0
M  V30 17 N -1.374849 -1.878011 -1.052783 0
M  V30 18 C -1.827799 -3.234988 -1.192193 0 CFG=2
M  V30 19 C -1.453682 -3.920753 -2.477190 0
M  V30 20 O -1.930623 -3.329265 -3.634373 0
M  V30 21 C -3.265687 -3.419945 -0.894588 0
M  V30 22 C -4.331229 -3.430484 -1.769414 0
M  V30 23 C -5.638053 -3.590684 -1.422661 0
M  V30 24 C -5.998697 -3.761428 -0.101421 0
M  V30 25 Cl -7.695928 -3.964613 0.262114 0
M  V30 26 C -4.965304 -3.758786 0.825628 0
M  V30 27 F -5.370411 -3.922679 2.096386 0
M  V30 28 C -3.656646 -3.595587 0.442138 0
M  V30 29 C -1.856197 -0.742711 -1.514270 0
M  V30 30 O -2.894352 -0.890074 -2.222692 0
M  V30 31 C -1.440527 0.550896 -1.367017 0
M  V30 32 N 1.480058 1.853364 0.593102 0
M  V30 33 H 1.736159 1.710094 5.216076 0
M  V30 34 H 1.192569 1.987644 3.541943 0
M  V30 35 H 1.215566 0.292025 4.261360 0
M  V30 36 H 5.820131 -1.401021 5.070788 0
M  V30 37 H 6.524475 0.141535 5.583024 0
M  V30 38 H 7.006841 -0.675270 3.993120 0
M  V30 39 H 5.935554 1.112746 2.141097 0
M  V30 40 H 3.898589 2.401072 1.125984 0
M  V30 41 H 0.717453 5.279087 -0.413799 0
M  V30 42 H -0.740910 3.351542 -1.223058 0
M  V30 43 H 1.187180 -0.465185 0.568475 0
M  V30 44 H 0.257337 -2.588814 0.154724 0
M  V30 45 H -1.308553 -3.883138 -0.408412 0
M  V30 46 H -1.881494 -4.948539 -2.461293 0
M  V30 47 H -0.344335 -4.107450 -2.534076 0
M  V30 48 H -2.109107 -4.061814 -4.304239 0
M  V30 49 H -4.079556 -3.293226 -2.808003 0
M  V30 50 H -6.393932 -3.579615 -2.184440 0
M  V30 51 H -2.959817 -3.616458 1.267006 0
M  V30 52 H -1.838905 1.454913 -1.733697 0
M  V30 END ATOM
M  V30 BEGIN BOND
M  V30 1 1 1 2
M  V30 2 2 2 3
M  V30 3 1 3 4
M  V30 4 1 4 5
M  V30 5 1 4 6
M  V30 6 2 6 7
M  V30 7 1 7 8
M  V30 8 1 8 9
M  V30 9 2 9 10
M  V30 10 1 10 11
M  V30 11 2 11 12
M  V30 12 1 12 13
M  V30 13 1 13 14
M  V30 14 1 14 15
M  V30 15 2 15 16
M  V30 16 1 16 17
M  V30 17 1 17 18
M  V30 18 1 18 19
M  V30 19 1 19 20
M  V30 20 1 18 21
M  V30 21 2 21 22
M  V30 22 1 22 23
M  V30 23 2 23 24
M  V30 24 1 24 25
M  V30 25 1 24 26
M  V30 26 1 26 27
M  V30 27 2 26 28
M  V30 28 1 17 29
M  V30 29 2 29 30
M  V30 30 1 29 31
M  V30 31 2 13 32
M  V30 32 1 7 2
M  V30 33 1 32 9
M  V30 34 2 31 14
M  V30 35 1 28 21
M  V30 36 1 1 33
M  V30 37 1 1 34
M  V30 38 1 1 35
M  V30 39 1 5 36
M  V30 40 1 5 37
M  V30 41 1 5 38
M  V30 42 1 6 39
M  V30 43 1 8 40
M  V30 44 1 11 41
M  V30 45 1 12 42
M  V30 46 1 15 43
M  V30 47 1 16 44
M  V30 48 1 18 45 CFG=1
M  V30 49 1 19 46
M  V30 50 1 19 47
M  V30 51 1 20 48
M  V30 52 1 22 49
M  V30 53 1 23 50
M  V30 54 1 28 51
M  V30 55 1 31 52
M  V30 END BOND
M  V30 END CTAB
M  END
>  <Dataset>  (487) 
ChEMBL_Kinases

>  <Ligand_Instance>  (487) 
nan

>  <PDB_ID>  (487) 
nan

>  <Standardized_SMILES>  (487) 
Cc1nn(C)cc1Nc1nccc(-c2ccn([C@H](CO)c3ccc(Cl)c(F)c3)c(=O)c2)n1

>  <Name>  (487) 
nan

>  <Pocket>  (487) 
nan

>  <ATP_Site>  (487) 
nan

>  <Peripheral>  (487) 
nan

>  <Num_H_Atoms_ProtBoundConf>  (487) 
nan

>  <Num_Resolved_Atoms>  (487) 
nan

>  <Num_Not_Resolved_Atoms>  (487) 
nan

$$$$
CHEMBL4113471
     RDKit          3D

  0  0  0  0  0  0  0  0  0  0999 V3000
M  V30 BEGIN CTAB
M  V30 COUNTS 49 53 0 0 0
M  V30 BEGIN ATOM
M  V30 1 C 2.244144 -2.759420 5.689950 0
M  V30 2 C 2.784870 -1.394470 5.486009 0
M  V30 3 C 2.602667 -0.768354 4.263327 0
M  V30 4 C 3.208111 0.472442 4.376857 0
M  V30 5 C 3.284533 1.528544 3.321656 0 CFG=2
M  V30 6 C 4.558420 1.261303 2.544586 0
M  V30 7 O 3.298025 2.784063 3.909851 0
M  V30 8 C 2.107940 1.477393 2.450435 0
M  V30 9 C 1.132872 1.419743 1.739554 0
M  V30 10 C -0.021678 1.334802 0.885562 0
M  V30 11 C -0.906223 2.378643 0.707814 0
M  V30 12 C -2.004144 2.262495 -0.119535 0
M  V30 13 C -2.218601 1.072344 -0.782869 0
M  V30 14 C -1.312322 0.014808 -0.595616 0
M  V30 15 C -0.216241 0.139565 0.234131 0
M  V30 16 C -1.382879 -1.333227 -1.224847 0
M  V30 17 N -0.516173 -2.347738 -1.046309 0
M  V30 18 C -0.892638 -3.413897 -1.771215 0
M  V30 19 C -0.229037 -4.708826 -1.857136 0
M  V30 20 N -0.763494 -5.730619 -2.674849 0
M  V30 21 O 0.817049 -4.948368 -1.218625 0
M  V30 22 C -2.046974 -3.050087 -2.433203 0
M  V30 23 N -2.350718 -1.763234 -2.095668 0
M  V30 24 C -3.502904 -0.973077 -2.573004 0
M  V30 25 C -4.208249 -0.277564 -1.427178 0
M  V30 26 C -3.442975 1.027518 -1.669167 0
M  V30 27 C -3.034833 0.424839 -2.996667 0
M  V30 28 N 3.714807 0.540650 5.625535 0
M  V30 29 O 3.458085 -0.563249 6.264419 0
M  V30 30 H 2.339605 -3.120130 6.731364 0
M  V30 31 H 1.163112 -2.760518 5.410935 0
M  V30 32 H 2.761166 -3.422492 4.983310 0
M  V30 33 H 2.100079 -1.121704 3.364467 0
M  V30 34 H 4.559266 1.731977 1.540049 0
M  V30 35 H 5.438005 1.651935 3.074290 0
M  V30 36 H 4.703343 0.175794 2.395925 0
M  V30 37 H 4.135804 3.024761 4.358309 0
M  V30 38 H -0.722529 3.291311 1.230123 0
M  V30 39 H -2.713983 3.043683 -0.286446 0
M  V30 40 H 0.441212 -0.687860 0.344080 0
M  V30 41 H -1.150035 -6.416749 -3.358035 0
M  V30 42 H -1.051745 -6.690317 -2.406682 0
M  V30 43 H -2.641202 -3.644009 -3.109594 0
M  V30 44 H -4.105335 -1.505479 -3.296716 0
M  V30 45 H -5.280535 -0.151638 -1.591376 0
M  V30 46 H -3.977043 -0.754201 -0.431170 0
M  V30 47 H -4.021639 1.940365 -1.674873 0
M  V30 48 H -3.601564 0.803241 -3.871207 0
M  V30 49 H -1.944521 0.397556 -3.174955 0
M  V30 END ATOM
M  V30 BEGIN BOND
M  V30 1 1 1 2
M  V30 2 2 2 3
M  V30 3 1 3 4
M  V30 4 1 4 5
M  V30 5 1 5 6
M  V30 6 1 5 7
M  V30 7 1 5 8 CFG=3
M  V30 8 3 8 9
M  V30 9 1 9 10
M  V30 10 1 10 11
M  V30 11 2 11 12
M  V30 12 1 12 13
M  V30 13 2 13 14
M  V30 14 1 14 15
M  V30 15 1 14 16
M  V30 16 2 16 17
M  V30 17 1 17 18
M  V30 18 1 18 19
M  V30 19 1 19 20
M  V30 20 2 19 21
M  V30 21 2 18 22
M  V30 22 1 22 23
M  V30 23 1 23 24
M  V30 24 1 24 25
M  V30 25 1 25 26
M  V30 26 1 26 27
M  V30 27 2 4 28
M  V30 28 1 28 29
M  V30 29 1 29 2
M  V30 30 2 15 10
M  V30 31 1 23 16
M  V30 32 1 27 24
M  V30 33 1 26 13
M  V30 34 1 1 30
M  V30 35 1 1 31
M  V30 36 1 1 32
M  V30 37 1 3 33
M  V30 38 1 6 34
M  V30 39 1 6 35
M  V30 40 1 6 36
M  V30 41 1 7 37
M  V30 42 1 11 38
M  V30 43 1 12 39
M  V30 44 1 15 40
M  V30 45 1 20 41
M  V30 46 1 20 42
M  V30 47 1 22 43
M  V30 48 1 24 44
M  V30 49 1 25 45
M  V30 50 1 25 46
M  V30 51 1 26 47
M  V30 52 1 27 48
M  V30 53 1 27 49
M  V30 END BOND
M  V30 END CTAB
M  END
>  <Dataset>  (488) 
ChEMBL_Kinases

>  <Ligand_Instance>  (488) 
nan

>  <PDB_ID>  (488) 
nan

>  <Standardized_SMILES>  (488) 
Cc1cc([C@](C)(O)C#Cc2ccc3c(c2)-c2nc(C(N)=O)cn2C2CC3C2)no1

>  <Name>  (488) 
nan

>  <Pocket>  (488) 
nan

>  <ATP_Site>  (488) 
nan

>  <Peripheral>  (488) 
nan

>  <Num_H_Atoms_ProtBoundConf>  (488) 
nan

>  <Num_Resolved_Atoms>  (488) 
nan

>  <Num_Not_Resolved_Atoms>  (488) 
nan

$$$$
CHEMBL411291
     RDKit          3D

  0  0  0  0  0  0  0  0  0  0999 V3000
M  V30 BEGIN CTAB
M  V30 COUNTS 58 61 0 0 0
M  V30 BEGIN ATOM
M  V30 1 C 0.410630 0.633559 3.878422 0
M  V30 2 C 1.660122 0.041712 4.490655 0
M  V30 3 C 1.180655 -0.914631 5.587017 0
M  V30 4 C 2.507108 1.110422 5.138441 0
M  V30 5 C 2.435649 -0.792630 3.516288 0
M  V30 6 N 2.882327 -0.060249 2.348792 0
M  V30 7 C 4.066645 0.590108 2.266235 0
M  V30 8 N 4.199162 1.173577 1.066331 0
M  V30 9 C 3.081289 0.903310 0.342514 0
M  V30 10 C 2.711695 1.264247 -0.948051 0
M  V30 11 C 1.465925 0.798976 -1.372723 0
M  V30 12 C 0.655011 0.023620 -0.546686 0
M  V30 13 C -0.574303 -0.338646 -1.195235 0
M  V30 14 N -1.608763 0.361841 -1.711411 0
M  V30 15 C -2.533541 -0.446999 -2.217454 0
M  V30 16 C -3.797070 -0.021811 -2.860484 0
M  V30 17 C -4.870258 0.070570 -1.808761 0
M  V30 18 C -3.621393 1.259950 -3.637234 0
M  V30 19 C -4.180405 -1.145366 -3.825352 0
M  V30 20 N -2.100629 -1.712631 -2.031742 0
M  V30 21 C -0.892044 -1.664137 -1.401748 0
M  V30 22 C -0.117428 -2.868485 -1.035901 0
M  V30 23 C 1.131320 -3.254312 -1.480573 0
M  V30 24 C 1.652425 -4.433348 -0.988493 0
M  V30 25 C 0.980932 -5.230697 -0.080284 0
M  V30 26 F 1.541089 -6.380338 0.370269 0
M  V30 27 C -0.269192 -4.832286 0.356886 0
M  V30 28 C -0.804443 -3.654664 -0.126463 0
M  V30 29 N 1.086817 -0.286392 0.700633 0
M  V30 30 C 2.275828 0.132590 1.164629 0
M  V30 31 H 0.650146 1.587903 3.377116 0
M  V30 32 H -0.092893 -0.093823 3.230550 0
M  V30 33 H -0.333171 0.883214 4.682693 0
M  V30 34 H 0.437638 -0.405595 6.229712 0
M  V30 35 H 2.013291 -1.281490 6.201920 0
M  V30 36 H 0.645441 -1.768703 5.083918 0
M  V30 37 H 3.224678 0.683790 5.863127 0
M  V30 38 H 3.084970 1.622359 4.327151 0
M  V30 39 H 1.863137 1.860334 5.617418 0
M  V30 40 H 3.290797 -1.237690 4.075327 0
M  V30 41 H 1.791635 -1.661142 3.232080 0
M  V30 42 H 4.877297 0.697664 2.997553 0
M  V30 43 H 3.360356 1.862457 -1.556860 0
M  V30 44 H 1.231410 1.114283 -2.392310 0
M  V30 45 H -1.615469 1.397058 -1.682629 0
M  V30 46 H -4.437798 0.316071 -0.810102 0
M  V30 47 H -5.422597 -0.880242 -1.684049 0
M  V30 48 H -5.633573 0.848693 -2.069581 0
M  V30 49 H -2.623993 1.185784 -4.144584 0
M  V30 50 H -4.380134 1.331587 -4.425931 0
M  V30 51 H -3.640879 2.101339 -2.933579 0
M  V30 52 H -4.205188 -2.093973 -3.248721 0
M  V30 53 H -5.161931 -0.941836 -4.280786 0
M  V30 54 H -3.363723 -1.283528 -4.590513 0
M  V30 55 H 1.561845 -2.576090 -2.173959 0
M  V30 56 H 2.624419 -4.706131 -1.352958 0
M  V30 57 H -0.765416 -5.484117 1.069878 0
M  V30 58 H -1.790847 -3.442883 0.286869 0
M  V30 END ATOM
M  V30 BEGIN BOND
M  V30 1 1 1 2
M  V30 2 1 2 3
M  V30 3 1 2 4
M  V30 4 1 2 5
M  V30 5 1 5 6
M  V30 6 1 6 7
M  V30 7 2 7 8
M  V30 8 1 8 9
M  V30 9 2 9 10
M  V30 10 1 10 11
M  V30 11 2 11 12
M  V30 12 1 12 13
M  V30 13 1 13 14
M  V30 14 1 14 15
M  V30 15 1 15 16
M  V30 16 1 16 17
M  V30 17 1 16 18
M  V30 18 1 16 19
M  V30 19 2 15 20
M  V30 20 1 20 21
M  V30 21 1 21 22
M  V30 22 2 22 23
M  V30 23 1 23 24
M  V30 24 2 24 25
M  V30 25 1 25 26
M  V30 26 1 25 27
M  V30 27 2 27 28
M  V30 28 1 12 29
M  V30 29 2 29 30
M  V30 30 1 30 6
M  V30 31 1 30 9
M  V30 32 2 21 13
M  V30 33 1 28 22
M  V30 34 1 1 31
M  V30 35 1 1 32
M  V30 36 1 1 33
M  V30 37 1 3 34
M  V30 38 1 3 35
M  V30 39 1 3 36
M  V30 40 1 4 37
M  V30 41 1 4 38
M  V30 42 1 4 39
M  V30 43 1 5 40
M  V30 44 1 5 41
M  V30 45 1 7 42
M  V30 46 1 10 43
M  V30 47 1 11 44
M  V30 48 1 14 45
M  V30 49 1 17 46
M  V30 50 1 17 47
M  V30 51 1 17 48
M  V30 52 1 18 49
M  V30 53 1 18 50
M  V30 54 1 18 51
M  V30 55 1 19 52
M  V30 56 1 19 53
M  V30 57 1 19 54
M  V30 58 1 23 55
M  V30 59 1 24 56
M  V30 60 1 27 57
M  V30 61 1 28 58
M  V30 END BOND
M  V30 END CTAB
M  END
>  <Dataset>  (489) 
ChEMBL_Kinases

>  <Ligand_Instance>  (489) 
nan

>  <PDB_ID>  (489) 
nan

>  <Standardized_SMILES>  (489) 
CC(C)(C)Cn1cnc2ccc(-c3[nH]c(C(C)(C)C)nc3-c3ccc(F)cc3)nc21

>  <Name>  (489) 
nan

>  <Pocket>  (489) 
nan

>  <ATP_Site>  (489) 
nan

>  <Peripheral>  (489) 
nan

>  <Num_H_Atoms_ProtBoundConf>  (489) 
nan

>  <Num_Resolved_Atoms>  (489) 
nan

>  <Num_Not_Resolved_Atoms>  (489) 
nan

$$$$
CHEMBL3672016
     RDKit          3D

  0  0  0  0  0  0  0  0  0  0999 V3000
M  V30 BEGIN CTAB
M  V30 COUNTS 64 70 0 0 0
M  V30 BEGIN ATOM
M  V30 1 C 1.720934 -1.983551 3.016875 0
M  V30 2 C 2.129567 -1.115824 4.013793 0
M  V30 3 C 2.716107 0.098791 3.721722 0
M  V30 4 C 2.892471 0.441103 2.376308 0
M  V30 5 C 3.481785 1.656239 1.846471 0
M  V30 6 C 4.814762 1.919184 2.149632 0
M  V30 7 N 5.419888 3.025432 1.688577 0
M  V30 8 N 6.656831 3.464153 1.851741 0
M  V30 9 C 6.804332 4.628395 1.196276 0
M  V30 10 C 5.569844 4.896095 0.605298 0
M  V30 11 C 4.698400 3.873866 0.923295 0
M  V30 12 N 3.408883 3.627543 0.625108 0
M  V30 13 C 2.753073 2.533645 1.061294 0
M  V30 14 C 1.359038 2.220489 0.771243 0
M  V30 15 C 1.000184 2.004874 -0.542852 0
M  V30 16 C -0.282242 1.703127 -0.943063 0
M  V30 17 C -1.303536 1.600068 -0.003774 0
M  V30 18 C -2.743279 1.279883 -0.186296 0
M  V30 19 N -2.977872 -0.079412 0.004935 0
M  V30 20 C -4.248020 -0.642808 -0.092946 0
M  V30 21 C -4.510918 -1.251208 -1.429460 0
M  V30 22 C -3.354711 -1.983637 -2.012609 0
M  V30 23 C -3.195199 -3.379876 -1.483546 0
M  V30 24 N -3.093951 -3.914997 -0.274750 0
M  V30 25 C -2.966474 -5.230013 -0.318717 0
M  V30 26 C -2.839522 -6.089528 0.759755 0
M  V30 27 C -2.718880 -7.445063 0.463168 0
M  V30 28 C -2.732633 -7.838908 -0.847819 0
M  V30 29 N -2.861053 -6.936088 -1.856246 0
M  V30 30 C -2.980760 -5.618858 -1.630419 0
M  V30 31 N -3.121330 -4.463792 -2.300964 0
M  V30 32 C -2.027619 -1.287948 -1.822685 0
M  V30 33 C -1.910977 -0.925319 -0.365557 0
M  V30 34 C -0.911780 1.823861 1.323519 0
M  V30 35 C 0.374391 2.125880 1.719741 0
M  V30 36 C 2.482717 -0.428727 1.402244 0
M  V30 37 C 1.889526 -1.657461 1.670895 0
M  V30 38 H 1.265035 -2.925699 3.302073 0
M  V30 39 H 2.031170 -1.302437 5.056586 0
M  V30 40 H 3.068987 0.845298 4.418572 0
M  V30 41 H 5.358178 1.220640 2.762046 0
M  V30 42 H 7.644014 5.316499 1.070134 0
M  V30 43 H 5.290141 5.743031 -0.005656 0
M  V30 44 H 1.709230 2.055739 -1.382307 0
M  V30 45 H -0.618547 1.530673 -1.952515 0
M  V30 46 H -3.105104 1.637080 -1.191209 0
M  V30 47 H -3.326385 1.903021 0.537504 0
M  V30 48 H -5.011808 0.189490 0.017907 0
M  V30 49 H -4.529099 -1.352937 0.716958 0
M  V30 50 H -5.354592 -1.977548 -1.330521 0
M  V30 51 H -4.877126 -0.494390 -2.172219 0
M  V30 52 H -3.509433 -2.006677 -3.120233 0
M  V30 53 H -2.829084 -5.777698 1.798554 0
M  V30 54 H -2.617824 -8.160424 1.244541 0
M  V30 55 H -2.638436 -8.903329 -1.097805 0
M  V30 56 H -3.165297 -4.448074 -3.359599 0
M  V30 57 H -1.216071 -2.005418 -2.066291 0
M  V30 58 H -1.957364 -0.356742 -2.418010 0
M  V30 59 H -2.035442 -1.888399 0.229012 0
M  V30 60 H -0.899719 -0.508166 -0.130976 0
M  V30 61 H -1.623907 1.769215 2.135238 0
M  V30 62 H 0.638205 2.290454 2.737002 0
M  V30 63 H 2.573327 -0.262660 0.329859 0
M  V30 64 H 1.555441 -2.365534 0.924879 0
M  V30 END ATOM
M  V30 BEGIN BOND
M  V30 1 2 1 2
M  V30 2 1 2 3
M  V30 3 2 3 4
M  V30 4 1 4 5
M  V30 5 2 5 6
M  V30 6 1 6 7
M  V30 7 1 7 8
M  V30 8 2 8 9
M  V30 9 1 9 10
M  V30 10 2 10 11
M  V30 11 1 11 12
M  V30 12 2 12 13
M  V30 13 1 13 14
M  V30 14 2 14 15
M  V30 15 1 15 16
M  V30 16 2 16 17
M  V30 17 1 17 18
M  V30 18 1 18 19
M  V30 19 1 19 20
M  V30 20 1 20 21
M  V30 21 1 21 22
M  V30 22 1 22 23
M  V30 23 2 23 24
M  V30 24 1 24 25
M  V30 25 2 25 26
M  V30 26 1 26 27
M  V30 27 2 27 28
M  V30 28 1 28 29
M  V30 29 2 29 30
M  V30 30 1 30 31
M  V30 31 1 22 32
M  V30 32 1 32 33
M  V30 33 1 17 34
M  V30 34 2 34 35
M  V30 35 1 4 36
M  V30 36 2 36 37
M  V30 37 1 37 1
M  V30 38 1 13 5
M  V30 39 1 35 14
M  V30 40 1 11 7
M  V30 41 1 33 19
M  V30 42 1 31 23
M  V30 43 1 30 25
M  V30 44 1 1 38
M  V30 45 1 2 39
M  V30 46 1 3 40
M  V30 47 1 6 41
M  V30 48 1 9 42
M  V30 49 1 10 43
M  V30 50 1 15 44
M  V30 51 1 16 45
M  V30 52 1 18 46
M  V30 53 1 18 47
M  V30 54 1 20 48
M  V30 55 1 20 49
M  V30 56 1 21 50
M  V30 57 1 21 51
M  V30 58 1 22 52
M  V30 59 1 26 53
M  V30 60 1 27 54
M  V30 61 1 28 55
M  V30 62 1 31 56
M  V30 63 1 32 57
M  V30 64 1 32 58
M  V30 65 1 33 59
M  V30 66 1 33 60
M  V30 67 1 34 61
M  V30 68 1 35 62
M  V30 69 1 36 63
M  V30 70 1 37 64
M  V30 END BOND
M  V30 END CTAB
M  END
>  <Dataset>  (490) 
ChEMBL_Kinases

>  <Ligand_Instance>  (490) 
nan

>  <PDB_ID>  (490) 
nan

>  <Standardized_SMILES>  (490) 
c1ccc(-c2cn3nccc3nc2-c2ccc(CN3CCC(c4nc5cccnc5[nH]4)CC3)cc2)cc1

>  <Name>  (490) 
nan

>  <Pocket>  (490) 
nan

>  <ATP_Site>  (490) 
nan

>  <Peripheral>  (490) 
nan

>  <Num_H_Atoms_ProtBoundConf>  (490) 
nan

>  <Num_Resolved_Atoms>  (490) 
nan

>  <Num_Not_Resolved_Atoms>  (490) 
nan

$$$$
CHEMBL3672080
     RDKit          3D

  0  0  0  0  0  0  0  0  0  0999 V3000
M  V30 BEGIN CTAB
M  V30 COUNTS 74 81 0 0 0
M  V30 BEGIN ATOM
M  V30 1 C 4.985762 -2.774307 -1.077434 0
M  V30 2 N 4.443166 -1.411293 -1.129171 0
M  V30 3 C 3.208041 -1.144080 -0.516405 0
M  V30 4 C 2.060301 -1.281203 -1.268170 0
M  V30 5 C 2.003904 -1.673922 -2.636308 0
M  V30 6 C 1.335119 -2.880199 -2.878945 0
M  V30 7 C 1.176009 -3.424108 -4.136438 0
M  V30 8 C 1.716596 -2.716721 -5.189709 0
M  V30 9 C 2.397342 -1.507316 -5.029131 0
M  V30 10 C 2.520840 -1.016932 -3.734236 0
M  V30 11 C 0.835590 -1.023666 -0.673350 0
M  V30 12 C -0.482480 -1.091238 -1.264253 0
M  V30 13 C -0.650506 -0.127791 -2.269345 0
M  V30 14 C -1.884308 -0.073726 -2.932152 0
M  V30 15 C -2.966390 -0.919676 -2.658671 0
M  V30 16 C -4.174945 -0.721029 -3.443146 0
M  V30 17 N -5.172360 0.138929 -2.933397 0
M  V30 18 C -5.868414 -0.227387 -1.723041 0
M  V30 19 C -5.696042 1.197874 -1.167896 0
M  V30 20 C -5.312906 1.123175 0.241263 0
M  V30 21 N -5.763116 1.854045 1.249341 0
M  V30 22 N -5.160866 1.457849 2.376449 0
M  V30 23 C -4.309677 0.456798 2.089599 0
M  V30 24 C -3.474542 -0.239288 3.058716 0
M  V30 25 C -2.629021 -1.253268 2.704248 0
M  V30 26 C -1.848391 -1.896522 3.658715 0
M  V30 27 C -1.917127 -1.517145 4.985459 0
M  V30 28 C -2.793624 -0.478403 5.297994 0
M  V30 29 N -3.555599 0.146687 4.354695 0
M  V30 30 N -4.420535 0.267873 0.766322 0
M  V30 31 C -4.573234 1.263108 -2.188097 0
M  V30 32 C -2.729575 -1.825838 -1.674579 0
M  V30 33 C -1.529472 -1.911712 -0.997948 0
M  V30 34 N 0.796427 -0.643033 0.634135 0
M  V30 35 C 1.936862 -0.515908 1.349358 0
M  V30 36 N 2.226382 -0.167640 2.615541 0
M  V30 37 C 3.551413 -0.197794 2.825610 0
M  V30 38 C 4.332588 0.097857 4.021280 0
M  V30 39 C 4.170549 1.419528 4.458389 0
M  V30 40 C 4.818756 1.903616 5.568596 0
M  V30 41 C 5.664967 1.095770 6.304268 0
M  V30 42 C 5.787686 -0.210550 5.822095 0
M  V30 43 N 5.151032 -0.696147 4.726574 0
M  V30 44 N 4.108357 -0.575128 1.659801 0
M  V30 45 N 3.136179 -0.763038 0.784162 0
M  V30 46 H 4.460669 -3.323601 -0.255326 0
M  V30 47 H 4.866854 -3.291594 -2.047348 0
M  V30 48 H 6.056717 -2.779718 -0.838961 0
M  V30 49 H 5.117427 -0.787233 -1.662265 0
M  V30 50 H 0.886321 -3.484711 -2.078880 0
M  V30 51 H 0.662424 -4.346448 -4.314383 0
M  V30 52 H 1.612023 -3.113794 -6.198976 0
M  V30 53 H 2.818986 -0.957834 -5.865931 0
M  V30 54 H 3.030624 -0.089432 -3.521900 0
M  V30 55 H 0.116091 0.596792 -2.582643 0
M  V30 56 H -1.994806 0.683321 -3.711531 0
M  V30 57 H -3.879847 -0.387512 -4.481311 0
M  V30 58 H -4.674531 -1.716325 -3.644513 0
M  V30 59 H -6.980257 -0.371878 -1.827837 0
M  V30 60 H -5.385368 -1.007699 -1.103770 0
M  V30 61 H -6.469366 1.911286 -1.441698 0
M  V30 62 H -5.327569 1.863851 3.325513 0
M  V30 63 H -2.628524 -1.494324 1.654276 0
M  V30 64 H -1.191301 -2.692857 3.346176 0
M  V30 65 H -1.332064 -1.984912 5.761689 0
M  V30 66 H -2.842157 -0.186963 6.343103 0
M  V30 67 H -3.630892 1.026697 -1.664451 0
M  V30 68 H -4.519262 2.164478 -2.796407 0
M  V30 69 H -3.538535 -2.499364 -1.433149 0
M  V30 70 H -1.332399 -2.626787 -0.216366 0
M  V30 71 H 3.523131 2.156555 3.955417 0
M  V30 72 H 4.699048 2.933185 5.916035 0
M  V30 73 H 6.221267 1.385024 7.193343 0
M  V30 74 H 6.440770 -0.910511 6.352768 0
M  V30 END ATOM
M  V30 BEGIN BOND
M  V30 1 1 1 2
M  V30 2 1 2 3
M  V30 3 2 3 4
M  V30 4 1 4 5
M  V30 5 2 5 6
M  V30 6 1 6 7
M  V30 7 2 7 8
M  V30 8 1 8 9
M  V30 9 2 9 10
M  V30 10 1 4 11
M  V30 11 1 11 12
M  V30 12 2 12 13
M  V30 13 1 13 14
M  V30 14 2 14 15
M  V30 15 1 15 16
M  V30 16 1 16 17
M  V30 17 1 17 18
M  V30 18 1 18 19
M  V30 19 1 19 20
M  V30 20 2 20 21
M  V30 21 1 21 22
M  V30 22 1 22 23
M  V30 23 1 23 24
M  V30 24 2 24 25
M  V30 25 1 25 26
M  V30 26 2 26 27
M  V30 27 1 27 28
M  V30 28 2 28 29
M  V30 29 2 23 30
M  V30 30 1 19 31
M  V30 31 1 15 32
M  V30 32 2 32 33
M  V30 33 2 11 34
M  V30 34 1 34 35
M  V30 35 2 35 36
M  V30 36 1 36 37
M  V30 37 1 37 38
M  V30 38 2 38 39
M  V30 39 1 39 40
M  V30 40 2 40 41
M  V30 41 1 41 42
M  V30 42 2 42 43
M  V30 43 2 37 44
M  V30 44 1 44 45
M  V30 45 1 45 3
M  V30 46 1 10 5
M  V30 47 1 33 12
M  V30 48 1 45 35
M  V30 49 1 31 17
M  V30 50 1 43 38
M  V30 51 1 30 20
M  V30 52 1 29 24
M  V30 53 1 1 46
M  V30 54 1 1 47
M  V30 55 1 1 48
M  V30 56 1 2 49
M  V30 57 1 6 50
M  V30 58 1 7 51
M  V30 59 1 8 52
M  V30 60 1 9 53
M  V30 61 1 10 54
M  V30 62 1 13 55
M  V30 63 1 14 56
M  V30 64 1 16 57
M  V30 65 1 16 58
M  V30 66 1 18 59
M  V30 67 1 18 60
M  V30 68 1 19 61
M  V30 69 1 22 62
M  V30 70 1 25 63
M  V30 71 1 26 64
M  V30 72 1 27 65
M  V30 73 1 28 66
M  V30 74 1 31 67
M  V30 75 1 31 68
M  V30 76 1 32 69
M  V30 77 1 33 70
M  V30 78 1 39 71
M  V30 79 1 40 72
M  V30 80 1 41 73
M  V30 81 1 42 74
M  V30 END BOND
M  V30 END CTAB
M  END
>  <Dataset>  (491) 
ChEMBL_Kinases

>  <Ligand_Instance>  (491) 
nan

>  <PDB_ID>  (491) 
nan

>  <Standardized_SMILES>  (491) 
CNc1c(-c2ccccc2)c(-c2ccc(CN3CC(c4n[nH]c(-c5ccccn5)n4)C3)cc2)nc2nc(-c3ccccn3)nn12

>  <Name>  (491) 
nan

>  <Pocket>  (491) 
nan

>  <ATP_Site>  (491) 
nan

>  <Peripheral>  (491) 
nan

>  <Num_H_Atoms_ProtBoundConf>  (491) 
nan

>  <Num_Resolved_Atoms>  (491) 
nan

>  <Num_Not_Resolved_Atoms>  (491) 
nan

$$$$
CHEMBL3672079
     RDKit          3D

  0  0  0  0  0  0  0  0  0  0999 V3000
M  V30 BEGIN CTAB
M  V30 COUNTS 72 78 0 0 0
M  V30 BEGIN ATOM
M  V30 1 C 5.832244 -4.182349 2.555910 0
M  V30 2 C 6.135059 -3.607313 1.166629 0
M  V30 3 C 6.413553 -4.831000 0.317282 0
M  V30 4 N 5.021244 -2.835731 0.770734 0
M  V30 5 C 4.319558 -1.657008 1.082813 0
M  V30 6 C 3.118373 -1.313619 0.435802 0
M  V30 7 C 2.554709 -2.182196 -0.584337 0
M  V30 8 C 1.308135 -2.703633 -0.224152 0
M  V30 9 C 0.643824 -3.549076 -1.103618 0
M  V30 10 C 1.166973 -3.906693 -2.343054 0
M  V30 11 C 2.396727 -3.375805 -2.667165 0
M  V30 12 C 3.094031 -2.533447 -1.829124 0
M  V30 13 C 2.489230 -0.140964 0.784156 0
M  V30 14 C 1.245819 0.153657 0.079152 0
M  V30 15 C 0.078345 0.316546 0.833293 0
M  V30 16 C -1.116154 0.591538 0.177749 0
M  V30 17 C -1.202485 0.712135 -1.198425 0
M  V30 18 C -2.521690 1.008965 -1.796611 0
M  V30 19 N -2.799079 2.397486 -1.980655 0
M  V30 20 C -4.120963 2.632859 -2.544650 0
M  V30 21 C -4.382085 3.655783 -1.466994 0
M  V30 22 C -5.619231 3.290015 -0.704280 0
M  V30 23 N -6.768027 3.847830 -0.334300 0
M  V30 24 N -7.476361 2.965960 0.361353 0
M  V30 25 C -6.798698 1.815963 0.456031 0
M  V30 26 C -7.171683 0.572978 1.119713 0
M  V30 27 C -6.308248 -0.503537 1.093761 0
M  V30 28 C -6.659094 -1.684957 1.723979 0
M  V30 29 C -7.871252 -1.801312 2.383580 0
M  V30 30 C -8.713627 -0.695046 2.387543 0
M  V30 31 N -8.343570 0.448471 1.762031 0
M  V30 32 N -5.654607 2.042671 -0.210795 0
M  V30 33 C -3.103756 3.172362 -0.825238 0
M  V30 34 C -0.050795 0.551531 -1.941244 0
M  V30 35 C 1.137988 0.278421 -1.292900 0
M  V30 36 N 2.996229 0.664548 1.714601 0
M  V30 37 C 4.139721 0.359332 2.344808 0
M  V30 38 N 4.769434 1.065575 3.287560 0
M  V30 39 C 5.868640 0.377012 3.613042 0
M  V30 40 C 5.851310 -0.753979 2.823158 0
M  V30 41 N 4.790919 -0.794925 2.025407 0
M  V30 42 H 5.218438 -5.109909 2.361962 0
M  V30 43 H 6.750397 -4.524312 3.065973 0
M  V30 44 H 5.185582 -3.540102 3.150105 0
M  V30 45 H 7.100945 -3.056185 1.175382 0
M  V30 46 H 5.484645 -5.016232 -0.299064 0
M  V30 47 H 6.684891 -5.727206 0.899889 0
M  V30 48 H 7.258136 -4.656081 -0.390828 0
M  V30 49 H 4.574753 -3.348035 -0.051771 0
M  V30 50 H 0.796255 -2.500722 0.709672 0
M  V30 51 H -0.318804 -3.969394 -0.859069 0
M  V30 52 H 0.677490 -4.551966 -3.033466 0
M  V30 53 H 2.898728 -3.584986 -3.602107 0
M  V30 54 H 4.057866 -2.079567 -2.013932 0
M  V30 55 H 0.081152 0.233281 1.917392 0
M  V30 56 H -2.005630 0.714227 0.767626 0
M  V30 57 H -2.693247 0.434378 -2.726557 0
M  V30 58 H -3.319947 0.630794 -1.091308 0
M  V30 59 H -4.786632 1.729614 -2.491078 0
M  V30 60 H -4.102256 3.024761 -3.563350 0
M  V30 61 H -4.383514 4.707143 -1.814724 0
M  V30 62 H -8.410230 3.163499 0.759788 0
M  V30 63 H -5.365832 -0.360633 0.560222 0
M  V30 64 H -5.932833 -2.500091 1.667787 0
M  V30 65 H -8.117729 -2.740653 2.868804 0
M  V30 66 H -9.670194 -0.759222 2.898355 0
M  V30 67 H -2.346385 3.992013 -0.691080 0
M  V30 68 H -3.307526 2.626333 0.114232 0
M  V30 69 H -0.088378 0.640180 -3.013876 0
M  V30 70 H 2.032942 0.156976 -1.889548 0
M  V30 71 H 6.621421 0.664540 4.358455 0
M  V30 72 H 6.617106 -1.479619 2.874203 0
M  V30 END ATOM
M  V30 BEGIN BOND
M  V30 1 1 1 2
M  V30 2 1 2 3
M  V30 3 1 2 4
M  V30 4 1 4 5
M  V30 5 2 5 6
M  V30 6 1 6 7
M  V30 7 2 7 8
M  V30 8 1 8 9
M  V30 9 2 9 10
M  V30 10 1 10 11
M  V30 11 2 11 12
M  V30 12 1 6 13
M  V30 13 1 13 14
M  V30 14 2 14 15
M  V30 15 1 15 16
M  V30 16 2 16 17
M  V30 17 1 17 18
M  V30 18 1 18 19
M  V30 19 1 19 20
M  V30 20 1 20 21
M  V30 21 1 21 22
M  V30 22 2 22 23
M  V30 23 1 23 24
M  V30 24 1 24 25
M  V30 25 1 25 26
M  V30 26 2 26 27
M  V30 27 1 27 28
M  V30 28 2 28 29
M  V30 29 1 29 30
M  V30 30 2 30 31
M  V30 31 2 25 32
M  V30 32 1 21 33
M  V30 33 1 17 34
M  V30 34 2 34 35
M  V30 35 2 13 36
M  V30 36 1 36 37
M  V30 37 2 37 38
M  V30 38 1 38 39
M  V30 39 2 39 40
M  V30 40 1 40 41
M  V30 41 1 41 5
M  V30 42 1 12 7
M  V30 43 1 35 14
M  V30 44 1 41 37
M  V30 45 1 33 19
M  V30 46 1 32 22
M  V30 47 1 31 26
M  V30 48 1 1 42
M  V30 49 1 1 43
M  V30 50 1 1 44
M  V30 51 1 2 45
M  V30 52 1 3 46
M  V30 53 1 3 47
M  V30 54 1 3 48
M  V30 55 1 4 49
M  V30 56 1 8 50
M  V30 57 1 9 51
M  V30 58 1 10 52
M  V30 59 1 11 53
M  V30 60 1 12 54
M  V30 61 1 15 55
M  V30 62 1 16 56
M  V30 63 1 18 57
M  V30 64 1 18 58
M  V30 65 1 20 59
M  V30 66 1 20 60
M  V30 67 1 21 61
M  V30 68 1 24 62
M  V30 69 1 27 63
M  V30 70 1 28 64
M  V30 71 1 29 65
M  V30 72 1 30 66
M  V30 73 1 33 67
M  V30 74 1 33 68
M  V30 75 1 34 69
M  V30 76 1 35 70
M  V30 77 1 39 71
M  V30 78 1 40 72
M  V30 END BOND
M  V30 END CTAB
M  END
>  <Dataset>  (492) 
ChEMBL_Kinases

>  <Ligand_Instance>  (492) 
nan

>  <PDB_ID>  (492) 
nan

>  <Standardized_SMILES>  (492) 
CC(C)Nc1c(-c2ccccc2)c(-c2ccc(CN3CC(c4n[nH]c(-c5ccccn5)n4)C3)cc2)nc2nccn12

>  <Name>  (492) 
nan

>  <Pocket>  (492) 
nan

>  <ATP_Site>  (492) 
nan

>  <Peripheral>  (492) 
nan

>  <Num_H_Atoms_ProtBoundConf>  (492) 
nan

>  <Num_Resolved_Atoms>  (492) 
nan

>  <Num_Not_Resolved_Atoms>  (492) 
nan

$$$$
CHEMBL3355178
     RDKit          3D

  0  0  0  0  0  0  0  0  0  0999 V3000
M  V30 BEGIN CTAB
M  V30 COUNTS 58 62 0 0 0
M  V30 BEGIN ATOM
M  V30 1 O 3.438613 -2.676110 -0.843173 0
M  V30 2 C 4.548534 -3.222711 -0.621185 0
M  V30 3 N 5.386894 -2.596252 0.335128 0
M  V30 4 C 5.128236 -1.413054 1.084620 0
M  V30 5 C 5.926324 -0.804857 2.003910 0
M  V30 6 N 5.289017 0.279580 2.461277 0
M  V30 7 N 4.104368 0.415594 1.885008 0
M  V30 8 C 3.130758 1.456033 2.116148 0
M  V30 9 C 3.489117 2.668387 2.612510 0
M  V30 10 C 2.472516 3.592807 2.794941 0
M  V30 11 C 1.142213 3.291399 2.482885 0
M  V30 12 C 0.798073 2.062793 1.982732 0
M  V30 13 C -0.607018 1.815928 1.679400 0
M  V30 14 O -1.408744 2.734956 1.894326 0
M  V30 15 N -1.106201 0.596161 1.157230 0
M  V30 16 C -2.463533 0.331191 0.854658 0
M  V30 17 C -2.981814 -0.858978 0.340241 0
M  V30 18 N -4.288131 -0.710339 0.197098 0
M  V30 19 N -4.680385 0.495382 0.579503 0
M  V30 20 C -6.057427 0.968337 0.544801 0
M  V30 21 C -6.450738 1.612043 1.855124 0
M  V30 22 C -7.928285 1.284025 1.976961 0
M  V30 23 N -8.009015 -0.059975 1.458364 0
M  V30 24 C -7.011363 -0.191527 0.442560 0
M  V30 25 C -3.563937 1.119659 0.977077 0
M  V30 26 C 1.822424 1.155910 1.807877 0
M  V30 27 C 3.995013 -0.628905 1.029664 0
M  V30 28 N 4.916818 -4.396031 -1.300191 0
M  V30 29 C 3.878555 -4.815971 -2.214487 0
M  V30 30 C 2.837696 -5.679577 -1.864868 0
M  V30 31 C 1.894142 -6.020788 -2.811231 0
M  V30 32 C 1.936363 -5.538289 -4.105346 0
M  V30 33 C 2.975473 -4.682414 -4.436414 0
M  V30 34 C 3.940206 -4.318837 -3.510860 0
M  V30 35 Cl 5.216584 -3.220588 -4.051953 0
M  V30 36 H 6.309800 -3.084788 0.493784 0
M  V30 37 H 6.908312 -1.158234 2.299085 0
M  V30 38 H 4.501693 2.897062 2.849809 0
M  V30 39 H 2.742282 4.566443 3.190841 0
M  V30 40 H 0.422631 4.098644 2.667733 0
M  V30 41 H -0.393556 -0.154622 0.990264 0
M  V30 42 H -2.439638 -1.765353 0.090229 0
M  V30 43 H -6.228206 1.660673 -0.299575 0
M  V30 44 H -5.940749 1.186744 2.724117 0
M  V30 45 H -6.384783 2.711017 1.804693 0
M  V30 46 H -8.214081 1.286223 3.053310 0
M  V30 47 H -8.566020 1.967363 1.375561 0
M  V30 48 H -7.876952 -0.741033 2.238428 0
M  V30 49 H -7.448604 -0.303682 -0.568618 0
M  V30 50 H -6.437625 -1.121339 0.628386 0
M  V30 51 H -3.594313 2.131783 1.343292 0
M  V30 52 H 1.569865 0.188347 1.416802 0
M  V30 53 H 3.118548 -0.749021 0.435754 0
M  V30 54 H 5.855389 -4.818534 -1.082433 0
M  V30 55 H 2.863371 -6.019769 -0.839364 0
M  V30 56 H 1.113871 -6.705171 -2.443018 0
M  V30 57 H 1.158339 -5.846479 -4.809052 0
M  V30 58 H 2.993687 -4.309108 -5.467099 0
M  V30 END ATOM
M  V30 BEGIN BOND
M  V30 1 2 1 2
M  V30 2 1 2 3
M  V30 3 1 3 4
M  V30 4 1 4 5
M  V30 5 2 5 6
M  V30 6 1 6 7
M  V30 7 1 7 8
M  V30 8 2 8 9
M  V30 9 1 9 10
M  V30 10 2 10 11
M  V30 11 1 11 12
M  V30 12 1 12 13
M  V30 13 2 13 14
M  V30 14 1 13 15
M  V30 15 1 15 16
M  V30 16 1 16 17
M  V30 17 2 17 18
M  V30 18 1 18 19
M  V30 19 1 19 20
M  V30 20 1 20 21
M  V30 21 1 21 22
M  V30 22 1 22 23
M  V30 23 1 23 24
M  V30 24 1 19 25
M  V30 25 2 12 26
M  V30 26 1 7 27
M  V30 27 1 2 28
M  V30 28 1 28 29
M  V30 29 2 29 30
M  V30 30 1 30 31
M  V30 31 2 31 32
M  V30 32 1 32 33
M  V30 33 2 33 34
M  V30 34 1 34 35
M  V30 35 2 27 4
M  V30 36 1 34 29
M  V30 37 1 26 8
M  V30 38 2 25 16
M  V30 39 1 24 20
M  V30 40 1 3 36
M  V30 41 1 5 37
M  V30 42 1 9 38
M  V30 43 1 10 39
M  V30 44 1 11 40
M  V30 45 1 15 41
M  V30 46 1 17 42
M  V30 47 1 20 43
M  V30 48 1 21 44
M  V30 49 1 21 45
M  V30 50 1 22 46
M  V30 51 1 22 47
M  V30 52 1 23 48
M  V30 53 1 24 49
M  V30 54 1 24 50
M  V30 55 1 25 51
M  V30 56 1 26 52
M  V30 57 1 27 53
M  V30 58 1 28 54
M  V30 59 1 30 55
M  V30 60 1 31 56
M  V30 61 1 32 57
M  V30 62 1 33 58
M  V30 END BOND
M  V30 END CTAB
M  END
>  <Dataset>  (493) 
ChEMBL_Kinases

>  <Ligand_Instance>  (493) 
nan

>  <PDB_ID>  (493) 
nan

>  <Standardized_SMILES>  (493) 
O=C(Nc1cnn(-c2cccc(C(=O)Nc3cnn(C4CCNC4)c3)c2)c1)Nc1ccccc1Cl

>  <Name>  (493) 
nan

>  <Pocket>  (493) 
nan

>  <ATP_Site>  (493) 
nan

>  <Peripheral>  (493) 
nan

>  <Num_H_Atoms_ProtBoundConf>  (493) 
nan

>  <Num_Resolved_Atoms>  (493) 
nan

>  <Num_Not_Resolved_Atoms>  (493) 
nan

$$$$
CHEMBL3355179
     RDKit          3D

  0  0  0  0  0  0  0  0  0  0999 V3000
M  V30 BEGIN CTAB
M  V30 COUNTS 59 61 0 0 0
M  V30 BEGIN ATOM
M  V30 1 C 6.202696 -1.233962 2.549016 0
M  V30 2 C 4.919109 -1.956180 2.771814 0
M  V30 3 N 3.867701 -1.256941 3.374100 0
M  V30 4 C 3.995387 -0.884517 4.732438 0
M  V30 5 C 5.031440 0.154782 5.039336 0
M  V30 6 C 2.876335 -0.649945 2.600856 0
M  V30 7 C 3.289603 0.533720 1.773562 0
M  V30 8 N 2.150626 1.045070 1.031196 0
M  V30 9 C 2.170703 2.161144 0.154870 0
M  V30 10 O 3.261783 2.780936 -0.006885 0
M  V30 11 C 1.002849 2.639753 -0.573435 0
M  V30 12 C 1.157625 3.772601 -1.360753 0
M  V30 13 C 0.063385 4.267151 -2.084387 0
M  V30 14 C -1.185532 3.632283 -2.023685 0
M  V30 15 C -1.341555 2.507735 -1.242346 0
M  V30 16 N -2.594164 1.828054 -1.157866 0
M  V30 17 C -2.883402 0.715372 -0.456812 0
M  V30 18 C -4.231718 0.393481 -0.669287 0
M  V30 19 N -4.680577 -0.793308 0.032228 0
M  V30 20 C -4.454435 -1.904348 -0.818300 0
M  V30 21 O -3.948698 -1.632757 -1.935450 0
M  V30 22 N -4.745232 -3.250513 -0.513890 0
M  V30 23 C -4.557794 -4.415646 -1.288240 0
M  V30 24 C -4.040687 -4.481978 -2.560492 0
M  V30 25 C -3.875186 -5.642788 -3.274353 0
M  V30 26 C -4.243818 -6.854490 -2.707453 0
M  V30 27 C -4.768651 -6.799978 -1.419755 0
M  V30 28 C -4.909293 -5.620587 -0.761257 0
M  V30 29 Cl -5.591078 -5.727223 0.864607 0
M  V30 30 C -4.714006 1.364190 -1.522133 0
M  V30 31 N -3.691776 2.198193 -1.783415 0
M  V30 32 C -0.225730 2.075189 -0.557203 0
M  V30 33 H 6.129613 -0.133136 2.608894 0
M  V30 34 H 7.007106 -1.603252 3.245071 0
M  V30 35 H 6.626437 -1.463340 1.527909 0
M  V30 36 H 4.557442 -2.380854 1.801221 0
M  V30 37 H 5.139146 -2.863112 3.410724 0
M  V30 38 H 4.248561 -1.786380 5.330328 0
M  V30 39 H 3.018753 -0.501372 5.091502 0
M  V30 40 H 4.994719 1.044056 4.370040 0
M  V30 41 H 6.062573 -0.256245 5.119601 0
M  V30 42 H 4.812697 0.551536 6.061659 0
M  V30 43 H 2.011071 -0.398776 3.277990 0
M  V30 44 H 2.442228 -1.402629 1.877828 0
M  V30 45 H 3.625905 1.362323 2.417844 0
M  V30 46 H 4.050767 0.186268 1.048473 0
M  V30 47 H 1.229467 0.557623 1.141377 0
M  V30 48 H 2.089083 4.291069 -1.440575 0
M  V30 49 H 0.157888 5.157065 -2.711367 0
M  V30 50 H -2.019298 4.026405 -2.589047 0
M  V30 51 H -2.106680 0.235670 0.142060 0
M  V30 52 H -5.099834 -0.965002 0.952412 0
M  V30 53 H -5.158207 -3.333677 0.442242 0
M  V30 54 H -3.731977 -3.586131 -3.059460 0
M  V30 55 H -3.471042 -5.672454 -4.266431 0
M  V30 56 H -4.108585 -7.755793 -3.274803 0
M  V30 57 H -5.048070 -7.739097 -0.993325 0
M  V30 58 H -5.755293 1.247911 -1.780702 0
M  V30 59 H -0.341509 1.201899 0.051457 0
M  V30 END ATOM
M  V30 BEGIN BOND
M  V30 1 1 1 2
M  V30 2 1 2 3
M  V30 3 1 3 4
M  V30 4 1 4 5
M  V30 5 1 3 6
M  V30 6 1 6 7
M  V30 7 1 7 8
M  V30 8 1 8 9
M  V30 9 2 9 10
M  V30 10 1 9 11
M  V30 11 2 11 12
M  V30 12 1 12 13
M  V30 13 2 13 14
M  V30 14 1 14 15
M  V30 15 1 15 16
M  V30 16 1 16 17
M  V30 17 2 17 18
M  V30 18 1 18 19
M  V30 19 1 19 20
M  V30 20 2 20 21
M  V30 21 1 20 22
M  V30 22 1 22 23
M  V30 23 2 23 24
M  V30 24 1 24 25
M  V30 25 2 25 26
M  V30 26 1 26 27
M  V30 27 2 27 28
M  V30 28 1 28 29
M  V30 29 1 18 30
M  V30 30 2 30 31
M  V30 31 2 15 32
M  V30 32 1 32 11
M  V30 33 1 31 16
M  V30 34 1 28 23
M  V30 35 1 1 33
M  V30 36 1 1 34
M  V30 37 1 1 35
M  V30 38 1 2 36
M  V30 39 1 2 37
M  V30 40 1 4 38
M  V30 41 1 4 39
M  V30 42 1 5 40
M  V30 43 1 5 41
M  V30 44 1 5 42
M  V30 45 1 6 43
M  V30 46 1 6 44
M  V30 47 1 7 45
M  V30 48 1 7 46
M  V30 49 1 8 47
M  V30 50 1 12 48
M  V30 51 1 13 49
M  V30 52 1 14 50
M  V30 53 1 17 51
M  V30 54 1 19 52
M  V30 55 1 22 53
M  V30 56 1 24 54
M  V30 57 1 25 55
M  V30 58 1 26 56
M  V30 59 1 27 57
M  V30 60 1 30 58
M  V30 61 1 32 59
M  V30 END BOND
M  V30 END CTAB
M  END
>  <Dataset>  (494) 
ChEMBL_Kinases

>  <Ligand_Instance>  (494) 
nan

>  <PDB_ID>  (494) 
nan

>  <Standardized_SMILES>  (494) 
CCN(CC)CCNC(=O)c1cccc(-n2cc(NC(=O)Nc3ccccc3Cl)cn2)c1

>  <Name>  (494) 
nan

>  <Pocket>  (494) 
nan

>  <ATP_Site>  (494) 
nan

>  <Peripheral>  (494) 
nan

>  <Num_H_Atoms_ProtBoundConf>  (494) 
nan

>  <Num_Resolved_Atoms>  (494) 
nan

>  <Num_Not_Resolved_Atoms>  (494) 
nan

$$$$
CHEMBL3672078
     RDKit          3D

  0  0  0  0  0  0  0  0  0  0999 V3000
M  V30 BEGIN CTAB
M  V30 COUNTS 78 84 0 0 0
M  V30 BEGIN ATOM
M  V30 1 C 1.003051 -0.638991 4.138076 0
M  V30 2 C 2.408855 -0.868226 3.713819 0
M  V30 3 C 3.204263 -1.889216 4.187696 0
M  V30 4 C 4.494305 -1.969653 3.692407 0
M  V30 5 C 4.951936 -1.049539 2.755627 0
M  V30 6 C 4.132366 -0.046201 2.306513 0
M  V30 7 C 4.572789 0.942236 1.320991 0
M  V30 8 N 3.819348 1.937751 0.848152 0
M  V30 9 C 4.455705 2.692976 -0.036485 0
M  V30 10 C 3.743692 3.841857 -0.650101 0
M  V30 11 C 2.293935 3.510349 -0.982571 0
M  V30 12 N 1.996086 3.819446 0.378388 0
M  V30 13 C 0.669804 4.213006 0.703893 0
M  V30 14 C -0.215506 3.067881 0.356816 0
M  V30 15 C -0.830978 2.852853 -0.858125 0
M  V30 16 C -1.621061 1.729572 -0.996333 0
M  V30 17 C -1.798994 0.849453 0.024923 0
M  V30 18 C -2.615020 -0.365726 -0.028388 0
M  V30 19 N -3.693975 -0.477989 0.779941 0
M  V30 20 C -4.481922 -1.591142 0.764048 0
M  V30 21 N -5.585872 -1.940907 1.453137 0
M  V30 22 C -5.999039 -3.168617 1.066409 0
M  V30 23 C -7.164150 -3.982632 1.532145 0
M  V30 24 C -5.095326 -3.564606 0.101296 0
M  V30 25 N -4.156853 -2.600169 -0.092419 0
M  V30 26 C -3.074632 -2.515903 -0.919769 0
M  V30 27 N -2.866360 -3.645227 -1.756988 0
M  V30 28 C -2.079105 -4.782495 -1.323682 0
M  V30 29 C -0.659825 -4.455732 -0.983325 0
M  V30 30 C -2.062575 -5.885409 -2.331683 0
M  V30 31 C -2.277749 -1.389299 -0.903293 0
M  V30 32 C -1.156014 -1.314039 -1.771956 0
M  V30 33 C -1.303859 -1.388884 -3.148012 0
M  V30 34 C -0.161876 -1.304868 -3.919246 0
M  V30 35 C 1.113331 -1.152045 -3.416124 0
M  V30 36 C 1.202972 -1.082913 -2.032901 0
M  V30 37 C 0.109465 -1.158932 -1.193771 0
M  V30 38 C -1.195147 1.034066 1.261346 0
M  V30 39 C -0.391543 2.168155 1.415747 0
M  V30 40 C 3.050246 4.766572 0.364224 0
M  V30 41 N 5.687702 2.130466 -0.120375 0
M  V30 42 N 5.745160 1.086982 0.694224 0
M  V30 43 N 2.883596 -0.004228 2.814784 0
M  V30 44 H 0.733206 0.432325 4.074371 0
M  V30 45 H 0.314424 -1.242092 3.511158 0
M  V30 46 H 0.841645 -0.951528 5.178145 0
M  V30 47 H 2.755947 -2.545982 4.908931 0
M  V30 48 H 5.120643 -2.775059 4.066727 0
M  V30 49 H 5.973790 -1.120610 2.369184 0
M  V30 50 H 4.317940 4.367187 -1.408947 0
M  V30 51 H 2.091082 2.440719 -1.189460 0
M  V30 52 H 1.851611 4.167428 -1.746632 0
M  V30 53 H 0.570732 4.496384 1.771007 0
M  V30 54 H 0.319886 5.111242 0.138030 0
M  V30 55 H -0.656109 3.572000 -1.617242 0
M  V30 56 H -2.109443 1.535380 -1.920199 0
M  V30 57 H -7.832839 -4.280327 0.709476 0
M  V30 58 H -6.709710 -4.894692 2.017624 0
M  V30 59 H -7.666617 -3.429816 2.348348 0
M  V30 60 H -5.144572 -4.519505 -0.420155 0
M  V30 61 H -3.346125 -3.542430 -2.698715 0
M  V30 62 H -2.543327 -5.197117 -0.390114 0
M  V30 63 H -0.186087 -4.068272 -1.897102 0
M  V30 64 H -0.131310 -5.402334 -0.752000 0
M  V30 65 H -0.615321 -3.786210 -0.105511 0
M  V30 66 H -1.489095 -5.613988 -3.233762 0
M  V30 67 H -1.606996 -6.782633 -1.826229 0
M  V30 68 H -3.103753 -6.132989 -2.604951 0
M  V30 69 H -2.295951 -1.508619 -3.564343 0
M  V30 70 H -0.288979 -1.363574 -4.977645 0
M  V30 71 H 2.001351 -1.086913 -4.015526 0
M  V30 72 H 2.190195 -0.963057 -1.608453 0
M  V30 73 H 0.274924 -1.095756 -0.126827 0
M  V30 74 H -1.303264 0.366914 2.103332 0
M  V30 75 H 0.082481 2.304028 2.401873 0
M  V30 76 H 2.870952 5.767726 -0.029569 0
M  V30 77 H 3.629790 4.713581 1.315942 0
M  V30 78 H 6.572526 0.468091 0.832096 0
M  V30 END ATOM
M  V30 BEGIN BOND
M  V30 1 1 1 2
M  V30 2 2 2 3
M  V30 3 1 3 4
M  V30 4 2 4 5
M  V30 5 1 5 6
M  V30 6 1 6 7
M  V30 7 2 7 8
M  V30 8 1 8 9
M  V30 9 1 9 10
M  V30 10 1 10 11
M  V30 11 1 11 12
M  V30 12 1 12 13
M  V30 13 1 13 14
M  V30 14 2 14 15
M  V30 15 1 15 16
M  V30 16 2 16 17
M  V30 17 1 17 18
M  V30 18 2 18 19
M  V30 19 1 19 20
M  V30 20 2 20 21
M  V30 21 1 21 22
M  V30 22 1 22 23
M  V30 23 2 22 24
M  V30 24 1 24 25
M  V30 25 1 25 26
M  V30 26 1 26 27
M  V30 27 1 27 28
M  V30 28 1 28 29
M  V30 29 1 28 30
M  V30 30 2 26 31
M  V30 31 1 31 32
M  V30 32 2 32 33
M  V30 33 1 33 34
M  V30 34 2 34 35
M  V30 35 1 35 36
M  V30 36 2 36 37
M  V30 37 1 17 38
M  V30 38 2 38 39
M  V30 39 1 12 40
M  V30 40 2 9 41
M  V30 41 1 41 42
M  V30 42 2 6 43
M  V30 43 1 43 2
M  V30 44 1 42 7
M  V30 45 1 40 10
M  V30 46 1 39 14
M  V30 47 1 31 18
M  V30 48 1 37 32
M  V30 49 1 25 20
M  V30 50 1 1 44
M  V30 51 1 1 45
M  V30 52 1 1 46
M  V30 53 1 3 47
M  V30 54 1 4 48
M  V30 55 1 5 49
M  V30 56 1 10 50
M  V30 57 1 11 51
M  V30 58 1 11 52
M  V30 59 1 13 53
M  V30 60 1 13 54
M  V30 61 1 15 55
M  V30 62 1 16 56
M  V30 63 1 23 57
M  V30 64 1 23 58
M  V30 65 1 23 59
M  V30 66 1 24 60
M  V30 67 1 27 61
M  V30 68 1 28 62
M  V30 69 1 29 63
M  V30 70 1 29 64
M  V30 71 1 29 65
M  V30 72 1 30 66
M  V30 73 1 30 67
M  V30 74 1 30 68
M  V30 75 1 33 69
M  V30 76 1 34 70
M  V30 77 1 35 71
M  V30 78 1 36 72
M  V30 79 1 37 73
M  V30 80 1 38 74
M  V30 81 1 39 75
M  V30 82 1 40 76
M  V30 83 1 40 77
M  V30 84 1 42 78
M  V30 END BOND
M  V30 END CTAB
M  END
>  <Dataset>  (495) 
ChEMBL_Kinases

>  <Ligand_Instance>  (495) 
nan

>  <PDB_ID>  (495) 
nan

>  <Standardized_SMILES>  (495) 
Cc1cccc(-c2nc(C3CN(Cc4ccc(-c5nc6nc(C)cn6c(NC(C)C)c5-c5ccccc5)cc4)C3)n[nH]2)n1

>  <Name>  (495) 
nan

>  <Pocket>  (495) 
nan

>  <ATP_Site>  (495) 
nan

>  <Peripheral>  (495) 
nan

>  <Num_H_Atoms_ProtBoundConf>  (495) 
nan

>  <Num_Resolved_Atoms>  (495) 
nan

>  <Num_Not_Resolved_Atoms>  (495) 
nan

$$$$
CHEMBL3355180
     RDKit          3D

  0  0  0  0  0  0  0  0  0  0999 V3000
M  V30 BEGIN CTAB
M  V30 COUNTS 60 63 0 0 0
M  V30 BEGIN ATOM
M  V30 1 O 1.766812 -3.639259 -0.665692 0
M  V30 2 C 2.540303 -4.614842 -0.610605 0
M  V30 3 N 3.750190 -4.389326 0.051927 0
M  V30 4 C 4.158071 -3.170843 0.653845 0
M  V30 5 C 5.365754 -2.936895 1.309006 0
M  V30 6 N 5.363711 -1.663332 1.737658 0
M  V30 7 N 4.264411 -1.044471 1.422219 0
M  V30 8 C 3.868219 0.312248 1.694707 0
M  V30 9 C 4.847541 1.300613 1.870668 0
M  V30 10 C 4.324625 2.549226 2.125611 0
M  V30 11 C 3.002351 2.919861 2.222969 0
M  V30 12 C 2.087153 1.895258 2.038718 0
M  V30 13 C 0.664520 2.228954 2.131396 0
M  V30 14 O 0.353539 3.420957 2.382818 0
M  V30 15 N -0.350331 1.269272 1.949677 0
M  V30 16 C -1.670766 1.869924 2.093771 0
M  V30 17 C -2.658123 0.754434 1.866419 0
M  V30 18 C -4.078177 1.080310 1.979272 0
M  V30 19 N -4.740360 2.004374 1.220925 0
M  V30 20 C -4.471808 3.385346 1.395871 0
M  V30 21 C -4.091707 3.897960 0.036757 0
M  V30 22 C -4.459592 2.800153 -0.914552 0
M  V30 23 C -5.241096 1.832917 -0.053002 0
M  V30 24 C 2.527771 0.615026 1.778898 0
M  V30 25 C 3.522301 -1.952004 0.761825 0
M  V30 26 N 2.147586 -5.818569 -1.197832 0
M  V30 27 C 0.975917 -6.139396 -1.874185 0
M  V30 28 C -0.104234 -5.330200 -2.139954 0
M  V30 29 C -1.239962 -5.666636 -2.803929 0
M  V30 30 C -1.355263 -6.965662 -3.280948 0
M  V30 31 C -0.315784 -7.834343 -3.054288 0
M  V30 32 C 0.802546 -7.416506 -2.372638 0
M  V30 33 Cl 2.068701 -8.621438 -2.144520 0
M  V30 34 H 4.425059 -5.208765 0.109620 0
M  V30 35 H 6.149461 -3.681461 1.431628 0
M  V30 36 H 5.902761 1.086764 1.808408 0
M  V30 37 H 5.064562 3.352588 2.269829 0
M  V30 38 H 2.749543 3.958074 2.431522 0
M  V30 39 H -0.137119 0.270305 1.740312 0
M  V30 40 H -1.857310 2.340302 3.054957 0
M  V30 41 H -1.718858 2.651023 1.306227 0
M  V30 42 H -2.396002 -0.011198 2.658164 0
M  V30 43 H -2.334634 0.260015 0.931814 0
M  V30 44 H -4.678119 0.110116 1.927198 0
M  V30 45 H -4.238967 1.348326 3.081326 0
M  V30 46 H -3.699104 3.602755 2.167999 0
M  V30 47 H -5.448506 3.895049 1.702784 0
M  V30 48 H -4.627691 4.856542 -0.205609 0
M  V30 49 H -3.015871 4.153633 0.021825 0
M  V30 50 H -3.596139 2.333429 -1.414084 0
M  V30 51 H -5.080091 3.254474 -1.720338 0
M  V30 52 H -5.328623 0.836743 -0.481871 0
M  V30 53 H -6.294251 2.248907 -0.067914 0
M  V30 54 H 1.827681 -0.203491 1.630351 0
M  V30 55 H 2.540908 -1.721549 0.371283 0
M  V30 56 H 2.884695 -6.566117 -1.085156 0
M  V30 57 H -0.078510 -4.313144 -1.798574 0
M  V30 58 H -2.058450 -4.982355 -2.982466 0
M  V30 59 H -2.220292 -7.310384 -3.815185 0
M  V30 60 H -0.404276 -8.838658 -3.421990 0
M  V30 END ATOM
M  V30 BEGIN BOND
M  V30 1 2 1 2
M  V30 2 1 2 3
M  V30 3 1 3 4
M  V30 4 1 4 5
M  V30 5 2 5 6
M  V30 6 1 6 7
M  V30 7 1 7 8
M  V30 8 2 8 9
M  V30 9 1 9 10
M  V30 10 2 10 11
M  V30 11 1 11 12
M  V30 12 1 12 13
M  V30 13 2 13 14
M  V30 14 1 13 15
M  V30 15 1 15 16
M  V30 16 1 16 17
M  V30 17 1 17 18
M  V30 18 1 18 19
M  V30 19 1 19 20
M  V30 20 1 20 21
M  V30 21 1 21 22
M  V30 22 1 22 23
M  V30 23 2 12 24
M  V30 24 1 7 25
M  V30 25 1 2 26
M  V30 26 1 26 27
M  V30 27 2 27 28
M  V30 28 1 28 29
M  V30 29 2 29 30
M  V30 30 1 30 31
M  V30 31 2 31 32
M  V30 32 1 32 33
M  V30 33 2 25 4
M  V30 34 1 32 27
M  V30 35 1 24 8
M  V30 36 1 23 19
M  V30 37 1 3 34
M  V30 38 1 5 35
M  V30 39 1 9 36
M  V30 40 1 10 37
M  V30 41 1 11 38
M  V30 42 1 15 39
M  V30 43 1 16 40
M  V30 44 1 16 41
M  V30 45 1 17 42
M  V30 46 1 17 43
M  V30 47 1 18 44
M  V30 48 1 18 45
M  V30 49 1 20 46
M  V30 50 1 20 47
M  V30 51 1 21 48
M  V30 52 1 21 49
M  V30 53 1 22 50
M  V30 54 1 22 51
M  V30 55 1 23 52
M  V30 56 1 23 53
M  V30 57 1 24 54
M  V30 58 1 25 55
M  V30 59 1 26 56
M  V30 60 1 28 57
M  V30 61 1 29 58
M  V30 62 1 30 59
M  V30 63 1 31 60
M  V30 END BOND
M  V30 END CTAB
M  END
>  <Dataset>  (496) 
ChEMBL_Kinases

>  <Ligand_Instance>  (496) 
nan

>  <PDB_ID>  (496) 
nan

>  <Standardized_SMILES>  (496) 
O=C(Nc1cnn(-c2cccc(C(=O)NCCCN3CCCC3)c2)c1)Nc1ccccc1Cl

>  <Name>  (496) 
nan

>  <Pocket>  (496) 
nan

>  <ATP_Site>  (496) 
nan

>  <Peripheral>  (496) 
nan

>  <Num_H_Atoms_ProtBoundConf>  (496) 
nan

>  <Num_Resolved_Atoms>  (496) 
nan

>  <Num_Not_Resolved_Atoms>  (496) 
nan

$$$$
CHEMBL3355181
     RDKit          3D

  0  0  0  0  0  0  0  0  0  0999 V3000
M  V30 BEGIN CTAB
M  V30 COUNTS 57 60 0 0 0
M  V30 BEGIN ATOM
M  V30 1 O 1.021651 -4.073603 -1.803763 0
M  V30 2 C 1.107131 -5.052704 -1.053337 0
M  V30 3 N 2.099049 -4.946911 -0.049753 0
M  V30 4 C 2.892159 -3.759060 0.011642 0
M  V30 5 C 4.106143 -3.389757 -0.578806 0
M  V30 6 N 4.407719 -2.139398 -0.178285 0
M  V30 7 N 3.472874 -1.669529 0.632610 0
M  V30 8 C 3.437677 -0.387111 1.260541 0
M  V30 9 C 4.460278 0.016988 2.092917 0
M  V30 10 C 4.435818 1.262934 2.709001 0
M  V30 11 C 3.337444 2.092096 2.454807 0
M  V30 12 C 2.299676 1.717542 1.628112 0
M  V30 13 C 1.210142 2.669181 1.441871 0
M  V30 14 O 1.294493 3.765672 2.052288 0
M  V30 15 N 0.077031 2.426077 0.620332 0
M  V30 16 C -1.007880 3.363285 0.430384 0
M  V30 17 C -1.695639 3.693754 1.741383 0
M  V30 18 C -2.231855 2.406565 2.295877 0
M  V30 19 C -3.564715 2.534085 2.976613 0
M  V30 20 N -4.583672 3.084601 2.135661 0
M  V30 21 C -4.019165 3.819849 1.008063 0
M  V30 22 C -2.856242 4.624802 1.548137 0
M  V30 23 C 2.386885 0.483358 1.056470 0
M  V30 24 C 2.524557 -2.639542 0.771970 0
M  V30 25 N 0.258260 -6.154144 -1.232965 0
M  V30 26 C -0.758768 -6.355676 -2.199364 0
M  V30 27 C -1.143650 -5.492932 -3.196325 0
M  V30 28 C -2.143267 -5.758409 -4.100476 0
M  V30 29 C -2.823233 -6.933836 -4.046562 0
M  V30 30 C -2.464972 -7.808271 -3.070589 0
M  V30 31 C -1.465857 -7.536088 -2.171542 0
M  V30 32 Cl -1.083247 -8.751733 -0.940013 0
M  V30 33 H 2.222975 -5.757399 0.628927 0
M  V30 34 H 4.598208 -4.103463 -1.225917 0
M  V30 35 H 5.300647 -0.671534 2.259959 0
M  V30 36 H 5.256173 1.547089 3.356412 0
M  V30 37 H 3.411997 3.038164 2.979664 0
M  V30 38 H 0.074324 1.497361 0.145002 0
M  V30 39 H -1.729793 2.922884 -0.286206 0
M  V30 40 H -0.584402 4.262046 -0.059628 0
M  V30 41 H -0.970761 4.179317 2.418625 0
M  V30 42 H -2.316914 1.613795 1.533018 0
M  V30 43 H -1.511636 2.103233 3.111164 0
M  V30 44 H -3.884975 1.478667 3.202474 0
M  V30 45 H -3.474498 3.050859 3.966046 0
M  V30 46 H -5.164051 3.768731 2.672262 0
M  V30 47 H -4.761575 4.550415 0.606110 0
M  V30 48 H -3.689247 3.114472 0.242473 0
M  V30 49 H -3.130751 5.001927 2.573876 0
M  V30 50 H -2.621812 5.523690 0.940999 0
M  V30 51 H 1.588431 0.165874 0.405260 0
M  V30 52 H 1.638815 -2.519315 1.386663 0
M  V30 53 H 0.445779 -6.900497 -0.528317 0
M  V30 54 H -0.635758 -4.545772 -3.283269 0
M  V30 55 H -2.395535 -5.023295 -4.868071 0
M  V30 56 H -3.613680 -7.165610 -4.746640 0
M  V30 57 H -2.976770 -8.757478 -2.986694 0
M  V30 END ATOM
M  V30 BEGIN BOND
M  V30 1 2 1 2
M  V30 2 1 2 3
M  V30 3 1 3 4
M  V30 4 1 4 5
M  V30 5 2 5 6
M  V30 6 1 6 7
M  V30 7 1 7 8
M  V30 8 2 8 9
M  V30 9 1 9 10
M  V30 10 2 10 11
M  V30 11 1 11 12
M  V30 12 1 12 13
M  V30 13 2 13 14
M  V30 14 1 13 15
M  V30 15 1 15 16
M  V30 16 1 16 17
M  V30 17 1 17 18
M  V30 18 1 18 19
M  V30 19 1 19 20
M  V30 20 1 20 21
M  V30 21 1 21 22
M  V30 22 2 12 23
M  V30 23 1 7 24
M  V30 24 1 2 25
M  V30 25 1 25 26
M  V30 26 2 26 27
M  V30 27 1 27 28
M  V30 28 2 28 29
M  V30 29 1 29 30
M  V30 30 2 30 31
M  V30 31 1 31 32
M  V30 32 2 24 4
M  V30 33 1 31 26
M  V30 34 1 23 8
M  V30 35 1 22 17
M  V30 36 1 3 33
M  V30 37 1 5 34
M  V30 38 1 9 35
M  V30 39 1 10 36
M  V30 40 1 11 37
M  V30 41 1 15 38
M  V30 42 1 16 39
M  V30 43 1 16 40
M  V30 44 1 17 41
M  V30 45 1 18 42
M  V30 46 1 18 43
M  V30 47 1 19 44
M  V30 48 1 19 45
M  V30 49 1 20 46
M  V30 50 1 21 47
M  V30 51 1 21 48
M  V30 52 1 22 49
M  V30 53 1 22 50
M  V30 54 1 23 51
M  V30 55 1 24 52
M  V30 56 1 25 53
M  V30 57 1 27 54
M  V30 58 1 28 55
M  V30 59 1 29 56
M  V30 60 1 30 57
M  V30 END BOND
M  V30 END CTAB
M  END
>  <Dataset>  (497) 
ChEMBL_Kinases

>  <Ligand_Instance>  (497) 
nan

>  <PDB_ID>  (497) 
nan

>  <Standardized_SMILES>  (497) 
O=C(Nc1cnn(-c2cccc(C(=O)NCC3CCNCC3)c2)c1)Nc1ccccc1Cl

>  <Name>  (497) 
nan

>  <Pocket>  (497) 
nan

>  <ATP_Site>  (497) 
nan

>  <Peripheral>  (497) 
nan

>  <Num_H_Atoms_ProtBoundConf>  (497) 
nan

>  <Num_Resolved_Atoms>  (497) 
nan

>  <Num_Not_Resolved_Atoms>  (497) 
nan

$$$$
CHEMBL3672077
     RDKit          3D

  0  0  0  0  0  0  0  0  0  0999 V3000
M  V30 BEGIN CTAB
M  V30 COUNTS 75 81 0 0 0
M  V30 BEGIN ATOM
M  V30 1 C -4.794849 -5.855720 5.638871 0
M  V30 2 C -4.009186 -4.851019 4.863828 0
M  V30 3 C -4.064218 -4.582580 3.514822 0
M  V30 4 N -3.216376 -3.611171 3.147487 0
M  V30 5 C -2.970038 -3.070894 1.943594 0
M  V30 6 N -3.606691 -3.419375 0.735839 0
M  V30 7 C -4.657635 -4.251621 0.231560 0
M  V30 8 C -6.002477 -3.815385 0.750780 0
M  V30 9 C -4.729973 -4.286475 -1.285378 0
M  V30 10 C -2.012129 -2.082964 1.942720 0
M  V30 11 C -1.623909 -1.387599 0.694818 0
M  V30 12 C -2.474359 -0.577689 -0.049920 0
M  V30 13 C -1.963458 0.005460 -1.192707 0
M  V30 14 C -0.664181 -0.208528 -1.575759 0
M  V30 15 C 0.204303 -1.012827 -0.849776 0
M  V30 16 C -0.321865 -1.596338 0.301266 0
M  V30 17 C -1.360129 -1.682413 3.085425 0
M  V30 18 C -0.350535 -0.628017 2.994388 0
M  V30 19 C -0.702514 0.636779 2.577610 0
M  V30 20 C 0.197832 1.679979 2.454231 0
M  V30 21 C 1.525203 1.454629 2.762657 0
M  V30 22 C 2.595046 2.514252 2.651429 0
M  V30 23 N 3.141144 2.460948 1.309791 0
M  V30 24 C 3.742061 1.199570 0.947746 0
M  V30 25 C 4.720005 2.020455 0.088775 0
M  V30 26 C 4.167259 2.252015 -1.277491 0
M  V30 27 N 3.000159 2.859859 -1.562028 0
M  V30 28 N 2.848911 2.871792 -2.862147 0
M  V30 29 C 3.933294 2.263719 -3.411276 0
M  V30 30 C 4.176921 2.052615 -4.851742 0
M  V30 31 C 3.231250 2.502782 -5.750703 0
M  V30 32 C 3.490171 2.287155 -7.083990 0
M  V30 33 C 4.660711 1.641094 -7.486529 0
M  V30 34 C 5.590075 1.201835 -6.545978 0
M  V30 35 N 5.291882 1.435748 -5.262966 0
M  V30 36 N 4.756291 1.877379 -2.419287 0
M  V30 37 C 4.422924 3.077816 1.100441 0
M  V30 38 C 1.916002 0.189987 3.187443 0
M  V30 39 C 0.984512 -0.822355 3.296370 0
M  V30 40 N -1.696859 -2.300473 4.227854 0
M  V30 41 C -2.619299 -3.268586 4.298481 0
M  V30 42 N -3.075267 -3.992868 5.332646 0
M  V30 43 H -4.304012 -6.858585 5.602150 0
M  V30 44 H -5.857665 -5.911068 5.334318 0
M  V30 45 H -4.810202 -5.561627 6.707685 0
M  V30 46 H -4.736197 -5.138680 2.891625 0
M  V30 47 H -3.208818 -2.925027 -0.117889 0
M  V30 48 H -4.532852 -5.317636 0.567014 0
M  V30 49 H -6.554962 -4.632052 1.258908 0
M  V30 50 H -5.813382 -2.973603 1.476992 0
M  V30 51 H -6.608659 -3.443056 -0.075669 0
M  V30 52 H -5.233050 -5.229086 -1.573495 0
M  V30 53 H -5.346520 -3.434706 -1.659217 0
M  V30 54 H -3.714490 -4.301769 -1.737408 0
M  V30 55 H -3.480952 -0.466552 0.329842 0
M  V30 56 H -2.641743 0.633488 -1.759294 0
M  V30 57 H -0.283977 0.266049 -2.486575 0
M  V30 58 H 1.229259 -1.183075 -1.147080 0
M  V30 59 H 0.372506 -2.214781 0.841528 0
M  V30 60 H -1.708655 0.911342 2.317036 0
M  V30 61 H -0.040407 2.668697 2.135146 0
M  V30 62 H 2.094243 3.499154 2.751763 0
M  V30 63 H 3.379939 2.362193 3.398732 0
M  V30 64 H 3.117719 0.523298 0.354289 0
M  V30 65 H 4.323864 0.663661 1.693245 0
M  V30 66 H 5.729188 1.585676 0.072999 0
M  V30 67 H 2.018217 3.288531 -3.370795 0
M  V30 68 H 2.300959 3.013585 -5.464351 0
M  V30 69 H 2.790649 2.616655 -7.831513 0
M  V30 70 H 4.897782 1.454037 -8.540056 0
M  V30 71 H 6.505123 0.697313 -6.859603 0
M  V30 72 H 4.384382 4.123194 0.697776 0
M  V30 73 H 5.060877 2.965639 1.999253 0
M  V30 74 H 2.904887 -0.103946 3.453906 0
M  V30 75 H 1.243056 -1.839348 3.626390 0
M  V30 END ATOM
M  V30 BEGIN BOND
M  V30 1 1 1 2
M  V30 2 2 2 3
M  V30 3 1 3 4
M  V30 4 1 4 5
M  V30 5 1 5 6
M  V30 6 1 6 7
M  V30 7 1 7 8
M  V30 8 1 7 9
M  V30 9 2 5 10
M  V30 10 1 10 11
M  V30 11 2 11 12
M  V30 12 1 12 13
M  V30 13 2 13 14
M  V30 14 1 14 15
M  V30 15 2 15 16
M  V30 16 1 10 17
M  V30 17 1 17 18
M  V30 18 2 18 19
M  V30 19 1 19 20
M  V30 20 2 20 21
M  V30 21 1 21 22
M  V30 22 1 22 23
M  V30 23 1 23 24
M  V30 24 1 24 25
M  V30 25 1 25 26
M  V30 26 2 26 27
M  V30 27 1 27 28
M  V30 28 1 28 29
M  V30 29 1 29 30
M  V30 30 2 30 31
M  V30 31 1 31 32
M  V30 32 2 32 33
M  V30 33 1 33 34
M  V30 34 2 34 35
M  V30 35 2 29 36
M  V30 36 1 25 37
M  V30 37 1 21 38
M  V30 38 2 38 39
M  V30 39 2 17 40
M  V30 40 1 40 41
M  V30 41 2 41 42
M  V30 42 1 42 2
M  V30 43 1 41 4
M  V30 44 1 16 11
M  V30 45 1 39 18
M  V30 46 1 37 23
M  V30 47 1 36 26
M  V30 48 1 35 30
M  V30 49 1 1 43
M  V30 50 1 1 44
M  V30 51 1 1 45
M  V30 52 1 3 46
M  V30 53 1 6 47
M  V30 54 1 7 48
M  V30 55 1 8 49
M  V30 56 1 8 50
M  V30 57 1 8 51
M  V30 58 1 9 52
M  V30 59 1 9 53
M  V30 60 1 9 54
M  V30 61 1 12 55
M  V30 62 1 13 56
M  V30 63 1 14 57
M  V30 64 1 15 58
M  V30 65 1 16 59
M  V30 66 1 19 60
M  V30 67 1 20 61
M  V30 68 1 22 62
M  V30 69 1 22 63
M  V30 70 1 24 64
M  V30 71 1 24 65
M  V30 72 1 25 66
M  V30 73 1 28 67
M  V30 74 1 31 68
M  V30 75 1 32 69
M  V30 76 1 33 70
M  V30 77 1 34 71
M  V30 78 1 37 72
M  V30 79 1 37 73
M  V30 80 1 38 74
M  V30 81 1 39 75
M  V30 END BOND
M  V30 END CTAB
M  END
>  <Dataset>  (498) 
ChEMBL_Kinases

>  <Ligand_Instance>  (498) 
nan

>  <PDB_ID>  (498) 
nan

>  <Standardized_SMILES>  (498) 
Cc1cn2c(NC(C)C)c(-c3ccccc3)c(-c3ccc(CN4CC(c5n[nH]c(-c6ccccn6)n5)C4)cc3)nc2n1

>  <Name>  (498) 
nan

>  <Pocket>  (498) 
nan

>  <ATP_Site>  (498) 
nan

>  <Peripheral>  (498) 
nan

>  <Num_H_Atoms_ProtBoundConf>  (498) 
nan

>  <Num_Resolved_Atoms>  (498) 
nan

>  <Num_Not_Resolved_Atoms>  (498) 
nan

$$$$
CHEMBL3672076
     RDKit          3D

  0  0  0  0  0  0  0  0  0  0999 V3000
M  V30 BEGIN CTAB
M  V30 COUNTS 75 81 0 0 0
M  V30 BEGIN ATOM
M  V30 1 C 6.090493 -2.987494 5.544494 0
M  V30 2 O 4.685438 -2.801165 5.326320 0
M  V30 3 C 4.227496 -2.479809 4.040654 0
M  V30 4 N 4.981292 -2.310349 2.921798 0
M  V30 5 N 4.153640 -2.010636 1.907332 0
M  V30 6 C 4.545679 -1.773854 0.642408 0
M  V30 7 C 3.555251 -1.479543 -0.272771 0
M  V30 8 C 3.764321 -1.192382 -1.690054 0
M  V30 9 C 3.747759 -2.097182 -2.730311 0
M  V30 10 F 3.525512 -3.388792 -2.394379 0
M  V30 11 C 3.955237 -1.662570 -4.021869 0
M  V30 12 C 4.185414 -0.338515 -4.351247 0
M  V30 13 C 4.197495 0.555098 -3.282734 0
M  V30 14 C 3.993945 0.154359 -1.980063 0
M  V30 15 F 4.025485 1.113719 -1.003356 0
M  V30 16 C 2.233217 -1.437685 0.122249 0
M  V30 17 C 1.064969 -1.148209 -0.706106 0
M  V30 18 C 0.447513 0.084808 -0.644558 0
M  V30 19 C -0.658590 0.426820 -1.391456 0
M  V30 20 C -1.219202 -0.480462 -2.265683 0
M  V30 21 C -2.404742 -0.348819 -3.155178 0
M  V30 22 N -3.610079 -0.761791 -2.575951 0
M  V30 23 C -3.679344 -2.049706 -2.049209 0
M  V30 24 C -4.918394 -2.405671 -1.312061 0
M  V30 25 C -5.643857 -1.239033 -0.673476 0
M  V30 26 C -4.997617 -0.788941 0.575914 0
M  V30 27 N -5.020930 -1.173308 1.855874 0
M  V30 28 N -4.255849 -0.371536 2.577361 0
M  V30 29 C -3.710407 0.561571 1.786783 0
M  V30 30 C -2.799912 1.672408 2.090831 0
M  V30 31 C -2.394844 2.513030 1.078859 0
M  V30 32 C -1.542410 3.597991 1.278325 0
M  V30 33 C -1.143849 3.749841 2.585754 0
M  V30 34 C -1.530048 2.926068 3.627897 0
M  V30 35 N -2.363159 1.891481 3.341922 0
M  V30 36 N -4.193211 0.264492 0.572565 0
M  V30 37 C -5.823241 -0.150276 -1.656989 0
M  V30 38 C -4.500561 0.253486 -2.243442 0
M  V30 39 C -0.588748 -1.733841 -2.326174 0
M  V30 40 C 0.517701 -2.068625 -1.576272 0
M  V30 41 N 1.925096 -1.691570 1.429205 0
M  V30 42 C 2.869506 -1.974403 2.312050 0
M  V30 43 C 2.897803 -2.270260 3.665041 0
M  V30 44 C 1.728126 -2.358465 4.577957 0
M  V30 45 O 1.664407 -1.220493 5.383776 0
M  V30 46 H 6.463846 -3.784428 4.859164 0
M  V30 47 H 6.671654 -2.057878 5.334953 0
M  V30 48 H 6.293245 -3.302309 6.575098 0
M  V30 49 H 5.559610 -1.795630 0.284770 0
M  V30 50 H 3.929319 -2.421048 -4.783575 0
M  V30 51 H 4.346974 -0.001303 -5.367715 0
M  V30 52 H 4.380964 1.606102 -3.554669 0
M  V30 53 H 0.829271 0.846400 0.017685 0
M  V30 54 H -1.180196 1.371295 -1.390668 0
M  V30 55 H -2.400444 0.735597 -3.472439 0
M  V30 56 H -2.189450 -0.909910 -4.085184 0
M  V30 57 H -3.610468 -2.794023 -2.911773 0
M  V30 58 H -2.811188 -2.265532 -1.379280 0
M  V30 59 H -5.651168 -2.970681 -1.940315 0
M  V30 60 H -4.663472 -3.099634 -0.485253 0
M  V30 61 H -6.652153 -1.672890 -0.390623 0
M  V30 62 H -4.082691 -0.432781 3.622189 0
M  V30 63 H -2.771759 2.302863 0.101871 0
M  V30 64 H -1.233808 4.243362 0.486973 0
M  V30 65 H -0.473121 4.589980 2.790701 0
M  V30 66 H -1.169687 3.116753 4.630375 0
M  V30 67 H -6.238225 0.750314 -1.156497 0
M  V30 68 H -6.518409 -0.480096 -2.459192 0
M  V30 69 H -4.764866 0.802817 -3.210468 0
M  V30 70 H -4.057104 1.075456 -1.626344 0
M  V30 71 H -0.956756 -2.527647 -2.992359 0
M  V30 72 H 0.964992 -3.046531 -1.657000 0
M  V30 73 H 1.763037 -3.288164 5.189077 0
M  V30 74 H 0.799055 -2.367671 3.959787 0
M  V30 75 H 2.595315 -0.873683 5.569529 0
M  V30 END ATOM
M  V30 BEGIN BOND
M  V30 1 1 1 2
M  V30 2 1 2 3
M  V30 3 2 3 4
M  V30 4 1 4 5
M  V30 5 1 5 6
M  V30 6 2 6 7
M  V30 7 1 7 8
M  V30 8 2 8 9
M  V30 9 1 9 10
M  V30 10 1 9 11
M  V30 11 2 11 12
M  V30 12 1 12 13
M  V30 13 2 13 14
M  V30 14 1 14 15
M  V30 15 1 7 16
M  V30 16 1 16 17
M  V30 17 2 17 18
M  V30 18 1 18 19
M  V30 19 2 19 20
M  V30 20 1 20 21
M  V30 21 1 21 22
M  V30 22 1 22 23
M  V30 23 1 23 24
M  V30 24 1 24 25
M  V30 25 1 25 26
M  V30 26 2 26 27
M  V30 27 1 27 28
M  V30 28 1 28 29
M  V30 29 1 29 30
M  V30 30 2 30 31
M  V30 31 1 31 32
M  V30 32 2 32 33
M  V30 33 1 33 34
M  V30 34 2 34 35
M  V30 35 2 29 36
M  V30 36 1 25 37
M  V30 37 1 37 38
M  V30 38 1 20 39
M  V30 39 2 39 40
M  V30 40 2 16 41
M  V30 41 1 41 42
M  V30 42 2 42 43
M  V30 43 1 43 44
M  V30 44 1 44 45
M  V30 45 1 43 3
M  V30 46 1 42 5
M  V30 47 1 14 8
M  V30 48 1 40 17
M  V30 49 1 38 22
M  V30 50 1 36 26
M  V30 51 1 35 30
M  V30 52 1 1 46
M  V30 53 1 1 47
M  V30 54 1 1 48
M  V30 55 1 6 49
M  V30 56 1 11 50
M  V30 57 1 12 51
M  V30 58 1 13 52
M  V30 59 1 18 53
M  V30 60 1 19 54
M  V30 61 1 21 55
M  V30 62 1 21 56
M  V30 63 1 23 57
M  V30 64 1 23 58
M  V30 65 1 24 59
M  V30 66 1 24 60
M  V30 67 1 25 61
M  V30 68 1 28 62
M  V30 69 1 31 63
M  V30 70 1 32 64
M  V30 71 1 33 65
M  V30 72 1 34 66
M  V30 73 1 37 67
M  V30 74 1 37 68
M  V30 75 1 38 69
M  V30 76 1 38 70
M  V30 77 1 39 71
M  V30 78 1 40 72
M  V30 79 1 44 73
M  V30 80 1 44 74
M  V30 81 1 45 75
M  V30 END BOND
M  V30 END CTAB
M  END
>  <Dataset>  (499) 
ChEMBL_Kinases

>  <Ligand_Instance>  (499) 
nan

>  <PDB_ID>  (499) 
nan

>  <Standardized_SMILES>  (499) 
COc1nn2cc(-c3c(F)cccc3F)c(-c3ccc(CN4CCC(c5n[nH]c(-c6ccccn6)n5)CC4)cc3)nc2c1CO

>  <Name>  (499) 
nan

>  <Pocket>  (499) 
nan

>  <ATP_Site>  (499) 
nan

>  <Peripheral>  (499) 
nan

>  <Num_H_Atoms_ProtBoundConf>  (499) 
nan

>  <Num_Resolved_Atoms>  (499) 
nan

>  <Num_Not_Resolved_Atoms>  (499) 
nan

$$$$
CHEMBL3355988
     RDKit          3D

  0  0  0  0  0  0  0  0  0  0999 V3000
M  V30 BEGIN CTAB
M  V30 COUNTS 46 49 0 0 0
M  V30 BEGIN ATOM
M  V30 1 C 0.856757 -6.184434 0.224934 0
M  V30 2 O -0.171317 -5.241359 0.181660 0
M  V30 3 C 0.266827 -4.016601 -0.372522 0 CFG=1
M  V30 4 C -0.665036 -3.732701 -1.521429 0
M  V30 5 C -0.462574 -2.384004 -2.124681 0
M  V30 6 C -0.248321 -1.269163 -1.185288 0 CFG=2
M  V30 7 N 0.630547 -0.250984 -1.780425 0
M  V30 8 C 1.029333 0.949446 -1.126584 0
M  V30 9 C 1.867429 1.883934 -1.739805 0
M  V30 10 C 2.217473 3.028467 -1.052264 0
M  V30 11 N 1.786464 3.293837 0.196397 0
M  V30 12 N 1.965693 4.292893 1.065206 0
M  V30 13 C 1.282829 4.035343 2.195263 0
M  V30 14 C 0.630520 2.809812 2.049232 0
M  V30 15 C -0.215533 2.190566 3.073826 0
M  V30 16 C 0.334466 2.231048 4.342379 0
M  V30 17 C -0.362842 1.676715 5.421558 0
M  V30 18 C -1.611066 1.087797 5.198178 0
M  V30 19 C -2.152808 1.055529 3.908031 0
M  V30 20 Cl -3.714955 0.323563 3.601428 0
M  V30 21 C -1.450962 1.608468 2.848577 0
M  V30 22 C 0.972174 2.365325 0.766475 0
M  V30 23 N 0.607353 1.236958 0.130584 0
M  V30 24 C 0.131776 -1.559725 0.204678 0
M  V30 25 C -0.022755 -2.967083 0.671613 0
M  V30 26 H 0.425537 -7.113848 0.673216 0
M  V30 27 H 1.246418 -6.455438 -0.771919 0
M  V30 28 H 1.682757 -5.876164 0.915216 0
M  V30 29 H 1.318393 -4.090582 -0.641737 0
M  V30 30 H -0.602538 -4.499293 -2.312922 0
M  V30 31 H -1.701797 -3.793971 -1.130274 0
M  V30 32 H 0.401642 -2.470625 -2.819553 0
M  V30 33 H -1.338677 -2.225648 -2.818946 0
M  V30 34 H -1.235920 -0.719925 -1.129737 0
M  V30 35 H 0.993599 -0.405900 -2.746339 0
M  V30 36 H 2.223559 1.679038 -2.753573 0
M  V30 37 H 2.874223 3.744959 -1.552572 0
M  V30 38 H 1.226651 4.650906 3.084918 0
M  V30 39 H 1.291235 2.670403 4.577993 0
M  V30 40 H 0.075930 1.710770 6.424156 0
M  V30 41 H -2.159561 0.652272 6.044375 0
M  V30 42 H -1.813684 1.615258 1.833153 0
M  V30 43 H -0.357138 -0.908141 0.959165 0
M  V30 44 H 1.233499 -1.336477 0.304013 0
M  V30 45 H 0.658539 -3.188212 1.525306 0
M  V30 46 H -1.055844 -3.149498 1.046939 0
M  V30 END ATOM
M  V30 BEGIN BOND
M  V30 1 1 1 2
M  V30 2 1 2 3
M  V30 3 1 3 4
M  V30 4 1 4 5
M  V30 5 1 5 6
M  V30 6 1 6 7
M  V30 7 1 7 8
M  V30 8 1 8 9
M  V30 9 2 9 10
M  V30 10 1 10 11
M  V30 11 1 11 12
M  V30 12 2 12 13
M  V30 13 1 13 14
M  V30 14 1 14 15
M  V30 15 2 15 16
M  V30 16 1 16 17
M  V30 17 2 17 18
M  V30 18 1 18 19
M  V30 19 1 19 20
M  V30 20 2 19 21
M  V30 21 2 14 22
M  V30 22 1 22 23
M  V30 23 1 6 24
M  V30 24 1 24 25
M  V30 25 1 25 3
M  V30 26 2 23 8
M  V30 27 1 22 11
M  V30 28 1 21 15
M  V30 29 1 1 26
M  V30 30 1 1 27
M  V30 31 1 1 28
M  V30 32 1 3 29 CFG=3
M  V30 33 1 4 30
M  V30 34 1 4 31
M  V30 35 1 5 32
M  V30 36 1 5 33
M  V30 37 1 6 34 CFG=1
M  V30 38 1 7 35
M  V30 39 1 9 36
M  V30 40 1 10 37
M  V30 41 1 13 38
M  V30 42 1 16 39
M  V30 43 1 17 40
M  V30 44 1 18 41
M  V30 45 1 21 42
M  V30 46 1 24 43
M  V30 47 1 24 44
M  V30 48 1 25 45
M  V30 49 1 25 46
M  V30 END BOND
M  V30 END CTAB
M  END
>  <Dataset>  (500) 
ChEMBL_Kinases

>  <Ligand_Instance>  (500) 
nan

>  <PDB_ID>  (500) 
nan

>  <Standardized_SMILES>  (500) 
CO[C@H]1CC[C@H](Nc2ccn3ncc(-c4cccc(Cl)c4)c3n2)CC1

>  <Name>  (500) 
nan

>  <Pocket>  (500) 
nan

>  <ATP_Site>  (500) 
nan

>  <Peripheral>  (500) 
nan

>  <Num_H_Atoms_ProtBoundConf>  (500) 
nan

>  <Num_Resolved_Atoms>  (500) 
nan

>  <Num_Not_Resolved_Atoms>  (500) 
nan

$$$$
CHEMBL3355184
     RDKit          3D

  0  0  0  0  0  0  0  0  0  0999 V3000
M  V30 BEGIN CTAB
M  V30 COUNTS 51 54 0 0 0
M  V30 BEGIN ATOM
M  V30 1 O -0.389009 -3.383432 2.018689 0
M  V30 2 C -1.613397 -3.535023 2.167329 0
M  V30 3 N -2.171181 -2.634344 3.101927 0
M  V30 4 C -1.225782 -1.717444 3.702513 0
M  V30 5 C -0.430885 -1.782203 4.844371 0
M  V30 6 N 0.261750 -0.630337 4.918489 0
M  V30 7 N -0.039260 0.159020 3.903210 0
M  V30 8 C 0.463732 1.458427 3.604235 0
M  V30 9 C 0.692374 2.395374 4.597304 0
M  V30 10 C 1.185224 3.663001 4.286236 0
M  V30 11 C 1.459484 4.016635 2.966299 0
M  V30 12 C 1.237783 3.100351 1.978006 0
M  V30 13 C 1.532982 3.495294 0.604063 0
M  V30 14 O 1.973315 4.653574 0.410694 0
M  V30 15 N 1.350499 2.645370 -0.522089 0
M  V30 16 C 1.669624 3.112110 -1.877591 0
M  V30 17 C 2.750201 2.205706 -2.417633 0
M  V30 18 C 2.050647 1.231668 -3.315432 0
M  V30 19 N 0.764191 1.785886 -3.643742 0
M  V30 20 C 0.491118 2.886250 -2.765398 0
M  V30 21 C 0.751645 1.859394 2.315501 0
M  V30 22 C -0.959155 -0.482863 3.128089 0
M  V30 23 N -2.247992 -4.533322 1.422083 0
M  V30 24 C -1.883901 -5.484417 0.454290 0
M  V30 25 C -2.771947 -6.516322 0.281766 0
M  V30 26 C -2.542528 -7.503007 -0.641208 0
M  V30 27 C -1.416618 -7.492010 -1.424668 0
M  V30 28 C -0.502810 -6.483458 -1.289776 0
M  V30 29 C -0.779566 -5.521042 -0.352692 0
M  V30 30 Cl 0.420240 -4.259160 -0.291419 0
M  V30 31 H -3.209049 -2.717472 3.267966 0
M  V30 32 H -0.461993 -2.663383 5.473168 0
M  V30 33 H 0.492899 2.162315 5.636046 0
M  V30 34 H 1.343817 4.350996 5.099299 0
M  V30 35 H 1.840314 5.008929 2.767606 0
M  V30 36 H 0.984926 1.680615 -0.371820 0
M  V30 37 H 2.035474 4.141916 -1.818443 0
M  V30 38 H 3.291116 1.657228 -1.636893 0
M  V30 39 H 3.444465 2.818971 -3.053597 0
M  V30 40 H 2.571998 1.043170 -4.261221 0
M  V30 41 H 1.901468 0.253463 -2.831384 0
M  V30 42 H 0.036031 1.032307 -3.634816 0
M  V30 43 H 0.363649 3.800304 -3.409341 0
M  V30 44 H -0.461856 2.762834 -2.210698 0
M  V30 45 H 0.570250 1.121575 1.545617 0
M  V30 46 H -1.403215 -0.084326 2.214048 0
M  V30 47 H -3.267129 -4.489057 1.712301 0
M  V30 48 H -3.701231 -6.608563 0.864624 0
M  V30 49 H -3.260926 -8.297577 -0.746910 0
M  V30 50 H -1.304519 -8.301084 -2.127041 0
M  V30 51 H 0.360437 -6.509547 -1.917298 0
M  V30 END ATOM
M  V30 BEGIN BOND
M  V30 1 2 1 2
M  V30 2 1 2 3
M  V30 3 1 3 4
M  V30 4 1 4 5
M  V30 5 2 5 6
M  V30 6 1 6 7
M  V30 7 1 7 8
M  V30 8 2 8 9
M  V30 9 1 9 10
M  V30 10 2 10 11
M  V30 11 1 11 12
M  V30 12 1 12 13
M  V30 13 2 13 14
M  V30 14 1 13 15
M  V30 15 1 15 16
M  V30 16 1 16 17
M  V30 17 1 17 18
M  V30 18 1 18 19
M  V30 19 1 19 20
M  V30 20 2 12 21
M  V30 21 1 7 22
M  V30 22 1 2 23
M  V30 23 1 23 24
M  V30 24 2 24 25
M  V30 25 1 25 26
M  V30 26 2 26 27
M  V30 27 1 27 28
M  V30 28 2 28 29
M  V30 29 1 29 30
M  V30 30 2 22 4
M  V30 31 1 29 24
M  V30 32 1 21 8
M  V30 33 1 20 16
M  V30 34 1 3 31
M  V30 35 1 5 32
M  V30 36 1 9 33
M  V30 37 1 10 34
M  V30 38 1 11 35
M  V30 39 1 15 36
M  V30 40 1 16 37
M  V30 41 1 17 38
M  V30 42 1 17 39
M  V30 43 1 18 40
M  V30 44 1 18 41
M  V30 45 1 19 42
M  V30 46 1 20 43
M  V30 47 1 20 44
M  V30 48 1 21 45
M  V30 49 1 22 46
M  V30 50 1 23 47
M  V30 51 1 25 48
M  V30 52 1 26 49
M  V30 53 1 27 50
M  V30 54 1 28 51
M  V30 END BOND
M  V30 END CTAB
M  END
>  <Dataset>  (501) 
ChEMBL_Kinases

>  <Ligand_Instance>  (501) 
nan

>  <PDB_ID>  (501) 
nan

>  <Standardized_SMILES>  (501) 
O=C(Nc1cnn(-c2cccc(C(=O)NC3CCNC3)c2)c1)Nc1ccccc1Cl

>  <Name>  (501) 
nan

>  <Pocket>  (501) 
nan

>  <ATP_Site>  (501) 
nan

>  <Peripheral>  (501) 
nan

>  <Num_H_Atoms_ProtBoundConf>  (501) 
nan

>  <Num_Resolved_Atoms>  (501) 
nan

>  <Num_Not_Resolved_Atoms>  (501) 
nan

$$$$
CHEMBL3672075
     RDKit          3D

  0  0  0  0  0  0  0  0  0  0999 V3000
M  V30 BEGIN CTAB
M  V30 COUNTS 78 84 0 0 0
M  V30 BEGIN ATOM
M  V30 1 C 3.863242 -0.816694 9.378269 0
M  V30 2 O 2.598679 -1.085254 8.751862 0
M  V30 3 C 2.442109 -0.799965 7.375524 0
M  V30 4 N 3.429715 -0.269973 6.613997 0
M  V30 5 N 3.025362 -0.099248 5.370267 0
M  V30 6 C 3.683869 0.402007 4.306893 0
M  V30 7 C 3.024029 0.486186 3.100444 0
M  V30 8 C 3.691480 1.021403 1.920730 0
M  V30 9 C 4.771949 0.286800 1.464158 0
M  V30 10 F 5.173723 -0.863107 2.079869 0
M  V30 11 C 5.450625 0.752586 0.343536 0
M  V30 12 C 5.048742 1.910520 -0.282046 0
M  V30 13 C 3.971452 2.654925 0.162190 0
M  V30 14 C 3.306114 2.180714 1.276474 0
M  V30 15 F 2.252790 2.872986 1.744196 0
M  V30 16 C 1.694589 0.063362 2.965085 0
M  V30 17 C 0.921998 0.145784 1.730163 0
M  V30 18 C 1.122029 -0.343450 0.460772 0
M  V30 19 C 0.192991 -0.101018 -0.523912 0
M  V30 20 C -0.953525 0.609539 -0.343782 0
M  V30 21 C -1.962482 0.903764 -1.358488 0
M  V30 22 N -2.963023 -0.102524 -1.520260 0
M  V30 23 C -3.642928 -0.480130 -0.296592 0
M  V30 24 C -4.317748 -1.824070 -0.626769 0
M  V30 25 C -5.104137 -1.683657 -1.913708 0
M  V30 26 C -4.473426 -2.385084 -3.060693 0
M  V30 27 N -4.706206 -3.422716 -3.881027 0
M  V30 28 N -3.749627 -3.566078 -4.775825 0
M  V30 29 C -2.831171 -2.584207 -4.550495 0
M  V30 30 C -1.607591 -2.341002 -5.294011 0
M  V30 31 C -0.790895 -1.297619 -4.933404 0
M  V30 32 C 0.383427 -0.985617 -5.577194 0
M  V30 33 C 0.708055 -1.814840 -6.650649 0
M  V30 34 C -0.105078 -2.886740 -7.042507 0
M  V30 35 C 0.201512 -3.784314 -8.174037 0
M  V30 36 N -1.224600 -3.087534 -6.333533 0
M  V30 37 N -3.305897 -1.904895 -3.517945 0
M  V30 38 C -5.296267 -0.211973 -2.234369 0
M  V30 39 C -3.999491 0.509787 -2.362173 0
M  V30 40 C -1.158536 1.108330 0.950703 0
M  V30 41 C -0.239174 0.887034 1.986776 0
M  V30 42 N 1.094758 -0.432782 4.083679 0
M  V30 43 C 1.749843 -0.513942 5.271923 0
M  V30 44 C 1.379176 -0.954385 6.525888 0
M  V30 45 C 0.070462 -1.512843 6.947096 0
M  V30 46 O -0.702674 -0.609884 7.679441 0
M  V30 47 H 3.745442 -0.767690 10.474791 0
M  V30 48 H 4.586336 -1.605347 9.073221 0
M  V30 49 H 4.281921 0.141525 8.951140 0
M  V30 50 H 4.708159 0.740802 4.366924 0
M  V30 51 H 6.290120 0.179147 -0.010778 0
M  V30 52 H 5.608628 2.217489 -1.138128 0
M  V30 53 H 3.646546 3.562890 -0.320199 0
M  V30 54 H 2.046197 -0.890702 0.398409 0
M  V30 55 H 0.407836 -0.509445 -1.491880 0
M  V30 56 H -2.493351 1.838741 -1.067595 0
M  V30 57 H -1.488222 1.032182 -2.366263 0
M  V30 58 H -4.425909 0.240344 -0.011753 0
M  V30 59 H -2.976480 -0.673973 0.548968 0
M  V30 60 H -3.580396 -2.624823 -0.747274 0
M  V30 61 H -5.016554 -2.095581 0.181902 0
M  V30 62 H -6.108764 -2.112325 -1.741600 0
M  V30 63 H -3.723657 -4.301808 -5.511821 0
M  V30 64 H -1.089863 -0.690684 -4.102421 0
M  V30 65 H 1.058124 -0.184542 -5.336846 0
M  V30 66 H 1.623892 -1.636043 -7.219703 0
M  V30 67 H -0.571962 -3.694049 -8.992617 0
M  V30 68 H 1.170080 -3.563351 -8.648683 0
M  V30 69 H 0.155120 -4.860419 -7.866511 0
M  V30 70 H -5.910573 -0.174867 -3.164522 0
M  V30 71 H -5.897558 0.203642 -1.419647 0
M  V30 72 H -3.643633 0.507536 -3.421534 0
M  V30 73 H -4.086687 1.602026 -2.097465 0
M  V30 74 H -2.080279 1.690330 1.123228 0
M  V30 75 H -0.557796 1.349384 2.931658 0
M  V30 76 H -0.531564 -1.765705 6.024960 0
M  V30 77 H 0.169876 -2.415873 7.594131 0
M  V30 78 H -0.898415 -0.919455 8.593309 0
M  V30 END ATOM
M  V30 BEGIN BOND
M  V30 1 1 1 2
M  V30 2 1 2 3
M  V30 3 2 3 4
M  V30 4 1 4 5
M  V30 5 1 5 6
M  V30 6 2 6 7
M  V30 7 1 7 8
M  V30 8 2 8 9
M  V30 9 1 9 10
M  V30 10 1 9 11
M  V30 11 2 11 12
M  V30 12 1 12 13
M  V30 13 2 13 14
M  V30 14 1 14 15
M  V30 15 1 7 16
M  V30 16 1 16 17
M  V30 17 2 17 18
M  V30 18 1 18 19
M  V30 19 2 19 20
M  V30 20 1 20 21
M  V30 21 1 21 22
M  V30 22 1 22 23
M  V30 23 1 23 24
M  V30 24 1 24 25
M  V30 25 1 25 26
M  V30 26 2 26 27
M  V30 27 1 27 28
M  V30 28 1 28 29
M  V30 29 1 29 30
M  V30 30 2 30 31
M  V30 31 1 31 32
M  V30 32 2 32 33
M  V30 33 1 33 34
M  V30 34 1 34 35
M  V30 35 2 34 36
M  V30 36 2 29 37
M  V30 37 1 25 38
M  V30 38 1 38 39
M  V30 39 1 20 40
M  V30 40 2 40 41
M  V30 41 2 16 42
M  V30 42 1 42 43
M  V30 43 2 43 44
M  V30 44 1 44 45
M  V30 45 1 45 46
M  V30 46 1 44 3
M  V30 47 1 43 5
M  V30 48 1 14 8
M  V30 49 1 41 17
M  V30 50 1 39 22
M  V30 51 1 37 26
M  V30 52 1 36 30
M  V30 53 1 1 47
M  V30 54 1 1 48
M  V30 55 1 1 49
M  V30 56 1 6 50
M  V30 57 1 11 51
M  V30 58 1 12 52
M  V30 59 1 13 53
M  V30 60 1 18 54
M  V30 61 1 19 55
M  V30 62 1 21 56
M  V30 63 1 21 57
M  V30 64 1 23 58
M  V30 65 1 23 59
M  V30 66 1 24 60
M  V30 67 1 24 61
M  V30 68 1 25 62
M  V30 69 1 28 63
M  V30 70 1 31 64
M  V30 71 1 32 65
M  V30 72 1 33 66
M  V30 73 1 35 67
M  V30 74 1 35 68
M  V30 75 1 35 69
M  V30 76 1 38 70
M  V30 77 1 38 71
M  V30 78 1 39 72
M  V30 79 1 39 73
M  V30 80 1 40 74
M  V30 81 1 41 75
M  V30 82 1 45 76
M  V30 83 1 45 77
M  V30 84 1 46 78
M  V30 END BOND
M  V30 END CTAB
M  END
>  <Dataset>  (502) 
ChEMBL_Kinases

>  <Ligand_Instance>  (502) 
nan

>  <PDB_ID>  (502) 
nan

>  <Standardized_SMILES>  (502) 
COc1nn2cc(-c3c(F)cccc3F)c(-c3ccc(CN4CCC(c5n[nH]c(-c6cccc(C)n6)n5)CC4)cc3)nc2c1CO

>  <Name>  (502) 
nan

>  <Pocket>  (502) 
nan

>  <ATP_Site>  (502) 
nan

>  <Peripheral>  (502) 
nan

>  <Num_H_Atoms_ProtBoundConf>  (502) 
nan

>  <Num_Resolved_Atoms>  (502) 
nan

>  <Num_Not_Resolved_Atoms>  (502) 
nan

$$$$
CHEMBL4128865
     RDKit          3D

  0  0  0  0  0  0  0  0  0  0999 V3000
M  V30 BEGIN CTAB
M  V30 COUNTS 53 57 0 0 0
M  V30 BEGIN ATOM
M  V30 1 N -2.065916 0.814450 4.152166 0
M  V30 2 C -0.777577 0.517777 3.627142 0
M  V30 3 N 0.085029 0.069632 4.560473 0
M  V30 4 C 1.351809 -0.248924 4.183238 0
M  V30 5 C 1.722709 -0.107351 2.863463 0
M  V30 6 C 0.834237 0.352033 1.914357 0
M  V30 7 C 0.999498 0.578392 0.505114 0
M  V30 8 C 1.838007 1.531452 -0.034971 0
M  V30 9 C 2.732671 2.513364 0.567338 0
M  V30 10 C 2.293582 3.810661 0.268222 0
M  V30 11 C 2.984879 4.923863 0.729746 0
M  V30 12 C 4.137186 4.766955 1.505284 0
M  V30 13 F 4.832606 5.833210 1.969468 0
M  V30 14 C 4.540418 3.476426 1.780305 0
M  V30 15 C 3.865025 2.362001 1.329300 0
M  V30 16 N 1.695297 1.411724 -1.388650 0
M  V30 17 C 0.808254 0.428255 -1.656078 0
M  V30 18 N 0.383145 -0.081274 -0.489110 0
M  V30 19 C -0.569648 -1.149132 -0.423464 0
M  V30 20 C -1.948769 -0.555427 -0.722679 0
M  V30 21 C -3.036073 -1.572045 -0.515825 0
M  V30 22 N -2.375922 -2.875618 -0.345654 0
M  V30 23 C -3.325852 -3.909267 -0.082956 0
M  V30 24 C -2.641513 -5.210984 0.085433 0
M  V30 25 C -2.297308 -6.232964 -0.784260 0
M  V30 26 C -1.662727 -7.231499 -0.102180 0
M  V30 27 O -1.635635 -6.808184 1.129750 0
M  V30 28 N -2.183997 -5.657106 1.283903 0
M  V30 29 C -1.579499 -3.083135 -1.538285 0
M  V30 30 C -0.331945 -2.193066 -1.467632 0
M  V30 31 N -0.415328 0.657853 2.329277 0
M  V30 32 H -2.838317 0.104962 4.142363 0
M  V30 33 H -2.081887 1.793682 4.515218 0
M  V30 34 H 2.133871 -0.619461 4.845975 0
M  V30 35 H 2.696683 -0.331524 2.453506 0
M  V30 36 H 1.420337 4.087337 -0.319657 0
M  V30 37 H 2.686721 5.943041 0.525743 0
M  V30 38 H 5.419828 3.293761 2.372574 0
M  V30 39 H 4.104772 1.336890 1.491407 0
M  V30 40 H 0.562880 0.185026 -2.702281 0
M  V30 41 H -0.584797 -1.661554 0.562796 0
M  V30 42 H -1.880751 -0.240427 -1.799597 0
M  V30 43 H -2.092131 0.354863 -0.133961 0
M  V30 44 H -3.732422 -1.669927 -1.372226 0
M  V30 45 H -3.594016 -1.300378 0.409702 0
M  V30 46 H -3.849989 -3.648990 0.862050 0
M  V30 47 H -4.070165 -3.964344 -0.905215 0
M  V30 48 H -2.534952 -6.171523 -1.840451 0
M  V30 49 H -1.278036 -8.159063 -0.520615 0
M  V30 50 H -2.213412 -2.782874 -2.408625 0
M  V30 51 H -1.290670 -4.142926 -1.598672 0
M  V30 52 H -0.216543 -1.737791 -2.475586 0
M  V30 53 H 0.562417 -2.814834 -1.269082 0
M  V30 END ATOM
M  V30 BEGIN BOND
M  V30 1 1 1 2
M  V30 2 2 2 3
M  V30 3 1 3 4
M  V30 4 2 4 5
M  V30 5 1 5 6
M  V30 6 1 6 7
M  V30 7 2 7 8
M  V30 8 1 8 9
M  V30 9 2 9 10
M  V30 10 1 10 11
M  V30 11 2 11 12
M  V30 12 1 12 13
M  V30 13 1 12 14
M  V30 14 2 14 15
M  V30 15 1 8 16
M  V30 16 2 16 17
M  V30 17 1 17 18
M  V30 18 1 18 19
M  V30 19 1 19 20
M  V30 20 1 20 21
M  V30 21 1 21 22
M  V30 22 1 22 23
M  V30 23 1 23 24
M  V30 24 1 24 25
M  V30 25 2 25 26
M  V30 26 1 26 27
M  V30 27 1 27 28
M  V30 28 1 22 29
M  V30 29 1 29 30
M  V30 30 2 6 31
M  V30 31 1 31 2
M  V30 32 1 18 7
M  V30 33 1 30 19
M  V30 34 1 15 9
M  V30 35 2 28 24
M  V30 36 1 1 32
M  V30 37 1 1 33
M  V30 38 1 4 34
M  V30 39 1 5 35
M  V30 40 1 10 36
M  V30 41 1 11 37
M  V30 42 1 14 38
M  V30 43 1 15 39
M  V30 44 1 17 40
M  V30 45 1 19 41
M  V30 46 1 20 42
M  V30 47 1 20 43
M  V30 48 1 21 44
M  V30 49 1 21 45
M  V30 50 1 23 46
M  V30 51 1 23 47
M  V30 52 1 25 48
M  V30 53 1 26 49
M  V30 54 1 29 50
M  V30 55 1 29 51
M  V30 56 1 30 52
M  V30 57 1 30 53
M  V30 END BOND
M  V30 END CTAB
M  END
>  <Dataset>  (503) 
ChEMBL_Kinases

>  <Ligand_Instance>  (503) 
nan

>  <PDB_ID>  (503) 
nan

>  <Standardized_SMILES>  (503) 
Nc1nccc(-c2c(-c3ccc(F)cc3)ncn2C2CCN(Cc3ccon3)CC2)n1

>  <Name>  (503) 
nan

>  <Pocket>  (503) 
nan

>  <ATP_Site>  (503) 
nan

>  <Peripheral>  (503) 
nan

>  <Num_H_Atoms_ProtBoundConf>  (503) 
nan

>  <Num_Resolved_Atoms>  (503) 
nan

>  <Num_Not_Resolved_Atoms>  (503) 
nan

$$$$
CHEMBL3672074
     RDKit          3D

  0  0  0  0  0  0  0  0  0  0999 V3000
M  V30 BEGIN CTAB
M  V30 COUNTS 72 78 0 0 0
M  V30 BEGIN ATOM
M  V30 1 C 4.405376 1.598055 5.839360 0
M  V30 2 O 3.840309 0.452748 5.200427 0
M  V30 3 C 3.327946 0.602557 3.909365 0
M  V30 4 N 3.257226 1.678826 3.099671 0
M  V30 5 N 2.683953 1.353960 1.950901 0
M  V30 6 C 2.451179 2.181574 0.912470 0
M  V30 7 C 1.839490 1.682411 -0.220541 0
M  V30 8 C 1.488242 2.379670 -1.450432 0
M  V30 9 C 1.923756 2.195425 -2.744285 0
M  V30 10 F 2.821636 1.199375 -2.852145 0
M  V30 11 C 1.426707 3.004201 -3.745954 0
M  V30 12 C 0.501234 3.995387 -3.480589 0
M  V30 13 C 0.050776 4.196943 -2.190282 0
M  V30 14 C 0.551222 3.384620 -1.187801 0
M  V30 15 F 0.024035 3.692994 0.035300 0
M  V30 16 C 1.486541 0.349235 -0.249918 0
M  V30 17 C 0.845764 -0.449764 -1.288754 0
M  V30 18 C 1.469005 -1.580120 -1.773358 0
M  V30 19 C 0.850806 -2.325120 -2.754698 0
M  V30 20 C -0.397152 -2.007154 -3.309114 0
M  V30 21 C -0.833731 -2.963574 -4.344928 0
M  V30 22 N -1.580486 -4.082979 -3.896348 0
M  V30 23 C -2.852076 -3.747759 -3.317146 0
M  V30 24 C -2.694077 -4.827754 -2.258349 0
M  V30 25 C -3.087297 -4.402602 -0.909491 0
M  V30 26 N -3.719610 -5.107399 0.054503 0
M  V30 27 N -3.878520 -4.302738 1.104715 0
M  V30 28 C -3.353607 -3.099202 0.813734 0
M  V30 29 C -3.309921 -1.917837 1.667300 0
M  V30 30 C -2.743291 -0.750362 1.230631 0
M  V30 31 C -2.633884 0.430908 1.911413 0
M  V30 32 C -3.166877 0.412949 3.186669 0
M  V30 33 C -3.755283 -0.761617 3.670723 0
M  V30 34 C -4.335217 -0.799642 5.050969 0
M  V30 35 N -3.808948 -1.870791 2.913187 0
M  V30 36 N -2.860164 -3.152442 -0.434696 0
M  V30 37 C -1.199603 -4.646930 -2.593457 0
M  V30 38 C -1.006224 -0.872545 -2.813238 0
M  V30 39 C -0.382895 -0.130962 -1.830726 0
M  V30 40 N 1.750643 -0.433788 0.835540 0
M  V30 41 C 2.347719 0.052245 1.941731 0
M  V30 42 C 2.750932 -0.425348 3.171961 0
M  V30 43 C 2.584260 -1.828797 3.625754 0
M  V30 44 O 3.782320 -2.538773 3.586824 0
M  V30 45 H 5.508158 1.536511 5.835616 0
M  V30 46 H 4.031410 1.678911 6.897625 0
M  V30 47 H 4.062217 2.531515 5.332707 0
M  V30 48 H 2.692360 3.226953 0.852006 0
M  V30 49 H 1.819130 2.794155 -4.731504 0
M  V30 50 H 0.135695 4.609721 -4.290226 0
M  V30 51 H -0.669594 4.982682 -2.050510 0
M  V30 52 H 2.435021 -1.844657 -1.359401 0
M  V30 53 H 1.436867 -3.201199 -3.062969 0
M  V30 54 H -1.480863 -2.449644 -5.122508 0
M  V30 55 H 0.052602 -3.299380 -4.949457 0
M  V30 56 H -2.916378 -2.775340 -2.801914 0
M  V30 57 H -3.710055 -3.862565 -3.998060 0
M  V30 58 H -3.050570 -5.821209 -2.525863 0
M  V30 59 H -4.323912 -4.488752 2.037290 0
M  V30 60 H -2.328160 -0.760738 0.216539 0
M  V30 61 H -2.166454 1.311356 1.483366 0
M  V30 62 H -3.118722 1.322617 3.793787 0
M  V30 63 H -4.125450 0.174450 5.519332 0
M  V30 64 H -3.808861 -1.600727 5.602234 0
M  V30 65 H -5.429876 -0.980065 4.961955 0
M  V30 66 H -0.782985 -3.919872 -1.871040 0
M  V30 67 H -0.631732 -5.577412 -2.628574 0
M  V30 68 H -1.958650 -0.662883 -3.269508 0
M  V30 69 H -0.912507 0.748129 -1.484880 0
M  V30 70 H 2.122924 -1.829791 4.644123 0
M  V30 71 H 1.833177 -2.351701 2.977015 0
M  V30 72 H 4.305268 -2.227283 2.796557 0
M  V30 END ATOM
M  V30 BEGIN BOND
M  V30 1 1 1 2
M  V30 2 1 2 3
M  V30 3 2 3 4
M  V30 4 1 4 5
M  V30 5 1 5 6
M  V30 6 2 6 7
M  V30 7 1 7 8
M  V30 8 2 8 9
M  V30 9 1 9 10
M  V30 10 1 9 11
M  V30 11 2 11 12
M  V30 12 1 12 13
M  V30 13 2 13 14
M  V30 14 1 14 15
M  V30 15 1 7 16
M  V30 16 1 16 17
M  V30 17 2 17 18
M  V30 18 1 18 19
M  V30 19 2 19 20
M  V30 20 1 20 21
M  V30 21 1 21 22
M  V30 22 1 22 23
M  V30 23 1 23 24
M  V30 24 1 24 25
M  V30 25 2 25 26
M  V30 26 1 26 27
M  V30 27 1 27 28
M  V30 28 1 28 29
M  V30 29 2 29 30
M  V30 30 1 30 31
M  V30 31 2 31 32
M  V30 32 1 32 33
M  V30 33 1 33 34
M  V30 34 2 33 35
M  V30 35 2 28 36
M  V30 36 1 24 37
M  V30 37 1 20 38
M  V30 38 2 38 39
M  V30 39 2 16 40
M  V30 40 1 40 41
M  V30 41 2 41 42
M  V30 42 1 42 43
M  V30 43 1 43 44
M  V30 44 1 42 3
M  V30 45 1 41 5
M  V30 46 1 14 8
M  V30 47 1 39 17
M  V30 48 1 37 22
M  V30 49 1 36 25
M  V30 50 1 35 29
M  V30 51 1 1 45
M  V30 52 1 1 46
M  V30 53 1 1 47
M  V30 54 1 6 48
M  V30 55 1 11 49
M  V30 56 1 12 50
M  V30 57 1 13 51
M  V30 58 1 18 52
M  V30 59 1 19 53
M  V30 60 1 21 54
M  V30 61 1 21 55
M  V30 62 1 23 56
M  V30 63 1 23 57
M  V30 64 1 24 58
M  V30 65 1 27 59
M  V30 66 1 30 60
M  V30 67 1 31 61
M  V30 68 1 32 62
M  V30 69 1 34 63
M  V30 70 1 34 64
M  V30 71 1 34 65
M  V30 72 1 37 66
M  V30 73 1 37 67
M  V30 74 1 38 68
M  V30 75 1 39 69
M  V30 76 1 43 70
M  V30 77 1 43 71
M  V30 78 1 44 72
M  V30 END BOND
M  V30 END CTAB
M  END
>  <Dataset>  (504) 
ChEMBL_Kinases

>  <Ligand_Instance>  (504) 
nan

>  <PDB_ID>  (504) 
nan

>  <Standardized_SMILES>  (504) 
COc1nn2cc(-c3c(F)cccc3F)c(-c3ccc(CN4CC(c5n[nH]c(-c6cccc(C)n6)n5)C4)cc3)nc2c1CO

>  <Name>  (504) 
nan

>  <Pocket>  (504) 
nan

>  <ATP_Site>  (504) 
nan

>  <Peripheral>  (504) 
nan

>  <Num_H_Atoms_ProtBoundConf>  (504) 
nan

>  <Num_Resolved_Atoms>  (504) 
nan

>  <Num_Not_Resolved_Atoms>  (504) 
nan

$$$$
CHEMBL3672073
     RDKit          3D

  0  0  0  0  0  0  0  0  0  0999 V3000
M  V30 BEGIN CTAB
M  V30 COUNTS 69 75 0 0 0
M  V30 BEGIN ATOM
M  V30 1 C 0.620199 1.758095 8.388085 0
M  V30 2 O 1.152680 0.855774 7.443392 0
M  V30 3 C 0.984412 0.992848 6.076921 0
M  V30 4 N 0.288903 2.010585 5.507179 0
M  V30 5 N 0.291173 1.888313 4.184002 0
M  V30 6 C -0.278731 2.678284 3.228449 0
M  V30 7 C -0.125602 2.323720 1.909977 0
M  V30 8 C -0.680148 3.079396 0.796561 0
M  V30 9 C 0.141339 3.649947 -0.127764 0
M  V30 10 F 1.487744 3.561256 -0.082563 0
M  V30 11 C -0.332480 4.370772 -1.193880 0
M  V30 12 C -1.693977 4.560643 -1.391648 0
M  V30 13 C -2.552114 3.990157 -0.464592 0
M  V30 14 C -2.052862 3.268989 0.600523 0
M  V30 15 F -2.856028 2.686621 1.541931 0
M  V30 16 C 0.582925 1.200793 1.541267 0
M  V30 17 C 0.846904 0.675864 0.218090 0
M  V30 18 C 2.041598 0.429414 -0.425987 0
M  V30 19 C 2.041607 -0.078149 -1.708361 0
M  V30 20 C 0.873557 -0.355015 -2.387552 0
M  V30 21 C 0.874127 -0.897183 -3.748611 0
M  V30 22 N 0.846884 -2.318522 -3.696672 0
M  V30 23 C 0.861501 -3.021435 -4.985392 0
M  V30 24 C 1.440694 -4.192534 -4.172823 0
M  V30 25 C 0.411349 -4.857296 -3.329019 0
M  V30 26 N 0.057520 -6.127467 -3.061055 0
M  V30 27 N -0.963783 -6.140144 -2.216091 0
M  V30 28 C -1.289860 -4.857627 -1.921001 0
M  V30 29 C -2.373958 -4.478518 -1.019790 0
M  V30 30 C -2.653322 -3.153163 -0.761736 0
M  V30 31 C -3.710887 -2.879475 0.114873 0
M  V30 32 C -4.423959 -3.916770 0.679966 0
M  V30 33 C -4.107002 -5.219988 0.391523 0
M  V30 34 N -3.089640 -5.467237 -0.451334 0
M  V30 35 N -0.439473 -4.075059 -2.609345 0
M  V30 36 C 2.087919 -3.015228 -3.430334 0
M  V30 37 C -0.332787 -0.110292 -1.747546 0
M  V30 38 C -0.355586 0.404400 -0.446120 0
M  V30 39 N 1.140291 0.432540 2.519323 0
M  V30 40 C 0.982709 0.793109 3.825835 0
M  V30 41 C 1.421407 0.225611 5.011633 0
M  V30 42 C 2.227338 -0.998338 5.181820 0
M  V30 43 O 1.504882 -2.100000 5.606336 0
M  V30 44 H 0.231935 2.698382 7.945590 0
M  V30 45 H 1.398059 1.937095 9.177205 0
M  V30 46 H -0.265696 1.241677 8.853367 0
M  V30 47 H -0.847785 3.574303 3.455778 0
M  V30 48 H 0.264721 4.853229 -1.969096 0
M  V30 49 H -2.120029 5.115074 -2.208070 0
M  V30 50 H -3.607983 4.108891 -0.574599 0
M  V30 51 H 2.892883 0.678542 0.187976 0
M  V30 52 H 3.012092 -0.246935 -2.152686 0
M  V30 53 H -0.073069 -0.566710 -4.246377 0
M  V30 54 H 1.698844 -0.511346 -4.380258 0
M  V30 55 H 1.586124 -2.664258 -5.715986 0
M  V30 56 H -0.148807 -3.284470 -5.354794 0
M  V30 57 H 2.107844 -4.838353 -4.730634 0
M  V30 58 H -1.377312 -7.049634 -1.892109 0
M  V30 59 H -2.031901 -2.420805 -1.257483 0
M  V30 60 H -3.913471 -1.828440 0.303601 0
M  V30 61 H -5.234883 -3.627439 1.354220 0
M  V30 62 H -4.678845 -6.018048 0.845590 0
M  V30 63 H 2.950489 -2.594223 -3.964571 0
M  V30 64 H 2.275646 -3.304815 -2.391665 0
M  V30 65 H -1.246008 -0.337301 -2.305306 0
M  V30 66 H -1.362743 0.542354 -0.076271 0
M  V30 67 H 3.061633 -0.774206 5.908051 0
M  V30 68 H 2.740681 -1.284228 4.231011 0
M  V30 69 H 1.398953 -2.781805 4.873373 0
M  V30 END ATOM
M  V30 BEGIN BOND
M  V30 1 1 1 2
M  V30 2 1 2 3
M  V30 3 2 3 4
M  V30 4 1 4 5
M  V30 5 1 5 6
M  V30 6 2 6 7
M  V30 7 1 7 8
M  V30 8 2 8 9
M  V30 9 1 9 10
M  V30 10 1 9 11
M  V30 11 2 11 12
M  V30 12 1 12 13
M  V30 13 2 13 14
M  V30 14 1 14 15
M  V30 15 1 7 16
M  V30 16 1 16 17
M  V30 17 2 17 18
M  V30 18 1 18 19
M  V30 19 2 19 20
M  V30 20 1 20 21
M  V30 21 1 21 22
M  V30 22 1 22 23
M  V30 23 1 23 24
M  V30 24 1 24 25
M  V30 25 2 25 26
M  V30 26 1 26 27
M  V30 27 1 27 28
M  V30 28 1 28 29
M  V30 29 2 29 30
M  V30 30 1 30 31
M  V30 31 2 31 32
M  V30 32 1 32 33
M  V30 33 2 33 34
M  V30 34 2 28 35
M  V30 35 1 24 36
M  V30 36 1 20 37
M  V30 37 2 37 38
M  V30 38 2 16 39
M  V30 39 1 39 40
M  V30 40 2 40 41
M  V30 41 1 41 42
M  V30 42 1 42 43
M  V30 43 1 41 3
M  V30 44 1 40 5
M  V30 45 1 14 8
M  V30 46 1 38 17
M  V30 47 1 36 22
M  V30 48 1 35 25
M  V30 49 1 34 29
M  V30 50 1 1 44
M  V30 51 1 1 45
M  V30 52 1 1 46
M  V30 53 1 6 47
M  V30 54 1 11 48
M  V30 55 1 12 49
M  V30 56 1 13 50
M  V30 57 1 18 51
M  V30 58 1 19 52
M  V30 59 1 21 53
M  V30 60 1 21 54
M  V30 61 1 23 55
M  V30 62 1 23 56
M  V30 63 1 24 57
M  V30 64 1 27 58
M  V30 65 1 30 59
M  V30 66 1 31 60
M  V30 67 1 32 61
M  V30 68 1 33 62
M  V30 69 1 36 63
M  V30 70 1 36 64
M  V30 71 1 37 65
M  V30 72 1 38 66
M  V30 73 1 42 67
M  V30 74 1 42 68
M  V30 75 1 43 69
M  V30 END BOND
M  V30 END CTAB
M  END
>  <Dataset>  (505) 
ChEMBL_Kinases

>  <Ligand_Instance>  (505) 
nan

>  <PDB_ID>  (505) 
nan

>  <Standardized_SMILES>  (505) 
COc1nn2cc(-c3c(F)cccc3F)c(-c3ccc(CN4CC(c5n[nH]c(-c6ccccn6)n5)C4)cc3)nc2c1CO

>  <Name>  (505) 
nan

>  <Pocket>  (505) 
nan

>  <ATP_Site>  (505) 
nan

>  <Peripheral>  (505) 
nan

>  <Num_H_Atoms_ProtBoundConf>  (505) 
nan

>  <Num_Resolved_Atoms>  (505) 
nan

>  <Num_Not_Resolved_Atoms>  (505) 
nan

$$$$
CHEMBL4128705
     RDKit          3D

  0  0  0  0  0  0  0  0  0  0999 V3000
M  V30 BEGIN CTAB
M  V30 COUNTS 56 59 0 0 0
M  V30 BEGIN ATOM
M  V30 1 C 3.717998 2.958972 5.553438 0
M  V30 2 N 4.007163 2.019327 4.552086 0
M  V30 3 C 3.858469 0.644056 4.774129 0
M  V30 4 C 4.642559 2.469911 3.362993 0
M  V30 5 C 3.703140 3.357469 2.534675 0
M  V30 6 C 2.506123 2.503985 2.201180 0
M  V30 7 N 1.513859 3.176765 1.394567 0
M  V30 8 C 0.412384 2.263302 1.197384 0
M  V30 9 C -0.809285 2.317544 1.876346 0
M  V30 10 N -1.618080 1.391333 1.527811 0
M  V30 11 C -1.499857 0.432569 0.673209 0
M  V30 12 C -0.282309 0.345243 -0.032080 0
M  V30 13 C -0.073981 -0.713455 -1.002708 0
M  V30 14 C 1.117555 -0.800208 -1.671999 0
M  V30 15 C 1.424879 -1.779318 -2.624597 0
M  V30 16 C 0.426522 -2.723461 -2.892142 0
M  V30 17 N 0.364287 -3.773209 -3.725818 0
M  V30 18 C -0.849215 -4.390297 -3.625514 0
M  V30 19 C -1.524174 -3.656836 -2.684059 0
M  V30 20 C -2.886619 -4.018692 -2.318239 0
M  V30 21 C -3.785983 -2.979898 -2.294751 0
M  V30 22 C -5.104082 -3.241754 -1.949689 0
M  V30 23 C -5.491953 -4.525937 -1.637436 0
M  V30 24 C -6.890386 -4.905730 -1.241457 0
M  V30 25 F -7.811460 -3.993317 -1.725474 0
M  V30 26 F -7.194414 -6.164374 -1.705965 0
M  V30 27 F -6.914671 -4.837793 0.159227 0
M  V30 28 C -4.578425 -5.550718 -1.666746 0
M  V30 29 C -3.246593 -5.317681 -2.010583 0
M  V30 30 C -0.755666 -2.596168 -2.193971 0
M  V30 31 C -1.059399 -1.630979 -1.253966 0
M  V30 32 N 0.604609 1.294012 0.293943 0
M  V30 33 H 2.663118 3.298225 5.539278 0
M  V30 34 H 3.932709 2.608556 6.595419 0
M  V30 35 H 4.390224 3.847362 5.393299 0
M  V30 36 H 4.691610 0.022465 4.324764 0
M  V30 37 H 3.744795 0.379977 5.858096 0
M  V30 38 H 2.938843 0.197110 4.292553 0
M  V30 39 H 5.547723 3.108885 3.567960 0
M  V30 40 H 4.997175 1.614854 2.721201 0
M  V30 41 H 4.224652 3.689392 1.628165 0
M  V30 42 H 3.391763 4.164293 3.226197 0
M  V30 43 H 2.011652 2.217866 3.157496 0
M  V30 44 H 2.816811 1.530495 1.722690 0
M  V30 45 H 1.204801 4.008001 0.882430 0
M  V30 46 H -0.896455 3.126337 2.590292 0
M  V30 47 H -2.326912 -0.242567 0.543923 0
M  V30 48 H 1.886790 -0.048302 -1.449611 0
M  V30 49 H 2.366893 -1.803452 -3.119397 0
M  V30 50 H 1.168725 -4.025758 -4.336498 0
M  V30 51 H -1.117965 -5.254451 -4.203372 0
M  V30 52 H -3.641078 -1.939540 -2.511158 0
M  V30 53 H -5.927528 -2.538028 -1.883535 0
M  V30 54 H -4.871168 -6.584275 -1.420472 0
M  V30 55 H -2.469552 -6.094660 -2.051320 0
M  V30 56 H -2.027119 -1.663317 -0.789351 0
M  V30 END ATOM
M  V30 BEGIN BOND
M  V30 1 1 1 2
M  V30 2 1 2 3
M  V30 3 1 2 4
M  V30 4 1 4 5
M  V30 5 1 5 6
M  V30 6 1 6 7
M  V30 7 1 7 8
M  V30 8 2 8 9
M  V30 9 1 9 10
M  V30 10 2 10 11
M  V30 11 1 11 12
M  V30 12 1 12 13
M  V30 13 2 13 14
M  V30 14 1 14 15
M  V30 15 2 15 16
M  V30 16 1 16 17
M  V30 17 1 17 18
M  V30 18 2 18 19
M  V30 19 1 19 20
M  V30 20 2 20 21
M  V30 21 1 21 22
M  V30 22 2 22 23
M  V30 23 1 23 24
M  V30 24 1 24 25
M  V30 25 1 24 26
M  V30 26 1 24 27
M  V30 27 1 23 28
M  V30 28 2 28 29
M  V30 29 1 19 30
M  V30 30 2 30 31
M  V30 31 2 12 32
M  V30 32 1 32 8
M  V30 33 1 31 13
M  V30 34 1 30 16
M  V30 35 1 29 20
M  V30 36 1 1 33
M  V30 37 1 1 34
M  V30 38 1 1 35
M  V30 39 1 3 36
M  V30 40 1 3 37
M  V30 41 1 3 38
M  V30 42 1 4 39
M  V30 43 1 4 40
M  V30 44 1 5 41
M  V30 45 1 5 42
M  V30 46 1 6 43
M  V30 47 1 6 44
M  V30 48 1 7 45
M  V30 49 1 9 46
M  V30 50 1 11 47
M  V30 51 1 14 48
M  V30 52 1 15 49
M  V30 53 1 17 50
M  V30 54 1 18 51
M  V30 55 1 21 52
M  V30 56 1 22 53
M  V30 57 1 28 54
M  V30 58 1 29 55
M  V30 59 1 31 56
M  V30 END BOND
M  V30 END CTAB
M  END
>  <Dataset>  (506) 
ChEMBL_Kinases

>  <Ligand_Instance>  (506) 
nan

>  <PDB_ID>  (506) 
nan

>  <Standardized_SMILES>  (506) 
CN(C)CCCNc1cncc(-c2ccc3[nH]cc(-c4ccc(C(F)(F)F)cc4)c3c2)n1

>  <Name>  (506) 
nan

>  <Pocket>  (506) 
nan

>  <ATP_Site>  (506) 
nan

>  <Peripheral>  (506) 
nan

>  <Num_H_Atoms_ProtBoundConf>  (506) 
nan

>  <Num_Resolved_Atoms>  (506) 
nan

>  <Num_Not_Resolved_Atoms>  (506) 
nan

$$$$
CHEMBL3672072
     RDKit          3D

  0  0  0  0  0  0  0  0  0  0999 V3000
M  V30 BEGIN CTAB
M  V30 COUNTS 72 78 0 0 0
M  V30 BEGIN ATOM
M  V30 1 C 6.928196 -1.513889 -1.327355 0
M  V30 2 N 6.580773 -0.194654 -1.765303 0
M  V30 3 C 5.717705 0.535913 -0.917330 0
M  V30 4 C 4.343300 0.461601 -1.071921 0
M  V30 5 C 3.726127 -0.364096 -2.104983 0
M  V30 6 C 2.915821 -1.406150 -1.644020 0
M  V30 7 C 2.281025 -2.252559 -2.540537 0
M  V30 8 C 2.441366 -2.076679 -3.918339 0
M  V30 9 C 3.250122 -1.034626 -4.285894 0
M  V30 10 C 3.904056 -0.164894 -3.442788 0
M  V30 11 C 3.466495 1.165396 -0.257217 0
M  V30 12 C 2.020647 1.069954 -0.441482 0
M  V30 13 C 1.247007 0.565037 0.609180 0
M  V30 14 C -0.111361 0.483506 0.417495 0
M  V30 15 C -0.786265 0.856664 -0.724055 0
M  V30 16 C -2.244697 0.760715 -0.907690 0
M  V30 17 N -2.559439 -0.530795 -1.485892 0
M  V30 18 C -3.960002 -0.769847 -1.736813 0
M  V30 19 C -4.032734 -1.939967 -0.814869 0
M  V30 20 C -4.970154 -1.816387 0.346513 0
M  V30 21 N -5.191134 -0.741969 1.100192 0
M  V30 22 N -6.103753 -1.049938 2.035204 0
M  V30 23 C -6.479302 -2.330780 1.890114 0
M  V30 24 C -7.458886 -2.999405 2.737621 0
M  V30 25 C -7.824672 -4.315148 2.562385 0
M  V30 26 C -8.756420 -4.921533 3.379709 0
M  V30 27 C -9.347173 -4.195520 4.409627 0
M  V30 28 C -8.957799 -2.883645 4.555824 0
M  V30 29 C -9.532705 -2.009626 5.635403 0
M  V30 30 N -8.038424 -2.315441 3.735207 0
M  V30 31 N -5.770993 -2.777322 0.849903 0
M  V30 32 C -2.610448 -1.540718 -0.454058 0
M  V30 33 C 0.001451 1.358891 -1.763854 0
M  V30 34 C 1.385542 1.453958 -1.599045 0
M  V30 35 N 4.009294 1.947175 0.718725 0
M  V30 36 C 5.352644 2.034890 0.888040 0
M  V30 37 N 6.141504 2.715733 1.752646 0
M  V30 38 C 7.449322 2.439754 1.478235 0
M  V30 39 C 8.489337 3.097137 2.326590 0
M  V30 40 C 7.468701 1.562003 0.412037 0
M  V30 41 N 6.176166 1.331574 0.071366 0
M  V30 42 H 7.806130 -1.411428 -0.629077 0
M  V30 43 H 6.093932 -2.037130 -0.819762 0
M  V30 44 H 7.313526 -2.123107 -2.169945 0
M  V30 45 H 6.978812 0.162302 -2.683994 0
M  V30 46 H 2.711413 -1.646603 -0.592383 0
M  V30 47 H 1.645110 -3.071561 -2.226190 0
M  V30 48 H 1.964950 -2.714241 -4.664374 0
M  V30 49 H 3.374715 -0.898357 -5.363041 0
M  V30 50 H 4.528434 0.638242 -3.787173 0
M  V30 51 H 1.734751 0.260401 1.522174 0
M  V30 52 H -0.665259 0.092513 1.248088 0
M  V30 53 H -2.754459 0.861395 0.075929 0
M  V30 54 H -2.622334 1.548240 -1.623281 0
M  V30 55 H -4.149080 -1.081234 -2.783086 0
M  V30 56 H -4.557154 0.092632 -1.368062 0
M  V30 57 H -4.026682 -2.948385 -1.271158 0
M  V30 58 H -6.405911 -0.331545 2.720944 0
M  V30 59 H -7.373998 -4.887844 1.767156 0
M  V30 60 H -9.056264 -5.966288 3.251939 0
M  V30 61 H -10.087611 -4.632364 5.079677 0
M  V30 62 H -10.538188 -1.681738 5.328105 0
M  V30 63 H -8.863595 -1.156987 5.847061 0
M  V30 64 H -9.569504 -2.589140 6.603906 0
M  V30 65 H -2.554024 -1.212327 0.587450 0
M  V30 66 H -1.862597 -2.369101 -0.584433 0
M  V30 67 H -0.409431 1.690547 -2.721687 0
M  V30 68 H 2.042431 1.837070 -2.375698 0
M  V30 69 H 8.620367 4.171030 2.089757 0
M  V30 70 H 8.184571 3.065650 3.412380 0
M  V30 71 H 9.404637 2.510324 2.254433 0
M  V30 72 H 8.414344 1.216590 0.036402 0
M  V30 END ATOM
M  V30 BEGIN BOND
M  V30 1 1 1 2
M  V30 2 1 2 3
M  V30 3 2 3 4
M  V30 4 1 4 5
M  V30 5 2 5 6
M  V30 6 1 6 7
M  V30 7 2 7 8
M  V30 8 1 8 9
M  V30 9 2 9 10
M  V30 10 1 4 11
M  V30 11 1 11 12
M  V30 12 2 12 13
M  V30 13 1 13 14
M  V30 14 2 14 15
M  V30 15 1 15 16
M  V30 16 1 16 17
M  V30 17 1 17 18
M  V30 18 1 18 19
M  V30 19 1 19 20
M  V30 20 2 20 21
M  V30 21 1 21 22
M  V30 22 1 22 23
M  V30 23 1 23 24
M  V30 24 2 24 25
M  V30 25 1 25 26
M  V30 26 2 26 27
M  V30 27 1 27 28
M  V30 28 1 28 29
M  V30 29 2 28 30
M  V30 30 2 23 31
M  V30 31 1 19 32
M  V30 32 1 15 33
M  V30 33 2 33 34
M  V30 34 2 11 35
M  V30 35 1 35 36
M  V30 36 2 36 37
M  V30 37 1 37 38
M  V30 38 1 38 39
M  V30 39 2 38 40
M  V30 40 1 40 41
M  V30 41 1 41 3
M  V30 42 1 10 5
M  V30 43 1 34 12
M  V30 44 1 41 36
M  V30 45 1 32 17
M  V30 46 1 31 20
M  V30 47 1 30 24
M  V30 48 1 1 42
M  V30 49 1 1 43
M  V30 50 1 1 44
M  V30 51 1 2 45
M  V30 52 1 6 46
M  V30 53 1 7 47
M  V30 54 1 8 48
M  V30 55 1 9 49
M  V30 56 1 10 50
M  V30 57 1 13 51
M  V30 58 1 14 52
M  V30 59 1 16 53
M  V30 60 1 16 54
M  V30 61 1 18 55
M  V30 62 1 18 56
M  V30 63 1 19 57
M  V30 64 1 22 58
M  V30 65 1 25 59
M  V30 66 1 26 60
M  V30 67 1 27 61
M  V30 68 1 29 62
M  V30 69 1 29 63
M  V30 70 1 29 64
M  V30 71 1 32 65
M  V30 72 1 32 66
M  V30 73 1 33 67
M  V30 74 1 34 68
M  V30 75 1 39 69
M  V30 76 1 39 70
M  V30 77 1 39 71
M  V30 78 1 40 72
M  V30 END BOND
M  V30 END CTAB
M  END
>  <Dataset>  (507) 
ChEMBL_Kinases

>  <Ligand_Instance>  (507) 
nan

>  <PDB_ID>  (507) 
nan

>  <Standardized_SMILES>  (507) 
CNc1c(-c2ccccc2)c(-c2ccc(CN3CC(c4n[nH]c(-c5cccc(C)n5)n4)C3)cc2)nc2nc(C)cn12

>  <Name>  (507) 
nan

>  <Pocket>  (507) 
nan

>  <ATP_Site>  (507) 
nan

>  <Peripheral>  (507) 
nan

>  <Num_H_Atoms_ProtBoundConf>  (507) 
nan

>  <Num_Resolved_Atoms>  (507) 
nan

>  <Num_Not_Resolved_Atoms>  (507) 
nan

$$$$
CHEMBL3672071
     RDKit          3D

  0  0  0  0  0  0  0  0  0  0999 V3000
M  V30 BEGIN CTAB
M  V30 COUNTS 69 75 0 0 0
M  V30 BEGIN ATOM
M  V30 1 C 6.043240 -1.517325 0.949799 0
M  V30 2 N 5.559380 -0.262763 0.402115 0
M  V30 3 C 4.729892 0.848972 0.718385 0
M  V30 4 C 3.371954 0.863989 0.405715 0
M  V30 5 C 2.823700 -0.303939 -0.262880 0
M  V30 6 C 2.769435 -1.571291 0.240932 0
M  V30 7 C 2.229999 -2.627783 -0.465132 0
M  V30 8 C 1.711854 -2.454442 -1.731652 0
M  V30 9 C 1.752095 -1.187361 -2.267393 0
M  V30 10 C 2.300608 -0.123220 -1.544368 0
M  V30 11 C 2.631643 1.983173 0.746960 0
M  V30 12 C 1.222694 1.916232 0.384155 0
M  V30 13 C 0.549732 0.875060 1.019593 0
M  V30 14 C -0.792421 0.678724 0.780272 0
M  V30 15 C -1.517146 1.477455 -0.074175 0
M  V30 16 C -2.947535 1.406533 -0.450970 0
M  V30 17 N -3.207142 0.635557 -1.630506 0
M  V30 18 C -2.825764 -0.745605 -1.572108 0
M  V30 19 C -4.253815 -1.200813 -1.854936 0
M  V30 20 C -4.850075 -1.993772 -0.745256 0
M  V30 21 N -4.798008 -1.596119 0.520607 0
M  V30 22 N -5.398580 -2.473833 1.308574 0
M  V30 23 C -5.858680 -3.477066 0.539330 0
M  V30 24 C -6.584377 -4.655973 0.994574 0
M  V30 25 C -6.860062 -4.821546 2.325994 0
M  V30 26 C -7.550143 -5.941791 2.753685 0
M  V30 27 C -7.969152 -6.905621 1.845956 0
M  V30 28 C -7.671849 -6.703164 0.508709 0
M  V30 29 N -6.998025 -5.596747 0.143017 0
M  V30 30 N -5.515430 -3.171853 -0.725644 0
M  V30 31 C -4.587454 0.260578 -1.803773 0
M  V30 32 C -0.826127 2.520329 -0.705310 0
M  V30 33 C 0.502488 2.704832 -0.460445 0
M  V30 34 N 3.251873 3.005419 1.363778 0
M  V30 35 C 4.568584 2.956020 1.650892 0
M  V30 36 N 5.260930 3.929325 2.261944 0
M  V30 37 C 6.511735 3.485047 2.351549 0
M  V30 38 C 7.704404 4.144565 2.935651 0
M  V30 39 C 6.558373 2.219731 1.779817 0
M  V30 40 N 5.335004 1.882282 1.336696 0
M  V30 41 H 5.725279 -2.385954 0.356645 0
M  V30 42 H 5.712827 -1.705590 1.988709 0
M  V30 43 H 7.171496 -1.535299 0.941971 0
M  V30 44 H 5.919061 -0.058653 -0.564439 0
M  V30 45 H 3.165057 -1.727872 1.220398 0
M  V30 46 H 2.196524 -3.637903 -0.039907 0
M  V30 47 H 1.296160 -3.301184 -2.259341 0
M  V30 48 H 1.349260 -1.022980 -3.266700 0
M  V30 49 H 2.285520 0.847123 -2.059690 0
M  V30 50 H 0.976254 0.157284 1.721155 0
M  V30 51 H -1.359516 -0.098805 1.241453 0
M  V30 52 H -3.534131 0.909826 0.378136 0
M  V30 53 H -3.409691 2.407952 -0.538250 0
M  V30 54 H -2.184043 -1.034306 -2.458416 0
M  V30 55 H -2.429103 -1.116778 -0.610538 0
M  V30 56 H -4.395739 -1.694912 -2.828224 0
M  V30 57 H -5.486999 -2.382437 2.340996 0
M  V30 58 H -6.546145 -4.086637 3.058225 0
M  V30 59 H -7.754543 -6.050078 3.800105 0
M  V30 60 H -8.512559 -7.781895 2.206175 0
M  V30 61 H -7.986148 -7.441330 -0.235476 0
M  V30 62 H -5.222244 0.549430 -0.917973 0
M  V30 63 H -4.974795 0.681955 -2.757277 0
M  V30 64 H -1.293013 3.211611 -1.397090 0
M  V30 65 H 1.087884 3.497262 -0.921485 0
M  V30 66 H 7.644145 5.250874 2.835636 0
M  V30 67 H 7.752863 3.885485 4.015279 0
M  V30 68 H 8.624985 3.829230 2.399944 0
M  V30 69 H 7.412361 1.567008 1.680151 0
M  V30 END ATOM
M  V30 BEGIN BOND
M  V30 1 1 1 2
M  V30 2 1 2 3
M  V30 3 2 3 4
M  V30 4 1 4 5
M  V30 5 2 5 6
M  V30 6 1 6 7
M  V30 7 2 7 8
M  V30 8 1 8 9
M  V30 9 2 9 10
M  V30 10 1 4 11
M  V30 11 1 11 12
M  V30 12 2 12 13
M  V30 13 1 13 14
M  V30 14 2 14 15
M  V30 15 1 15 16
M  V30 16 1 16 17
M  V30 17 1 17 18
M  V30 18 1 18 19
M  V30 19 1 19 20
M  V30 20 2 20 21
M  V30 21 1 21 22
M  V30 22 1 22 23
M  V30 23 1 23 24
M  V30 24 2 24 25
M  V30 25 1 25 26
M  V30 26 2 26 27
M  V30 27 1 27 28
M  V30 28 2 28 29
M  V30 29 2 23 30
M  V30 30 1 19 31
M  V30 31 1 15 32
M  V30 32 2 32 33
M  V30 33 2 11 34
M  V30 34 1 34 35
M  V30 35 2 35 36
M  V30 36 1 36 37
M  V30 37 1 37 38
M  V30 38 2 37 39
M  V30 39 1 39 40
M  V30 40 1 40 3
M  V30 41 1 10 5
M  V30 42 1 33 12
M  V30 43 1 40 35
M  V30 44 1 31 17
M  V30 45 1 30 20
M  V30 46 1 29 24
M  V30 47 1 1 41
M  V30 48 1 1 42
M  V30 49 1 1 43
M  V30 50 1 2 44
M  V30 51 1 6 45
M  V30 52 1 7 46
M  V30 53 1 8 47
M  V30 54 1 9 48
M  V30 55 1 10 49
M  V30 56 1 13 50
M  V30 57 1 14 51
M  V30 58 1 16 52
M  V30 59 1 16 53
M  V30 60 1 18 54
M  V30 61 1 18 55
M  V30 62 1 19 56
M  V30 63 1 22 57
M  V30 64 1 25 58
M  V30 65 1 26 59
M  V30 66 1 27 60
M  V30 67 1 28 61
M  V30 68 1 31 62
M  V30 69 1 31 63
M  V30 70 1 32 64
M  V30 71 1 33 65
M  V30 72 1 38 66
M  V30 73 1 38 67
M  V30 74 1 38 68
M  V30 75 1 39 69
M  V30 END BOND
M  V30 END CTAB
M  END
>  <Dataset>  (508) 
ChEMBL_Kinases

>  <Ligand_Instance>  (508) 
nan

>  <PDB_ID>  (508) 
nan

>  <Standardized_SMILES>  (508) 
CNc1c(-c2ccccc2)c(-c2ccc(CN3CC(c4n[nH]c(-c5ccccn5)n4)C3)cc2)nc2nc(C)cn12

>  <Name>  (508) 
nan

>  <Pocket>  (508) 
nan

>  <ATP_Site>  (508) 
nan

>  <Peripheral>  (508) 
nan

>  <Num_H_Atoms_ProtBoundConf>  (508) 
nan

>  <Num_Resolved_Atoms>  (508) 
nan

>  <Num_Not_Resolved_Atoms>  (508) 
nan

$$$$
CHEMBL3672070
     RDKit          3D

  0  0  0  0  0  0  0  0  0  0999 V3000
M  V30 BEGIN CTAB
M  V30 COUNTS 66 72 0 0 0
M  V30 BEGIN ATOM
M  V30 1 C 6.269769 -1.273297 2.100577 0
M  V30 2 N 5.911169 -0.038547 1.425611 0
M  V30 3 C 5.042262 1.069164 1.606245 0
M  V30 4 C 3.736060 1.091902 1.108197 0
M  V30 5 C 3.232063 -0.062866 0.371916 0
M  V30 6 C 3.097428 -1.324916 0.870671 0
M  V30 7 C 2.615922 -2.390355 0.138460 0
M  V30 8 C 2.242415 -2.185581 -1.181800 0
M  V30 9 C 2.379436 -0.906340 -1.685533 0
M  V30 10 C 2.860031 0.123053 -0.929983 0
M  V30 11 C 2.879488 2.168450 1.278373 0
M  V30 12 C 1.528079 2.098404 0.718311 0
M  V30 13 C 0.703856 1.102241 1.225051 0
M  V30 14 C -0.571399 1.028086 0.702730 0
M  V30 15 C -1.094700 1.857245 -0.276933 0
M  V30 16 C -2.465403 1.712591 -0.780751 0
M  V30 17 N -2.622799 0.848190 -1.893856 0
M  V30 18 C -2.259628 -0.519078 -1.810576 0
M  V30 19 C -3.661343 -0.998285 -2.117596 0
M  V30 20 C -4.269436 -1.837433 -1.057198 0
M  V30 21 N -4.165027 -1.412962 0.233033 0
M  V30 22 N -4.789653 -2.342163 0.969060 0
M  V30 23 C -5.270736 -3.316379 0.178370 0
M  V30 24 C -6.012120 -4.511920 0.562769 0
M  V30 25 C -6.305591 -4.760891 1.887135 0
M  V30 26 C -7.005122 -5.884909 2.268927 0
M  V30 27 C -7.447251 -6.819464 1.337485 0
M  V30 28 C -7.127357 -6.523469 0.022360 0
M  V30 29 N -6.444683 -5.424375 -0.338673 0
M  V30 30 N -4.951310 -3.012733 -1.098775 0
M  V30 31 C -4.012905 0.447804 -2.036053 0
M  V30 32 C -0.244513 2.827779 -0.748811 0
M  V30 33 C 1.040698 2.944851 -0.260151 0
M  V30 34 N 3.388302 3.209127 1.963677 0
M  V30 35 C 4.644663 3.189985 2.444170 0
M  V30 36 N 5.281686 4.161072 3.147044 0
M  V30 37 C 6.531690 3.751436 3.442319 0
M  V30 38 C 6.620003 2.492979 2.887512 0
M  V30 39 Br 8.185148 1.411396 2.990776 0
M  V30 40 N 5.472701 2.145094 2.277563 0
M  V30 41 H 5.804397 -2.158629 1.628349 0
M  V30 42 H 7.361003 -1.415107 2.028767 0
M  V30 43 H 6.012801 -1.192094 3.185826 0
M  V30 44 H 6.356103 0.240003 0.517683 0
M  V30 45 H 3.387127 -1.495536 1.905047 0
M  V30 46 H 2.548330 -3.367472 0.639606 0
M  V30 47 H 1.868240 -3.052043 -1.722995 0
M  V30 48 H 2.063801 -0.820411 -2.736902 0
M  V30 49 H 2.905632 1.060073 -1.470685 0
M  V30 50 H 1.016618 0.397402 1.996813 0
M  V30 51 H -1.210602 0.254182 1.096968 0
M  V30 52 H -3.124466 1.438630 0.070272 0
M  V30 53 H -2.805936 2.722597 -1.107728 0
M  V30 54 H -1.600152 -0.783295 -2.687290 0
M  V30 55 H -1.807732 -0.924734 -0.909827 0
M  V30 56 H -3.812486 -1.442954 -3.102777 0
M  V30 57 H -4.874952 -2.288907 2.014907 0
M  V30 58 H -5.956198 -4.021906 2.625366 0
M  V30 59 H -7.228682 -6.069291 3.306876 0
M  V30 60 H -7.993521 -7.697064 1.636033 0
M  V30 61 H -7.426929 -7.186120 -0.764386 0
M  V30 62 H -4.652517 0.643268 -1.126724 0
M  V30 63 H -4.532002 0.893328 -2.911113 0
M  V30 64 H -0.621962 3.490036 -1.512629 0
M  V30 65 H 1.718920 3.702420 -0.621687 0
M  V30 66 H 7.220050 4.364438 3.997813 0
M  V30 END ATOM
M  V30 BEGIN BOND
M  V30 1 1 1 2
M  V30 2 1 2 3
M  V30 3 2 3 4
M  V30 4 1 4 5
M  V30 5 2 5 6
M  V30 6 1 6 7
M  V30 7 2 7 8
M  V30 8 1 8 9
M  V30 9 2 9 10
M  V30 10 1 4 11
M  V30 11 1 11 12
M  V30 12 2 12 13
M  V30 13 1 13 14
M  V30 14 2 14 15
M  V30 15 1 15 16
M  V30 16 1 16 17
M  V30 17 1 17 18
M  V30 18 1 18 19
M  V30 19 1 19 20
M  V30 20 2 20 21
M  V30 21 1 21 22
M  V30 22 1 22 23
M  V30 23 1 23 24
M  V30 24 2 24 25
M  V30 25 1 25 26
M  V30 26 2 26 27
M  V30 27 1 27 28
M  V30 28 2 28 29
M  V30 29 2 23 30
M  V30 30 1 19 31
M  V30 31 1 15 32
M  V30 32 2 32 33
M  V30 33 2 11 34
M  V30 34 1 34 35
M  V30 35 2 35 36
M  V30 36 1 36 37
M  V30 37 2 37 38
M  V30 38 1 38 39
M  V30 39 1 38 40
M  V30 40 1 40 3
M  V30 41 1 10 5
M  V30 42 1 33 12
M  V30 43 1 40 35
M  V30 44 1 31 17
M  V30 45 1 30 20
M  V30 46 1 29 24
M  V30 47 1 1 41
M  V30 48 1 1 42
M  V30 49 1 1 43
M  V30 50 1 2 44
M  V30 51 1 6 45
M  V30 52 1 7 46
M  V30 53 1 8 47
M  V30 54 1 9 48
M  V30 55 1 10 49
M  V30 56 1 13 50
M  V30 57 1 14 51
M  V30 58 1 16 52
M  V30 59 1 16 53
M  V30 60 1 18 54
M  V30 61 1 18 55
M  V30 62 1 19 56
M  V30 63 1 22 57
M  V30 64 1 25 58
M  V30 65 1 26 59
M  V30 66 1 27 60
M  V30 67 1 28 61
M  V30 68 1 31 62
M  V30 69 1 31 63
M  V30 70 1 32 64
M  V30 71 1 33 65
M  V30 72 1 37 66
M  V30 END BOND
M  V30 END CTAB
M  END
>  <Dataset>  (509) 
ChEMBL_Kinases

>  <Ligand_Instance>  (509) 
nan

>  <PDB_ID>  (509) 
nan

>  <Standardized_SMILES>  (509) 
CNc1c(-c2ccccc2)c(-c2ccc(CN3CC(c4n[nH]c(-c5ccccn5)n4)C3)cc2)nc2ncc(Br)n12

>  <Name>  (509) 
nan

>  <Pocket>  (509) 
nan

>  <ATP_Site>  (509) 
nan

>  <Peripheral>  (509) 
nan

>  <Num_H_Atoms_ProtBoundConf>  (509) 
nan

>  <Num_Resolved_Atoms>  (509) 
nan

>  <Num_Not_Resolved_Atoms>  (509) 
nan

$$$$
CHEMBL3355183
     RDKit          3D

  0  0  0  0  0  0  0  0  0  0999 V3000
M  V30 BEGIN CTAB
M  V30 COUNTS 48 51 0 0 0
M  V30 BEGIN ATOM
M  V30 1 O -1.956899 -3.410561 0.148116 0
M  V30 2 C -2.725704 -3.372700 1.145541 0
M  V30 3 N -2.658023 -2.389390 2.170739 0
M  V30 4 C -1.659726 -1.379397 2.070421 0
M  V30 5 C -0.358378 -1.418689 2.579400 0
M  V30 6 N 0.290186 -0.259212 2.276721 0
M  V30 7 N -0.552960 0.524201 1.589309 0
M  V30 8 C -0.216000 1.820651 1.104508 0
M  V30 9 C -1.235845 2.709771 0.749680 0
M  V30 10 C -0.839824 3.966051 0.281070 0
M  V30 11 C 0.481805 4.345690 0.160886 0
M  V30 12 C 1.476651 3.456432 0.515323 0
M  V30 13 C 2.871327 3.867264 0.384641 0
M  V30 14 O 3.083628 5.024971 -0.050107 0
M  V30 15 N 3.951344 3.037171 0.718405 0
M  V30 16 C 5.351958 3.336347 0.630146 0
M  V30 17 C 6.017899 3.034641 1.972507 0
M  V30 18 N 6.442440 1.727109 1.496414 0
M  V30 19 C 6.220686 2.200398 0.135254 0
M  V30 20 C 1.088605 2.216033 0.978061 0
M  V30 21 C -1.720845 -0.130341 1.458017 0
M  V30 22 N -3.697883 -4.392850 1.201997 0
M  V30 23 C -3.945781 -5.464789 0.300601 0
M  V30 24 C -3.348201 -6.703398 0.405443 0
M  V30 25 C -3.611194 -7.727181 -0.489506 0
M  V30 26 C -4.500016 -7.532014 -1.536568 0
M  V30 27 C -5.063783 -6.274461 -1.587312 0
M  V30 28 C -4.851630 -5.210562 -0.736589 0
M  V30 29 Cl -5.678351 -3.684895 -0.983292 0
M  V30 30 H -3.362911 -2.469687 2.955481 0
M  V30 31 H -0.019880 -2.297588 3.121681 0
M  V30 32 H -2.276600 2.428860 0.837494 0
M  V30 33 H -1.650674 4.650145 0.007597 0
M  V30 34 H 0.669851 5.355378 -0.218075 0
M  V30 35 H 3.787605 2.070618 1.081584 0
M  V30 36 H 5.643962 4.326090 0.260460 0
M  V30 37 H 5.305622 2.894356 2.816473 0
M  V30 38 H 6.867505 3.668473 2.234878 0
M  V30 39 H 5.777417 0.946381 1.774978 0
M  V30 40 H 5.664321 1.440716 -0.449889 0
M  V30 41 H 7.161403 2.551526 -0.363543 0
M  V30 42 H 1.837768 1.499142 1.262849 0
M  V30 43 H -2.620284 0.226734 0.950555 0
M  V30 44 H -4.376150 -4.432039 2.000075 0
M  V30 45 H -2.640935 -6.872134 1.231365 0
M  V30 46 H -3.142570 -8.706279 -0.411491 0
M  V30 47 H -4.766233 -8.270527 -2.281351 0
M  V30 48 H -5.770679 -6.093669 -2.406222 0
M  V30 END ATOM
M  V30 BEGIN BOND
M  V30 1 2 1 2
M  V30 2 1 2 3
M  V30 3 1 3 4
M  V30 4 1 4 5
M  V30 5 2 5 6
M  V30 6 1 6 7
M  V30 7 1 7 8
M  V30 8 2 8 9
M  V30 9 1 9 10
M  V30 10 2 10 11
M  V30 11 1 11 12
M  V30 12 1 12 13
M  V30 13 2 13 14
M  V30 14 1 13 15
M  V30 15 1 15 16
M  V30 16 1 16 17
M  V30 17 1 17 18
M  V30 18 1 18 19
M  V30 19 2 12 20
M  V30 20 1 7 21
M  V30 21 1 2 22
M  V30 22 1 22 23
M  V30 23 2 23 24
M  V30 24 1 24 25
M  V30 25 2 25 26
M  V30 26 1 26 27
M  V30 27 2 27 28
M  V30 28 1 28 29
M  V30 29 2 21 4
M  V30 30 1 28 23
M  V30 31 1 20 8
M  V30 32 1 19 16
M  V30 33 1 3 30
M  V30 34 1 5 31
M  V30 35 1 9 32
M  V30 36 1 10 33
M  V30 37 1 11 34
M  V30 38 1 15 35
M  V30 39 1 16 36
M  V30 40 1 17 37
M  V30 41 1 17 38
M  V30 42 1 18 39
M  V30 43 1 19 40
M  V30 44 1 19 41
M  V30 45 1 20 42
M  V30 46 1 21 43
M  V30 47 1 22 44
M  V30 48 1 24 45
M  V30 49 1 25 46
M  V30 50 1 26 47
M  V30 51 1 27 48
M  V30 END BOND
M  V30 END CTAB
M  END
>  <Dataset>  (510) 
ChEMBL_Kinases

>  <Ligand_Instance>  (510) 
nan

>  <PDB_ID>  (510) 
nan

>  <Standardized_SMILES>  (510) 
O=C(Nc1cnn(-c2cccc(C(=O)NC3CNC3)c2)c1)Nc1ccccc1Cl

>  <Name>  (510) 
nan

>  <Pocket>  (510) 
nan

>  <ATP_Site>  (510) 
nan

>  <Peripheral>  (510) 
nan

>  <Num_H_Atoms_ProtBoundConf>  (510) 
nan

>  <Num_Resolved_Atoms>  (510) 
nan

>  <Num_Not_Resolved_Atoms>  (510) 
nan

$$$$
CHEMBL3355159
     RDKit          3D

  0  0  0  0  0  0  0  0  0  0999 V3000
M  V30 BEGIN CTAB
M  V30 COUNTS 51 54 0 0 0
M  V30 BEGIN ATOM
M  V30 1 C 4.320934 -6.283867 4.967273 0
M  V30 2 C 3.858758 -5.082842 4.218961 0
M  V30 3 C 3.673859 -3.853455 4.851535 0
M  V30 4 C 3.239473 -2.753334 4.112512 0
M  V30 5 C 2.979979 -2.841276 2.743776 0
M  V30 6 N 2.537160 -1.696401 2.019504 0
M  V30 7 C 3.479208 -0.840525 1.427340 0
M  V30 8 O 4.655324 -1.286269 1.669352 0
M  V30 9 C 3.239170 0.361290 0.658076 0
M  V30 10 C 4.390313 1.008744 0.192868 0
M  V30 11 C 4.312662 2.164051 -0.552687 0
M  V30 12 C 3.112839 2.754356 -0.887613 0
M  V30 13 C 1.972456 2.124814 -0.434438 0
M  V30 14 N 0.657917 2.613076 -0.698700 0
M  V30 15 C -0.231652 1.985168 -1.524471 0
M  V30 16 C -1.389825 2.773511 -1.515516 0
M  V30 17 N -2.497895 2.314264 -2.326135 0
M  V30 18 C -3.377884 1.444856 -1.593254 0
M  V30 19 O -3.219223 1.105825 -0.372999 0
M  V30 20 N -4.561598 0.842476 -2.154345 0
M  V30 21 C -5.356402 -0.008546 -1.312965 0
M  V30 22 C -6.412472 0.353581 -0.502182 0
M  V30 23 C -7.051380 -0.622914 0.234341 0
M  V30 24 C -6.654877 -1.937342 0.172422 0
M  V30 25 C -5.599439 -2.310172 -0.635626 0
M  V30 26 C -4.941491 -1.343006 -1.386191 0
M  V30 27 Cl -3.613296 -1.910084 -2.382917 0
M  V30 28 C -1.149477 3.854187 -0.677397 0
M  V30 29 N 0.111879 3.709992 -0.204889 0
M  V30 30 C 2.066727 0.968994 0.310792 0
M  V30 31 F 0.949683 0.350020 0.756189 0
M  V30 32 C 3.180265 -4.080274 2.173917 0
M  V30 33 N 3.599749 -5.139345 2.891703 0
M  V30 34 H 4.988579 -6.883278 4.310997 0
M  V30 35 H 4.873325 -5.968116 5.864634 0
M  V30 36 H 3.472106 -6.906337 5.339515 0
M  V30 37 H 3.875010 -3.786396 5.911108 0
M  V30 38 H 3.101522 -1.800704 4.628516 0
M  V30 39 H 1.534107 -1.473567 1.915055 0
M  V30 40 H 5.392927 0.610768 0.410982 0
M  V30 41 H 5.232905 2.622991 -0.886575 0
M  V30 42 H 3.003481 3.649348 -1.463226 0
M  V30 43 H -0.007227 1.055829 -2.050450 0
M  V30 44 H -2.758570 2.503282 -3.327107 0
M  V30 45 H -4.773776 1.069916 -3.169877 0
M  V30 46 H -6.644851 1.416998 -0.526200 0
M  V30 47 H -7.877422 -0.289158 0.858125 0
M  V30 48 H -7.166573 -2.697566 0.757804 0
M  V30 49 H -5.326391 -3.361144 -0.648261 0
M  V30 50 H -1.945644 4.571411 -0.552906 0
M  V30 51 H 2.992752 -4.200542 1.114287 0
M  V30 END ATOM
M  V30 BEGIN BOND
M  V30 1 1 1 2
M  V30 2 2 2 3
M  V30 3 1 3 4
M  V30 4 2 4 5
M  V30 5 1 5 6
M  V30 6 1 6 7
M  V30 7 2 7 8
M  V30 8 1 7 9
M  V30 9 2 9 10
M  V30 10 1 10 11
M  V30 11 2 11 12
M  V30 12 1 12 13
M  V30 13 1 13 14
M  V30 14 1 14 15
M  V30 15 2 15 16
M  V30 16 1 16 17
M  V30 17 1 17 18
M  V30 18 2 18 19
M  V30 19 1 18 20
M  V30 20 1 20 21
M  V30 21 2 21 22
M  V30 22 1 22 23
M  V30 23 2 23 24
M  V30 24 1 24 25
M  V30 25 2 25 26
M  V30 26 1 26 27
M  V30 27 1 16 28
M  V30 28 2 28 29
M  V30 29 2 13 30
M  V30 30 1 30 31
M  V30 31 1 5 32
M  V30 32 2 32 33
M  V30 33 1 33 2
M  V30 34 1 30 9
M  V30 35 1 29 14
M  V30 36 1 26 21
M  V30 37 1 1 34
M  V30 38 1 1 35
M  V30 39 1 1 36
M  V30 40 1 3 37
M  V30 41 1 4 38
M  V30 42 1 6 39
M  V30 43 1 10 40
M  V30 44 1 11 41
M  V30 45 1 12 42
M  V30 46 1 15 43
M  V30 47 1 17 44
M  V30 48 1 20 45
M  V30 49 1 22 46
M  V30 50 1 23 47
M  V30 51 1 24 48
M  V30 52 1 25 49
M  V30 53 1 28 50
M  V30 54 1 32 51
M  V30 END BOND
M  V30 END CTAB
M  END
>  <Dataset>  (511) 
ChEMBL_Kinases

>  <Ligand_Instance>  (511) 
nan

>  <PDB_ID>  (511) 
nan

>  <Standardized_SMILES>  (511) 
Cc1ccc(NC(=O)c2cccc(-n3cc(NC(=O)Nc4ccccc4Cl)cn3)c2F)cn1

>  <Name>  (511) 
nan

>  <Pocket>  (511) 
nan

>  <ATP_Site>  (511) 
nan

>  <Peripheral>  (511) 
nan

>  <Num_H_Atoms_ProtBoundConf>  (511) 
nan

>  <Num_Resolved_Atoms>  (511) 
nan

>  <Num_Not_Resolved_Atoms>  (511) 
nan

$$$$
CHEMBL3672088
     RDKit          3D

  0  0  0  0  0  0  0  0  0  0999 V3000
M  V30 BEGIN CTAB
M  V30 COUNTS 73 79 0 0 0
M  V30 BEGIN ATOM
M  V30 1 C 6.583161 -1.471446 6.892791 0
M  V30 2 S 7.054616 -0.058577 5.827597 0
M  V30 3 C 6.388514 -0.266150 4.180674 0
M  V30 4 N 5.136180 0.249558 3.978170 0
M  V30 5 C 4.752901 0.039947 2.698840 0
M  V30 6 N 3.677381 0.301691 1.928130 0
M  V30 7 C 3.592354 -0.056652 0.619178 0
M  V30 8 C 2.317922 0.362302 0.055539 0
M  V30 9 C 2.152168 1.276850 -0.949895 0
M  V30 10 C 0.885791 1.626781 -1.434545 0
M  V30 11 C -0.244445 1.062261 -0.916706 0
M  V30 12 C -1.598309 1.414227 -1.412648 0
M  V30 13 N -2.176523 2.557530 -0.790450 0
M  V30 14 C -2.305628 2.540498 0.617075 0
M  V30 15 C -3.653525 2.330276 1.187263 0
M  V30 16 C -4.717692 1.835040 0.242050 0
M  V30 17 C -4.845425 0.359478 0.336109 0
M  V30 18 N -5.341730 -0.146202 1.489996 0
M  V30 19 N -5.406755 -1.466292 1.433147 0
M  V30 20 C -4.949313 -1.841355 0.212827 0
M  V30 21 C -4.867678 -3.233226 -0.204179 0
M  V30 22 C -4.399660 -3.583147 -1.481286 0
M  V30 23 C -4.371108 -4.949778 -1.777234 0
M  V30 24 C -4.787905 -5.836813 -0.826069 0
M  V30 25 C -5.242068 -5.496676 0.414787 0
M  V30 26 C -5.704602 -6.406279 1.493014 0
M  V30 27 N -5.261429 -4.175475 0.672704 0
M  V30 28 N -4.603736 -0.718456 -0.457979 0
M  V30 29 C -4.585095 2.327731 -1.143042 0
M  V30 30 C -3.322076 3.089301 -1.450460 0
M  V30 31 C -0.102614 0.136755 0.096754 0
M  V30 32 C 1.148079 -0.201638 0.567619 0
M  V30 33 C 4.665105 -0.720484 0.057580 0
M  V30 34 C 4.456912 -1.050633 -1.332173 0
M  V30 35 C 5.371288 -0.444983 -2.181605 0
M  V30 36 C 5.325909 -0.644240 -3.540445 0
M  V30 37 C 4.349294 -1.469020 -4.102529 0
M  V30 38 C 3.430208 -2.081001 -3.269268 0
M  V30 39 C 3.489408 -1.873152 -1.919752 0
M  V30 40 C 5.767600 -0.993212 0.834471 0
M  V30 41 N 5.774861 -0.605115 2.117667 0
M  V30 42 N 6.748103 -0.788109 2.994122 0
M  V30 43 H 7.179418 -1.531401 7.796649 0
M  V30 44 H 6.497853 -2.395111 6.312602 0
M  V30 45 H 5.535575 -1.233706 7.220193 0
M  V30 46 H 3.042145 1.729795 -1.368687 0
M  V30 47 H 0.758633 2.343286 -2.224693 0
M  V30 48 H -2.239155 0.536568 -1.191003 0
M  V30 49 H -1.522525 1.569689 -2.514375 0
M  V30 50 H -1.942160 3.557352 0.982837 0
M  V30 51 H -1.531321 1.851207 1.067334 0
M  V30 52 H -3.573012 1.555487 2.004760 0
M  V30 53 H -4.024635 3.258994 1.727199 0
M  V30 54 H -5.681560 2.246398 0.674943 0
M  V30 55 H -5.761350 -2.076357 2.227777 0
M  V30 56 H -4.091755 -2.816273 -2.157964 0
M  V30 57 H -4.025460 -5.265903 -2.737011 0
M  V30 58 H -4.782008 -6.917493 -1.048659 0
M  V30 59 H -6.633449 -6.015630 1.968327 0
M  V30 60 H -4.946793 -6.443203 2.308802 0
M  V30 61 H -5.857410 -7.440340 1.105845 0
M  V30 62 H -4.591544 1.438206 -1.838713 0
M  V30 63 H -5.462540 2.942575 -1.503354 0
M  V30 64 H -3.115764 2.967334 -2.555103 0
M  V30 65 H -3.408667 4.184421 -1.279801 0
M  V30 66 H -0.936187 -0.376592 0.580744 0
M  V30 67 H 1.252520 -0.940631 1.366353 0
M  V30 68 H 6.171674 0.212675 -1.872013 0
M  V30 69 H 6.015439 -0.194104 -4.249714 0
M  V30 70 H 4.300076 -1.626414 -5.152747 0
M  V30 71 H 2.635788 -2.741439 -3.625154 0
M  V30 72 H 2.821597 -2.302965 -1.170161 0
M  V30 73 H 6.576873 -1.514164 0.350074 0
M  V30 END ATOM
M  V30 BEGIN BOND
M  V30 1 1 1 2
M  V30 2 1 2 3
M  V30 3 1 3 4
M  V30 4 2 4 5
M  V30 5 1 5 6
M  V30 6 2 6 7
M  V30 7 1 7 8
M  V30 8 2 8 9
M  V30 9 1 9 10
M  V30 10 2 10 11
M  V30 11 1 11 12
M  V30 12 1 12 13
M  V30 13 1 13 14
M  V30 14 1 14 15
M  V30 15 1 15 16
M  V30 16 1 16 17
M  V30 17 2 17 18
M  V30 18 1 18 19
M  V30 19 1 19 20
M  V30 20 1 20 21
M  V30 21 2 21 22
M  V30 22 1 22 23
M  V30 23 2 23 24
M  V30 24 1 24 25
M  V30 25 1 25 26
M  V30 26 2 25 27
M  V30 27 2 20 28
M  V30 28 1 16 29
M  V30 29 1 29 30
M  V30 30 1 11 31
M  V30 31 2 31 32
M  V30 32 1 7 33
M  V30 33 1 33 34
M  V30 34 2 34 35
M  V30 35 1 35 36
M  V30 36 2 36 37
M  V30 37 1 37 38
M  V30 38 2 38 39
M  V30 39 2 33 40
M  V30 40 1 40 41
M  V30 41 1 41 42
M  V30 42 2 42 3
M  V30 43 1 41 5
M  V30 44 1 32 8
M  V30 45 1 39 34
M  V30 46 1 30 13
M  V30 47 1 28 17
M  V30 48 1 27 21
M  V30 49 1 1 43
M  V30 50 1 1 44
M  V30 51 1 1 45
M  V30 52 1 9 46
M  V30 53 1 10 47
M  V30 54 1 12 48
M  V30 55 1 12 49
M  V30 56 1 14 50
M  V30 57 1 14 51
M  V30 58 1 15 52
M  V30 59 1 15 53
M  V30 60 1 16 54
M  V30 61 1 19 55
M  V30 62 1 22 56
M  V30 63 1 23 57
M  V30 64 1 24 58
M  V30 65 1 26 59
M  V30 66 1 26 60
M  V30 67 1 26 61
M  V30 68 1 29 62
M  V30 69 1 29 63
M  V30 70 1 30 64
M  V30 71 1 30 65
M  V30 72 1 31 66
M  V30 73 1 32 67
M  V30 74 1 35 68
M  V30 75 1 36 69
M  V30 76 1 37 70
M  V30 77 1 38 71
M  V30 78 1 39 72
M  V30 79 1 40 73
M  V30 END BOND
M  V30 END CTAB
M  END
>  <Dataset>  (512) 
ChEMBL_Kinases

>  <Ligand_Instance>  (512) 
nan

>  <PDB_ID>  (512) 
nan

>  <Standardized_SMILES>  (512) 
CSc1nc2nc(-c3ccc(CN4CCC(c5n[nH]c(-c6cccc(C)n6)n5)CC4)cc3)c(-c3ccccc3)cn2n1

>  <Name>  (512) 
nan

>  <Pocket>  (512) 
nan

>  <ATP_Site>  (512) 
nan

>  <Peripheral>  (512) 
nan

>  <Num_H_Atoms_ProtBoundConf>  (512) 
nan

>  <Num_Resolved_Atoms>  (512) 
nan

>  <Num_Not_Resolved_Atoms>  (512) 
nan

$$$$
CHEMBL3672087
     RDKit          3D

  0  0  0  0  0  0  0  0  0  0999 V3000
M  V30 BEGIN CTAB
M  V30 COUNTS 69 75 0 0 0
M  V30 BEGIN ATOM
M  V30 1 C 9.295298 -1.192539 3.711253 0
M  V30 2 S 7.721016 -1.315068 4.610231 0
M  V30 3 C 6.418718 -0.759411 3.496829 0
M  V30 4 N 5.086779 -0.698539 3.776245 0
M  V30 5 C 4.470019 -0.227557 2.673345 0
M  V30 6 N 3.217491 0.039751 2.352318 0
M  V30 7 C 2.771475 0.517110 1.175984 0
M  V30 8 C 1.379853 0.817276 0.844235 0
M  V30 9 C 0.732414 0.254242 -0.240057 0
M  V30 10 C -0.586634 0.603573 -0.451197 0
M  V30 11 C -1.287699 1.478354 0.358390 0
M  V30 12 C -2.697851 1.744600 -0.016285 0
M  V30 13 N -3.626667 0.831164 0.525296 0
M  V30 14 C -3.701124 0.729268 1.921743 0
M  V30 15 C -4.692586 -0.240402 2.459049 0
M  V30 16 C -5.490165 -0.929449 1.390172 0
M  V30 17 C -4.697081 -1.952569 0.660265 0
M  V30 18 N -3.582761 -1.792867 -0.031740 0
M  V30 19 N -3.199103 -2.948304 -0.526614 0
M  V30 20 C -4.058081 -3.917032 -0.172592 0
M  V30 21 C -3.961510 -5.324061 -0.536309 0
M  V30 22 C -4.896938 -6.227331 -0.123435 0
M  V30 23 N -4.822281 -7.547238 -0.456930 0
M  V30 24 C -3.794805 -7.970772 -1.215756 0
M  V30 25 C -2.851562 -7.052977 -1.629666 0
M  V30 26 N -2.958496 -5.762038 -1.282600 0
M  V30 27 N -4.976781 -3.273539 0.562736 0
M  V30 28 C -5.990229 0.164975 0.459729 0
M  V30 29 C -4.797830 0.749303 -0.252039 0
M  V30 30 C -0.615589 2.033954 1.444672 0
M  V30 31 C 0.702851 1.696505 1.670567 0
M  V30 32 C 3.739460 0.745480 0.215544 0
M  V30 33 C 3.461711 1.258897 -1.122548 0
M  V30 34 C 2.955105 2.550999 -1.144903 0
M  V30 35 C 2.650364 3.152044 -2.369898 0
M  V30 36 C 2.862696 2.439519 -3.526667 0
M  V30 37 C 3.369755 1.147732 -3.516019 0
M  V30 38 C 3.673177 0.552623 -2.281648 0
M  V30 39 C 5.077854 0.489782 0.475094 0
M  V30 40 N 5.391288 0.010754 1.699671 0
M  V30 41 N 6.562502 -0.323044 2.233066 0
M  V30 42 H 9.305126 -1.904628 2.840666 0
M  V30 43 H 10.135790 -1.356695 4.395676 0
M  V30 44 H 9.411333 -0.178574 3.250644 0
M  V30 45 H 1.308987 -0.426663 -0.853221 0
M  V30 46 H -1.063413 0.145325 -1.305719 0
M  V30 47 H -2.747244 1.781760 -1.121885 0
M  V30 48 H -2.990811 2.784420 0.311638 0
M  V30 49 H -3.991817 1.742640 2.331236 0
M  V30 50 H -2.714740 0.510635 2.342134 0
M  V30 51 H -4.156416 -1.041393 3.010785 0
M  V30 52 H -5.387941 0.199038 3.206442 0
M  V30 53 H -6.347011 -1.451842 1.870529 0
M  V30 54 H -2.333938 -3.073613 -1.114740 0
M  V30 55 H -5.737401 -5.963452 0.479829 0
M  V30 56 H -3.620594 -9.000778 -1.550412 0
M  V30 57 H -2.002865 -7.354311 -2.245584 0
M  V30 58 H -6.523169 0.898613 1.075613 0
M  V30 59 H -6.627100 -0.336767 -0.286867 0
M  V30 60 H -5.093303 1.767363 -0.584432 0
M  V30 61 H -4.615696 0.141839 -1.166894 0
M  V30 62 H -1.183697 2.714767 2.062853 0
M  V30 63 H 1.168656 2.158995 2.528147 0
M  V30 64 H 2.774584 3.143468 -0.258019 0
M  V30 65 H 2.247316 4.167614 -2.461607 0
M  V30 66 H 2.641776 2.847192 -4.525542 0
M  V30 67 H 3.566249 0.509897 -4.367872 0
M  V30 68 H 4.070307 -0.437719 -2.129688 0
M  V30 69 H 5.861821 0.653921 -0.248917 0
M  V30 END ATOM
M  V30 BEGIN BOND
M  V30 1 1 1 2
M  V30 2 1 2 3
M  V30 3 1 3 4
M  V30 4 2 4 5
M  V30 5 1 5 6
M  V30 6 2 6 7
M  V30 7 1 7 8
M  V30 8 2 8 9
M  V30 9 1 9 10
M  V30 10 2 10 11
M  V30 11 1 11 12
M  V30 12 1 12 13
M  V30 13 1 13 14
M  V30 14 1 14 15
M  V30 15 1 15 16
M  V30 16 1 16 17
M  V30 17 2 17 18
M  V30 18 1 18 19
M  V30 19 1 19 20
M  V30 20 1 20 21
M  V30 21 2 21 22
M  V30 22 1 22 23
M  V30 23 2 23 24
M  V30 24 1 24 25
M  V30 25 2 25 26
M  V30 26 2 20 27
M  V30 27 1 16 28
M  V30 28 1 28 29
M  V30 29 1 11 30
M  V30 30 2 30 31
M  V30 31 1 7 32
M  V30 32 1 32 33
M  V30 33 2 33 34
M  V30 34 1 34 35
M  V30 35 2 35 36
M  V30 36 1 36 37
M  V30 37 2 37 38
M  V30 38 2 32 39
M  V30 39 1 39 40
M  V30 40 1 40 41
M  V30 41 2 41 3
M  V30 42 1 40 5
M  V30 43 1 31 8
M  V30 44 1 38 33
M  V30 45 1 29 13
M  V30 46 1 27 17
M  V30 47 1 26 21
M  V30 48 1 1 42
M  V30 49 1 1 43
M  V30 50 1 1 44
M  V30 51 1 9 45
M  V30 52 1 10 46
M  V30 53 1 12 47
M  V30 54 1 12 48
M  V30 55 1 14 49
M  V30 56 1 14 50
M  V30 57 1 15 51
M  V30 58 1 15 52
M  V30 59 1 16 53
M  V30 60 1 19 54
M  V30 61 1 22 55
M  V30 62 1 24 56
M  V30 63 1 25 57
M  V30 64 1 28 58
M  V30 65 1 28 59
M  V30 66 1 29 60
M  V30 67 1 29 61
M  V30 68 1 30 62
M  V30 69 1 31 63
M  V30 70 1 34 64
M  V30 71 1 35 65
M  V30 72 1 36 66
M  V30 73 1 37 67
M  V30 74 1 38 68
M  V30 75 1 39 69
M  V30 END BOND
M  V30 END CTAB
M  END
>  <Dataset>  (513) 
ChEMBL_Kinases

>  <Ligand_Instance>  (513) 
nan

>  <PDB_ID>  (513) 
nan

>  <Standardized_SMILES>  (513) 
CSc1nc2nc(-c3ccc(CN4CCC(c5n[nH]c(-c6cnccn6)n5)CC4)cc3)c(-c3ccccc3)cn2n1

>  <Name>  (513) 
nan

>  <Pocket>  (513) 
nan

>  <ATP_Site>  (513) 
nan

>  <Peripheral>  (513) 
nan

>  <Num_H_Atoms_ProtBoundConf>  (513) 
nan

>  <Num_Resolved_Atoms>  (513) 
nan

>  <Num_Not_Resolved_Atoms>  (513) 
nan

$$$$
CHEMBL3355160
     RDKit          3D

  0  0  0  0  0  0  0  0  0  0999 V3000
M  V30 BEGIN CTAB
M  V30 COUNTS 51 54 0 0 0
M  V30 BEGIN ATOM
M  V30 1 C 2.832905 -0.899355 7.141048 0
M  V30 2 C 3.716351 -0.713130 5.959498 0
M  V30 3 C 4.816083 -1.538862 5.802397 0
M  V30 4 N 5.651177 -1.413825 4.748876 0
M  V30 5 C 5.490022 -0.493300 3.778723 0
M  V30 6 C 4.395117 0.330027 3.933622 0
M  V30 7 N 4.089486 1.365664 2.975832 0
M  V30 8 C 3.243693 0.821045 1.979899 0
M  V30 9 O 2.989286 -0.405158 2.195739 0
M  V30 10 C 2.727581 1.598215 0.833910 0
M  V30 11 C 3.006658 2.930416 0.603142 0
M  V30 12 C 2.455606 3.544270 -0.515605 0
M  V30 13 C 1.647197 2.824244 -1.370407 0
M  V30 14 C 1.370045 1.492941 -1.137202 0
M  V30 15 N 0.528533 0.783125 -2.046212 0
M  V30 16 C -0.045580 -0.425187 -1.829309 0
M  V30 17 C -0.788937 -0.763593 -2.965893 0
M  V30 18 N -1.484147 -2.029084 -2.931762 0
M  V30 19 C -2.812125 -1.902077 -2.399394 0
M  V30 20 O -3.266632 -0.807486 -2.024170 0
M  V30 21 N -3.594258 -3.093280 -2.318328 0
M  V30 22 C -4.926343 -3.172233 -1.822186 0
M  V30 23 C -4.958454 -3.420860 -0.444554 0
M  V30 24 C -6.180957 -3.528112 0.203395 0
M  V30 25 C -7.350441 -3.388275 -0.518698 0
M  V30 26 C -7.318586 -3.141787 -1.884465 0
M  V30 27 C -6.105791 -3.033753 -2.536319 0
M  V30 28 Cl -5.912285 -2.726542 -4.245374 0
M  V30 29 C -0.628453 0.281007 -3.843659 0
M  V30 30 N 0.174034 1.196189 -3.252324 0
M  V30 31 C 1.908148 0.870003 -0.033344 0
M  V30 32 C 3.506330 0.252924 4.985348 0
M  V30 33 H 2.186027 -1.776672 6.936822 0
M  V30 34 H 3.429831 -1.061336 8.068098 0
M  V30 35 H 2.194107 0.010776 7.234599 0
M  V30 36 H 5.044886 -2.320394 6.527137 0
M  V30 37 H 6.123593 -0.359690 2.931305 0
M  V30 38 H 4.371924 2.386966 2.901161 0
M  V30 39 H 3.645341 3.435671 1.309359 0
M  V30 40 H 2.698325 4.590979 -0.661995 0
M  V30 41 H 1.254558 3.371819 -2.221016 0
M  V30 42 H 0.110334 -0.964399 -0.885515 0
M  V30 43 H -1.115909 -2.973143 -3.246264 0
M  V30 44 H -3.283690 -4.049048 -2.612904 0
M  V30 45 H -4.083115 -3.541270 0.183064 0
M  V30 46 H -6.211217 -3.722559 1.281013 0
M  V30 47 H -8.283552 -3.475305 0.004466 0
M  V30 48 H -8.207583 -3.028049 -2.474532 0
M  V30 49 H -1.134925 0.200269 -4.791258 0
M  V30 50 H 1.684129 -0.158855 0.132235 0
M  V30 51 H 2.649376 0.913361 5.086660 0
M  V30 END ATOM
M  V30 BEGIN BOND
M  V30 1 1 1 2
M  V30 2 2 2 3
M  V30 3 1 3 4
M  V30 4 2 4 5
M  V30 5 1 5 6
M  V30 6 1 6 7
M  V30 7 1 7 8
M  V30 8 2 8 9
M  V30 9 1 8 10
M  V30 10 2 10 11
M  V30 11 1 11 12
M  V30 12 2 12 13
M  V30 13 1 13 14
M  V30 14 1 14 15
M  V30 15 1 15 16
M  V30 16 2 16 17
M  V30 17 1 17 18
M  V30 18 1 18 19
M  V30 19 2 19 20
M  V30 20 1 19 21
M  V30 21 1 21 22
M  V30 22 2 22 23
M  V30 23 1 23 24
M  V30 24 2 24 25
M  V30 25 1 25 26
M  V30 26 2 26 27
M  V30 27 1 27 28
M  V30 28 1 17 29
M  V30 29 2 29 30
M  V30 30 2 14 31
M  V30 31 2 6 32
M  V30 32 1 32 2
M  V30 33 1 31 10
M  V30 34 1 30 15
M  V30 35 1 27 22
M  V30 36 1 1 33
M  V30 37 1 1 34
M  V30 38 1 1 35
M  V30 39 1 3 36
M  V30 40 1 5 37
M  V30 41 1 7 38
M  V30 42 1 11 39
M  V30 43 1 12 40
M  V30 44 1 13 41
M  V30 45 1 16 42
M  V30 46 1 18 43
M  V30 47 1 21 44
M  V30 48 1 23 45
M  V30 49 1 24 46
M  V30 50 1 25 47
M  V30 51 1 26 48
M  V30 52 1 29 49
M  V30 53 1 31 50
M  V30 54 1 32 51
M  V30 END BOND
M  V30 END CTAB
M  END
>  <Dataset>  (514) 
ChEMBL_Kinases

>  <Ligand_Instance>  (514) 
nan

>  <PDB_ID>  (514) 
nan

>  <Standardized_SMILES>  (514) 
Cc1cncc(NC(=O)c2cccc(-n3cc(NC(=O)Nc4ccccc4Cl)cn3)c2)c1

>  <Name>  (514) 
nan

>  <Pocket>  (514) 
nan

>  <ATP_Site>  (514) 
nan

>  <Peripheral>  (514) 
nan

>  <Num_H_Atoms_ProtBoundConf>  (514) 
nan

>  <Num_Resolved_Atoms>  (514) 
nan

>  <Num_Not_Resolved_Atoms>  (514) 
nan

$$$$
CHEMBL3355161
     RDKit          3D

  0  0  0  0  0  0  0  0  0  0999 V3000
M  V30 BEGIN CTAB
M  V30 COUNTS 51 54 0 0 0
M  V30 BEGIN ATOM
M  V30 1 C 2.954460 0.210804 5.503322 0
M  V30 2 C 4.053540 -0.548667 4.855666 0
M  V30 3 N 4.543925 -1.620668 5.491727 0
M  V30 4 C 5.535136 -2.350254 4.963975 0
M  V30 5 C 6.070821 -1.993598 3.731260 0
M  V30 6 C 5.585945 -0.882063 3.037269 0
M  V30 7 C 4.549710 -0.162492 3.643444 0
M  V30 8 N 4.053957 0.970525 2.938243 0
M  V30 9 C 2.980429 0.706104 2.048242 0
M  V30 10 O 2.611439 -0.513558 2.006919 0
M  V30 11 C 2.348660 1.752933 1.242622 0
M  V30 12 C 2.714636 3.094115 1.252882 0
M  V30 13 C 2.054057 4.003638 0.453867 0
M  V30 14 C 1.008587 3.618750 -0.383146 0
M  V30 15 C 0.662335 2.276180 -0.375586 0
M  V30 16 N -0.406364 1.838927 -1.220935 0
M  V30 17 C -1.545463 1.218098 -0.802879 0
M  V30 18 C -2.330759 0.956084 -1.929403 0
M  V30 19 N -3.598717 0.294151 -1.712307 0
M  V30 20 C -3.561259 -1.101770 -1.753910 0
M  V30 21 O -2.424162 -1.528792 -1.974156 0
M  V30 22 N -4.554707 -2.051321 -1.594430 0
M  V30 23 C -4.729145 -3.444498 -1.611497 0
M  V30 24 C -5.951902 -3.906796 -1.193647 0
M  V30 25 C -6.213252 -5.251349 -1.186288 0
M  V30 26 C -5.281931 -6.174092 -1.588698 0
M  V30 27 C -4.045163 -5.751135 -2.014932 0
M  V30 28 C -3.826443 -4.395407 -2.006110 0
M  V30 29 Cl -2.235166 -4.001880 -2.594414 0
M  V30 30 C -1.615025 1.441476 -3.004362 0
M  V30 31 N -0.473812 1.960320 -2.544133 0
M  V30 32 C 1.313526 1.360631 0.416515 0
M  V30 33 H 2.027454 -0.386754 5.600397 0
M  V30 34 H 3.302305 0.513621 6.512634 0
M  V30 35 H 2.710061 1.140414 4.955931 0
M  V30 36 H 5.897621 -3.203950 5.511468 0
M  V30 37 H 6.865606 -2.641751 3.387772 0
M  V30 38 H 6.039118 -0.652053 2.084904 0
M  V30 39 H 4.427754 1.933502 3.043997 0
M  V30 40 H 3.526546 3.369225 1.908480 0
M  V30 41 H 2.372845 5.044204 0.492730 0
M  V30 42 H 0.508899 4.371990 -1.002841 0
M  V30 43 H -1.720968 1.007124 0.244443 0
M  V30 44 H -4.559198 0.719034 -1.524988 0
M  V30 45 H -5.427015 -1.463796 -1.413775 0
M  V30 46 H -6.768800 -3.257940 -0.850899 0
M  V30 47 H -7.178811 -5.582318 -0.852797 0
M  V30 48 H -5.577573 -7.210351 -1.548001 0
M  V30 49 H -3.371116 -6.518347 -2.312796 0
M  V30 50 H -2.069188 1.327963 -3.979901 0
M  V30 51 H 0.994268 0.339078 0.372780 0
M  V30 END ATOM
M  V30 BEGIN BOND
M  V30 1 1 1 2
M  V30 2 2 2 3
M  V30 3 1 3 4
M  V30 4 2 4 5
M  V30 5 1 5 6
M  V30 6 2 6 7
M  V30 7 1 7 8
M  V30 8 1 8 9
M  V30 9 2 9 10
M  V30 10 1 9 11
M  V30 11 2 11 12
M  V30 12 1 12 13
M  V30 13 2 13 14
M  V30 14 1 14 15
M  V30 15 1 15 16
M  V30 16 1 16 17
M  V30 17 2 17 18
M  V30 18 1 18 19
M  V30 19 1 19 20
M  V30 20 2 20 21
M  V30 21 1 20 22
M  V30 22 1 22 23
M  V30 23 2 23 24
M  V30 24 1 24 25
M  V30 25 2 25 26
M  V30 26 1 26 27
M  V30 27 2 27 28
M  V30 28 1 28 29
M  V30 29 1 18 30
M  V30 30 2 30 31
M  V30 31 2 15 32
M  V30 32 1 7 2
M  V30 33 1 32 11
M  V30 34 1 31 16
M  V30 35 1 28 23
M  V30 36 1 1 33
M  V30 37 1 1 34
M  V30 38 1 1 35
M  V30 39 1 4 36
M  V30 40 1 5 37
M  V30 41 1 6 38
M  V30 42 1 8 39
M  V30 43 1 12 40
M  V30 44 1 13 41
M  V30 45 1 14 42
M  V30 46 1 17 43
M  V30 47 1 19 44
M  V30 48 1 22 45
M  V30 49 1 24 46
M  V30 50 1 25 47
M  V30 51 1 26 48
M  V30 52 1 27 49
M  V30 53 1 30 50
M  V30 54 1 32 51
M  V30 END BOND
M  V30 END CTAB
M  END
>  <Dataset>  (515) 
ChEMBL_Kinases

>  <Ligand_Instance>  (515) 
nan

>  <PDB_ID>  (515) 
nan

>  <Standardized_SMILES>  (515) 
Cc1ncccc1NC(=O)c1cccc(-n2cc(NC(=O)Nc3ccccc3Cl)cn2)c1

>  <Name>  (515) 
nan

>  <Pocket>  (515) 
nan

>  <ATP_Site>  (515) 
nan

>  <Peripheral>  (515) 
nan

>  <Num_H_Atoms_ProtBoundConf>  (515) 
nan

>  <Num_Resolved_Atoms>  (515) 
nan

>  <Num_Not_Resolved_Atoms>  (515) 
nan

$$$$
CHEMBL3355162
     RDKit          3D

  0  0  0  0  0  0  0  0  0  0999 V3000
M  V30 BEGIN CTAB
M  V30 COUNTS 54 57 0 0 0
M  V30 BEGIN ATOM
M  V30 1 C 4.054171 -6.635111 1.868812 0
M  V30 2 C 3.767804 -5.200015 1.607756 0
M  V30 3 C 3.979808 -4.203121 2.528584 0
M  V30 4 C 3.670387 -2.911355 2.155053 0
M  V30 5 C 3.166488 -2.568318 0.924724 0
M  V30 6 N 2.844803 -1.241626 0.530659 0
M  V30 7 C 3.651832 -0.257698 -0.099690 0
M  V30 8 O 4.832211 -0.478503 -0.398465 0
M  V30 9 C 3.088349 1.049765 -0.408353 0
M  V30 10 C 3.929506 1.969088 -1.025418 0
M  V30 11 C 3.547279 3.262405 -1.387378 0
M  V30 12 C 2.246063 3.619242 -1.100670 0
M  V30 13 C 1.376289 2.739953 -0.489384 0
M  V30 14 N 0.011800 3.034448 -0.158820 0
M  V30 15 C -0.996604 2.361200 -0.740981 0
M  V30 16 C -2.193732 2.846236 -0.240692 0
M  V30 17 N -3.513440 2.388713 -0.609641 0
M  V30 18 C -3.894151 1.330591 0.255269 0
M  V30 19 O -3.197467 0.868277 1.188245 0
M  V30 20 N -5.162155 0.664884 0.137918 0
M  V30 21 C -5.590301 -0.399669 0.979059 0
M  V30 22 C -6.286657 -0.321161 2.166968 0
M  V30 23 C -6.612941 -1.472677 2.841850 0
M  V30 24 C -6.261968 -2.733481 2.364680 0
M  V30 25 C -5.565312 -2.818371 1.176890 0
M  V30 26 C -5.229438 -1.650444 0.483908 0
M  V30 27 Cl -4.344260 -1.950282 -1.006198 0
M  V30 28 C -1.853195 3.835806 0.662992 0
M  V30 29 N -0.510895 3.929928 0.693873 0
M  V30 30 C 1.818231 1.466197 -0.154072 0
M  V30 31 C 2.972006 -3.609913 0.035100 0
M  V30 32 C 2.435022 -3.367227 -1.319424 0
M  V30 33 N 3.268940 -4.876623 0.383988 0
M  V30 34 H 4.924720 -6.789647 2.533348 0
M  V30 35 H 3.146897 -7.139393 2.306704 0
M  V30 36 H 4.273076 -7.178585 0.928274 0
M  V30 37 H 4.375941 -4.452476 3.502976 0
M  V30 38 H 3.822658 -2.081752 2.856563 0
M  V30 39 H 1.847112 -1.095799 0.798512 0
M  V30 40 H 4.972137 1.737142 -1.275416 0
M  V30 41 H 4.222859 3.941544 -1.860743 0
M  V30 42 H 1.864489 4.606614 -1.347987 0
M  V30 43 H -0.944000 1.571524 -1.475757 0
M  V30 44 H -4.162926 2.709930 -1.364275 0
M  V30 45 H -5.845717 0.963903 -0.615348 0
M  V30 46 H -6.525488 0.683674 2.477055 0
M  V30 47 H -7.165818 -1.361152 3.780102 0
M  V30 48 H -6.571055 -3.572529 2.978929 0
M  V30 49 H -5.322116 -3.815254 0.858515 0
M  V30 50 H -2.587579 4.387088 1.205277 0
M  V30 51 H 1.156985 0.764152 0.323260 0
M  V30 52 H 1.445413 -3.864465 -1.433467 0
M  V30 53 H 2.384484 -2.314273 -1.593914 0
M  V30 54 H 3.130413 -3.894833 -2.021052 0
M  V30 END ATOM
M  V30 BEGIN BOND
M  V30 1 1 1 2
M  V30 2 2 2 3
M  V30 3 1 3 4
M  V30 4 2 4 5
M  V30 5 1 5 6
M  V30 6 1 6 7
M  V30 7 2 7 8
M  V30 8 1 7 9
M  V30 9 2 9 10
M  V30 10 1 10 11
M  V30 11 2 11 12
M  V30 12 1 12 13
M  V30 13 1 13 14
M  V30 14 1 14 15
M  V30 15 2 15 16
M  V30 16 1 16 17
M  V30 17 1 17 18
M  V30 18 2 18 19
M  V30 19 1 18 20
M  V30 20 1 20 21
M  V30 21 2 21 22
M  V30 22 1 22 23
M  V30 23 2 23 24
M  V30 24 1 24 25
M  V30 25 2 25 26
M  V30 26 1 26 27
M  V30 27 1 16 28
M  V30 28 2 28 29
M  V30 29 2 13 30
M  V30 30 1 5 31
M  V30 31 1 31 32
M  V30 32 2 31 33
M  V30 33 1 33 2
M  V30 34 1 30 9
M  V30 35 1 29 14
M  V30 36 1 26 21
M  V30 37 1 1 34
M  V30 38 1 1 35
M  V30 39 1 1 36
M  V30 40 1 3 37
M  V30 41 1 4 38
M  V30 42 1 6 39
M  V30 43 1 10 40
M  V30 44 1 11 41
M  V30 45 1 12 42
M  V30 46 1 15 43
M  V30 47 1 17 44
M  V30 48 1 20 45
M  V30 49 1 22 46
M  V30 50 1 23 47
M  V30 51 1 24 48
M  V30 52 1 25 49
M  V30 53 1 28 50
M  V30 54 1 30 51
M  V30 55 1 32 52
M  V30 56 1 32 53
M  V30 57 1 32 54
M  V30 END BOND
M  V30 END CTAB
M  END
>  <Dataset>  (516) 
ChEMBL_Kinases

>  <Ligand_Instance>  (516) 
nan

>  <PDB_ID>  (516) 
nan

>  <Standardized_SMILES>  (516) 
Cc1ccc(NC(=O)c2cccc(-n3cc(NC(=O)Nc4ccccc4Cl)cn3)c2)c(C)n1

>  <Name>  (516) 
nan

>  <Pocket>  (516) 
nan

>  <ATP_Site>  (516) 
nan

>  <Peripheral>  (516) 
nan

>  <Num_H_Atoms_ProtBoundConf>  (516) 
nan

>  <Num_Resolved_Atoms>  (516) 
nan

>  <Num_Not_Resolved_Atoms>  (516) 
nan

$$$$
CHEMBL3672086
     RDKit          3D

  0  0  0  0  0  0  0  0  0  0999 V3000
M  V30 BEGIN CTAB
M  V30 COUNTS 69 75 0 0 0
M  V30 BEGIN ATOM
M  V30 1 C 8.880000 -0.901598 4.351076 0
M  V30 2 S 7.152796 -1.284670 4.809058 0
M  V30 3 C 6.089476 -0.486113 3.624665 0
M  V30 4 N 4.744417 -0.587293 3.702843 0
M  V30 5 C 4.242245 0.124234 2.668374 0
M  V30 6 N 2.998744 0.377902 2.245936 0
M  V30 7 C 2.757143 1.142392 1.147185 0
M  V30 8 C 1.325979 1.266731 0.890499 0
M  V30 9 C 0.947066 0.689305 -0.318625 0
M  V30 10 C -0.409066 0.750991 -0.660617 0
M  V30 11 C -1.330564 1.370838 0.189389 0
M  V30 12 C -2.724547 1.347784 -0.310072 0
M  V30 13 N -3.442411 0.172839 0.142533 0
M  V30 14 C -3.509188 0.161117 1.561516 0
M  V30 15 C -4.419319 -0.855552 2.149618 0
M  V30 16 C -5.304925 -1.557781 1.140435 0
M  V30 17 C -4.512430 -2.527342 0.338708 0
M  V30 18 N -3.488861 -2.442626 -0.522176 0
M  V30 19 N -3.149889 -3.635997 -0.959868 0
M  V30 20 C -3.949733 -4.554160 -0.393627 0
M  V30 21 C -3.840493 -5.981364 -0.662542 0
M  V30 22 N -2.896185 -6.410748 -1.517604 0
M  V30 23 C -2.698325 -7.699505 -1.843440 0
M  V30 24 C -3.535485 -8.625093 -1.245205 0
M  V30 25 C -4.515085 -8.220858 -0.363265 0
M  V30 26 N -4.630583 -6.908957 -0.104632 0
M  V30 27 N -4.770931 -3.866796 0.391308 0
M  V30 28 C -5.826047 -0.494548 0.205504 0
M  V30 29 C -4.675950 0.077307 -0.550950 0
M  V30 30 C -0.927442 1.933685 1.378892 0
M  V30 31 C 0.407288 1.875489 1.720016 0
M  V30 32 C 3.816407 1.674635 0.443625 0
M  V30 33 C 3.380578 2.465508 -0.702246 0
M  V30 34 C 2.628736 3.623968 -0.702233 0
M  V30 35 C 2.319402 4.224883 -1.911990 0
M  V30 36 C 2.756290 3.673308 -3.093721 0
M  V30 37 C 3.519124 2.500257 -3.115304 0
M  V30 38 C 3.818803 1.913463 -1.900377 0
M  V30 39 C 5.106236 1.416579 0.874554 0
M  V30 40 N 5.240233 0.652468 1.967147 0
M  V30 41 N 6.358400 0.275711 2.556471 0
M  V30 42 H 9.068073 -1.345874 3.349145 0
M  V30 43 H 9.570923 -1.363084 5.068996 0
M  V30 44 H 8.936911 0.197434 4.295985 0
M  V30 45 H 1.621649 0.198180 -1.010407 0
M  V30 46 H -0.704936 0.295645 -1.613903 0
M  V30 47 H -2.730248 1.503314 -1.388225 0
M  V30 48 H -3.280810 2.222379 0.128610 0
M  V30 49 H -3.923880 1.168419 1.868071 0
M  V30 50 H -2.530796 0.102548 2.053704 0
M  V30 51 H -3.790438 -1.656894 2.627475 0
M  V30 52 H -5.047335 -0.460071 2.978198 0
M  V30 53 H -6.124847 -2.048300 1.711597 0
M  V30 54 H -2.351607 -3.705910 -1.648694 0
M  V30 55 H -1.901692 -7.901017 -2.545286 0
M  V30 56 H -3.361058 -9.664812 -1.520721 0
M  V30 57 H -5.154920 -8.960616 0.090192 0
M  V30 58 H -6.266675 0.293718 0.857974 0
M  V30 59 H -6.571500 -0.891805 -0.512788 0
M  V30 60 H -4.981756 1.090393 -0.889787 0
M  V30 61 H -4.557288 -0.548839 -1.482520 0
M  V30 62 H -1.666604 2.402505 2.005960 0
M  V30 63 H 0.778931 2.300752 2.641197 0
M  V30 64 H 2.364980 3.927216 0.303888 0
M  V30 65 H 1.729023 5.125268 -1.820946 0
M  V30 66 H 2.482514 4.189071 -4.012857 0
M  V30 67 H 3.797026 2.171630 -4.097917 0
M  V30 68 H 4.409890 1.016779 -2.027170 0
M  V30 69 H 5.863405 1.865801 0.273698 0
M  V30 END ATOM
M  V30 BEGIN BOND
M  V30 1 1 1 2
M  V30 2 1 2 3
M  V30 3 1 3 4
M  V30 4 2 4 5
M  V30 5 1 5 6
M  V30 6 2 6 7
M  V30 7 1 7 8
M  V30 8 2 8 9
M  V30 9 1 9 10
M  V30 10 2 10 11
M  V30 11 1 11 12
M  V30 12 1 12 13
M  V30 13 1 13 14
M  V30 14 1 14 15
M  V30 15 1 15 16
M  V30 16 1 16 17
M  V30 17 2 17 18
M  V30 18 1 18 19
M  V30 19 1 19 20
M  V30 20 1 20 21
M  V30 21 2 21 22
M  V30 22 1 22 23
M  V30 23 2 23 24
M  V30 24 1 24 25
M  V30 25 2 25 26
M  V30 26 2 20 27
M  V30 27 1 16 28
M  V30 28 1 28 29
M  V30 29 1 11 30
M  V30 30 2 30 31
M  V30 31 1 7 32
M  V30 32 1 32 33
M  V30 33 2 33 34
M  V30 34 1 34 35
M  V30 35 2 35 36
M  V30 36 1 36 37
M  V30 37 2 37 38
M  V30 38 2 32 39
M  V30 39 1 39 40
M  V30 40 1 40 41
M  V30 41 2 41 3
M  V30 42 1 40 5
M  V30 43 1 31 8
M  V30 44 1 38 33
M  V30 45 1 29 13
M  V30 46 1 27 17
M  V30 47 1 26 21
M  V30 48 1 1 42
M  V30 49 1 1 43
M  V30 50 1 1 44
M  V30 51 1 9 45
M  V30 52 1 10 46
M  V30 53 1 12 47
M  V30 54 1 12 48
M  V30 55 1 14 49
M  V30 56 1 14 50
M  V30 57 1 15 51
M  V30 58 1 15 52
M  V30 59 1 16 53
M  V30 60 1 19 54
M  V30 61 1 23 55
M  V30 62 1 24 56
M  V30 63 1 25 57
M  V30 64 1 28 58
M  V30 65 1 28 59
M  V30 66 1 29 60
M  V30 67 1 29 61
M  V30 68 1 30 62
M  V30 69 1 31 63
M  V30 70 1 34 64
M  V30 71 1 35 65
M  V30 72 1 36 66
M  V30 73 1 37 67
M  V30 74 1 38 68
M  V30 75 1 39 69
M  V30 END BOND
M  V30 END CTAB
M  END
>  <Dataset>  (517) 
ChEMBL_Kinases

>  <Ligand_Instance>  (517) 
nan

>  <PDB_ID>  (517) 
nan

>  <Standardized_SMILES>  (517) 
CSc1nc2nc(-c3ccc(CN4CCC(c5n[nH]c(-c6ncccn6)n5)CC4)cc3)c(-c3ccccc3)cn2n1

>  <Name>  (517) 
nan

>  <Pocket>  (517) 
nan

>  <ATP_Site>  (517) 
nan

>  <Peripheral>  (517) 
nan

>  <Num_H_Atoms_ProtBoundConf>  (517) 
nan

>  <Num_Resolved_Atoms>  (517) 
nan

>  <Num_Not_Resolved_Atoms>  (517) 
nan

$$$$
CHEMBL3672085
     RDKit          3D

  0  0  0  0  0  0  0  0  0  0999 V3000
M  V30 BEGIN CTAB
M  V30 COUNTS 70 76 0 0 0
M  V30 BEGIN ATOM
M  V30 1 C 8.350261 -2.237493 3.831957 0
M  V30 2 S 6.595271 -2.251514 4.330486 0
M  V30 3 C 5.632658 -1.488260 3.046440 0
M  V30 4 N 4.305348 -1.375922 3.170509 0
M  V30 5 C 3.759223 -0.782439 2.119881 0
M  V30 6 N 2.467913 -0.465487 1.820636 0
M  V30 7 C 2.290458 0.151603 0.624501 0
M  V30 8 C 0.914391 0.504053 0.276440 0
M  V30 9 C 0.210617 0.016872 -0.813607 0
M  V30 10 C -1.098848 0.434516 -1.024479 0
M  V30 11 C -1.752567 1.322135 -0.197514 0
M  V30 12 C -3.149673 1.708863 -0.507502 0
M  V30 13 N -4.065608 0.771633 0.138222 0
M  V30 14 C -3.925279 0.752349 1.568641 0
M  V30 15 C -5.193205 0.300488 2.224656 0
M  V30 16 C -5.898071 -0.741617 1.388754 0
M  V30 17 C -4.996018 -1.926980 1.291409 0
M  V30 18 N -5.295865 -3.096317 1.864320 0
M  V30 19 N -4.333667 -3.978202 1.620434 0
M  V30 20 C -3.398105 -3.371168 0.879126 0
M  V30 21 C -2.189286 -4.048493 0.419043 0
M  V30 22 C -1.218755 -3.444263 -0.349140 0
M  V30 23 C -0.090068 -4.115099 -0.772578 0
M  V30 24 C 0.086313 -5.428793 -0.425301 0
M  V30 25 C -0.903805 -5.982520 0.336972 0
M  V30 26 N -2.023065 -5.349762 0.768246 0
M  V30 27 N -3.805858 -2.102585 0.674611 0
M  V30 28 C -6.222139 -0.203766 0.028793 0
M  V30 29 C -5.438620 1.072810 -0.180607 0
M  V30 30 C -1.013570 1.779019 0.871010 0
M  V30 31 C 0.284647 1.405308 1.136015 0
M  V30 32 C 3.308141 0.439494 -0.223180 0
M  V30 33 C 3.113901 1.103877 -1.511059 0
M  V30 34 C 2.602727 2.387300 -1.472679 0
M  V30 35 C 2.403703 3.054863 -2.668369 0
M  V30 36 C 2.703142 2.467927 -3.882284 0
M  V30 37 C 3.214538 1.184124 -3.923720 0
M  V30 38 C 3.415071 0.511766 -2.721933 0
M  V30 39 C 4.622079 0.108548 0.096990 0
M  V30 40 N 4.792450 -0.506270 1.291398 0
M  V30 41 N 5.924723 -0.937006 1.859379 0
M  V30 42 H 8.584847 -1.365597 3.223833 0
M  V30 43 H 8.945127 -2.243915 4.768687 0
M  V30 44 H 8.517917 -3.172623 3.244529 0
M  V30 45 H 0.737175 -0.680065 -1.452670 0
M  V30 46 H -1.552936 -0.007679 -1.903169 0
M  V30 47 H -3.317998 2.691891 0.005533 0
M  V30 48 H -3.370026 1.740453 -1.573886 0
M  V30 49 H -3.711945 1.787411 1.974842 0
M  V30 50 H -3.114162 0.060515 1.873319 0
M  V30 51 H -4.981331 -0.114034 3.251192 0
M  V30 52 H -5.907073 1.148588 2.425100 0
M  V30 53 H -6.821583 -1.102961 1.920981 0
M  V30 54 H -4.444493 -4.943118 2.013236 0
M  V30 55 H -1.351308 -2.419056 -0.625666 0
M  V30 56 H 0.680025 -3.628853 -1.385991 0
M  V30 57 H 0.940467 -6.046110 -0.709351 0
M  V30 58 H -0.855719 -7.020577 0.663225 0
M  V30 59 H -5.900000 -0.918550 -0.779628 0
M  V30 60 H -7.317736 -0.027146 -0.023106 0
M  V30 61 H -5.882114 1.826657 0.512559 0
M  V30 62 H -5.573456 1.477881 -1.206426 0
M  V30 63 H -1.474948 2.474822 1.546349 0
M  V30 64 H 0.790241 1.807040 1.988355 0
M  V30 65 H 2.331696 2.941321 -0.567743 0
M  V30 66 H 2.006681 4.062324 -2.743331 0
M  V30 67 H 2.570964 2.934301 -4.858677 0
M  V30 68 H 3.478012 0.648846 -4.831957 0
M  V30 69 H 3.807464 -0.492312 -2.617250 0
M  V30 70 H 5.482479 0.302629 -0.519303 0
M  V30 END ATOM
M  V30 BEGIN BOND
M  V30 1 1 1 2
M  V30 2 1 2 3
M  V30 3 1 3 4
M  V30 4 2 4 5
M  V30 5 1 5 6
M  V30 6 2 6 7
M  V30 7 1 7 8
M  V30 8 2 8 9
M  V30 9 1 9 10
M  V30 10 2 10 11
M  V30 11 1 11 12
M  V30 12 1 12 13
M  V30 13 1 13 14
M  V30 14 1 14 15
M  V30 15 1 15 16
M  V30 16 1 16 17
M  V30 17 2 17 18
M  V30 18 1 18 19
M  V30 19 1 19 20
M  V30 20 1 20 21
M  V30 21 2 21 22
M  V30 22 1 22 23
M  V30 23 2 23 24
M  V30 24 1 24 25
M  V30 25 2 25 26
M  V30 26 2 20 27
M  V30 27 1 16 28
M  V30 28 1 28 29
M  V30 29 1 11 30
M  V30 30 2 30 31
M  V30 31 1 7 32
M  V30 32 1 32 33
M  V30 33 2 33 34
M  V30 34 1 34 35
M  V30 35 2 35 36
M  V30 36 1 36 37
M  V30 37 2 37 38
M  V30 38 2 32 39
M  V30 39 1 39 40
M  V30 40 1 40 41
M  V30 41 2 41 3
M  V30 42 1 40 5
M  V30 43 1 31 8
M  V30 44 1 38 33
M  V30 45 1 29 13
M  V30 46 1 27 17
M  V30 47 1 26 21
M  V30 48 1 1 42
M  V30 49 1 1 43
M  V30 50 1 1 44
M  V30 51 1 9 45
M  V30 52 1 10 46
M  V30 53 1 12 47
M  V30 54 1 12 48
M  V30 55 1 14 49
M  V30 56 1 14 50
M  V30 57 1 15 51
M  V30 58 1 15 52
M  V30 59 1 16 53
M  V30 60 1 19 54
M  V30 61 1 22 55
M  V30 62 1 23 56
M  V30 63 1 24 57
M  V30 64 1 25 58
M  V30 65 1 28 59
M  V30 66 1 28 60
M  V30 67 1 29 61
M  V30 68 1 29 62
M  V30 69 1 30 63
M  V30 70 1 31 64
M  V30 71 1 34 65
M  V30 72 1 35 66
M  V30 73 1 36 67
M  V30 74 1 37 68
M  V30 75 1 38 69
M  V30 76 1 39 70
M  V30 END BOND
M  V30 END CTAB
M  END
>  <Dataset>  (518) 
ChEMBL_Kinases

>  <Ligand_Instance>  (518) 
nan

>  <PDB_ID>  (518) 
nan

>  <Standardized_SMILES>  (518) 
CSc1nc2nc(-c3ccc(CN4CCC(c5n[nH]c(-c6ccccn6)n5)CC4)cc3)c(-c3ccccc3)cn2n1

>  <Name>  (518) 
nan

>  <Pocket>  (518) 
nan

>  <ATP_Site>  (518) 
nan

>  <Peripheral>  (518) 
nan

>  <Num_H_Atoms_ProtBoundConf>  (518) 
nan

>  <Num_Resolved_Atoms>  (518) 
nan

>  <Num_Not_Resolved_Atoms>  (518) 
nan

$$$$
CHEMBL3672084
     RDKit          3D

  0  0  0  0  0  0  0  0  0  0999 V3000
M  V30 BEGIN CTAB
M  V30 COUNTS 64 70 0 0 0
M  V30 BEGIN ATOM
M  V30 1 C 7.064092 -4.524813 5.170386 0
M  V30 2 S 5.292214 -4.199162 5.233140 0
M  V30 3 C 4.769850 -2.952216 4.075144 0
M  V30 4 N 3.483002 -2.572094 3.974000 0
M  V30 5 C 3.421520 -1.622858 3.017292 0
M  V30 6 N 2.385739 -0.895483 2.504873 0
M  V30 7 C 2.626139 0.017161 1.517970 0
M  V30 8 C 1.395826 0.685585 1.109852 0
M  V30 9 C 0.568388 1.456819 1.901668 0
M  V30 10 C -0.568579 2.025130 1.360689 0
M  V30 11 C -0.865391 1.816600 0.036270 0
M  V30 12 C -2.103371 2.430527 -0.565585 0
M  V30 13 N -3.143500 1.444093 -0.373267 0
M  V30 14 C -3.402587 1.102388 1.013085 0
M  V30 15 C -4.822687 0.773785 0.528422 0
M  V30 16 C -4.778265 -0.528917 -0.169175 0
M  V30 17 N -3.822352 -0.766519 -1.111797 0
M  V30 18 N -3.999333 -1.994037 -1.580735 0
M  V30 19 C -5.050422 -2.559518 -0.962649 0
M  V30 20 C -5.521863 -3.912258 -1.241690 0
M  V30 21 C -6.588333 -4.484945 -0.613734 0
M  V30 22 C -7.005424 -5.783948 -0.912124 0
M  V30 23 C -6.324203 -6.534209 -1.877962 0
M  V30 24 C -5.255119 -5.887411 -2.470663 0
M  V30 25 N -4.844838 -4.617793 -2.181326 0
M  V30 26 N -5.535485 -1.658079 -0.089184 0
M  V30 27 C -4.511187 1.968948 -0.384062 0
M  V30 28 C -0.057863 1.048205 -0.788744 0
M  V30 29 C 1.064322 0.494251 -0.231503 0
M  V30 30 C 3.893590 0.230379 1.016833 0
M  V30 31 C 3.989171 1.235878 -0.033343 0
M  V30 32 C 4.434261 0.914680 -1.290370 0
M  V30 33 C 4.508604 1.892700 -2.252416 0
M  V30 34 C 4.123701 3.186914 -1.906230 0
M  V30 35 C 3.673703 3.542858 -0.658023 0
M  V30 36 C 3.608051 2.536307 0.295633 0
M  V30 37 C 4.920529 -0.517005 1.551644 0
M  V30 38 N 4.674861 -1.413605 2.523357 0
M  V30 39 N 5.497068 -2.239712 3.184261 0
M  V30 40 H 7.286051 -4.927668 4.156920 0
M  V30 41 H 7.602136 -3.581387 5.397943 0
M  V30 42 H 7.291200 -5.227925 5.985194 0
M  V30 43 H 0.888084 1.562133 2.932444 0
M  V30 44 H -1.189580 2.622623 2.016918 0
M  V30 45 H -2.331461 3.338554 0.005979 0
M  V30 46 H -1.953719 2.645647 -1.625633 0
M  V30 47 H -3.477045 1.971889 1.695993 0
M  V30 48 H -2.912932 0.197013 1.392401 0
M  V30 49 H -5.600739 0.928526 1.270559 0
M  V30 50 H -3.346940 -2.362420 -2.328276 0
M  V30 51 H -7.134945 -3.926727 0.139138 0
M  V30 52 H -7.850368 -6.244916 -0.418327 0
M  V30 53 H -6.580023 -7.537216 -2.165271 0
M  V30 54 H -4.713237 -6.467411 -3.230294 0
M  V30 55 H -4.594104 2.894010 0.237386 0
M  V30 56 H -5.030853 1.957628 -1.342082 0
M  V30 57 H -0.321836 0.900271 -1.842323 0
M  V30 58 H 1.672075 -0.104387 -0.919841 0
M  V30 59 H 4.729855 -0.094892 -1.544888 0
M  V30 60 H 4.853896 1.694451 -3.264692 0
M  V30 61 H 4.185752 3.953852 -2.673075 0
M  V30 62 H 3.398989 4.564123 -0.482023 0
M  V30 63 H 3.246306 2.845801 1.282517 0
M  V30 64 H 5.900073 -0.325576 1.137111 0
M  V30 END ATOM
M  V30 BEGIN BOND
M  V30 1 1 1 2
M  V30 2 1 2 3
M  V30 3 1 3 4
M  V30 4 2 4 5
M  V30 5 1 5 6
M  V30 6 2 6 7
M  V30 7 1 7 8
M  V30 8 2 8 9
M  V30 9 1 9 10
M  V30 10 2 10 11
M  V30 11 1 11 12
M  V30 12 1 12 13
M  V30 13 1 13 14
M  V30 14 1 14 15
M  V30 15 1 15 16
M  V30 16 2 16 17
M  V30 17 1 17 18
M  V30 18 1 18 19
M  V30 19 1 19 20
M  V30 20 2 20 21
M  V30 21 1 21 22
M  V30 22 2 22 23
M  V30 23 1 23 24
M  V30 24 2 24 25
M  V30 25 2 19 26
M  V30 26 1 15 27
M  V30 27 1 11 28
M  V30 28 2 28 29
M  V30 29 1 7 30
M  V30 30 1 30 31
M  V30 31 2 31 32
M  V30 32 1 32 33
M  V30 33 2 33 34
M  V30 34 1 34 35
M  V30 35 2 35 36
M  V30 36 2 30 37
M  V30 37 1 37 38
M  V30 38 1 38 39
M  V30 39 2 39 3
M  V30 40 1 38 5
M  V30 41 1 29 8
M  V30 42 1 36 31
M  V30 43 1 27 13
M  V30 44 1 26 16
M  V30 45 1 25 20
M  V30 46 1 1 40
M  V30 47 1 1 41
M  V30 48 1 1 42
M  V30 49 1 9 43
M  V30 50 1 10 44
M  V30 51 1 12 45
M  V30 52 1 12 46
M  V30 53 1 14 47
M  V30 54 1 14 48
M  V30 55 1 15 49
M  V30 56 1 18 50
M  V30 57 1 21 51
M  V30 58 1 22 52
M  V30 59 1 23 53
M  V30 60 1 24 54
M  V30 61 1 27 55
M  V30 62 1 27 56
M  V30 63 1 28 57
M  V30 64 1 29 58
M  V30 65 1 32 59
M  V30 66 1 33 60
M  V30 67 1 34 61
M  V30 68 1 35 62
M  V30 69 1 36 63
M  V30 70 1 37 64
M  V30 END BOND
M  V30 END CTAB
M  END
>  <Dataset>  (519) 
ChEMBL_Kinases

>  <Ligand_Instance>  (519) 
nan

>  <PDB_ID>  (519) 
nan

>  <Standardized_SMILES>  (519) 
CSc1nc2nc(-c3ccc(CN4CC(c5n[nH]c(-c6ccccn6)n5)C4)cc3)c(-c3ccccc3)cn2n1

>  <Name>  (519) 
nan

>  <Pocket>  (519) 
nan

>  <ATP_Site>  (519) 
nan

>  <Peripheral>  (519) 
nan

>  <Num_H_Atoms_ProtBoundConf>  (519) 
nan

>  <Num_Resolved_Atoms>  (519) 
nan

>  <Num_Not_Resolved_Atoms>  (519) 
nan

$$$$
CHEMBL3355176
     RDKit          3D

  0  0  0  0  0  0  0  0  0  0999 V3000
M  V30 BEGIN CTAB
M  V30 COUNTS 64 68 0 0 0
M  V30 BEGIN ATOM
M  V30 1 O -0.275029 2.146389 4.382986 0
M  V30 2 C -0.025666 2.712971 5.461832 0
M  V30 3 N 1.302066 2.647690 5.967480 0
M  V30 4 C 2.395267 1.983470 5.349129 0
M  V30 5 C 3.694769 1.903254 5.805395 0
M  V30 6 N 4.399883 1.179886 4.915276 0
M  V30 7 N 3.664366 0.779030 3.910167 0
M  V30 8 C 4.078306 -0.006349 2.786406 0
M  V30 9 C 5.386522 -0.446076 2.747941 0
M  V30 10 C 5.755984 -1.212085 1.637235 0
M  V30 11 C 4.847163 -1.516559 0.618342 0
M  V30 12 C 3.544812 -1.057582 0.692796 0
M  V30 13 C 2.650953 -1.415569 -0.404460 0
M  V30 14 O 3.120459 -2.125656 -1.328839 0
M  V30 15 N 1.312714 -0.973584 -0.413613 0
M  V30 16 C 0.270357 -1.190745 -1.356846 0
M  V30 17 C -0.093975 -0.473841 -2.472926 0
M  V30 18 N -1.159699 -1.098319 -3.032494 0
M  V30 19 N -1.491403 -2.173908 -2.330736 0
M  V30 20 C -2.570665 -3.122814 -2.579714 0
M  V30 21 C -2.143045 -4.257246 -3.446030 0
M  V30 22 N -1.672648 -3.883108 -4.742456 0
M  V30 23 C -1.253967 -5.035975 -5.510734 0
M  V30 24 C -2.248132 -5.260266 -6.600369 0
M  V30 25 C -2.875761 -3.901583 -6.807442 0
M  V30 26 C -2.574269 -3.127729 -5.543605 0
M  V30 27 C -0.623392 -2.263730 -1.280300 0
M  V30 28 C 3.184963 -0.308699 1.779644 0
M  V30 29 C 2.439983 1.269108 4.173522 0
M  V30 30 N -1.097819 3.383074 6.103120 0
M  V30 31 C -2.287850 3.250256 5.322944 0
M  V30 32 C -3.106999 2.165571 5.566177 0
M  V30 33 C -4.249408 2.073343 4.788970 0
M  V30 34 C -4.561453 3.010194 3.820523 0
M  V30 35 C -3.688188 4.083102 3.626832 0
M  V30 36 C -2.541028 4.214445 4.376901 0
M  V30 37 Cl -1.471157 5.582603 4.098197 0
M  V30 38 H 1.469832 3.136012 6.873131 0
M  V30 39 H 4.111103 2.337432 6.720639 0
M  V30 40 H 6.136451 -0.243853 3.504655 0
M  V30 41 H 6.768172 -1.557867 1.598018 0
M  V30 42 H 5.258048 -2.115794 -0.183378 0
M  V30 43 H 0.891849 -0.383365 0.335962 0
M  V30 44 H 0.424367 0.423014 -2.790501 0
M  V30 45 H -3.470151 -2.654847 -3.016087 0
M  V30 46 H -2.918720 -3.570994 -1.615616 0
M  V30 47 H -1.427041 -4.947001 -2.948316 0
M  V30 48 H -3.053821 -4.905373 -3.617061 0
M  V30 49 H -1.231134 -5.945676 -4.854124 0
M  V30 50 H -0.218188 -4.857512 -5.877596 0
M  V30 51 H -2.962751 -6.057665 -6.405210 0
M  V30 52 H -1.682495 -5.539649 -7.510482 0
M  V30 53 H -3.967948 -4.034017 -6.951533 0
M  V30 54 H -2.416101 -3.398017 -7.674677 0
M  V30 55 H -3.505509 -2.946576 -5.009068 0
M  V30 56 H -2.103572 -2.146383 -5.807089 0
M  V30 57 H -0.619479 -3.031635 -0.512741 0
M  V30 58 H 2.181977 0.052197 1.849071 0
M  V30 59 H 1.601462 1.093852 3.499107 0
M  V30 60 H -0.889354 3.867765 7.025736 0
M  V30 61 H -2.889238 1.417999 6.315695 0
M  V30 62 H -4.902989 1.230110 4.965245 0
M  V30 63 H -5.469770 2.851323 3.269872 0
M  V30 64 H -3.941549 4.808178 2.868816 0
M  V30 END ATOM
M  V30 BEGIN BOND
M  V30 1 2 1 2
M  V30 2 1 2 3
M  V30 3 1 3 4
M  V30 4 1 4 5
M  V30 5 2 5 6
M  V30 6 1 6 7
M  V30 7 1 7 8
M  V30 8 2 8 9
M  V30 9 1 9 10
M  V30 10 2 10 11
M  V30 11 1 11 12
M  V30 12 1 12 13
M  V30 13 2 13 14
M  V30 14 1 13 15
M  V30 15 1 15 16
M  V30 16 1 16 17
M  V30 17 2 17 18
M  V30 18 1 18 19
M  V30 19 1 19 20
M  V30 20 1 20 21
M  V30 21 1 21 22
M  V30 22 1 22 23
M  V30 23 1 23 24
M  V30 24 1 24 25
M  V30 25 1 25 26
M  V30 26 1 19 27
M  V30 27 2 12 28
M  V30 28 1 7 29
M  V30 29 1 2 30
M  V30 30 1 30 31
M  V30 31 2 31 32
M  V30 32 1 32 33
M  V30 33 2 33 34
M  V30 34 1 34 35
M  V30 35 2 35 36
M  V30 36 1 36 37
M  V30 37 2 29 4
M  V30 38 1 36 31
M  V30 39 1 28 8
M  V30 40 2 27 16
M  V30 41 1 26 22
M  V30 42 1 3 38
M  V30 43 1 5 39
M  V30 44 1 9 40
M  V30 45 1 10 41
M  V30 46 1 11 42
M  V30 47 1 15 43
M  V30 48 1 17 44
M  V30 49 1 20 45
M  V30 50 1 20 46
M  V30 51 1 21 47
M  V30 52 1 21 48
M  V30 53 1 23 49
M  V30 54 1 23 50
M  V30 55 1 24 51
M  V30 56 1 24 52
M  V30 57 1 25 53
M  V30 58 1 25 54
M  V30 59 1 26 55
M  V30 60 1 26 56
M  V30 61 1 27 57
M  V30 62 1 28 58
M  V30 63 1 29 59
M  V30 64 1 30 60
M  V30 65 1 32 61
M  V30 66 1 33 62
M  V30 67 1 34 63
M  V30 68 1 35 64
M  V30 END BOND
M  V30 END CTAB
M  END
>  <Dataset>  (520) 
ChEMBL_Kinases

>  <Ligand_Instance>  (520) 
nan

>  <PDB_ID>  (520) 
nan

>  <Standardized_SMILES>  (520) 
O=C(Nc1cnn(-c2cccc(C(=O)Nc3cnn(CCN4CCCC4)c3)c2)c1)Nc1ccccc1Cl

>  <Name>  (520) 
nan

>  <Pocket>  (520) 
nan

>  <ATP_Site>  (520) 
nan

>  <Peripheral>  (520) 
nan

>  <Num_H_Atoms_ProtBoundConf>  (520) 
nan

>  <Num_Resolved_Atoms>  (520) 
nan

>  <Num_Not_Resolved_Atoms>  (520) 
nan

$$$$
CHEMBL3355167
     RDKit          3D

  0  0  0  0  0  0  0  0  0  0999 V3000
M  V30 BEGIN CTAB
M  V30 COUNTS 50 53 0 0 0
M  V30 BEGIN ATOM
M  V30 1 C 4.260443 2.695404 -5.597069 0
M  V30 2 C 4.346397 2.440871 -4.120057 0
M  V30 3 N 5.098309 1.411782 -3.689829 0
M  V30 4 C 5.184435 1.170599 -2.354535 0
M  V30 5 C 4.508183 1.973446 -1.461890 0
M  V30 6 N 4.604609 1.711047 -0.046475 0
M  V30 7 C 3.564232 0.817376 0.304194 0
M  V30 8 O 2.839568 0.491527 -0.695636 0
M  V30 9 C 3.330410 0.309715 1.669798 0
M  V30 10 C 4.084942 0.631037 2.786224 0
M  V30 11 C 3.755178 0.083346 4.006346 0
M  V30 12 C 2.697086 -0.783163 4.185121 0
M  V30 13 C 1.959916 -1.088958 3.060274 0
M  V30 14 N 0.852539 -1.978334 3.173945 0
M  V30 15 C -0.002070 -2.340843 2.203673 0
M  V30 16 C -0.964712 -3.231838 2.687510 0
M  V30 17 N -2.021899 -3.802917 1.887808 0
M  V30 18 C -3.265498 -3.119518 1.798053 0
M  V30 19 O -3.448245 -2.017672 2.413693 0
M  V30 20 N -4.403503 -3.555002 1.049765 0
M  V30 21 C -5.575300 -2.733541 1.076644 0
M  V30 22 C -5.541636 -1.799225 0.045114 0
M  V30 23 C -6.577416 -0.882390 -0.136355 0
M  V30 24 C -7.646610 -0.930095 0.746034 0
M  V30 25 C -7.671189 -1.864389 1.770479 0
M  V30 26 C -6.643598 -2.767968 1.944049 0
M  V30 27 Cl -6.533709 -3.989920 3.173525 0
M  V30 28 C -0.619609 -3.372749 4.017866 0
M  V30 29 N 0.460671 -2.614561 4.264456 0
M  V30 30 C 2.276600 -0.549535 1.832109 0
M  V30 31 C 3.729251 3.040554 -1.918424 0
M  V30 32 N 3.672731 3.244132 -3.267154 0
M  V30 33 H 3.639356 3.596155 -5.782966 0
M  V30 34 H 5.242336 2.836087 -6.067990 0
M  V30 35 H 3.758383 1.804062 -6.071840 0
M  V30 36 H 5.799407 0.332233 -2.037155 0
M  V30 37 H 5.251583 2.030933 0.724649 0
M  V30 38 H 4.909608 1.313429 2.617341 0
M  V30 39 H 4.400280 0.388668 4.832500 0
M  V30 40 H 2.481166 -1.185689 5.168196 0
M  V30 41 H 0.008972 -2.012319 1.158294 0
M  V30 42 H -1.968385 -4.710047 1.340531 0
M  V30 43 H -4.276389 -4.466913 0.530194 0
M  V30 44 H -4.758457 -1.676049 -0.696174 0
M  V30 45 H -6.589897 -0.140633 -0.924813 0
M  V30 46 H -8.487446 -0.237259 0.654068 0
M  V30 47 H -8.482800 -1.943137 2.486057 0
M  V30 48 H -1.194032 -4.019429 4.682287 0
M  V30 49 H 1.662710 -0.828740 0.998365 0
M  V30 50 H 3.194618 3.678992 -1.251536 0
M  V30 END ATOM
M  V30 BEGIN BOND
M  V30 1 1 1 2
M  V30 2 2 2 3
M  V30 3 1 3 4
M  V30 4 2 4 5
M  V30 5 1 5 6
M  V30 6 1 6 7
M  V30 7 2 7 8
M  V30 8 1 7 9
M  V30 9 2 9 10
M  V30 10 1 10 11
M  V30 11 2 11 12
M  V30 12 1 12 13
M  V30 13 1 13 14
M  V30 14 1 14 15
M  V30 15 2 15 16
M  V30 16 1 16 17
M  V30 17 1 17 18
M  V30 18 2 18 19
M  V30 19 1 18 20
M  V30 20 1 20 21
M  V30 21 2 21 22
M  V30 22 1 22 23
M  V30 23 2 23 24
M  V30 24 1 24 25
M  V30 25 2 25 26
M  V30 26 1 26 27
M  V30 27 1 16 28
M  V30 28 2 28 29
M  V30 29 2 13 30
M  V30 30 1 5 31
M  V30 31 2 31 32
M  V30 32 1 32 2
M  V30 33 1 30 9
M  V30 34 1 29 14
M  V30 35 1 26 21
M  V30 36 1 1 33
M  V30 37 1 1 34
M  V30 38 1 1 35
M  V30 39 1 4 36
M  V30 40 1 6 37
M  V30 41 1 10 38
M  V30 42 1 11 39
M  V30 43 1 12 40
M  V30 44 1 15 41
M  V30 45 1 17 42
M  V30 46 1 20 43
M  V30 47 1 22 44
M  V30 48 1 23 45
M  V30 49 1 24 46
M  V30 50 1 25 47
M  V30 51 1 28 48
M  V30 52 1 30 49
M  V30 53 1 31 50
M  V30 END BOND
M  V30 END CTAB
M  END
>  <Dataset>  (521) 
ChEMBL_Kinases

>  <Ligand_Instance>  (521) 
nan

>  <PDB_ID>  (521) 
nan

>  <Standardized_SMILES>  (521) 
Cc1ncc(NC(=O)c2cccc(-n3cc(NC(=O)Nc4ccccc4Cl)cn3)c2)cn1

>  <Name>  (521) 
nan

>  <Pocket>  (521) 
nan

>  <ATP_Site>  (521) 
nan

>  <Peripheral>  (521) 
nan

>  <Num_H_Atoms_ProtBoundConf>  (521) 
nan

>  <Num_Resolved_Atoms>  (521) 
nan

>  <Num_Not_Resolved_Atoms>  (521) 
nan

$$$$
CHEMBL3672082
     RDKit          3D

  0  0  0  0  0  0  0  0  0  0999 V3000
M  V30 BEGIN CTAB
M  V30 COUNTS 83 90 0 0 0
M  V30 BEGIN ATOM
M  V30 1 C 1.754781 -4.131903 -1.844888 0
M  V30 2 C 3.033452 -3.731623 -2.531493 0
M  V30 3 C 3.783912 -4.686861 -3.225638 0
M  V30 4 C 4.931368 -4.207573 -3.812138 0
M  V30 5 C 5.300096 -2.882392 -3.713903 0
M  V30 6 C 4.529627 -1.982191 -3.020930 0
M  V30 7 C 4.961693 -0.591484 -2.945783 0
M  V30 8 N 4.334053 0.422461 -2.313962 0
M  V30 9 C 5.016345 1.573215 -2.451438 0
M  V30 10 C 4.808218 2.943736 -1.990993 0
M  V30 11 C 3.379001 3.472698 -2.192773 0
M  V30 12 N 3.682341 4.265896 -1.000109 0
M  V30 13 C 2.578338 4.786326 -0.297370 0
M  V30 14 C 1.601134 3.863000 0.251944 0
M  V30 15 C 1.654840 3.318350 1.519028 0
M  V30 16 C 0.694537 2.443481 1.984282 0
M  V30 17 C -0.357504 2.091559 1.172499 0
M  V30 18 C -1.475732 1.194571 1.451614 0
M  V30 19 N -2.766118 1.638556 1.443593 0
M  V30 20 C -3.806232 0.820685 1.696840 0
M  V30 21 N -5.130474 1.006291 1.747200 0
M  V30 22 C -5.725146 -0.156128 2.044922 0
M  V30 23 C -7.067115 -0.684435 2.252881 0
M  V30 24 C -7.899843 -0.517815 1.141489 0
M  V30 25 C -9.198919 -0.969590 1.191897 0
M  V30 26 C -9.644956 -1.584266 2.361305 0
M  V30 27 C -8.799196 -1.739897 3.455912 0
M  V30 28 N -7.521017 -1.280101 3.368043 0
M  V30 29 N -4.735129 -1.063931 2.177186 0
M  V30 30 N -3.556603 -0.492942 1.969747 0
M  V30 31 C -2.293877 -0.960872 1.985100 0
M  V30 32 N -2.023851 -2.347199 2.272992 0
M  V30 33 C -2.011263 -3.164246 1.073872 0
M  V30 34 C -3.334019 -3.129417 0.332621 0
M  V30 35 C -1.667872 -4.600887 1.360768 0
M  V30 36 C -1.204419 -0.141176 1.727906 0
M  V30 37 C 0.180508 -0.605873 1.734131 0
M  V30 38 C 0.535493 -1.096658 2.996462 0
M  V30 39 C 1.822643 -1.592489 3.219244 0
M  V30 40 C 2.713478 -1.585124 2.184540 0
M  V30 41 C 2.360704 -1.100596 0.940971 0
M  V30 42 C 1.084566 -0.609338 0.721115 0
M  V30 43 C -0.445266 2.624696 -0.120652 0
M  V30 44 C 0.535902 3.509907 -0.576978 0
M  V30 45 C 4.396577 3.126306 -0.538852 0
M  V30 46 N 6.099506 1.233997 -3.197656 0
M  V30 47 N 6.068536 -0.049936 -3.491785 0
M  V30 48 N 3.403006 -2.445521 -2.443332 0
M  V30 49 H 0.960418 -3.419782 -2.114977 0
M  V30 50 H 1.946101 -4.026853 -0.754247 0
M  V30 51 H 1.456338 -5.162656 -2.104531 0
M  V30 52 H 3.449461 -5.715546 -3.272305 0
M  V30 53 H 5.560901 -4.879028 -4.362836 0
M  V30 54 H 6.233200 -2.579582 -4.212068 0
M  V30 55 H 5.568601 3.703928 -2.267809 0
M  V30 56 H 2.674762 2.660577 -1.921479 0
M  V30 57 H 3.202138 4.023463 -3.114543 0
M  V30 58 H 2.974403 5.401738 0.542778 0
M  V30 59 H 2.074569 5.519172 -0.978543 0
M  V30 60 H 2.472861 3.582189 2.171748 0
M  V30 61 H 0.672178 1.989046 2.941343 0
M  V30 62 H -7.580734 -0.042015 0.214507 0
M  V30 63 H -9.902867 -0.877113 0.373505 0
M  V30 64 H -10.647095 -1.972616 2.499949 0
M  V30 65 H -9.052661 -2.195548 4.386712 0
M  V30 66 H -1.848434 -2.786752 3.203016 0
M  V30 67 H -1.243892 -2.780366 0.340285 0
M  V30 68 H -4.170206 -3.506331 0.932443 0
M  V30 69 H -3.522717 -2.163098 -0.161085 0
M  V30 70 H -3.202947 -3.863354 -0.507571 0
M  V30 71 H -2.504562 -5.281946 1.059514 0
M  V30 72 H -0.768907 -4.939952 0.794075 0
M  V30 73 H -1.504715 -4.785442 2.447739 0
M  V30 74 H -0.097120 -1.150282 3.895221 0
M  V30 75 H 2.140374 -1.977931 4.166403 0
M  V30 76 H 3.723149 -1.972454 2.353735 0
M  V30 77 H 3.049337 -1.088108 0.118603 0
M  V30 78 H 0.709979 -0.211290 -0.204135 0
M  V30 79 H -1.244453 2.407187 -0.845412 0
M  V30 80 H 0.461410 3.923187 -1.589640 0
M  V30 81 H 5.259971 3.290284 0.138362 0
M  V30 82 H 3.801770 2.218116 -0.266402 0
M  V30 83 H 6.795740 -0.562779 -4.062386 0
M  V30 END ATOM
M  V30 BEGIN BOND
M  V30 1 1 1 2
M  V30 2 2 2 3
M  V30 3 1 3 4
M  V30 4 2 4 5
M  V30 5 1 5 6
M  V30 6 1 6 7
M  V30 7 2 7 8
M  V30 8 1 8 9
M  V30 9 1 9 10
M  V30 10 1 10 11
M  V30 11 1 11 12
M  V30 12 1 12 13
M  V30 13 1 13 14
M  V30 14 2 14 15
M  V30 15 1 15 16
M  V30 16 2 16 17
M  V30 17 1 17 18
M  V30 18 2 18 19
M  V30 19 1 19 20
M  V30 20 2 20 21
M  V30 21 1 21 22
M  V30 22 1 22 23
M  V30 23 2 23 24
M  V30 24 1 24 25
M  V30 25 2 25 26
M  V30 26 1 26 27
M  V30 27 2 27 28
M  V30 28 2 22 29
M  V30 29 1 29 30
M  V30 30 1 30 31
M  V30 31 1 31 32
M  V30 32 1 32 33
M  V30 33 1 33 34
M  V30 34 1 33 35
M  V30 35 2 31 36
M  V30 36 1 36 37
M  V30 37 2 37 38
M  V30 38 1 38 39
M  V30 39 2 39 40
M  V30 40 1 40 41
M  V30 41 2 41 42
M  V30 42 1 17 43
M  V30 43 2 43 44
M  V30 44 1 12 45
M  V30 45 2 9 46
M  V30 46 1 46 47
M  V30 47 2 6 48
M  V30 48 1 48 2
M  V30 49 1 47 7
M  V30 50 1 45 10
M  V30 51 1 44 14
M  V30 52 1 36 18
M  V30 53 1 42 37
M  V30 54 1 30 20
M  V30 55 1 28 23
M  V30 56 1 1 49
M  V30 57 1 1 50
M  V30 58 1 1 51
M  V30 59 1 3 52
M  V30 60 1 4 53
M  V30 61 1 5 54
M  V30 62 1 10 55
M  V30 63 1 11 56
M  V30 64 1 11 57
M  V30 65 1 13 58
M  V30 66 1 13 59
M  V30 67 1 15 60
M  V30 68 1 16 61
M  V30 69 1 24 62
M  V30 70 1 25 63
M  V30 71 1 26 64
M  V30 72 1 27 65
M  V30 73 1 32 66
M  V30 74 1 33 67
M  V30 75 1 34 68
M  V30 76 1 34 69
M  V30 77 1 34 70
M  V30 78 1 35 71
M  V30 79 1 35 72
M  V30 80 1 35 73
M  V30 81 1 38 74
M  V30 82 1 39 75
M  V30 83 1 40 76
M  V30 84 1 41 77
M  V30 85 1 42 78
M  V30 86 1 43 79
M  V30 87 1 44 80
M  V30 88 1 45 81
M  V30 89 1 45 82
M  V30 90 1 47 83
M  V30 END BOND
M  V30 END CTAB
M  END
>  <Dataset>  (522) 
ChEMBL_Kinases

>  <Ligand_Instance>  (522) 
nan

>  <PDB_ID>  (522) 
nan

>  <Standardized_SMILES>  (522) 
Cc1cccc(-c2nc(C3CN(Cc4ccc(-c5nc6nc(-c7ccccn7)nn6c(NC(C)C)c5-c5ccccc5)cc4)C3)n[nH]2)n1

>  <Name>  (522) 
nan

>  <Pocket>  (522) 
nan

>  <ATP_Site>  (522) 
nan

>  <Peripheral>  (522) 
nan

>  <Num_H_Atoms_ProtBoundConf>  (522) 
nan

>  <Num_Resolved_Atoms>  (522) 
nan

>  <Num_Not_Resolved_Atoms>  (522) 
nan

$$$$
CHEMBL3355169
     RDKit          3D

  0  0  0  0  0  0  0  0  0  0999 V3000
M  V30 BEGIN CTAB
M  V30 COUNTS 49 52 0 0 0
M  V30 BEGIN ATOM
M  V30 1 C 3.371874 -7.726490 -0.013255 0
M  V30 2 N 4.014858 -6.414077 -0.029353 0
M  V30 3 C 3.572704 -5.446380 -0.843105 0
M  V30 4 C 4.428274 -4.374149 -0.567219 0
M  V30 5 N 4.411807 -3.060054 -1.161165 0
M  V30 6 C 3.547877 -2.251454 -0.349023 0
M  V30 7 O 3.070113 -2.923650 0.625380 0
M  V30 8 C 3.259956 -0.825490 -0.621063 0
M  V30 9 C 3.780317 -0.094490 -1.682195 0
M  V30 10 C 3.405495 1.229298 -1.786330 0
M  V30 11 C 2.549049 1.829199 -0.886118 0
M  V30 12 C 2.040454 1.089316 0.162949 0
M  V30 13 N 1.145834 1.665867 1.126849 0
M  V30 14 C 0.093692 0.972346 1.643128 0
M  V30 15 C -0.570434 1.800942 2.539018 0
M  V30 16 N -1.739622 1.323889 3.244915 0
M  V30 17 C -2.979655 1.570882 2.553452 0
M  V30 18 O -3.055907 2.155999 1.420837 0
M  V30 19 N -4.274495 1.197228 3.039415 0
M  V30 20 C -5.398509 1.532546 2.199479 0
M  V30 21 C -6.008531 2.770899 2.386477 0
M  V30 22 C -7.099045 3.141462 1.599114 0
M  V30 23 C -7.581211 2.285835 0.630599 0
M  V30 24 C -6.971459 1.062797 0.452668 0
M  V30 25 C -5.892942 0.670954 1.215938 0
M  V30 26 Cl -5.098887 -0.875271 1.012525 0
M  V30 27 C 0.118936 2.994635 2.533512 0
M  V30 28 N 1.149095 2.888480 1.674597 0
M  V30 29 C 2.401942 -0.247464 0.291577 0
M  V30 30 C 5.351427 -4.730288 0.397779 0
M  V30 31 N 5.046195 -6.013259 0.696478 0
M  V30 32 H 2.277725 -7.569498 0.107406 0
M  V30 33 H 3.742335 -8.328587 0.864026 0
M  V30 34 H 3.639943 -8.269005 -0.944262 0
M  V30 35 H 2.761631 -5.433880 -1.558458 0
M  V30 36 H 4.861603 -2.596379 -1.999141 0
M  V30 37 H 4.442789 -0.628994 -2.345433 0
M  V30 38 H 3.829746 1.765511 -2.623437 0
M  V30 39 H 2.277961 2.870908 -1.001003 0
M  V30 40 H -0.165704 -0.062070 1.381757 0
M  V30 41 H -1.812187 0.835913 4.165422 0
M  V30 42 H -4.298279 0.703041 3.980449 0
M  V30 43 H -5.650669 3.471009 3.144895 0
M  V30 44 H -7.585366 4.099354 1.730341 0
M  V30 45 H -8.428180 2.585543 0.026321 0
M  V30 46 H -7.307112 0.352265 -0.291475 0
M  V30 47 H -0.201623 3.802343 3.149478 0
M  V30 48 H 1.976998 -0.784805 1.130157 0
M  V30 49 H 6.142089 -4.120177 0.820697 0
M  V30 END ATOM
M  V30 BEGIN BOND
M  V30 1 1 1 2
M  V30 2 1 2 3
M  V30 3 2 3 4
M  V30 4 1 4 5
M  V30 5 1 5 6
M  V30 6 2 6 7
M  V30 7 1 6 8
M  V30 8 2 8 9
M  V30 9 1 9 10
M  V30 10 2 10 11
M  V30 11 1 11 12
M  V30 12 1 12 13
M  V30 13 1 13 14
M  V30 14 2 14 15
M  V30 15 1 15 16
M  V30 16 1 16 17
M  V30 17 2 17 18
M  V30 18 1 17 19
M  V30 19 1 19 20
M  V30 20 2 20 21
M  V30 21 1 21 22
M  V30 22 2 22 23
M  V30 23 1 23 24
M  V30 24 2 24 25
M  V30 25 1 25 26
M  V30 26 1 15 27
M  V30 27 2 27 28
M  V30 28 2 12 29
M  V30 29 1 4 30
M  V30 30 2 30 31
M  V30 31 1 31 2
M  V30 32 1 29 8
M  V30 33 1 28 13
M  V30 34 1 25 20
M  V30 35 1 1 32
M  V30 36 1 1 33
M  V30 37 1 1 34
M  V30 38 1 3 35
M  V30 39 1 5 36
M  V30 40 1 9 37
M  V30 41 1 10 38
M  V30 42 1 11 39
M  V30 43 1 14 40
M  V30 44 1 16 41
M  V30 45 1 19 42
M  V30 46 1 21 43
M  V30 47 1 22 44
M  V30 48 1 23 45
M  V30 49 1 24 46
M  V30 50 1 27 47
M  V30 51 1 29 48
M  V30 52 1 30 49
M  V30 END BOND
M  V30 END CTAB
M  END
>  <Dataset>  (523) 
ChEMBL_Kinases

>  <Ligand_Instance>  (523) 
nan

>  <PDB_ID>  (523) 
nan

>  <Standardized_SMILES>  (523) 
Cn1cc(NC(=O)c2cccc(-n3cc(NC(=O)Nc4ccccc4Cl)cn3)c2)cn1

>  <Name>  (523) 
nan

>  <Pocket>  (523) 
nan

>  <ATP_Site>  (523) 
nan

>  <Peripheral>  (523) 
nan

>  <Num_H_Atoms_ProtBoundConf>  (523) 
nan

>  <Num_Resolved_Atoms>  (523) 
nan

>  <Num_Not_Resolved_Atoms>  (523) 
nan

$$$$
CHEMBL3355170
     RDKit          3D

  0  0  0  0  0  0  0  0  0  0999 V3000
M  V30 BEGIN CTAB
M  V30 COUNTS 49 52 0 0 0
M  V30 BEGIN ATOM
M  V30 1 C 2.821880 -1.327153 7.358369 0
M  V30 2 N 3.176652 -1.325717 5.934895 0
M  V30 3 C 4.076526 -2.201369 5.418996 0
M  V30 4 C 4.143474 -1.895131 4.073515 0
M  V30 5 C 3.285373 -0.840914 3.793930 0
M  V30 6 N 3.058562 -0.224055 2.529685 0
M  V30 7 C 3.736930 0.878099 1.952551 0
M  V30 8 O 4.681358 1.480741 2.527043 0
M  V30 9 C 3.351392 1.366350 0.632153 0
M  V30 10 C 4.052492 2.453523 0.112429 0
M  V30 11 C 3.738031 2.975321 -1.147303 0
M  V30 12 C 2.727437 2.432153 -1.912444 0
M  V30 13 C 2.032205 1.350714 -1.392092 0
M  V30 14 N 0.961247 0.721039 -2.122994 0
M  V30 15 C -0.371198 0.934074 -1.955419 0
M  V30 16 C -1.066138 0.132137 -2.854815 0
M  V30 17 N -2.507044 0.140403 -2.913652 0
M  V30 18 C -3.070116 -0.813737 -2.049355 0
M  V30 19 O -2.232727 -1.495554 -1.387714 0
M  V30 20 N -4.458764 -1.048487 -1.881101 0
M  V30 21 C -4.991894 -2.031287 -0.989182 0
M  V30 22 C -5.245774 -1.588037 0.299553 0
M  V30 23 C -5.766246 -2.414329 1.296535 0
M  V30 24 C -6.034503 -3.743495 0.953939 0
M  V30 25 C -5.780741 -4.181100 -0.329042 0
M  V30 26 C -5.265352 -3.348284 -1.302448 0
M  V30 27 Cl -4.927415 -3.857492 -2.941273 0
M  V30 28 C -0.088335 -0.559072 -3.555867 0
M  V30 29 N 1.112346 -0.173644 -3.082836 0
M  V30 30 C 2.362454 0.855562 -0.147264 0
M  V30 31 N 2.698852 -0.511767 4.980458 0
M  V30 32 H 1.928657 -0.722798 7.556499 0
M  V30 33 H 3.687910 -1.115882 7.985989 0
M  V30 34 H 2.506758 -2.391772 7.551048 0
M  V30 35 H 4.636643 -2.972338 5.893044 0
M  V30 36 H 4.757075 -2.374694 3.308111 0
M  V30 37 H 2.275488 -0.730243 2.062978 0
M  V30 38 H 4.866438 2.944535 0.649509 0
M  V30 39 H 4.271130 3.820688 -1.570148 0
M  V30 40 H 2.466507 2.818401 -2.888630 0
M  V30 41 H -0.726181 1.649603 -1.198793 0
M  V30 42 H -3.156879 0.736843 -3.489513 0
M  V30 43 H -5.124016 -0.470665 -2.440244 0
M  V30 44 H -5.052862 -0.561260 0.613180 0
M  V30 45 H -5.949476 -2.024860 2.292600 0
M  V30 46 H -6.438431 -4.391662 1.721128 0
M  V30 47 H -5.990595 -5.214756 -0.591232 0
M  V30 48 H -0.382612 -1.266391 -4.334157 0
M  V30 49 H 1.806383 0.020312 0.224980 0
M  V30 END ATOM
M  V30 BEGIN BOND
M  V30 1 1 1 2
M  V30 2 1 2 3
M  V30 3 2 3 4
M  V30 4 1 4 5
M  V30 5 1 5 6
M  V30 6 1 6 7
M  V30 7 2 7 8
M  V30 8 1 7 9
M  V30 9 2 9 10
M  V30 10 1 10 11
M  V30 11 2 11 12
M  V30 12 1 12 13
M  V30 13 1 13 14
M  V30 14 1 14 15
M  V30 15 2 15 16
M  V30 16 1 16 17
M  V30 17 1 17 18
M  V30 18 2 18 19
M  V30 19 1 18 20
M  V30 20 1 20 21
M  V30 21 2 21 22
M  V30 22 1 22 23
M  V30 23 2 23 24
M  V30 24 1 24 25
M  V30 25 2 25 26
M  V30 26 1 26 27
M  V30 27 1 16 28
M  V30 28 2 28 29
M  V30 29 2 13 30
M  V30 30 2 5 31
M  V30 31 1 31 2
M  V30 32 1 30 9
M  V30 33 1 29 14
M  V30 34 1 26 21
M  V30 35 1 1 32
M  V30 36 1 1 33
M  V30 37 1 1 34
M  V30 38 1 3 35
M  V30 39 1 4 36
M  V30 40 1 6 37
M  V30 41 1 10 38
M  V30 42 1 11 39
M  V30 43 1 12 40
M  V30 44 1 15 41
M  V30 45 1 17 42
M  V30 46 1 20 43
M  V30 47 1 22 44
M  V30 48 1 23 45
M  V30 49 1 24 46
M  V30 50 1 25 47
M  V30 51 1 28 48
M  V30 52 1 30 49
M  V30 END BOND
M  V30 END CTAB
M  END
>  <Dataset>  (524) 
ChEMBL_Kinases

>  <Ligand_Instance>  (524) 
nan

>  <PDB_ID>  (524) 
nan

>  <Standardized_SMILES>  (524) 
Cn1ccc(NC(=O)c2cccc(-n3cc(NC(=O)Nc4ccccc4Cl)cn3)c2)n1

>  <Name>  (524) 
nan

>  <Pocket>  (524) 
nan

>  <ATP_Site>  (524) 
nan

>  <Peripheral>  (524) 
nan

>  <Num_H_Atoms_ProtBoundConf>  (524) 
nan

>  <Num_Resolved_Atoms>  (524) 
nan

>  <Num_Not_Resolved_Atoms>  (524) 
nan

$$$$
CHEMBL3355171
     RDKit          3D

  0  0  0  0  0  0  0  0  0  0999 V3000
M  V30 BEGIN CTAB
M  V30 COUNTS 49 52 0 0 0
M  V30 BEGIN ATOM
M  V30 1 C 4.713987 0.918361 4.433000 0
M  V30 2 N 5.694422 0.289875 3.569483 0
M  V30 3 N 6.813239 -0.285769 3.987367 0
M  V30 4 C 7.471215 -0.756438 2.923279 0
M  V30 5 C 6.702885 -0.444588 1.808889 0
M  V30 6 C 5.556074 0.230365 2.222220 0
M  V30 7 N 4.479293 0.749339 1.472799 0
M  V30 8 C 4.268104 2.004075 0.883905 0
M  V30 9 O 5.129267 2.894714 0.982797 0
M  V30 10 C 3.039852 2.288236 0.147058 0
M  V30 11 C 2.928044 3.565359 -0.399750 0
M  V30 12 C 1.797832 3.946380 -1.123591 0
M  V30 13 C 0.748827 3.048224 -1.315479 0
M  V30 14 C 0.893844 1.792674 -0.759967 0
M  V30 15 N -0.146736 0.821801 -0.919662 0
M  V30 16 C -0.876401 0.440374 0.144368 0
M  V30 17 C -1.796961 -0.492010 -0.285559 0
M  V30 18 N -2.764977 -1.152330 0.519911 0
M  V30 19 C -3.716443 -2.113154 0.087003 0
M  V30 20 O -3.719370 -2.420774 -1.110918 0
M  V30 21 N -4.636238 -2.714093 0.956378 0
M  V30 22 C -5.580971 -3.674791 0.500304 0
M  V30 23 C -6.857512 -3.386830 0.031059 0
M  V30 24 C -7.641983 -4.452800 -0.372511 0
M  V30 25 C -7.217375 -5.765267 -0.329198 0
M  V30 26 C -5.945778 -6.051876 0.138253 0
M  V30 27 C -5.155611 -4.993380 0.543341 0
M  V30 28 Cl -3.556414 -5.444890 1.122792 0
M  V30 29 C -1.597986 -0.655973 -1.628389 0
M  V30 30 N -0.585404 0.157380 -1.989213 0
M  V30 31 C 2.020466 1.402707 -0.034531 0
M  V30 32 H 3.813349 0.282173 4.587638 0
M  V30 33 H 5.151462 1.079981 5.450496 0
M  V30 34 H 4.353967 1.899084 4.048586 0
M  V30 35 H 8.415793 -1.277051 2.932980 0
M  V30 36 H 6.906271 -0.661839 0.768560 0
M  V30 37 H 3.792636 -0.034108 1.422024 0
M  V30 38 H 3.705710 4.324979 -0.293454 0
M  V30 39 H 1.731190 4.960182 -1.546355 0
M  V30 40 H -0.140573 3.310215 -1.870578 0
M  V30 41 H -0.808925 0.767504 1.192483 0
M  V30 42 H -2.809957 -0.928170 1.558271 0
M  V30 43 H -4.661475 -2.477694 1.973496 0
M  V30 44 H -7.143096 -2.355032 0.015747 0
M  V30 45 H -8.630362 -4.245684 -0.737313 0
M  V30 46 H -7.899229 -6.559138 -0.667682 0
M  V30 47 H -5.649799 -7.085667 0.157425 0
M  V30 48 H -2.095348 -1.279751 -2.332168 0
M  V30 49 H 2.100097 0.427665 0.380003 0
M  V30 END ATOM
M  V30 BEGIN BOND
M  V30 1 1 1 2
M  V30 2 1 2 3
M  V30 3 2 3 4
M  V30 4 1 4 5
M  V30 5 2 5 6
M  V30 6 1 6 7
M  V30 7 1 7 8
M  V30 8 2 8 9
M  V30 9 1 8 10
M  V30 10 2 10 11
M  V30 11 1 11 12
M  V30 12 2 12 13
M  V30 13 1 13 14
M  V30 14 1 14 15
M  V30 15 1 15 16
M  V30 16 2 16 17
M  V30 17 1 17 18
M  V30 18 1 18 19
M  V30 19 2 19 20
M  V30 20 1 19 21
M  V30 21 1 21 22
M  V30 22 2 22 23
M  V30 23 1 23 24
M  V30 24 2 24 25
M  V30 25 1 25 26
M  V30 26 2 26 27
M  V30 27 1 27 28
M  V30 28 1 17 29
M  V30 29 2 29 30
M  V30 30 2 14 31
M  V30 31 1 6 2
M  V30 32 1 31 10
M  V30 33 1 30 15
M  V30 34 1 27 22
M  V30 35 1 1 32
M  V30 36 1 1 33
M  V30 37 1 1 34
M  V30 38 1 4 35
M  V30 39 1 5 36
M  V30 40 1 7 37
M  V30 41 1 11 38
M  V30 42 1 12 39
M  V30 43 1 13 40
M  V30 44 1 16 41
M  V30 45 1 18 42
M  V30 46 1 21 43
M  V30 47 1 23 44
M  V30 48 1 24 45
M  V30 49 1 25 46
M  V30 50 1 26 47
M  V30 51 1 29 48
M  V30 52 1 31 49
M  V30 END BOND
M  V30 END CTAB
M  END
>  <Dataset>  (525) 
ChEMBL_Kinases

>  <Ligand_Instance>  (525) 
nan

>  <PDB_ID>  (525) 
nan

>  <Standardized_SMILES>  (525) 
Cn1nccc1NC(=O)c1cccc(-n2cc(NC(=O)Nc3ccccc3Cl)cn2)c1

>  <Name>  (525) 
nan

>  <Pocket>  (525) 
nan

>  <ATP_Site>  (525) 
nan

>  <Peripheral>  (525) 
nan

>  <Num_H_Atoms_ProtBoundConf>  (525) 
nan

>  <Num_Resolved_Atoms>  (525) 
nan

>  <Num_Not_Resolved_Atoms>  (525) 
nan

$$$$
CHEMBL3355172
     RDKit          3D

  0  0  0  0  0  0  0  0  0  0999 V3000
M  V30 BEGIN CTAB
M  V30 COUNTS 52 55 0 0 0
M  V30 BEGIN ATOM
M  V30 1 C 3.048461 0.740829 4.965826 0
M  V30 2 C 3.936395 0.097216 3.991630 0
M  V30 3 N 4.657532 -1.010447 4.074219 0
M  V30 4 N 5.330382 -1.247147 2.961079 0
M  V30 5 C 6.239373 -2.347140 2.622661 0
M  V30 6 C 5.040913 -0.250505 2.103361 0
M  V30 7 C 4.172233 0.599302 2.727561 0
M  V30 8 N 3.668195 1.777683 2.066009 0
M  V30 9 C 2.460033 1.374955 1.391599 0
M  V30 10 O 2.230324 0.133642 1.592268 0
M  V30 11 C 1.620736 2.290889 0.585451 0
M  V30 12 C 1.869934 3.629074 0.370304 0
M  V30 13 C 0.979784 4.336486 -0.410196 0
M  V30 14 C -0.142243 3.749919 -0.976722 0
M  V30 15 C -0.356014 2.404869 -0.736519 0
M  V30 16 N -1.513384 1.760023 -1.309666 0
M  V30 17 C -2.300718 0.987737 -0.512190 0
M  V30 18 C -3.311686 0.519412 -1.350832 0
M  V30 19 N -4.351530 -0.345669 -0.848901 0
M  V30 20 C -4.029119 -1.731161 -0.946757 0
M  V30 21 O -2.897881 -2.025870 -1.449631 0
M  V30 22 N -4.862657 -2.820907 -0.530563 0
M  V30 23 C -4.374842 -4.165748 -0.704877 0
M  V30 24 C -4.549061 -4.975524 -1.808727 0
M  V30 25 C -3.997744 -6.247228 -1.781427 0
M  V30 26 C -3.292492 -6.699896 -0.685204 0
M  V30 27 C -3.126364 -5.873543 0.416359 0
M  V30 28 C -3.671184 -4.606752 0.398488 0
M  V30 29 Cl -3.373619 -3.691506 1.860972 0
M  V30 30 C -3.063071 1.049186 -2.620278 0
M  V30 31 N -1.951285 1.800359 -2.538504 0
M  V30 32 C 0.515459 1.672027 0.038969 0
M  V30 33 H 2.031087 0.299507 4.846267 0
M  V30 34 H 3.040338 1.846660 4.899716 0
M  V30 35 H 3.366785 0.482693 6.000318 0
M  V30 36 H 6.325281 -3.048563 3.477897 0
M  V30 37 H 7.216992 -2.005108 2.285973 0
M  V30 38 H 5.690605 -2.930023 1.830796 0
M  V30 39 H 5.444636 -0.159254 1.087007 0
M  V30 40 H 3.953751 2.797340 1.964363 0
M  V30 41 H 2.755425 4.023304 0.836793 0
M  V30 42 H 1.202006 5.384253 -0.560971 0
M  V30 43 H -0.813041 4.349409 -1.583636 0
M  V30 44 H -2.188194 0.768650 0.546480 0
M  V30 45 H -5.285118 -0.158167 -0.431942 0
M  V30 46 H -5.774410 -2.493095 -0.128416 0
M  V30 47 H -5.114638 -4.527776 -2.611255 0
M  V30 48 H -4.179146 -6.822210 -2.688371 0
M  V30 49 H -2.887451 -7.709375 -0.733111 0
M  V30 50 H -2.559877 -6.308143 1.232718 0
M  V30 51 H -3.741000 0.801844 -3.420073 0
M  V30 52 H 0.275452 0.626947 0.177376 0
M  V30 END ATOM
M  V30 BEGIN BOND
M  V30 1 1 1 2
M  V30 2 2 2 3
M  V30 3 1 3 4
M  V30 4 1 4 5
M  V30 5 1 4 6
M  V30 6 2 6 7
M  V30 7 1 7 8
M  V30 8 1 8 9
M  V30 9 2 9 10
M  V30 10 1 9 11
M  V30 11 2 11 12
M  V30 12 1 12 13
M  V30 13 2 13 14
M  V30 14 1 14 15
M  V30 15 1 15 16
M  V30 16 1 16 17
M  V30 17 2 17 18
M  V30 18 1 18 19
M  V30 19 1 19 20
M  V30 20 2 20 21
M  V30 21 1 20 22
M  V30 22 1 22 23
M  V30 23 2 23 24
M  V30 24 1 24 25
M  V30 25 2 25 26
M  V30 26 1 26 27
M  V30 27 2 27 28
M  V30 28 1 28 29
M  V30 29 1 18 30
M  V30 30 2 30 31
M  V30 31 2 15 32
M  V30 32 1 7 2
M  V30 33 1 32 11
M  V30 34 1 31 16
M  V30 35 1 28 23
M  V30 36 1 1 33
M  V30 37 1 1 34
M  V30 38 1 1 35
M  V30 39 1 5 36
M  V30 40 1 5 37
M  V30 41 1 5 38
M  V30 42 1 6 39
M  V30 43 1 8 40
M  V30 44 1 12 41
M  V30 45 1 13 42
M  V30 46 1 14 43
M  V30 47 1 17 44
M  V30 48 1 19 45
M  V30 49 1 22 46
M  V30 50 1 24 47
M  V30 51 1 25 48
M  V30 52 1 26 49
M  V30 53 1 27 50
M  V30 54 1 30 51
M  V30 55 1 32 52
M  V30 END BOND
M  V30 END CTAB
M  END
>  <Dataset>  (526) 
ChEMBL_Kinases

>  <Ligand_Instance>  (526) 
nan

>  <PDB_ID>  (526) 
nan

>  <Standardized_SMILES>  (526) 
Cc1nn(C)cc1NC(=O)c1cccc(-n2cc(NC(=O)Nc3ccccc3Cl)cn2)c1

>  <Name>  (526) 
nan

>  <Pocket>  (526) 
nan

>  <ATP_Site>  (526) 
nan

>  <Peripheral>  (526) 
nan

>  <Num_H_Atoms_ProtBoundConf>  (526) 
nan

>  <Num_Resolved_Atoms>  (526) 
nan

>  <Num_Not_Resolved_Atoms>  (526) 
nan

$$$$
CHEMBL3355173
     RDKit          3D

  0  0  0  0  0  0  0  0  0  0999 V3000
M  V30 BEGIN CTAB
M  V30 COUNTS 48 51 0 0 0
M  V30 BEGIN ATOM
M  V30 1 C 8.063575 -0.862946 2.047641 0
M  V30 2 N 6.864109 -0.637477 1.269035 0
M  V30 3 C 6.543428 -1.186992 0.068119 0
M  V30 4 N 5.333265 -0.700396 -0.295587 0
M  V30 5 C 4.906253 0.143575 0.670546 0
M  V30 6 N 3.649316 0.800399 0.539297 0
M  V30 7 C 3.470115 2.050115 -0.077136 0
M  V30 8 O 4.463862 2.651896 -0.552998 0
M  V30 9 C 2.168207 2.698916 -0.196778 0
M  V30 10 C 2.103162 3.932180 -0.823640 0
M  V30 11 C 0.857644 4.560886 -0.942235 0
M  V30 12 C -0.296811 3.985479 -0.453354 0
M  V30 13 C -0.225906 2.758023 0.169534 0
M  V30 14 N -1.411729 2.153536 0.678652 0
M  V30 15 C -1.494307 0.947213 1.269940 0
M  V30 16 C -2.816766 0.679108 1.643871 0
M  V30 17 N -3.212762 -0.532363 2.295894 0
M  V30 18 C -3.599699 -1.612830 1.459801 0
M  V30 19 O -3.548667 -1.376309 0.229482 0
M  V30 20 N -4.022357 -2.888448 1.906614 0
M  V30 21 C -4.421501 -4.011224 1.161807 0
M  V30 22 C -4.490376 -4.117856 -0.203836 0
M  V30 23 C -4.887604 -5.238544 -0.899077 0
M  V30 24 C -5.249412 -6.354780 -0.176473 0
M  V30 25 C -5.193339 -6.286269 1.195191 0
M  V30 26 C -4.788517 -5.139659 1.839858 0
M  V30 27 Cl -4.749551 -5.149148 3.603791 0
M  V30 28 C -3.497488 1.813697 1.228777 0
M  V30 29 N -2.610457 2.656262 0.661557 0
M  V30 30 C 1.004582 2.142956 0.283568 0
M  V30 31 N 5.866422 0.160257 1.614811 0
M  V30 32 H 7.797604 -1.641887 2.800701 0
M  V30 33 H 8.892011 -1.244394 1.415359 0
M  V30 34 H 8.397883 0.036628 2.582646 0
M  V30 35 H 7.153487 -1.888283 -0.490894 0
M  V30 36 H 2.854542 0.282333 0.938893 0
M  V30 37 H 2.974121 4.448145 -1.234789 0
M  V30 38 H 0.769470 5.526095 -1.426669 0
M  V30 39 H -1.244430 4.500152 -0.562374 0
M  V30 40 H -0.660437 0.257243 1.444284 0
M  V30 41 H -3.242750 -0.693525 3.335616 0
M  V30 42 H -4.008646 -2.921175 2.948351 0
M  V30 43 H -4.219079 -3.275983 -0.814721 0
M  V30 44 H -4.919895 -5.257492 -1.980079 0
M  V30 45 H -5.570903 -7.269482 -0.629945 0
M  V30 46 H -5.468787 -7.138892 1.785214 0
M  V30 47 H -4.567671 1.892223 1.390300 0
M  V30 48 H 1.030815 1.181819 0.776164 0
M  V30 END ATOM
M  V30 BEGIN BOND
M  V30 1 1 1 2
M  V30 2 1 2 3
M  V30 3 2 3 4
M  V30 4 1 4 5
M  V30 5 1 5 6
M  V30 6 1 6 7
M  V30 7 2 7 8
M  V30 8 1 7 9
M  V30 9 2 9 10
M  V30 10 1 10 11
M  V30 11 2 11 12
M  V30 12 1 12 13
M  V30 13 1 13 14
M  V30 14 1 14 15
M  V30 15 2 15 16
M  V30 16 1 16 17
M  V30 17 1 17 18
M  V30 18 2 18 19
M  V30 19 1 18 20
M  V30 20 1 20 21
M  V30 21 2 21 22
M  V30 22 1 22 23
M  V30 23 2 23 24
M  V30 24 1 24 25
M  V30 25 2 25 26
M  V30 26 1 26 27
M  V30 27 1 16 28
M  V30 28 2 28 29
M  V30 29 2 13 30
M  V30 30 2 5 31
M  V30 31 1 31 2
M  V30 32 1 30 9
M  V30 33 1 29 14
M  V30 34 1 26 21
M  V30 35 1 1 32
M  V30 36 1 1 33
M  V30 37 1 1 34
M  V30 38 1 3 35
M  V30 39 1 6 36
M  V30 40 1 10 37
M  V30 41 1 11 38
M  V30 42 1 12 39
M  V30 43 1 15 40
M  V30 44 1 17 41
M  V30 45 1 20 42
M  V30 46 1 22 43
M  V30 47 1 23 44
M  V30 48 1 24 45
M  V30 49 1 25 46
M  V30 50 1 28 47
M  V30 51 1 30 48
M  V30 END BOND
M  V30 END CTAB
M  END
>  <Dataset>  (527) 
ChEMBL_Kinases

>  <Ligand_Instance>  (527) 
nan

>  <PDB_ID>  (527) 
nan

>  <Standardized_SMILES>  (527) 
Cn1cnc(NC(=O)c2cccc(-n3cc(NC(=O)Nc4ccccc4Cl)cn3)c2)n1

>  <Name>  (527) 
nan

>  <Pocket>  (527) 
nan

>  <ATP_Site>  (527) 
nan

>  <Peripheral>  (527) 
nan

>  <Num_H_Atoms_ProtBoundConf>  (527) 
nan

>  <Num_Resolved_Atoms>  (527) 
nan

>  <Num_Not_Resolved_Atoms>  (527) 
nan

$$$$
CHEMBL3672081
     RDKit          3D

  0  0  0  0  0  0  0  0  0  0999 V3000
M  V30 BEGIN CTAB
M  V30 COUNTS 80 87 0 0 0
M  V30 BEGIN ATOM
M  V30 1 C 4.115077 -4.081381 1.117890 0
M  V30 2 C 3.772430 -2.807673 1.869064 0
M  V30 3 C 2.922698 -3.184844 3.057125 0
M  V30 4 N 3.154735 -1.834640 0.995489 0
M  V30 5 C 2.597340 -0.526798 1.048896 0
M  V30 6 C 1.244300 -0.193050 1.173442 0
M  V30 7 C 0.327864 -1.320148 1.228571 0
M  V30 8 C -0.028003 -1.744950 -0.057784 0
M  V30 9 C -0.887986 -2.811098 -0.276087 0
M  V30 10 C -1.415175 -3.480187 0.795039 0
M  V30 11 C -1.084840 -3.086018 2.060559 0
M  V30 12 C -0.234002 -2.032027 2.277772 0
M  V30 13 C 0.916332 1.144741 1.221684 0
M  V30 14 C -0.480715 1.530343 1.344496 0
M  V30 15 C -1.357320 1.202703 2.356615 0
M  V30 16 C -2.656639 1.657913 2.318436 0
M  V30 17 C -3.145311 2.459193 1.274850 0
M  V30 18 C -4.569668 2.795524 1.473167 0
M  V30 19 N -5.523501 1.963980 0.866853 0
M  V30 20 C -5.537249 0.546091 1.121651 0
M  V30 21 C -4.871800 0.333939 -0.189378 0
M  V30 22 C -5.397895 -0.705343 -1.097807 0
M  V30 23 N -6.575969 -1.293957 -1.371329 0
M  V30 24 N -6.446127 -2.183497 -2.342742 0
M  V30 25 C -5.160878 -2.189985 -2.724945 0
M  V30 26 C -4.531558 -3.007866 -3.782010 0
M  V30 27 C -3.172146 -2.852542 -4.025287 0
M  V30 28 C -2.489782 -3.571641 -5.005302 0
M  V30 29 C -3.271571 -4.465339 -5.731034 0
M  V30 30 C -4.626290 -4.601254 -5.468028 0
M  V30 31 N -5.226051 -3.877457 -4.507887 0
M  V30 32 N -4.550073 -1.294552 -1.963066 0
M  V30 33 C -5.524219 1.690767 -0.516189 0
M  V30 34 C -2.263962 2.784530 0.266270 0
M  V30 35 C -0.963861 2.319648 0.318733 0
M  V30 36 N 1.864218 2.087393 1.151018 0
M  V30 37 C 3.174954 1.796581 1.029807 0
M  V30 38 N 4.300451 2.538530 0.938754 0
M  V30 39 C 5.354401 1.710562 0.831945 0
M  V30 40 C 6.797554 2.012380 0.702330 0
M  V30 41 C 7.597933 1.100826 0.047017 0
M  V30 42 C 8.949840 1.321836 -0.108667 0
M  V30 43 C 9.425459 2.495510 0.428476 0
M  V30 44 C 8.640765 3.416211 1.085356 0
M  V30 45 N 7.307714 3.160990 1.218947 0
M  V30 46 N 4.855535 0.464817 0.859820 0
M  V30 47 N 3.525680 0.476385 0.980039 0
M  V30 48 H 4.943394 -3.927141 0.399155 0
M  V30 49 H 3.215265 -4.470204 0.585000 0
M  V30 50 H 4.409636 -4.831367 1.884959 0
M  V30 51 H 4.747942 -2.404021 2.252354 0
M  V30 52 H 2.417206 -2.236009 3.388780 0
M  V30 53 H 3.600377 -3.498498 3.893042 0
M  V30 54 H 2.198568 -3.979003 2.811902 0
M  V30 55 H 3.034934 -2.082191 -0.019814 0
M  V30 56 H 0.322632 -1.295769 -1.000940 0
M  V30 57 H -1.182294 -3.162017 -1.254591 0
M  V30 58 H -2.095751 -4.327073 0.792004 0
M  V30 59 H -1.401001 -3.491257 3.027611 0
M  V30 60 H 0.111238 -1.611339 3.224636 0
M  V30 61 H -0.950708 0.592497 3.145615 0
M  V30 62 H -3.224969 1.324364 3.177090 0
M  V30 63 H -4.825137 2.939428 2.536480 0
M  V30 64 H -4.688086 3.830120 1.020526 0
M  V30 65 H -4.979582 0.202703 2.016695 0
M  V30 66 H -6.617234 0.214515 1.166966 0
M  V30 67 H -3.768535 0.402421 -0.109222 0
M  V30 68 H -7.213034 -2.770858 -2.735741 0
M  V30 69 H -2.545041 -2.148140 -3.456816 0
M  V30 70 H -1.421974 -3.423479 -5.167163 0
M  V30 71 H -2.705703 -5.012885 -6.491254 0
M  V30 72 H -5.169229 -5.313114 -6.070769 0
M  V30 73 H -6.548040 1.509363 -0.904175 0
M  V30 74 H -4.923321 2.326315 -1.183759 0
M  V30 75 H -2.724270 3.400149 -0.486779 0
M  V30 76 H -0.365464 2.649022 -0.543539 0
M  V30 77 H 7.138675 0.194295 -0.349044 0
M  V30 78 H 9.499637 0.558068 -0.633326 0
M  V30 79 H 10.506750 2.646437 0.290246 0
M  V30 80 H 9.121851 4.300976 1.465118 0
M  V30 END ATOM
M  V30 BEGIN BOND
M  V30 1 1 1 2
M  V30 2 1 2 3
M  V30 3 1 2 4
M  V30 4 1 4 5
M  V30 5 2 5 6
M  V30 6 1 6 7
M  V30 7 2 7 8
M  V30 8 1 8 9
M  V30 9 2 9 10
M  V30 10 1 10 11
M  V30 11 2 11 12
M  V30 12 1 6 13
M  V30 13 1 13 14
M  V30 14 2 14 15
M  V30 15 1 15 16
M  V30 16 2 16 17
M  V30 17 1 17 18
M  V30 18 1 18 19
M  V30 19 1 19 20
M  V30 20 1 20 21
M  V30 21 1 21 22
M  V30 22 2 22 23
M  V30 23 1 23 24
M  V30 24 1 24 25
M  V30 25 1 25 26
M  V30 26 2 26 27
M  V30 27 1 27 28
M  V30 28 2 28 29
M  V30 29 1 29 30
M  V30 30 2 30 31
M  V30 31 2 25 32
M  V30 32 1 21 33
M  V30 33 1 17 34
M  V30 34 2 34 35
M  V30 35 2 13 36
M  V30 36 1 36 37
M  V30 37 2 37 38
M  V30 38 1 38 39
M  V30 39 1 39 40
M  V30 40 2 40 41
M  V30 41 1 41 42
M  V30 42 2 42 43
M  V30 43 1 43 44
M  V30 44 2 44 45
M  V30 45 2 39 46
M  V30 46 1 46 47
M  V30 47 1 47 5
M  V30 48 1 12 7
M  V30 49 1 35 14
M  V30 50 1 47 37
M  V30 51 1 33 19
M  V30 52 1 45 40
M  V30 53 1 32 22
M  V30 54 1 31 26
M  V30 55 1 1 48
M  V30 56 1 1 49
M  V30 57 1 1 50
M  V30 58 1 2 51
M  V30 59 1 3 52
M  V30 60 1 3 53
M  V30 61 1 3 54
M  V30 62 1 4 55
M  V30 63 1 8 56
M  V30 64 1 9 57
M  V30 65 1 10 58
M  V30 66 1 11 59
M  V30 67 1 12 60
M  V30 68 1 15 61
M  V30 69 1 16 62
M  V30 70 1 18 63
M  V30 71 1 18 64
M  V30 72 1 20 65
M  V30 73 1 20 66
M  V30 74 1 21 67
M  V30 75 1 24 68
M  V30 76 1 27 69
M  V30 77 1 28 70
M  V30 78 1 29 71
M  V30 79 1 30 72
M  V30 80 1 33 73
M  V30 81 1 33 74
M  V30 82 1 34 75
M  V30 83 1 35 76
M  V30 84 1 41 77
M  V30 85 1 42 78
M  V30 86 1 43 79
M  V30 87 1 44 80
M  V30 END BOND
M  V30 END CTAB
M  END
>  <Dataset>  (528) 
ChEMBL_Kinases

>  <Ligand_Instance>  (528) 
nan

>  <PDB_ID>  (528) 
nan

>  <Standardized_SMILES>  (528) 
CC(C)Nc1c(-c2ccccc2)c(-c2ccc(CN3CC(c4n[nH]c(-c5ccccn5)n4)C3)cc2)nc2nc(-c3ccccn3)nn12

>  <Name>  (528) 
nan

>  <Pocket>  (528) 
nan

>  <ATP_Site>  (528) 
nan

>  <Peripheral>  (528) 
nan

>  <Num_H_Atoms_ProtBoundConf>  (528) 
nan

>  <Num_Resolved_Atoms>  (528) 
nan

>  <Num_Not_Resolved_Atoms>  (528) 
nan

$$$$
CHEMBL3355175
     RDKit          3D

  0  0  0  0  0  0  0  0  0  0999 V3000
M  V30 BEGIN CTAB
M  V30 COUNTS 66 69 0 0 0
M  V30 BEGIN ATOM
M  V30 1 C 5.401208 -1.456201 5.297151 0
M  V30 2 C 5.506687 -2.667470 4.446990 0
M  V30 3 N 4.457866 -2.825814 3.448688 0
M  V30 4 C 3.185598 -3.113764 4.007399 0
M  V30 5 C 2.545278 -1.986985 4.788506 0
M  V30 6 C 4.911088 -3.888065 2.591563 0
M  V30 7 C 4.050492 -4.221356 1.429277 0
M  V30 8 N 3.886593 -3.049991 0.556924 0
M  V30 9 C 2.967492 -2.042192 0.532771 0
M  V30 10 C 3.304694 -1.188663 -0.527973 0
M  V30 11 N 2.414435 -0.059507 -0.677306 0
M  V30 12 C 2.514491 1.223361 -0.096136 0
M  V30 13 O 3.459651 1.543615 0.669697 0
M  V30 14 C 1.495841 2.224836 -0.382056 0
M  V30 15 C 1.654600 3.481086 0.190843 0
M  V30 16 C 0.731621 4.487489 -0.026118 0
M  V30 17 C -0.371726 4.244689 -0.826912 0
M  V30 18 C -0.557326 3.007587 -1.409555 0
M  V30 19 N -1.689210 2.712333 -2.243169 0
M  V30 20 C -2.217674 1.458146 -2.374491 0
M  V30 21 C -3.298954 1.556370 -3.257031 0
M  V30 22 N -4.021300 0.340289 -3.549329 0
M  V30 23 C -5.090851 0.193034 -2.597831 0
M  V30 24 O -5.241542 1.089391 -1.700956 0
M  V30 25 N -5.960851 -0.934282 -2.662424 0
M  V30 26 C -7.052745 -1.205484 -1.794084 0
M  V30 27 C -6.644365 -1.954490 -0.685435 0
M  V30 28 C -7.550448 -2.343474 0.308384 0
M  V30 29 C -8.864755 -1.962019 0.157606 0
M  V30 30 C -9.289114 -1.213306 -0.943958 0
M  V30 31 C -8.361920 -0.853841 -1.895964 0
M  V30 32 Cl -8.732711 0.088447 -3.346187 0
M  V30 33 C -3.376794 2.878451 -3.623641 0
M  V30 34 N -2.393535 3.545734 -2.995439 0
M  V30 35 C 0.388321 2.030309 -1.167493 0
M  V30 36 C 4.433611 -1.727888 -1.108872 0
M  V30 37 N 4.741857 -2.830886 -0.431807 0
M  V30 38 H 6.445716 -1.002483 5.312155 0
M  V30 39 H 5.228004 -1.667537 6.391175 0
M  V30 40 H 4.770975 -0.639377 4.913912 0
M  V30 41 H 5.460869 -3.602774 5.064289 0
M  V30 42 H 6.482903 -2.735440 3.881360 0
M  V30 43 H 3.326302 -3.959272 4.726966 0
M  V30 44 H 2.464431 -3.375888 3.220460 0
M  V30 45 H 2.935320 -1.871775 5.816584 0
M  V30 46 H 2.519692 -1.026857 4.272694 0
M  V30 47 H 1.476961 -2.338228 4.954163 0
M  V30 48 H 5.939214 -3.594385 2.212589 0
M  V30 49 H 5.104517 -4.802939 3.198253 0
M  V30 50 H 3.051721 -4.530831 1.769020 0
M  V30 51 H 4.454521 -5.070918 0.823149 0
M  V30 52 H 2.161747 -2.033186 1.275413 0
M  V30 53 H 1.653441 -0.372531 -1.317437 0
M  V30 54 H 2.505462 3.735964 0.832717 0
M  V30 55 H 0.863444 5.482687 0.430048 0
M  V30 56 H -1.126865 5.020280 -1.021882 0
M  V30 57 H -1.810630 0.580451 -1.847751 0
M  V30 58 H -3.915127 -0.400179 -4.275589 0
M  V30 59 H -5.858082 -1.680387 -3.387807 0
M  V30 60 H -5.628471 -2.298861 -0.487133 0
M  V30 61 H -7.248502 -2.922636 1.170341 0
M  V30 62 H -9.627755 -2.217319 0.871436 0
M  V30 63 H -10.311530 -0.892484 -1.101726 0
M  V30 64 H -4.155926 3.163763 -4.309633 0
M  V30 65 H 0.248808 1.063706 -1.620992 0
M  V30 66 H 4.810020 -1.164349 -1.951166 0
M  V30 END ATOM
M  V30 BEGIN BOND
M  V30 1 1 1 2
M  V30 2 1 2 3
M  V30 3 1 3 4
M  V30 4 1 4 5
M  V30 5 1 3 6
M  V30 6 1 6 7
M  V30 7 1 7 8
M  V30 8 1 8 9
M  V30 9 2 9 10
M  V30 10 1 10 11
M  V30 11 1 11 12
M  V30 12 2 12 13
M  V30 13 1 12 14
M  V30 14 2 14 15
M  V30 15 1 15 16
M  V30 16 2 16 17
M  V30 17 1 17 18
M  V30 18 1 18 19
M  V30 19 1 19 20
M  V30 20 2 20 21
M  V30 21 1 21 22
M  V30 22 1 22 23
M  V30 23 2 23 24
M  V30 24 1 23 25
M  V30 25 1 25 26
M  V30 26 2 26 27
M  V30 27 1 27 28
M  V30 28 2 28 29
M  V30 29 1 29 30
M  V30 30 2 30 31
M  V30 31 1 31 32
M  V30 32 1 21 33
M  V30 33 2 33 34
M  V30 34 2 18 35
M  V30 35 1 10 36
M  V30 36 2 36 37
M  V30 37 1 37 8
M  V30 38 1 35 14
M  V30 39 1 34 19
M  V30 40 1 31 26
M  V30 41 1 1 38
M  V30 42 1 1 39
M  V30 43 1 1 40
M  V30 44 1 2 41
M  V30 45 1 2 42
M  V30 46 1 4 43
M  V30 47 1 4 44
M  V30 48 1 5 45
M  V30 49 1 5 46
M  V30 50 1 5 47
M  V30 51 1 6 48
M  V30 52 1 6 49
M  V30 53 1 7 50
M  V30 54 1 7 51
M  V30 55 1 9 52
M  V30 56 1 11 53
M  V30 57 1 15 54
M  V30 58 1 16 55
M  V30 59 1 17 56
M  V30 60 1 20 57
M  V30 61 1 22 58
M  V30 62 1 25 59
M  V30 63 1 27 60
M  V30 64 1 28 61
M  V30 65 1 29 62
M  V30 66 1 30 63
M  V30 67 1 33 64
M  V30 68 1 35 65
M  V30 69 1 36 66
M  V30 END BOND
M  V30 END CTAB
M  END
>  <Dataset>  (529) 
ChEMBL_Kinases

>  <Ligand_Instance>  (529) 
nan

>  <PDB_ID>  (529) 
nan

>  <Standardized_SMILES>  (529) 
CCN(CC)CCn1cc(NC(=O)c2cccc(-n3cc(NC(=O)Nc4ccccc4Cl)cn3)c2)cn1

>  <Name>  (529) 
nan

>  <Pocket>  (529) 
nan

>  <ATP_Site>  (529) 
nan

>  <Peripheral>  (529) 
nan

>  <Num_H_Atoms_ProtBoundConf>  (529) 
nan

>  <Num_Resolved_Atoms>  (529) 
nan

>  <Num_Not_Resolved_Atoms>  (529) 
nan

$$$$
CHEMBL3672083
     RDKit          3D

  0  0  0  0  0  0  0  0  0  0999 V3000
M  V30 BEGIN CTAB
M  V30 COUNTS 67 73 0 0 0
M  V30 BEGIN ATOM
M  V30 1 C 8.601391 -2.779453 -1.272867 0
M  V30 2 S 8.323370 -1.278467 -2.282358 0
M  V30 3 C 6.983333 -0.366370 -1.498471 0
M  V30 4 N 5.686646 -0.604907 -1.846193 0
M  V30 5 C 4.878892 0.195249 -1.123525 0
M  V30 6 N 3.549389 0.391648 -1.041443 0
M  V30 7 C 3.008174 1.305379 -0.181362 0
M  V30 8 C 1.554707 1.320325 -0.286282 0
M  V30 9 C 0.718105 2.344317 -0.674551 0
M  V30 10 C -0.647402 2.155929 -0.711363 0
M  V30 11 C -1.256376 0.959218 -0.370594 0
M  V30 12 C -2.727444 0.782625 -0.428323 0
M  V30 13 N -3.364525 1.164298 0.789045 0
M  V30 14 C -3.025042 0.517920 2.003154 0
M  V30 15 C -4.436515 0.027894 2.206493 0
M  V30 16 C -4.629759 -1.451971 2.005383 0
M  V30 17 N -5.332080 -2.299580 2.781825 0
M  V30 18 N -5.239360 -3.522972 2.236835 0
M  V30 19 C -4.487504 -3.474046 1.121295 0
M  V30 20 C -4.139402 -4.579621 0.235462 0
M  V30 21 C -3.344386 -4.310370 -0.870810 0
M  V30 22 C -3.024307 -5.368101 -1.697320 0
M  V30 23 C -3.505594 -6.626847 -1.385685 0
M  V30 24 C -4.294183 -6.878001 -0.282790 0
M  V30 25 C -4.812102 -8.240233 0.052076 0
M  V30 26 N -4.583083 -5.820936 0.496608 0
M  V30 27 N -4.129219 -2.183732 1.009388 0
M  V30 28 C -4.731238 0.820444 0.959458 0
M  V30 29 C -0.399755 -0.075390 0.022486 0
M  V30 30 C 0.976272 0.089665 0.067558 0
M  V30 31 C 3.843191 2.048817 0.626186 0
M  V30 32 C 3.162911 2.969892 1.483468 0
M  V30 33 C 2.316497 2.373253 2.394597 0
M  V30 34 C 1.566532 3.089165 3.313698 0
M  V30 35 C 1.677104 4.476258 3.312012 0
M  V30 36 C 2.520065 5.076496 2.404842 0
M  V30 37 C 3.253525 4.363465 1.504819 0
M  V30 38 C 5.206075 1.848123 0.542493 0
M  V30 39 N 5.677271 0.929552 -0.327892 0
M  V30 40 N 6.939519 0.601666 -0.543815 0
M  V30 41 H 9.557190 -2.676475 -0.717952 0
M  V30 42 H 8.671937 -3.690932 -1.902683 0
M  V30 43 H 7.805035 -2.913764 -0.510670 0
M  V30 44 H 1.241867 3.245160 -0.926480 0
M  V30 45 H -1.263201 2.987902 -1.022531 0
M  V30 46 H -2.885897 -0.306716 -0.639824 0
M  V30 47 H -3.121697 1.395986 -1.266238 0
M  V30 48 H -2.671226 1.219959 2.818583 0
M  V30 49 H -2.364316 -0.377733 1.971655 0
M  V30 50 H -4.938700 0.392478 3.124576 0
M  V30 51 H -5.684445 -4.410612 2.612845 0
M  V30 52 H -2.997781 -3.297792 -1.059552 0
M  V30 53 H -2.410643 -5.152597 -2.548811 0
M  V30 54 H -3.256617 -7.473447 -2.036120 0
M  V30 55 H -4.013458 -8.999776 -0.176279 0
M  V30 56 H -4.954164 -8.335351 1.161362 0
M  V30 57 H -5.765269 -8.433998 -0.445977 0
M  V30 58 H -5.444149 1.636400 1.199900 0
M  V30 59 H -5.105834 0.150675 0.131338 0
M  V30 60 H -0.809172 -1.051811 0.302780 0
M  V30 61 H 1.566623 -0.784091 0.389939 0
M  V30 62 H 2.154352 1.312846 2.485466 0
M  V30 63 H 0.895574 2.656055 4.038883 0
M  V30 64 H 1.091092 5.051332 4.031170 0
M  V30 65 H 2.616294 6.159203 2.391962 0
M  V30 66 H 3.934471 4.757987 0.763462 0
M  V30 67 H 5.829204 2.448296 1.190430 0
M  V30 END ATOM
M  V30 BEGIN BOND
M  V30 1 1 1 2
M  V30 2 1 2 3
M  V30 3 1 3 4
M  V30 4 2 4 5
M  V30 5 1 5 6
M  V30 6 2 6 7
M  V30 7 1 7 8
M  V30 8 2 8 9
M  V30 9 1 9 10
M  V30 10 2 10 11
M  V30 11 1 11 12
M  V30 12 1 12 13
M  V30 13 1 13 14
M  V30 14 1 14 15
M  V30 15 1 15 16
M  V30 16 2 16 17
M  V30 17 1 17 18
M  V30 18 1 18 19
M  V30 19 1 19 20
M  V30 20 2 20 21
M  V30 21 1 21 22
M  V30 22 2 22 23
M  V30 23 1 23 24
M  V30 24 1 24 25
M  V30 25 2 24 26
M  V30 26 2 19 27
M  V30 27 1 15 28
M  V30 28 1 11 29
M  V30 29 2 29 30
M  V30 30 1 7 31
M  V30 31 1 31 32
M  V30 32 2 32 33
M  V30 33 1 33 34
M  V30 34 2 34 35
M  V30 35 1 35 36
M  V30 36 2 36 37
M  V30 37 2 31 38
M  V30 38 1 38 39
M  V30 39 1 39 40
M  V30 40 2 40 3
M  V30 41 1 39 5
M  V30 42 1 30 8
M  V30 43 1 37 32
M  V30 44 1 28 13
M  V30 45 1 27 16
M  V30 46 1 26 20
M  V30 47 1 1 41
M  V30 48 1 1 42
M  V30 49 1 1 43
M  V30 50 1 9 44
M  V30 51 1 10 45
M  V30 52 1 12 46
M  V30 53 1 12 47
M  V30 54 1 14 48
M  V30 55 1 14 49
M  V30 56 1 15 50
M  V30 57 1 18 51
M  V30 58 1 21 52
M  V30 59 1 22 53
M  V30 60 1 23 54
M  V30 61 1 25 55
M  V30 62 1 25 56
M  V30 63 1 25 57
M  V30 64 1 28 58
M  V30 65 1 28 59
M  V30 66 1 29 60
M  V30 67 1 30 61
M  V30 68 1 33 62
M  V30 69 1 34 63
M  V30 70 1 35 64
M  V30 71 1 36 65
M  V30 72 1 37 66
M  V30 73 1 38 67
M  V30 END BOND
M  V30 END CTAB
M  END
>  <Dataset>  (530) 
ChEMBL_Kinases

>  <Ligand_Instance>  (530) 
nan

>  <PDB_ID>  (530) 
nan

>  <Standardized_SMILES>  (530) 
CSc1nc2nc(-c3ccc(CN4CC(c5n[nH]c(-c6cccc(C)n6)n5)C4)cc3)c(-c3ccccc3)cn2n1

>  <Name>  (530) 
nan

>  <Pocket>  (530) 
nan

>  <ATP_Site>  (530) 
nan

>  <Peripheral>  (530) 
nan

>  <Num_H_Atoms_ProtBoundConf>  (530) 
nan

>  <Num_Resolved_Atoms>  (530) 
nan

>  <Num_Not_Resolved_Atoms>  (530) 
nan

$$$$
CHEMBL3355544
     RDKit          3D

  0  0  0  0  0  0  0  0  0  0999 V3000
M  V30 BEGIN CTAB
M  V30 COUNTS 47 50 0 0 0
M  V30 BEGIN ATOM
M  V30 1 O 0.846657 -6.356719 -0.077148 0
M  V30 2 C 0.347437 -5.124676 -0.408710 0 CFG=1
M  V30 3 C 0.457880 -4.856678 -1.918468 0
M  V30 4 C 0.361973 -3.360038 -2.083130 0
M  V30 5 C -0.862203 -2.857474 -1.413114 0 CFG=2
M  V30 6 N -0.524207 -1.857907 -0.448685 0
M  V30 7 C 0.097238 -0.623097 -0.679734 0
M  V30 8 C 0.485563 -0.161723 -1.910026 0
M  V30 9 C 1.104808 1.062481 -2.145779 0
M  V30 10 N 1.334708 1.846116 -1.070872 0
M  V30 11 N 1.879655 3.034168 -0.887402 0
M  V30 12 C 1.873616 3.389439 0.411721 0
M  V30 13 C 1.280651 2.356999 1.131318 0
M  V30 14 C 1.039668 2.261611 2.568804 0
M  V30 15 C 1.293615 1.140039 3.351799 0
M  V30 16 C 1.013192 1.200473 4.702260 0
M  V30 17 C 0.490152 2.364520 5.244341 0
M  V30 18 C 0.233190 3.492436 4.465157 0
M  V30 19 O -0.290879 4.584551 5.147904 0
M  V30 20 C -1.701926 4.667116 5.238824 0
M  V30 21 F -2.067730 5.806982 5.946203 0
M  V30 22 F -2.277149 3.604923 5.883091 0
M  V30 23 F -2.240970 4.714031 3.956779 0
M  V30 24 C 0.512301 3.434909 3.116074 0
M  V30 25 C 0.964032 1.417701 0.145283 0
M  V30 26 N 0.368694 0.227688 0.326050 0
M  V30 27 C -1.789012 -3.910723 -0.865500 0
M  V30 28 C -1.080647 -4.887469 0.040901 0
M  V30 29 H 0.205757 -7.033616 0.191926 0
M  V30 30 H 0.968482 -4.343522 0.075977 0
M  V30 31 H -0.402147 -5.365661 -2.401452 0
M  V30 32 H 1.430076 -5.234060 -2.255078 0
M  V30 33 H 0.409056 -3.104168 -3.163053 0
M  V30 34 H 1.267195 -2.946163 -1.546602 0
M  V30 35 H -1.470229 -2.327225 -2.206878 0
M  V30 36 H -0.781416 -2.097384 0.553382 0
M  V30 37 H 0.318659 -0.753979 -2.787270 0
M  V30 38 H 1.394561 1.385803 -3.137302 0
M  V30 39 H 2.237393 4.283774 0.891776 0
M  V30 40 H 1.700157 0.279383 2.847550 0
M  V30 41 H 1.217624 0.317142 5.295913 0
M  V30 42 H 0.302558 2.318566 6.310185 0
M  V30 43 H 0.300890 4.320103 2.555446 0
M  V30 44 H -2.550934 -3.387571 -0.251169 0
M  V30 45 H -2.336755 -4.443400 -1.669005 0
M  V30 46 H -1.607346 -5.859711 -0.044292 0
M  V30 47 H -1.163799 -4.562261 1.093601 0
M  V30 END ATOM
M  V30 BEGIN BOND
M  V30 1 1 1 2
M  V30 2 1 2 3
M  V30 3 1 3 4
M  V30 4 1 4 5
M  V30 5 1 5 6
M  V30 6 1 6 7
M  V30 7 1 7 8
M  V30 8 2 8 9
M  V30 9 1 9 10
M  V30 10 1 10 11
M  V30 11 2 11 12
M  V30 12 1 12 13
M  V30 13 1 13 14
M  V30 14 2 14 15
M  V30 15 1 15 16
M  V30 16 2 16 17
M  V30 17 1 17 18
M  V30 18 1 18 19
M  V30 19 1 19 20
M  V30 20 1 20 21
M  V30 21 1 20 22
M  V30 22 1 20 23
M  V30 23 2 18 24
M  V30 24 2 13 25
M  V30 25 1 25 26
M  V30 26 1 5 27
M  V30 27 1 27 28
M  V30 28 1 28 2
M  V30 29 2 26 7
M  V30 30 1 25 10
M  V30 31 1 24 14
M  V30 32 1 1 29
M  V30 33 1 2 30 CFG=1
M  V30 34 1 3 31
M  V30 35 1 3 32
M  V30 36 1 4 33
M  V30 37 1 4 34
M  V30 38 1 5 35 CFG=3
M  V30 39 1 6 36
M  V30 40 1 8 37
M  V30 41 1 9 38
M  V30 42 1 12 39
M  V30 43 1 15 40
M  V30 44 1 16 41
M  V30 45 1 17 42
M  V30 46 1 24 43
M  V30 47 1 27 44
M  V30 48 1 27 45
M  V30 49 1 28 46
M  V30 50 1 28 47
M  V30 END BOND
M  V30 END CTAB
M  END
>  <Dataset>  (531) 
ChEMBL_Kinases

>  <Ligand_Instance>  (531) 
nan

>  <PDB_ID>  (531) 
nan

>  <Standardized_SMILES>  (531) 
O[C@H]1CC[C@H](Nc2ccn3ncc(-c4cccc(OC(F)(F)F)c4)c3n2)CC1

>  <Name>  (531) 
nan

>  <Pocket>  (531) 
nan

>  <ATP_Site>  (531) 
nan

>  <Peripheral>  (531) 
nan

>  <Num_H_Atoms_ProtBoundConf>  (531) 
nan

>  <Num_Resolved_Atoms>  (531) 
nan

>  <Num_Not_Resolved_Atoms>  (531) 
nan

$$$$
CHEMBL3355545
     RDKit          3D

  0  0  0  0  0  0  0  0  0  0999 V3000
M  V30 BEGIN CTAB
M  V30 COUNTS 50 53 0 0 0
M  V30 BEGIN ATOM
M  V30 1 C 0.024593 -3.402457 1.400593 0
M  V30 2 C 1.501557 -3.734684 1.601718 0 CFG=2
M  V30 3 O 1.489269 -5.126569 1.847715 0
M  V30 4 C 1.946334 -3.064620 2.851522 0
M  V30 5 C 3.209550 -2.273661 2.737142 0
M  V30 6 C 3.267379 -1.453740 1.458682 0 CFG=2
M  V30 7 N 2.101038 -0.667853 1.222265 0
M  V30 8 C 1.834282 0.308826 0.227725 0
M  V30 9 C 2.731180 0.720768 -0.731994 0
M  V30 10 C 2.447641 1.665060 -1.696337 0
M  V30 11 N 1.212430 2.196702 -1.670586 0
M  V30 12 N 0.620952 3.100320 -2.423965 0
M  V30 13 C -0.643483 3.334784 -2.032000 0
M  V30 14 C -0.877255 2.513765 -0.939707 0
M  V30 15 C -2.079996 2.339784 -0.098584 0
M  V30 16 C -2.863907 3.357450 0.411211 0
M  V30 17 C -3.959177 3.027001 1.182882 0
M  V30 18 C -4.292449 1.716486 1.458697 0
M  V30 19 C -3.527495 0.663532 0.963264 0
M  V30 20 O -3.822527 -0.665283 1.213145 0
M  V30 21 C -4.660020 -1.441395 0.384323 0
M  V30 22 F -5.932250 -0.965112 0.261641 0
M  V30 23 F -4.084237 -1.366703 -0.891546 0
M  V30 24 F -4.611093 -2.780447 0.717035 0
M  V30 25 C -2.433165 1.036940 0.190789 0
M  V30 26 C 0.310989 1.820111 -0.749610 0
M  V30 27 N 0.631814 0.896541 0.170295 0
M  V30 28 C 3.386272 -2.524200 0.386691 0
M  V30 29 C 2.293775 -3.522167 0.384497 0
M  V30 30 H -0.580450 -4.261514 1.096609 0
M  V30 31 H -0.036469 -2.581532 0.675723 0
M  V30 32 H -0.425653 -3.025865 2.344973 0
M  V30 33 H 0.946195 -5.534766 1.117028 0
M  V30 34 H 2.123898 -3.783904 3.684820 0
M  V30 35 H 1.175286 -2.375474 3.271972 0
M  V30 36 H 4.067900 -2.942978 2.742978 0
M  V30 37 H 3.303415 -1.563836 3.571325 0
M  V30 38 H 4.174706 -0.856588 1.474436 0
M  V30 39 H 1.331495 -0.865285 1.910924 0
M  V30 40 H 3.712764 0.315072 -0.758786 0
M  V30 41 H 3.203106 1.955982 -2.439042 0
M  V30 42 H -1.394287 4.006898 -2.427966 0
M  V30 43 H -2.543658 4.360430 0.154876 0
M  V30 44 H -4.564351 3.859643 1.574852 0
M  V30 45 H -5.153608 1.467135 2.065081 0
M  V30 46 H -1.849749 0.206924 -0.186169 0
M  V30 47 H 4.385752 -3.031039 0.528966 0
M  V30 48 H 3.476897 -2.010844 -0.585171 0
M  V30 49 H 2.744796 -4.467251 -0.043790 0
M  V30 50 H 1.581536 -3.221824 -0.441882 0
M  V30 END ATOM
M  V30 BEGIN BOND
M  V30 1 1 1 2
M  V30 2 1 2 3 CFG=1
M  V30 3 1 2 4
M  V30 4 1 4 5
M  V30 5 1 5 6
M  V30 6 1 6 7
M  V30 7 1 7 8
M  V30 8 1 8 9
M  V30 9 2 9 10
M  V30 10 1 10 11
M  V30 11 1 11 12
M  V30 12 2 12 13
M  V30 13 1 13 14
M  V30 14 1 14 15
M  V30 15 2 15 16
M  V30 16 1 16 17
M  V30 17 2 17 18
M  V30 18 1 18 19
M  V30 19 1 19 20
M  V30 20 1 20 21
M  V30 21 1 21 22
M  V30 22 1 21 23
M  V30 23 1 21 24
M  V30 24 2 19 25
M  V30 25 2 14 26
M  V30 26 1 26 27
M  V30 27 1 6 28
M  V30 28 1 28 29
M  V30 29 1 29 2
M  V30 30 2 27 8
M  V30 31 1 26 11
M  V30 32 1 25 15
M  V30 33 1 1 30
M  V30 34 1 1 31
M  V30 35 1 1 32
M  V30 36 1 3 33
M  V30 37 1 4 34
M  V30 38 1 4 35
M  V30 39 1 5 36
M  V30 40 1 5 37
M  V30 41 1 6 38 CFG=1
M  V30 42 1 7 39
M  V30 43 1 9 40
M  V30 44 1 10 41
M  V30 45 1 13 42
M  V30 46 1 16 43
M  V30 47 1 17 44
M  V30 48 1 18 45
M  V30 49 1 25 46
M  V30 50 1 28 47
M  V30 51 1 28 48
M  V30 52 1 29 49
M  V30 53 1 29 50
M  V30 END BOND
M  V30 END CTAB
M  END
>  <Dataset>  (532) 
ChEMBL_Kinases

>  <Ligand_Instance>  (532) 
nan

>  <PDB_ID>  (532) 
nan

>  <Standardized_SMILES>  (532) 
C[C@]1(O)CC[C@H](Nc2ccn3ncc(-c4cccc(OC(F)(F)F)c4)c3n2)CC1

>  <Name>  (532) 
nan

>  <Pocket>  (532) 
nan

>  <ATP_Site>  (532) 
nan

>  <Peripheral>  (532) 
nan

>  <Num_H_Atoms_ProtBoundConf>  (532) 
nan

>  <Num_Resolved_Atoms>  (532) 
nan

>  <Num_Not_Resolved_Atoms>  (532) 
nan

$$$$
CHEMBL3355546
     RDKit          3D

  0  0  0  0  0  0  0  0  0  0999 V3000
M  V30 BEGIN CTAB
M  V30 COUNTS 56 59 0 0 0
M  V30 BEGIN ATOM
M  V30 1 C 2.479797 -1.640987 4.595117 0
M  V30 2 C 3.366993 -1.964563 3.395401 0
M  V30 3 C 3.541028 -3.420985 3.188305 0
M  V30 4 O 4.635064 -1.446898 3.760555 0
M  V30 5 C 2.903114 -1.155210 2.256635 0 CFG=1
M  V30 6 C 3.717138 -1.389615 0.984328 0
M  V30 7 C 3.446026 -0.135858 0.179530 0
M  V30 8 C 2.004423 0.011126 -0.216934 0 CFG=2
M  V30 9 N 1.647795 1.432486 -0.188046 0
M  V30 10 C 0.370105 2.014966 -0.524489 0
M  V30 11 C 0.122742 3.374896 -0.462026 0
M  V30 12 C -1.132979 3.822274 -0.808647 0
M  V30 13 N -2.141461 3.026587 -1.205722 0
M  V30 14 N -3.405382 3.250923 -1.577849 0
M  V30 15 C -3.981554 2.051820 -1.881448 0
M  V30 16 C -3.023312 1.077856 -1.682009 0
M  V30 17 C -3.265147 -0.343168 -1.904594 0
M  V30 18 C -2.350646 -1.154499 -2.585161 0
M  V30 19 C -2.646691 -2.502583 -2.762572 0
M  V30 20 C -3.825359 -3.090753 -2.288882 0
M  V30 21 C -4.688243 -2.241274 -1.625944 0
M  V30 22 O -5.850848 -2.897129 -1.177394 0
M  V30 23 C -5.839000 -3.482302 0.128030 0
M  V30 24 F -7.055069 -4.066408 0.372109 0
M  V30 25 F -5.562065 -2.469975 1.024142 0
M  V30 26 F -4.822900 -4.437351 0.203826 0
M  V30 27 C -4.438660 -0.900148 -1.425812 0
M  V30 28 C -1.872603 1.709886 -1.257109 0
M  V30 29 N -0.666346 1.258300 -0.926398 0
M  V30 30 C 1.054101 -0.833158 0.562580 0
M  V30 31 C 1.474347 -1.370710 1.862832 0
M  V30 32 H 3.088014 -1.862105 5.498614 0
M  V30 33 H 1.574257 -2.272524 4.608177 0
M  V30 34 H 2.278331 -0.568612 4.578706 0
M  V30 35 H 4.598096 -3.746411 3.215173 0
M  V30 36 H 3.035894 -3.862481 2.312561 0
M  V30 37 H 3.063272 -3.932630 4.075122 0
M  V30 38 H 4.534120 -0.500634 4.086016 0
M  V30 39 H 3.015691 -0.087677 2.558011 0
M  V30 40 H 4.786640 -1.480655 1.161067 0
M  V30 41 H 3.267864 -2.268435 0.463107 0
M  V30 42 H 4.135586 -0.084208 -0.688140 0
M  V30 43 H 3.714045 0.727723 0.828746 0
M  V30 44 H 1.950625 -0.282495 -1.287286 0
M  V30 45 H 2.381704 2.145223 0.107290 0
M  V30 46 H 0.930314 4.016812 -0.143520 0
M  V30 47 H -1.300539 4.899053 -0.750272 0
M  V30 48 H -5.003322 1.984123 -2.207991 0
M  V30 49 H -1.432801 -0.732639 -2.963059 0
M  V30 50 H -1.929611 -3.144392 -3.297514 0
M  V30 51 H -4.002426 -4.140624 -2.455039 0
M  V30 52 H -5.204795 -0.353881 -0.888508 0
M  V30 53 H 0.640865 -1.661793 -0.085547 0
M  V30 54 H 0.146890 -0.205790 0.746066 0
M  V30 55 H 1.307376 -2.476317 1.906494 0
M  V30 56 H 0.853010 -1.002045 2.732218 0
M  V30 END ATOM
M  V30 BEGIN BOND
M  V30 1 1 1 2
M  V30 2 1 2 3
M  V30 3 1 2 4
M  V30 4 1 2 5
M  V30 5 1 5 6
M  V30 6 1 6 7
M  V30 7 1 7 8
M  V30 8 1 8 9
M  V30 9 1 9 10
M  V30 10 1 10 11
M  V30 11 2 11 12
M  V30 12 1 12 13
M  V30 13 1 13 14
M  V30 14 2 14 15
M  V30 15 1 15 16
M  V30 16 1 16 17
M  V30 17 2 17 18
M  V30 18 1 18 19
M  V30 19 2 19 20
M  V30 20 1 20 21
M  V30 21 1 21 22
M  V30 22 1 22 23
M  V30 23 1 23 24
M  V30 24 1 23 25
M  V30 25 1 23 26
M  V30 26 2 21 27
M  V30 27 2 16 28
M  V30 28 1 28 29
M  V30 29 1 8 30
M  V30 30 1 30 31
M  V30 31 1 31 5
M  V30 32 2 29 10
M  V30 33 1 28 13
M  V30 34 1 27 17
M  V30 35 1 1 32
M  V30 36 1 1 33
M  V30 37 1 1 34
M  V30 38 1 3 35
M  V30 39 1 3 36
M  V30 40 1 3 37
M  V30 41 1 4 38
M  V30 42 1 5 39 CFG=1
M  V30 43 1 6 40
M  V30 44 1 6 41
M  V30 45 1 7 42
M  V30 46 1 7 43
M  V30 47 1 8 44 CFG=3
M  V30 48 1 9 45
M  V30 49 1 11 46
M  V30 50 1 12 47
M  V30 51 1 15 48
M  V30 52 1 18 49
M  V30 53 1 19 50
M  V30 54 1 20 51
M  V30 55 1 27 52
M  V30 56 1 30 53
M  V30 57 1 30 54
M  V30 58 1 31 55
M  V30 59 1 31 56
M  V30 END BOND
M  V30 END CTAB
M  END
>  <Dataset>  (533) 
ChEMBL_Kinases

>  <Ligand_Instance>  (533) 
nan

>  <PDB_ID>  (533) 
nan

>  <Standardized_SMILES>  (533) 
CC(C)(O)[C@H]1CC[C@H](Nc2ccn3ncc(-c4cccc(OC(F)(F)F)c4)c3n2)CC1

>  <Name>  (533) 
nan

>  <Pocket>  (533) 
nan

>  <ATP_Site>  (533) 
nan

>  <Peripheral>  (533) 
nan

>  <Num_H_Atoms_ProtBoundConf>  (533) 
nan

>  <Num_Resolved_Atoms>  (533) 
nan

>  <Num_Not_Resolved_Atoms>  (533) 
nan

$$$$
CHEMBL3355547
     RDKit          3D

  0  0  0  0  0  0  0  0  0  0999 V3000
M  V30 BEGIN CTAB
M  V30 COUNTS 50 53 0 0 0
M  V30 BEGIN ATOM
M  V30 1 C -0.725989 -5.411837 2.087646 0
M  V30 2 O 0.429912 -5.189108 2.832654 0
M  V30 3 C 1.060914 -4.025168 2.395501 0 CFG=1
M  V30 4 C 1.156797 -2.969173 3.477026 0
M  V30 5 C 2.505923 -2.275259 3.440927 0
M  V30 6 C 2.814686 -1.768047 2.043759 0 CFG=2
M  V30 7 N 1.805914 -0.833220 1.586480 0
M  V30 8 C 1.860247 -0.187336 0.321116 0
M  V30 9 C 2.867603 -0.375060 -0.590649 0
M  V30 10 C 2.867847 0.280773 -1.810097 0
M  V30 11 N 1.869780 1.120821 -2.122421 0
M  V30 12 N 1.628586 1.868749 -3.210790 0
M  V30 13 C 0.491191 2.538524 -3.032162 0
M  V30 14 C -0.041557 2.225635 -1.783749 0
M  V30 15 C -1.269511 2.694436 -1.118549 0
M  V30 16 C -1.627741 4.034285 -1.111323 0
M  V30 17 C -2.775630 4.487102 -0.491769 0
M  V30 18 C -3.592511 3.558251 0.143419 0
M  V30 19 C -3.282414 2.207781 0.166782 0
M  V30 20 O -4.131200 1.317711 0.815152 0
M  V30 21 C -5.205841 0.648945 0.228815 0
M  V30 22 F -6.097181 1.617011 -0.246558 0
M  V30 23 F -4.852523 -0.216833 -0.766983 0
M  V30 24 F -5.897820 0.011773 1.267300 0
M  V30 25 C -2.124299 1.805670 -0.466782 0
M  V30 26 C 0.863201 1.315477 -1.224397 0
M  V30 27 N 0.903389 0.658532 -0.053593 0
M  V30 28 C 2.889736 -2.989380 1.158068 0
M  V30 29 C 2.433978 -4.248730 1.850200 0
M  V30 30 H -1.198703 -6.337625 2.458804 0
M  V30 31 H -0.486895 -5.588050 1.010649 0
M  V30 32 H -1.470703 -4.596323 2.170450 0
M  V30 33 H 0.438308 -3.618722 1.568133 0
M  V30 34 H 0.369471 -2.207845 3.369264 0
M  V30 35 H 1.040609 -3.500513 4.439706 0
M  V30 36 H 2.439006 -1.411877 4.136217 0
M  V30 37 H 3.331855 -2.931704 3.747503 0
M  V30 38 H 3.820443 -1.285942 2.099209 0
M  V30 39 H 1.018904 -0.638429 2.220115 0
M  V30 40 H 3.682828 -1.043818 -0.364520 0
M  V30 41 H 3.684735 0.117994 -2.529919 0
M  V30 42 H -0.003682 3.225356 -3.689298 0
M  V30 43 H -0.938456 4.708981 -1.630308 0
M  V30 44 H -3.003856 5.544588 -0.518798 0
M  V30 45 H -4.504541 3.910751 0.636807 0
M  V30 46 H -1.879913 0.747179 -0.449333 0
M  V30 47 H 3.915620 -3.143217 0.767132 0
M  V30 48 H 2.230304 -2.835874 0.273660 0
M  V30 49 H 3.159744 -4.609603 2.606491 0
M  V30 50 H 2.430953 -5.049069 1.062278 0
M  V30 END ATOM
M  V30 BEGIN BOND
M  V30 1 1 1 2
M  V30 2 1 2 3
M  V30 3 1 3 4
M  V30 4 1 4 5
M  V30 5 1 5 6
M  V30 6 1 6 7
M  V30 7 1 7 8
M  V30 8 1 8 9
M  V30 9 2 9 10
M  V30 10 1 10 11
M  V30 11 1 11 12
M  V30 12 2 12 13
M  V30 13 1 13 14
M  V30 14 1 14 15
M  V30 15 2 15 16
M  V30 16 1 16 17
M  V30 17 2 17 18
M  V30 18 1 18 19
M  V30 19 1 19 20
M  V30 20 1 20 21
M  V30 21 1 21 22
M  V30 22 1 21 23
M  V30 23 1 21 24
M  V30 24 2 19 25
M  V30 25 2 14 26
M  V30 26 1 26 27
M  V30 27 1 6 28
M  V30 28 1 28 29
M  V30 29 1 29 3
M  V30 30 2 27 8
M  V30 31 1 26 11
M  V30 32 1 25 15
M  V30 33 1 1 30
M  V30 34 1 1 31
M  V30 35 1 1 32
M  V30 36 1 3 33 CFG=3
M  V30 37 1 4 34
M  V30 38 1 4 35
M  V30 39 1 5 36
M  V30 40 1 5 37
M  V30 41 1 6 38 CFG=1
M  V30 42 1 7 39
M  V30 43 1 9 40
M  V30 44 1 10 41
M  V30 45 1 13 42
M  V30 46 1 16 43
M  V30 47 1 17 44
M  V30 48 1 18 45
M  V30 49 1 25 46
M  V30 50 1 28 47
M  V30 51 1 28 48
M  V30 52 1 29 49
M  V30 53 1 29 50
M  V30 END BOND
M  V30 END CTAB
M  END
>  <Dataset>  (534) 
ChEMBL_Kinases

>  <Ligand_Instance>  (534) 
nan

>  <PDB_ID>  (534) 
nan

>  <Standardized_SMILES>  (534) 
CO[C@H]1CC[C@H](Nc2ccn3ncc(-c4cccc(OC(F)(F)F)c4)c3n2)CC1

>  <Name>  (534) 
nan

>  <Pocket>  (534) 
nan

>  <ATP_Site>  (534) 
nan

>  <Peripheral>  (534) 
nan

>  <Num_H_Atoms_ProtBoundConf>  (534) 
nan

>  <Num_Resolved_Atoms>  (534) 
nan

>  <Num_Not_Resolved_Atoms>  (534) 
nan

$$$$
CHEMBL3672053
     RDKit          3D

  0  0  0  0  0  0  0  0  0  0999 V3000
M  V30 BEGIN CTAB
M  V30 COUNTS 69 75 0 0 0
M  V30 BEGIN ATOM
M  V30 1 C 8.325657 -3.741447 1.876956 0
M  V30 2 C 7.106874 -2.910900 1.646628 0
M  V30 3 N 6.222460 -3.221902 0.673959 0
M  V30 4 C 5.267569 -2.276843 0.752638 0
M  V30 5 N 4.134565 -2.080012 0.030956 0
M  V30 6 C 3.305586 -1.050634 0.283092 0
M  V30 7 C 2.084258 -0.819989 -0.479275 0
M  V30 8 C 1.017775 -1.694871 -0.559099 0
M  V30 9 C -0.087021 -1.363959 -1.315316 0
M  V30 10 C -0.192641 -0.162074 -2.024741 0
M  V30 11 C -1.446862 0.024728 -2.792408 0
M  V30 12 N -2.435638 0.596984 -1.952404 0
M  V30 13 C -2.165251 1.856487 -1.368812 0
M  V30 14 C -2.933903 1.941880 -0.041232 0
M  V30 15 C -4.372766 1.531712 -0.243734 0
M  V30 16 C -4.699854 0.286383 0.495974 0
M  V30 17 N -5.605394 0.115638 1.459919 0
M  V30 18 N -5.620345 -1.131309 1.888443 0
M  V30 19 C -4.690327 -1.799960 1.178328 0
M  V30 20 C -4.353812 -3.209892 1.308375 0
M  V30 21 C -3.381985 -3.770719 0.520700 0
M  V30 22 C -3.023324 -5.112938 0.606145 0
M  V30 23 C -3.724860 -5.862576 1.557192 0
M  V30 24 C -4.699772 -5.279072 2.340384 0
M  V30 25 N -4.998691 -3.974794 2.207724 0
M  V30 26 N -4.129040 -0.924095 0.325475 0
M  V30 27 C -4.688495 1.372887 -1.725552 0
M  V30 28 C -3.787732 0.360580 -2.375913 0
M  V30 29 C 0.885441 0.691378 -1.927562 0
M  V30 30 C 1.987565 0.355363 -1.169727 0
M  V30 31 C 3.576786 -0.140522 1.299334 0
M  V30 32 C 2.737465 1.004134 1.644520 0
M  V30 33 C 1.422319 0.872604 2.107379 0
M  V30 34 C 0.650313 1.974584 2.426835 0
M  V30 35 C 1.195200 3.244983 2.284324 0
M  V30 36 C 2.499771 3.376570 1.825228 0
M  V30 37 F 3.009348 4.634453 1.694688 0
M  V30 38 C 3.257063 2.279529 1.511203 0
M  V30 39 C 4.747296 -0.352385 2.037476 0
M  V30 40 N 5.528537 -1.402239 1.729582 0
M  V30 41 N 6.679782 -1.821033 2.269813 0
M  V30 42 H 8.648885 -4.246911 0.934581 0
M  V30 43 H 8.057461 -4.479537 2.663326 0
M  V30 44 H 9.086614 -3.043942 2.270665 0
M  V30 45 H 1.095273 -2.624634 -0.012477 0
M  V30 46 H -0.903708 -2.095082 -1.343111 0
M  V30 47 H -1.822536 -0.969523 -3.138040 0
M  V30 48 H -1.183935 0.676018 -3.660045 0
M  V30 49 H -1.097105 1.885063 -1.089043 0
M  V30 50 H -2.411153 2.743291 -1.984553 0
M  V30 51 H -2.471424 1.194455 0.640969 0
M  V30 52 H -2.801935 2.923552 0.432740 0
M  V30 53 H -5.011385 2.331044 0.141341 0
M  V30 54 H -6.245491 -1.488410 2.633479 0
M  V30 55 H -2.854732 -3.172153 -0.205728 0
M  V30 56 H -2.245476 -5.500674 -0.044504 0
M  V30 57 H -3.415971 -6.908406 1.594176 0
M  V30 58 H -5.164843 -5.959548 3.031477 0
M  V30 59 H -4.607544 2.382191 -2.175881 0
M  V30 60 H -5.755230 1.027872 -1.759298 0
M  V30 61 H -3.931970 0.452920 -3.470379 0
M  V30 62 H -4.098549 -0.648010 -2.034848 0
M  V30 63 H 0.794757 1.612986 -2.484130 0
M  V30 64 H 2.807875 1.087476 -1.140590 0
M  V30 65 H 1.064033 -0.146428 2.193636 0
M  V30 66 H -0.363027 1.843797 2.782167 0
M  V30 67 H 0.596416 4.124840 2.533154 0
M  V30 68 H 4.272467 2.422980 1.155573 0
M  V30 69 H 4.967153 0.352282 2.832177 0
M  V30 END ATOM
M  V30 BEGIN BOND
M  V30 1 1 1 2
M  V30 2 1 2 3
M  V30 3 2 3 4
M  V30 4 1 4 5
M  V30 5 2 5 6
M  V30 6 1 6 7
M  V30 7 2 7 8
M  V30 8 1 8 9
M  V30 9 2 9 10
M  V30 10 1 10 11
M  V30 11 1 11 12
M  V30 12 1 12 13
M  V30 13 1 13 14
M  V30 14 1 14 15
M  V30 15 1 15 16
M  V30 16 2 16 17
M  V30 17 1 17 18
M  V30 18 1 18 19
M  V30 19 1 19 20
M  V30 20 2 20 21
M  V30 21 1 21 22
M  V30 22 2 22 23
M  V30 23 1 23 24
M  V30 24 2 24 25
M  V30 25 2 19 26
M  V30 26 1 15 27
M  V30 27 1 27 28
M  V30 28 1 10 29
M  V30 29 2 29 30
M  V30 30 1 6 31
M  V30 31 1 31 32
M  V30 32 2 32 33
M  V30 33 1 33 34
M  V30 34 2 34 35
M  V30 35 1 35 36
M  V30 36 1 36 37
M  V30 37 2 36 38
M  V30 38 2 31 39
M  V30 39 1 39 40
M  V30 40 1 40 41
M  V30 41 2 41 2
M  V30 42 1 40 4
M  V30 43 1 30 7
M  V30 44 1 38 32
M  V30 45 1 28 12
M  V30 46 1 26 16
M  V30 47 1 25 20
M  V30 48 1 1 42
M  V30 49 1 1 43
M  V30 50 1 1 44
M  V30 51 1 8 45
M  V30 52 1 9 46
M  V30 53 1 11 47
M  V30 54 1 11 48
M  V30 55 1 13 49
M  V30 56 1 13 50
M  V30 57 1 14 51
M  V30 58 1 14 52
M  V30 59 1 15 53
M  V30 60 1 18 54
M  V30 61 1 21 55
M  V30 62 1 22 56
M  V30 63 1 23 57
M  V30 64 1 24 58
M  V30 65 1 27 59
M  V30 66 1 27 60
M  V30 67 1 28 61
M  V30 68 1 28 62
M  V30 69 1 29 63
M  V30 70 1 30 64
M  V30 71 1 33 65
M  V30 72 1 34 66
M  V30 73 1 35 67
M  V30 74 1 38 68
M  V30 75 1 39 69
M  V30 END BOND
M  V30 END CTAB
M  END
>  <Dataset>  (535) 
ChEMBL_Kinases

>  <Ligand_Instance>  (535) 
nan

>  <PDB_ID>  (535) 
nan

>  <Standardized_SMILES>  (535) 
Cc1nc2nc(-c3ccc(CN4CCC(c5n[nH]c(-c6ccccn6)n5)CC4)cc3)c(-c3cccc(F)c3)cn2n1

>  <Name>  (535) 
nan

>  <Pocket>  (535) 
nan

>  <ATP_Site>  (535) 
nan

>  <Peripheral>  (535) 
nan

>  <Num_H_Atoms_ProtBoundConf>  (535) 
nan

>  <Num_Resolved_Atoms>  (535) 
nan

>  <Num_Not_Resolved_Atoms>  (535) 
nan

$$$$
CHEMBL3355548
     RDKit          3D

  0  0  0  0  0  0  0  0  0  0999 V3000
M  V30 BEGIN CTAB
M  V30 COUNTS 47 50 0 0 0
M  V30 BEGIN ATOM
M  V30 1 F 3.931516 -1.530999 4.102756 0
M  V30 2 C 3.395664 -1.591355 2.820386 0
M  V30 3 F 2.051175 -1.273203 2.937035 0
M  V30 4 F 3.582350 -2.868878 2.317888 0
M  V30 5 O 4.103768 -0.706809 2.005838 0
M  V30 6 C 3.860651 -0.487535 0.654867 0
M  V30 7 C 4.517697 -1.262428 -0.304853 0
M  V30 8 C 4.236025 -0.999153 -1.637735 0
M  V30 9 C 3.342574 -0.011453 -2.004594 0
M  V30 10 C 2.706583 0.740941 -1.016795 0
M  V30 11 C 1.752964 1.795153 -1.407783 0
M  V30 12 C 1.777136 2.808979 -2.373784 0
M  V30 13 N 0.611581 3.471651 -2.264535 0
M  V30 14 N -0.124681 2.939030 -1.303406 0
M  V30 15 C -1.359927 3.293285 -0.861225 0
M  V30 16 C -1.965563 2.605590 0.163427 0
M  V30 17 C -1.277874 1.543726 0.728171 0
M  V30 18 N -1.668269 0.671649 1.791026 0
M  V30 19 C -2.371432 -0.474781 1.253267 0
M  V30 20 C -2.787421 -1.404146 2.385412 0
M  V30 21 C -1.637255 -1.925231 3.180984 0
M  V30 22 C -1.155124 -3.286775 2.764432 0
M  V30 23 O -2.272693 -4.142438 2.791737 0
M  V30 24 C -3.023021 -3.814683 1.675395 0
M  V30 25 C -3.681897 -2.492551 1.895445 0
M  V30 26 N -0.053062 1.213307 0.270166 0
M  V30 27 C 0.545693 1.892080 -0.741781 0
M  V30 28 C 2.961403 0.508015 0.323306 0
M  V30 29 H 5.210595 -2.026061 0.036991 0
M  V30 30 H 4.763791 -1.620017 -2.366862 0
M  V30 31 H 3.155303 0.157055 -3.057453 0
M  V30 32 H 2.653901 2.893854 -3.003031 0
M  V30 33 H -1.917285 4.102288 -1.270486 0
M  V30 34 H -2.920028 2.763371 0.613858 0
M  V30 35 H -1.463635 0.858170 2.797909 0
M  V30 36 H -3.333434 -0.092284 0.833950 0
M  V30 37 H -1.825628 -0.995601 0.461468 0
M  V30 38 H -3.399130 -0.751718 3.068512 0
M  V30 39 H -1.964884 -2.030765 4.248725 0
M  V30 40 H -0.778392 -1.227614 3.222316 0
M  V30 41 H -0.482066 -3.671662 3.554519 0
M  V30 42 H -0.699500 -3.292534 1.752612 0
M  V30 43 H -3.823894 -4.577777 1.602514 0
M  V30 44 H -2.360812 -3.868206 0.792647 0
M  V30 45 H -4.500802 -2.672476 2.645378 0
M  V30 46 H -4.197031 -2.188286 0.939474 0
M  V30 47 H 2.474459 1.085003 1.103507 0
M  V30 END ATOM
M  V30 BEGIN BOND
M  V30 1 1 1 2
M  V30 2 1 2 3
M  V30 3 1 2 4
M  V30 4 1 2 5
M  V30 5 1 5 6
M  V30 6 2 6 7
M  V30 7 1 7 8
M  V30 8 2 8 9
M  V30 9 1 9 10
M  V30 10 1 10 11
M  V30 11 1 11 12
M  V30 12 2 12 13
M  V30 13 1 13 14
M  V30 14 1 14 15
M  V30 15 2 15 16
M  V30 16 1 16 17
M  V30 17 1 17 18
M  V30 18 1 18 19
M  V30 19 1 19 20
M  V30 20 1 20 21
M  V30 21 1 21 22
M  V30 22 1 22 23
M  V30 23 1 23 24
M  V30 24 1 24 25
M  V30 25 2 17 26
M  V30 26 1 26 27
M  V30 27 2 10 28
M  V30 28 1 28 6
M  V30 29 2 27 11
M  V30 30 1 27 14
M  V30 31 1 25 20
M  V30 32 1 7 29
M  V30 33 1 8 30
M  V30 34 1 9 31
M  V30 35 1 12 32
M  V30 36 1 15 33
M  V30 37 1 16 34
M  V30 38 1 18 35
M  V30 39 1 19 36
M  V30 40 1 19 37
M  V30 41 1 20 38
M  V30 42 1 21 39
M  V30 43 1 21 40
M  V30 44 1 22 41
M  V30 45 1 22 42
M  V30 46 1 24 43
M  V30 47 1 24 44
M  V30 48 1 25 45
M  V30 49 1 25 46
M  V30 50 1 28 47
M  V30 END BOND
M  V30 END CTAB
M  END
>  <Dataset>  (536) 
ChEMBL_Kinases

>  <Ligand_Instance>  (536) 
nan

>  <PDB_ID>  (536) 
nan

>  <Standardized_SMILES>  (536) 
FC(F)(F)Oc1cccc(-c2cnn3ccc(NCC4CCOCC4)nc23)c1

>  <Name>  (536) 
nan

>  <Pocket>  (536) 
nan

>  <ATP_Site>  (536) 
nan

>  <Peripheral>  (536) 
nan

>  <Num_H_Atoms_ProtBoundConf>  (536) 
nan

>  <Num_Resolved_Atoms>  (536) 
nan

>  <Num_Not_Resolved_Atoms>  (536) 
nan

$$$$
CHEMBL3672052
     RDKit          3D

  0  0  0  0  0  0  0  0  0  0999 V3000
M  V30 BEGIN CTAB
M  V30 COUNTS 72 78 0 0 0
M  V30 BEGIN ATOM
M  V30 1 C 0.479688 -6.004736 -1.080546 0
M  V30 2 C 1.904802 -5.678030 -1.111836 0
M  V30 3 C 2.840567 -6.740664 -1.023104 0
M  V30 4 C 4.219033 -6.556470 -1.041122 0
M  V30 5 C 4.737847 -5.241270 -1.153147 0
M  V30 6 C 3.830405 -4.155605 -1.243192 0
M  V30 7 C 4.256999 -2.780080 -1.356212 0
M  V30 8 N 3.433832 -1.724085 -1.427647 0
M  V30 9 C 4.183166 -0.580696 -1.524314 0
M  V30 10 C 3.373021 0.648698 -1.613531 0
M  V30 11 C 3.794687 1.649655 -2.616643 0
M  V30 12 C 2.776556 2.774510 -2.585034 0
M  V30 13 N 1.691162 2.521029 -1.690452 0
M  V30 14 C 0.442420 2.206603 -2.234394 0
M  V30 15 C -0.641754 1.819917 -1.323850 0
M  V30 16 C -1.597454 2.583841 -0.689765 0
M  V30 17 C -2.518881 1.950887 0.116303 0
M  V30 18 C -2.557884 0.604565 0.338614 0
M  V30 19 C -3.533759 -0.072191 1.180145 0
M  V30 20 N -4.267598 -0.993528 0.546804 0
M  V30 21 C -5.226964 -1.717294 1.195436 0
M  V30 22 N -6.087273 -2.693426 0.772822 0
M  V30 23 C -6.815959 -3.055749 1.836638 0
M  V30 24 C -7.898755 -4.042629 2.052126 0
M  V30 25 N -6.456743 -2.356232 2.909736 0
M  V30 26 N -5.475635 -1.525657 2.528420 0
M  V30 27 C -4.742310 -0.591246 3.211343 0
M  V30 28 C -3.787637 0.113803 2.519116 0
M  V30 29 C -2.973350 1.119491 3.187806 0
M  V30 30 C -3.631659 2.216347 3.719649 0
M  V30 31 C -2.874299 3.160881 4.350861 0
M  V30 32 C -1.493635 3.141095 4.521439 0
M  V30 33 C -0.906998 2.016981 3.964894 0
M  V30 34 F 0.442713 1.902484 4.083231 0
M  V30 35 C -1.604029 1.016963 3.309123 0
M  V30 36 C -1.612975 -0.238017 -0.275404 0
M  V30 37 C -0.691441 0.442442 -1.088482 0
M  V30 38 C 2.008954 2.195340 -0.360736 0
M  V30 39 C 3.304576 1.375061 -0.260258 0
M  V30 40 N 5.446516 -0.965696 -1.509416 0
M  V30 41 N 5.491878 -2.307516 -1.406879 0
M  V30 42 N 2.801173 -4.788393 -1.188098 0
M  V30 43 H -0.170389 -5.150599 -0.875049 0
M  V30 44 H 0.343205 -6.719314 -0.217973 0
M  V30 45 H 0.132134 -6.565776 -1.982038 0
M  V30 46 H 2.588222 -7.816125 -0.931004 0
M  V30 47 H 4.941055 -7.403863 -0.966422 0
M  V30 48 H 5.830417 -5.047796 -1.171834 0
M  V30 49 H 2.303861 0.392754 -1.844962 0
M  V30 50 H 3.786256 1.166053 -3.624359 0
M  V30 51 H 4.831075 2.051742 -2.457807 0
M  V30 52 H 3.260641 3.729634 -2.310517 0
M  V30 53 H 2.346021 2.914765 -3.601267 0
M  V30 54 H 0.066800 3.134670 -2.770356 0
M  V30 55 H 0.559288 1.471855 -3.070333 0
M  V30 56 H -1.520993 3.633549 -0.901619 0
M  V30 57 H -3.252410 2.587137 0.602238 0
M  V30 58 H -7.573587 -4.931677 2.598359 0
M  V30 59 H -8.771991 -3.617787 2.584249 0
M  V30 60 H -8.277033 -4.400348 1.068387 0
M  V30 61 H -4.907159 -0.414084 4.262283 0
M  V30 62 H -4.710049 2.318237 3.636353 0
M  V30 63 H -3.412076 4.015947 4.759262 0
M  V30 64 H -0.963323 3.923900 5.030917 0
M  V30 65 H -1.105675 0.158977 2.890449 0
M  V30 66 H -1.590314 -1.303600 -0.141404 0
M  V30 67 H 0.025519 -0.257323 -1.537241 0
M  V30 68 H 2.070758 3.095605 0.279175 0
M  V30 69 H 1.222866 1.545408 0.068270 0
M  V30 70 H 4.109928 2.138198 -0.246550 0
M  V30 71 H 3.310602 0.682805 0.570276 0
M  V30 72 H 6.345616 -2.902457 -1.369294 0
M  V30 END ATOM
M  V30 BEGIN BOND
M  V30 1 1 1 2
M  V30 2 2 2 3
M  V30 3 1 3 4
M  V30 4 2 4 5
M  V30 5 1 5 6
M  V30 6 1 6 7
M  V30 7 2 7 8
M  V30 8 1 8 9
M  V30 9 1 9 10
M  V30 10 1 10 11
M  V30 11 1 11 12
M  V30 12 1 12 13
M  V30 13 1 13 14
M  V30 14 1 14 15
M  V30 15 2 15 16
M  V30 16 1 16 17
M  V30 17 2 17 18
M  V30 18 1 18 19
M  V30 19 2 19 20
M  V30 20 1 20 21
M  V30 21 2 21 22
M  V30 22 1 22 23
M  V30 23 1 23 24
M  V30 24 2 23 25
M  V30 25 1 25 26
M  V30 26 1 26 27
M  V30 27 2 27 28
M  V30 28 1 28 29
M  V30 29 2 29 30
M  V30 30 1 30 31
M  V30 31 2 31 32
M  V30 32 1 32 33
M  V30 33 1 33 34
M  V30 34 2 33 35
M  V30 35 1 18 36
M  V30 36 2 36 37
M  V30 37 1 13 38
M  V30 38 1 38 39
M  V30 39 2 9 40
M  V30 40 1 40 41
M  V30 41 2 6 42
M  V30 42 1 42 2
M  V30 43 1 41 7
M  V30 44 1 39 10
M  V30 45 1 37 15
M  V30 46 1 28 19
M  V30 47 1 35 29
M  V30 48 1 26 21
M  V30 49 1 1 43
M  V30 50 1 1 44
M  V30 51 1 1 45
M  V30 52 1 3 46
M  V30 53 1 4 47
M  V30 54 1 5 48
M  V30 55 1 10 49
M  V30 56 1 11 50
M  V30 57 1 11 51
M  V30 58 1 12 52
M  V30 59 1 12 53
M  V30 60 1 14 54
M  V30 61 1 14 55
M  V30 62 1 16 56
M  V30 63 1 17 57
M  V30 64 1 24 58
M  V30 65 1 24 59
M  V30 66 1 24 60
M  V30 67 1 27 61
M  V30 68 1 30 62
M  V30 69 1 31 63
M  V30 70 1 32 64
M  V30 71 1 35 65
M  V30 72 1 36 66
M  V30 73 1 37 67
M  V30 74 1 38 68
M  V30 75 1 38 69
M  V30 76 1 39 70
M  V30 77 1 39 71
M  V30 78 1 41 72
M  V30 END BOND
M  V30 END CTAB
M  END
>  <Dataset>  (537) 
ChEMBL_Kinases

>  <Ligand_Instance>  (537) 
nan

>  <PDB_ID>  (537) 
nan

>  <Standardized_SMILES>  (537) 
Cc1cccc(-c2nc(C3CCN(Cc4ccc(-c5nc6nc(C)nn6cc5-c5cccc(F)c5)cc4)CC3)n[nH]2)n1

>  <Name>  (537) 
nan

>  <Pocket>  (537) 
nan

>  <ATP_Site>  (537) 
nan

>  <Peripheral>  (537) 
nan

>  <Num_H_Atoms_ProtBoundConf>  (537) 
nan

>  <Num_Resolved_Atoms>  (537) 
nan

>  <Num_Not_Resolved_Atoms>  (537) 
nan

$$$$
CHEMBL3355549
     RDKit          3D

  0  0  0  0  0  0  0  0  0  0999 V3000
M  V30 BEGIN CTAB
M  V30 COUNTS 49 52 0 0 0
M  V30 BEGIN ATOM
M  V30 1 O 2.662573 -5.955516 0.761552 0
M  V30 2 S 1.556309 -4.994801 0.515448 0
M  V30 3 O 0.507578 -5.552097 -0.410850 0
M  V30 4 C 2.264199 -3.506409 -0.164330 0
M  V30 5 C 1.472661 -2.351741 0.388896 0
M  V30 6 C 1.683159 -2.142558 1.875422 0
M  V30 7 C 2.983597 -1.420643 2.110666 0
M  V30 8 N 3.043580 -0.128446 1.482924 0
M  V30 9 C 2.345692 1.067341 1.572145 0
M  V30 10 C 2.659941 2.235887 2.237986 0
M  V30 11 C 1.845771 3.351112 2.233844 0
M  V30 12 N 0.692764 3.198669 1.507546 0
M  V30 13 N -0.248381 4.129533 1.358086 0
M  V30 14 C -1.259307 3.687188 0.597957 0
M  V30 15 C -0.904620 2.381009 0.256657 0
M  V30 16 C -1.644672 1.393639 -0.563051 0
M  V30 17 C -1.058830 0.578924 -1.514289 0
M  V30 18 C -1.867407 -0.295116 -2.207802 0
M  V30 19 C -3.228581 -0.395338 -2.000585 0
M  V30 20 C -3.771281 0.446000 -1.032501 0
M  V30 21 O -5.122955 0.454761 -0.718134 0
M  V30 22 C -5.720023 -0.340615 0.258772 0
M  V30 23 F -5.585072 -1.693148 0.057760 0
M  V30 24 F -5.292513 -0.026538 1.540083 0
M  V30 25 F -7.086574 -0.043501 0.222895 0
M  V30 26 C -3.019894 1.361960 -0.283208 0
M  V30 27 C 0.315445 2.088995 0.830637 0
M  V30 28 N 1.186834 1.120039 0.929475 0
M  V30 29 C 1.692153 -3.420338 2.653023 0
M  V30 30 C 0.812297 -4.493770 2.056369 0
M  V30 31 H 2.028830 -3.530955 -1.255724 0
M  V30 32 H 3.343142 -3.436127 -0.065446 0
M  V30 33 H 1.803930 -1.429776 -0.118798 0
M  V30 34 H 0.413469 -2.508348 0.157211 0
M  V30 35 H 0.792228 -1.565693 2.188775 0
M  V30 36 H 3.184128 -1.280478 3.191105 0
M  V30 37 H 3.823726 -2.017472 1.708469 0
M  V30 38 H 3.710569 0.224030 0.731152 0
M  V30 39 H 3.622713 2.202784 2.778047 0
M  V30 40 H 2.129731 4.243758 2.766897 0
M  V30 41 H -2.186321 4.125125 0.251314 0
M  V30 42 H 0.009661 0.675173 -1.660771 0
M  V30 43 H -1.392982 -0.938928 -2.960730 0
M  V30 44 H -3.864419 -1.081078 -2.541758 0
M  V30 45 H -3.467942 1.999306 0.458929 0
M  V30 46 H 2.730748 -3.859316 2.705480 0
M  V30 47 H 1.379721 -3.291401 3.712661 0
M  V30 48 H -0.186764 -4.043060 1.872267 0
M  V30 49 H 0.804289 -5.329478 2.773124 0
M  V30 END ATOM
M  V30 BEGIN BOND
M  V30 1 2 1 2
M  V30 2 2 2 3
M  V30 3 1 2 4
M  V30 4 1 4 5
M  V30 5 1 5 6
M  V30 6 1 6 7
M  V30 7 1 7 8
M  V30 8 1 8 9
M  V30 9 1 9 10
M  V30 10 2 10 11
M  V30 11 1 11 12
M  V30 12 1 12 13
M  V30 13 2 13 14
M  V30 14 1 14 15
M  V30 15 1 15 16
M  V30 16 2 16 17
M  V30 17 1 17 18
M  V30 18 2 18 19
M  V30 19 1 19 20
M  V30 20 1 20 21
M  V30 21 1 21 22
M  V30 22 1 22 23
M  V30 23 1 22 24
M  V30 24 1 22 25
M  V30 25 2 20 26
M  V30 26 2 15 27
M  V30 27 1 27 28
M  V30 28 1 6 29
M  V30 29 1 29 30
M  V30 30 1 30 2
M  V30 31 2 28 9
M  V30 32 1 27 12
M  V30 33 1 26 16
M  V30 34 1 4 31
M  V30 35 1 4 32
M  V30 36 1 5 33
M  V30 37 1 5 34
M  V30 38 1 6 35
M  V30 39 1 7 36
M  V30 40 1 7 37
M  V30 41 1 8 38
M  V30 42 1 10 39
M  V30 43 1 11 40
M  V30 44 1 14 41
M  V30 45 1 17 42
M  V30 46 1 18 43
M  V30 47 1 19 44
M  V30 48 1 26 45
M  V30 49 1 29 46
M  V30 50 1 29 47
M  V30 51 1 30 48
M  V30 52 1 30 49
M  V30 END BOND
M  V30 END CTAB
M  END
>  <Dataset>  (538) 
ChEMBL_Kinases

>  <Ligand_Instance>  (538) 
nan

>  <PDB_ID>  (538) 
nan

>  <Standardized_SMILES>  (538) 
O=S1(=O)CCC(CNc2ccn3ncc(-c4cccc(OC(F)(F)F)c4)c3n2)CC1

>  <Name>  (538) 
nan

>  <Pocket>  (538) 
nan

>  <ATP_Site>  (538) 
nan

>  <Peripheral>  (538) 
nan

>  <Num_H_Atoms_ProtBoundConf>  (538) 
nan

>  <Num_Resolved_Atoms>  (538) 
nan

>  <Num_Not_Resolved_Atoms>  (538) 
nan

$$$$
CHEMBL3355550
     RDKit          3D

  0  0  0  0  0  0  0  0  0  0999 V3000
M  V30 BEGIN CTAB
M  V30 COUNTS 46 49 0 0 0
M  V30 BEGIN ATOM
M  V30 1 O -4.195500 -0.935858 2.150764 0
M  V30 2 C -3.218218 -0.467995 1.275612 0 CFG=1
M  V30 3 C -1.876576 -0.615240 1.961304 0
M  V30 4 C -1.507374 -2.040382 2.208640 0
M  V30 5 C -1.752334 -2.970043 1.054921 0 CFG=2
M  V30 6 N -0.639592 -3.853404 0.873861 0
M  V30 7 C 0.656745 -3.341299 0.600509 0
M  V30 8 C 1.742211 -4.182921 0.421283 0
M  V30 9 C 3.025209 -3.749481 0.155201 0
M  V30 10 N 3.242739 -2.421784 0.062522 0
M  V30 11 N 4.367410 -1.760030 -0.180474 0
M  V30 12 C 4.112922 -0.424981 -0.180946 0
M  V30 13 C 2.761873 -0.332748 0.077666 0
M  V30 14 C 2.034673 0.940570 0.169949 0
M  V30 15 C 0.820279 1.084996 -0.467544 0
M  V30 16 C 0.175016 2.281977 -0.356907 0
M  V30 17 C 0.694691 3.334162 0.362824 0
M  V30 18 C 1.917713 3.211691 1.014103 0
M  V30 19 C 2.508137 4.330469 1.801202 0
M  V30 20 F 2.280002 5.492994 1.099203 0
M  V30 21 F 1.890339 4.458655 3.037608 0
M  V30 22 F 3.856797 4.157130 1.949402 0
M  V30 23 C 2.547538 2.000388 0.888830 0
M  V30 24 C 2.196826 -1.583472 0.234171 0
M  V30 25 N 0.951694 -2.033763 0.493375 0
M  V30 26 C -2.056031 -2.146596 -0.168879 0
M  V30 27 C -3.290438 -1.293133 0.015890 0
M  V30 28 H -4.660526 -0.158656 2.599351 0
M  V30 29 H -3.441017 0.595320 1.048729 0
M  V30 30 H -1.843247 -0.029507 2.891480 0
M  V30 31 H -1.137684 -0.172269 1.262827 0
M  V30 32 H -2.038504 -2.437878 3.104732 0
M  V30 33 H -0.401203 -2.096683 2.443312 0
M  V30 34 H -2.700931 -3.537717 1.275847 0
M  V30 35 H -0.751148 -4.887515 0.937565 0
M  V30 36 H 1.561087 -5.251372 0.496811 0
M  V30 37 H 3.867384 -4.413910 0.017077 0
M  V30 38 H 4.875451 0.322181 -0.356988 0
M  V30 39 H 0.460739 0.225265 -1.018484 0
M  V30 40 H -0.773032 2.400974 -0.852000 0
M  V30 41 H 0.152055 4.266138 0.426193 0
M  V30 42 H 3.509313 1.926197 1.410147 0
M  V30 43 H -2.314591 -2.866538 -0.980845 0
M  V30 44 H -1.183560 -1.569514 -0.520254 0
M  V30 45 H -4.218995 -1.892862 0.001415 0
M  V30 46 H -3.320044 -0.608027 -0.853107 0
M  V30 END ATOM
M  V30 BEGIN BOND
M  V30 1 1 1 2
M  V30 2 1 2 3
M  V30 3 1 3 4
M  V30 4 1 4 5
M  V30 5 1 5 6
M  V30 6 1 6 7
M  V30 7 1 7 8
M  V30 8 2 8 9
M  V30 9 1 9 10
M  V30 10 1 10 11
M  V30 11 2 11 12
M  V30 12 1 12 13
M  V30 13 1 13 14
M  V30 14 2 14 15
M  V30 15 1 15 16
M  V30 16 2 16 17
M  V30 17 1 17 18
M  V30 18 1 18 19
M  V30 19 1 19 20
M  V30 20 1 19 21
M  V30 21 1 19 22
M  V30 22 2 18 23
M  V30 23 2 13 24
M  V30 24 1 24 25
M  V30 25 1 5 26
M  V30 26 1 26 27
M  V30 27 1 27 2
M  V30 28 2 25 7
M  V30 29 1 24 10
M  V30 30 1 23 14
M  V30 31 1 1 28
M  V30 32 1 2 29 CFG=3
M  V30 33 1 3 30
M  V30 34 1 3 31
M  V30 35 1 4 32
M  V30 36 1 4 33
M  V30 37 1 5 34 CFG=1
M  V30 38 1 6 35
M  V30 39 1 8 36
M  V30 40 1 9 37
M  V30 41 1 12 38
M  V30 42 1 15 39
M  V30 43 1 16 40
M  V30 44 1 17 41
M  V30 45 1 23 42
M  V30 46 1 26 43
M  V30 47 1 26 44
M  V30 48 1 27 45
M  V30 49 1 27 46
M  V30 END BOND
M  V30 END CTAB
M  END
>  <Dataset>  (539) 
ChEMBL_Kinases

>  <Ligand_Instance>  (539) 
nan

>  <PDB_ID>  (539) 
nan

>  <Standardized_SMILES>  (539) 
O[C@H]1CC[C@H](Nc2ccn3ncc(-c4cccc(C(F)(F)F)c4)c3n2)CC1

>  <Name>  (539) 
nan

>  <Pocket>  (539) 
nan

>  <ATP_Site>  (539) 
nan

>  <Peripheral>  (539) 
nan

>  <Num_H_Atoms_ProtBoundConf>  (539) 
nan

>  <Num_Resolved_Atoms>  (539) 
nan

>  <Num_Not_Resolved_Atoms>  (539) 
nan

$$$$
CHEMBL3672069
     RDKit          3D

  0  0  0  0  0  0  0  0  0  0999 V3000
M  V30 BEGIN CTAB
M  V30 COUNTS 66 72 0 0 0
M  V30 BEGIN ATOM
M  V30 1 C 6.681647 -0.049057 2.852810 0
M  V30 2 N 5.390165 0.296063 2.311874 0
M  V30 3 C 4.705442 1.506150 2.106351 0
M  V30 4 C 3.428689 1.485319 1.527881 0
M  V30 5 C 2.807823 0.227021 1.138393 0
M  V30 6 C 2.422502 -0.855228 1.890179 0
M  V30 7 C 1.847115 -1.950683 1.285156 0
M  V30 8 C 1.628343 -2.027342 -0.073359 0
M  V30 9 C 2.018611 -0.929018 -0.841890 0
M  V30 10 C 2.603260 0.189113 -0.243391 0
M  V30 11 C 2.720865 2.639242 1.306498 0
M  V30 12 C 1.397414 2.568393 0.703964 0
M  V30 13 C 0.506008 1.873072 1.502164 0
M  V30 14 C -0.818394 1.672585 1.139053 0
M  V30 15 C -1.256406 2.195160 -0.076748 0
M  V30 16 C -2.669599 2.010605 -0.521335 0
M  V30 17 N -2.807794 0.797519 -1.293659 0
M  V30 18 C -2.445833 -0.425396 -0.582031 0
M  V30 19 C -3.519045 -1.094151 -1.452841 0
M  V30 20 C -4.207075 -2.230466 -0.806947 0
M  V30 21 N -4.824404 -2.236377 0.396529 0
M  V30 22 N -5.318579 -3.465142 0.606483 0
M  V30 23 C -5.007989 -4.217105 -0.463626 0
M  V30 24 C -5.344905 -5.620016 -0.668404 0
M  V30 25 C -4.968030 -6.285077 -1.815109 0
M  V30 26 C -5.265121 -7.609865 -2.050460 0
M  V30 27 C -5.982259 -8.343934 -1.100718 0
M  V30 28 C -6.342551 -7.640470 0.037204 0
M  V30 29 N -6.032917 -6.345356 0.229919 0
M  V30 30 N -4.322427 -3.461633 -1.339216 0
M  V30 31 C -4.154925 0.254965 -1.342299 0
M  V30 32 C -0.370413 2.883027 -0.864000 0
M  V30 33 C 0.941135 3.082062 -0.505369 0
M  V30 34 N 3.276889 3.810490 1.657369 0
M  V30 35 C 4.497424 3.885048 2.215143 0
M  V30 36 N 5.218627 4.939311 2.631656 0
M  V30 37 C 6.401245 4.480439 3.127462 0
M  V30 38 C 6.304012 3.114552 2.966588 0
M  V30 39 N 5.146423 2.723695 2.409400 0
M  V30 40 H 7.514384 0.427841 2.257099 0
M  V30 41 H 6.832629 0.250926 3.906587 0
M  V30 42 H 6.899982 -1.148219 2.727245 0
M  V30 43 H 4.861703 -0.578596 2.011565 0
M  V30 44 H 2.629720 -0.711573 2.939996 0
M  V30 45 H 1.581081 -2.753793 1.986697 0
M  V30 46 H 1.176610 -2.903539 -0.493279 0
M  V30 47 H 1.836645 -1.010345 -1.910886 0
M  V30 48 H 2.848583 0.953278 -0.974593 0
M  V30 49 H 0.721238 1.416513 2.472125 0
M  V30 50 H -1.544248 1.136358 1.733485 0
M  V30 51 H -2.895778 2.846881 -1.214322 0
M  V30 52 H -3.363331 2.049673 0.329824 0
M  V30 53 H -2.819266 -0.449236 0.462721 0
M  V30 54 H -1.431738 -0.804277 -0.764395 0
M  V30 55 H -3.089031 -1.331681 -2.438173 0
M  V30 56 H -5.854566 -3.754929 1.476539 0
M  V30 57 H -4.405616 -5.726488 -2.570655 0
M  V30 58 H -4.973303 -8.146958 -2.952746 0
M  V30 59 H -6.262917 -9.377971 -1.189065 0
M  V30 60 H -6.902619 -8.145402 0.821139 0
M  V30 61 H -4.743473 0.331895 -0.411835 0
M  V30 62 H -4.731666 0.523980 -2.250133 0
M  V30 63 H -0.660928 3.311696 -1.822672 0
M  V30 64 H 1.719265 3.603190 -1.043064 0
M  V30 65 H 7.204937 5.070613 3.541728 0
M  V30 66 H 7.123509 2.498347 3.285633 0
M  V30 END ATOM
M  V30 BEGIN BOND
M  V30 1 1 1 2
M  V30 2 1 2 3
M  V30 3 2 3 4
M  V30 4 1 4 5
M  V30 5 2 5 6
M  V30 6 1 6 7
M  V30 7 2 7 8
M  V30 8 1 8 9
M  V30 9 2 9 10
M  V30 10 1 4 11
M  V30 11 1 11 12
M  V30 12 2 12 13
M  V30 13 1 13 14
M  V30 14 2 14 15
M  V30 15 1 15 16
M  V30 16 1 16 17
M  V30 17 1 17 18
M  V30 18 1 18 19
M  V30 19 1 19 20
M  V30 20 2 20 21
M  V30 21 1 21 22
M  V30 22 1 22 23
M  V30 23 1 23 24
M  V30 24 2 24 25
M  V30 25 1 25 26
M  V30 26 2 26 27
M  V30 27 1 27 28
M  V30 28 2 28 29
M  V30 29 2 23 30
M  V30 30 1 19 31
M  V30 31 1 15 32
M  V30 32 2 32 33
M  V30 33 2 11 34
M  V30 34 1 34 35
M  V30 35 2 35 36
M  V30 36 1 36 37
M  V30 37 2 37 38
M  V30 38 1 38 39
M  V30 39 1 39 3
M  V30 40 1 10 5
M  V30 41 1 33 12
M  V30 42 1 39 35
M  V30 43 1 31 17
M  V30 44 1 30 20
M  V30 45 1 29 24
M  V30 46 1 1 40
M  V30 47 1 1 41
M  V30 48 1 1 42
M  V30 49 1 2 43
M  V30 50 1 6 44
M  V30 51 1 7 45
M  V30 52 1 8 46
M  V30 53 1 9 47
M  V30 54 1 10 48
M  V30 55 1 13 49
M  V30 56 1 14 50
M  V30 57 1 16 51
M  V30 58 1 16 52
M  V30 59 1 18 53
M  V30 60 1 18 54
M  V30 61 1 19 55
M  V30 62 1 22 56
M  V30 63 1 25 57
M  V30 64 1 26 58
M  V30 65 1 27 59
M  V30 66 1 28 60
M  V30 67 1 31 61
M  V30 68 1 31 62
M  V30 69 1 32 63
M  V30 70 1 33 64
M  V30 71 1 37 65
M  V30 72 1 38 66
M  V30 END BOND
M  V30 END CTAB
M  END
>  <Dataset>  (540) 
ChEMBL_Kinases

>  <Ligand_Instance>  (540) 
nan

>  <PDB_ID>  (540) 
nan

>  <Standardized_SMILES>  (540) 
CNc1c(-c2ccccc2)c(-c2ccc(CN3CC(c4n[nH]c(-c5ccccn5)n4)C3)cc2)nc2nccn12

>  <Name>  (540) 
nan

>  <Pocket>  (540) 
nan

>  <ATP_Site>  (540) 
nan

>  <Peripheral>  (540) 
nan

>  <Num_H_Atoms_ProtBoundConf>  (540) 
nan

>  <Num_Resolved_Atoms>  (540) 
nan

>  <Num_Not_Resolved_Atoms>  (540) 
nan

$$$$
CHEMBL3355552
     RDKit          3D

  0  0  0  0  0  0  0  0  0  0999 V3000
M  V30 BEGIN CTAB
M  V30 COUNTS 55 58 0 0 0
M  V30 BEGIN ATOM
M  V30 1 C 0.481541 -2.638526 4.118063 0
M  V30 2 C 1.520901 -3.013700 3.118981 0
M  V30 3 C 2.716653 -3.499921 3.976830 0
M  V30 4 O 1.039189 -4.160886 2.443457 0
M  V30 5 C 2.001129 -1.978685 2.163983 0 CFG=1
M  V30 6 C 2.990144 -2.568970 1.216730 0
M  V30 7 C 2.568922 -2.863457 -0.177863 0
M  V30 8 C 1.486756 -1.936443 -0.728422 0 CFG=2
M  V30 9 N 2.047932 -0.660471 -0.962359 0
M  V30 10 C 1.500351 0.631455 -1.278594 0
M  V30 11 C 2.309229 1.788692 -1.485962 0
M  V30 12 C 1.686541 3.080916 -1.723647 0
M  V30 13 N 0.403283 2.777316 -1.669089 0
M  V30 14 N -0.180958 3.997484 -1.858121 0
M  V30 15 C -1.525826 3.847295 -1.837812 0
M  V30 16 C -1.821335 2.559500 -1.646516 0
M  V30 17 C -2.964857 1.612018 -1.479435 0
M  V30 18 C -3.890404 1.313495 -2.502891 0
M  V30 19 C -4.820876 0.485875 -2.004429 0
M  V30 20 C -5.076031 -0.106755 -0.813311 0
M  V30 21 C -4.108770 0.250578 0.122544 0
M  V30 22 C -4.247906 -0.297216 1.487118 0
M  V30 23 F -3.126777 -0.971362 1.884284 0
M  V30 24 F -4.528435 0.718472 2.380572 0
M  V30 25 F -5.308100 -1.191669 1.589641 0
M  V30 26 C -3.057781 1.096865 -0.183715 0
M  V30 27 C -0.527800 1.890754 -1.522442 0
M  V30 28 N 0.197628 0.807261 -1.321161 0
M  V30 29 C 0.382518 -1.995601 0.315177 0
M  V30 30 C 0.931512 -1.220343 1.492120 0
M  V30 31 H 0.043972 -1.655484 3.857336 0
M  V30 32 H 0.828649 -2.541032 5.189291 0
M  V30 33 H -0.399968 -3.359267 4.082634 0
M  V30 34 H 3.360661 -2.613559 4.253523 0
M  V30 35 H 3.354217 -4.217508 3.443305 0
M  V30 36 H 2.308007 -3.941524 4.892626 0
M  V30 37 H 0.391031 -4.651760 3.005117 0
M  V30 38 H 2.560050 -1.212372 2.840460 0
M  V30 39 H 3.466367 -3.499345 1.647912 0
M  V30 40 H 3.868250 -1.852004 1.149426 0
M  V30 41 H 3.398031 -2.994163 -0.876432 0
M  V30 42 H 2.052966 -3.878742 -0.151295 0
M  V30 43 H 1.054990 -2.340917 -1.664635 0
M  V30 44 H 3.073494 -0.644887 -0.868583 0
M  V30 45 H 3.361812 1.476029 -1.395356 0
M  V30 46 H 2.492631 3.735766 -1.828752 0
M  V30 47 H -2.319527 4.556566 -1.925691 0
M  V30 48 H -3.556850 1.819155 -3.373482 0
M  V30 49 H -5.476131 0.269684 -2.868978 0
M  V30 50 H -5.948341 -0.727444 -0.717277 0
M  V30 51 H -2.285538 1.359698 0.570170 0
M  V30 52 H 0.264276 -3.064949 0.585345 0
M  V30 53 H -0.602758 -1.630832 -0.055184 0
M  V30 54 H 1.446985 -0.281605 1.074150 0
M  V30 55 H 0.129433 -0.804409 2.127885 0
M  V30 END ATOM
M  V30 BEGIN BOND
M  V30 1 1 1 2
M  V30 2 1 2 3
M  V30 3 1 2 4
M  V30 4 1 2 5
M  V30 5 1 5 6
M  V30 6 1 6 7
M  V30 7 1 7 8
M  V30 8 1 8 9
M  V30 9 1 9 10
M  V30 10 1 10 11
M  V30 11 2 11 12
M  V30 12 1 12 13
M  V30 13 1 13 14
M  V30 14 2 14 15
M  V30 15 1 15 16
M  V30 16 1 16 17
M  V30 17 2 17 18
M  V30 18 1 18 19
M  V30 19 2 19 20
M  V30 20 1 20 21
M  V30 21 1 21 22
M  V30 22 1 22 23
M  V30 23 1 22 24
M  V30 24 1 22 25
M  V30 25 2 21 26
M  V30 26 2 16 27
M  V30 27 1 27 28
M  V30 28 1 8 29
M  V30 29 1 29 30
M  V30 30 1 30 5
M  V30 31 2 28 10
M  V30 32 1 27 13
M  V30 33 1 26 17
M  V30 34 1 1 31
M  V30 35 1 1 32
M  V30 36 1 1 33
M  V30 37 1 3 34
M  V30 38 1 3 35
M  V30 39 1 3 36
M  V30 40 1 4 37
M  V30 41 1 5 38 CFG=1
M  V30 42 1 6 39
M  V30 43 1 6 40
M  V30 44 1 7 41
M  V30 45 1 7 42
M  V30 46 1 8 43 CFG=3
M  V30 47 1 9 44
M  V30 48 1 11 45
M  V30 49 1 12 46
M  V30 50 1 15 47
M  V30 51 1 18 48
M  V30 52 1 19 49
M  V30 53 1 20 50
M  V30 54 1 26 51
M  V30 55 1 29 52
M  V30 56 1 29 53
M  V30 57 1 30 54
M  V30 58 1 30 55
M  V30 END BOND
M  V30 END CTAB
M  END
>  <Dataset>  (541) 
ChEMBL_Kinases

>  <Ligand_Instance>  (541) 
nan

>  <PDB_ID>  (541) 
nan

>  <Standardized_SMILES>  (541) 
CC(C)(O)[C@H]1CC[C@H](Nc2ccn3ncc(-c4cccc(C(F)(F)F)c4)c3n2)CC1

>  <Name>  (541) 
nan

>  <Pocket>  (541) 
nan

>  <ATP_Site>  (541) 
nan

>  <Peripheral>  (541) 
nan

>  <Num_H_Atoms_ProtBoundConf>  (541) 
nan

>  <Num_Resolved_Atoms>  (541) 
nan

>  <Num_Not_Resolved_Atoms>  (541) 
nan

$$$$
CHEMBL3355553
     RDKit          3D

  0  0  0  0  0  0  0  0  0  0999 V3000
M  V30 BEGIN CTAB
M  V30 COUNTS 49 52 0 0 0
M  V30 BEGIN ATOM
M  V30 1 C -0.477142 -4.300555 3.506970 0
M  V30 2 O 0.327152 -3.607483 2.617778 0
M  V30 3 C 0.330331 -4.166071 1.349140 0 CFG=1
M  V30 4 C -0.133143 -3.089416 0.398099 0
M  V30 5 C 0.996749 -2.253178 -0.153234 0
M  V30 6 C 2.001604 -2.036107 0.945848 0 CFG=2
M  V30 7 N 2.999328 -1.034682 0.607980 0
M  V30 8 C 2.657414 0.312231 0.315117 0
M  V30 9 C 3.591806 1.271512 -0.008112 0
M  V30 10 C 3.295924 2.584931 -0.296341 0
M  V30 11 N 2.012696 2.988413 -0.268070 0
M  V30 12 N 1.371098 4.138322 -0.482938 0
M  V30 13 C 0.046641 3.972161 -0.313052 0
M  V30 14 C -0.193392 2.636582 0.033030 0
M  V30 15 C -1.455638 1.952960 0.321790 0
M  V30 16 C -1.472182 1.116217 1.435290 0
M  V30 17 C -2.600778 0.394403 1.841707 0
M  V30 18 C -3.752551 0.547814 1.063282 0
M  V30 19 C -3.750314 1.383034 -0.055290 0
M  V30 20 C -4.977593 1.533825 -0.867747 0
M  V30 21 F -5.043747 2.799496 -1.415845 0
M  V30 22 F -6.045429 1.335756 -0.013630 0
M  V30 23 F -5.028764 0.537089 -1.831687 0
M  V30 24 C -2.617515 2.081336 -0.428097 0
M  V30 25 C 1.078372 2.068869 0.045549 0
M  V30 26 N 1.403793 0.799588 0.320225 0
M  V30 27 C 2.642831 -3.360542 1.266635 0
M  V30 28 C 1.750675 -4.546901 0.999699 0
M  V30 29 H -0.413755 -3.783073 4.480031 0
M  V30 30 H -0.138114 -5.347030 3.622934 0
M  V30 31 H -1.534314 -4.246548 3.142612 0
M  V30 32 H -0.322607 -5.075856 1.288572 0
M  V30 33 H -0.649016 -3.600437 -0.447941 0
M  V30 34 H -0.853179 -2.398718 0.889538 0
M  V30 35 H 1.468753 -2.832342 -0.977141 0
M  V30 36 H 0.594804 -1.288678 -0.468076 0
M  V30 37 H 1.436215 -1.695136 1.857824 0
M  V30 38 H 4.013007 -1.275969 0.569050 0
M  V30 39 H 4.649498 1.010644 -0.048721 0
M  V30 40 H 4.049061 3.318948 -0.547407 0
M  V30 41 H -0.769865 4.684828 -0.405182 0
M  V30 42 H -0.599888 0.984242 2.045993 0
M  V30 43 H -2.554015 -0.240922 2.716671 0
M  V30 44 H -4.637244 -0.000998 1.359063 0
M  V30 45 H -2.564905 2.740561 -1.285679 0
M  V30 46 H 3.494324 -3.458471 0.531530 0
M  V30 47 H 3.053430 -3.399007 2.307771 0
M  V30 48 H 1.840905 -4.913138 -0.045509 0
M  V30 49 H 2.071582 -5.349953 1.725570 0
M  V30 END ATOM
M  V30 BEGIN BOND
M  V30 1 1 1 2
M  V30 2 1 2 3
M  V30 3 1 3 4
M  V30 4 1 4 5
M  V30 5 1 5 6
M  V30 6 1 6 7
M  V30 7 1 7 8
M  V30 8 1 8 9
M  V30 9 2 9 10
M  V30 10 1 10 11
M  V30 11 1 11 12
M  V30 12 2 12 13
M  V30 13 1 13 14
M  V30 14 1 14 15
M  V30 15 2 15 16
M  V30 16 1 16 17
M  V30 17 2 17 18
M  V30 18 1 18 19
M  V30 19 1 19 20
M  V30 20 1 20 21
M  V30 21 1 20 22
M  V30 22 1 20 23
M  V30 23 2 19 24
M  V30 24 2 14 25
M  V30 25 1 25 26
M  V30 26 1 6 27
M  V30 27 1 27 28
M  V30 28 1 28 3
M  V30 29 2 26 8
M  V30 30 1 25 11
M  V30 31 1 24 15
M  V30 32 1 1 29
M  V30 33 1 1 30
M  V30 34 1 1 31
M  V30 35 1 3 32 CFG=1
M  V30 36 1 4 33
M  V30 37 1 4 34
M  V30 38 1 5 35
M  V30 39 1 5 36
M  V30 40 1 6 37 CFG=1
M  V30 41 1 7 38
M  V30 42 1 9 39
M  V30 43 1 10 40
M  V30 44 1 13 41
M  V30 45 1 16 42
M  V30 46 1 17 43
M  V30 47 1 18 44
M  V30 48 1 24 45
M  V30 49 1 27 46
M  V30 50 1 27 47
M  V30 51 1 28 48
M  V30 52 1 28 49
M  V30 END BOND
M  V30 END CTAB
M  END
>  <Dataset>  (542) 
ChEMBL_Kinases

>  <Ligand_Instance>  (542) 
nan

>  <PDB_ID>  (542) 
nan

>  <Standardized_SMILES>  (542) 
CO[C@H]1CC[C@H](Nc2ccn3ncc(-c4cccc(C(F)(F)F)c4)c3n2)CC1

>  <Name>  (542) 
nan

>  <Pocket>  (542) 
nan

>  <ATP_Site>  (542) 
nan

>  <Peripheral>  (542) 
nan

>  <Num_H_Atoms_ProtBoundConf>  (542) 
nan

>  <Num_Resolved_Atoms>  (542) 
nan

>  <Num_Not_Resolved_Atoms>  (542) 
nan

$$$$
CHEMBL3355554
     RDKit          3D

  0  0  0  0  0  0  0  0  0  0999 V3000
M  V30 BEGIN CTAB
M  V30 COUNTS 46 49 0 0 0
M  V30 BEGIN ATOM
M  V30 1 F 3.205800 -4.315259 1.748220 0
M  V30 2 C 2.487895 -4.134071 0.633989 0
M  V30 3 F 1.110450 -4.198293 0.907060 0
M  V30 4 F 2.779784 -5.103715 -0.263745 0
M  V30 5 C 2.774602 -2.799930 0.035265 0
M  V30 6 C 3.584248 -1.921740 0.640219 0
M  V30 7 C 3.905658 -0.633189 0.246658 0
M  V30 8 C 3.263192 -0.270471 -0.994856 0
M  V30 9 C 2.393191 -1.216251 -1.631598 0
M  V30 10 C 1.682171 -0.496862 -2.762391 0
M  V30 11 C 1.387520 -0.145808 -4.008951 0
M  V30 12 N 0.321157 0.653180 -4.109644 0
M  V30 13 N -0.158791 0.867472 -2.953561 0
M  V30 14 C -1.217052 1.548778 -2.505023 0
M  V30 15 C -1.708886 1.709953 -1.188151 0
M  V30 16 C -0.851849 0.985369 -0.335406 0
M  V30 17 N -0.523890 0.578228 0.943681 0
M  V30 18 C -0.180933 0.136412 2.270212 0
M  V30 19 C -1.281822 -0.807395 2.757666 0
M  V30 20 C -1.145211 -1.147292 4.188648 0
M  V30 21 C -1.374330 0.234938 4.840279 0
M  V30 22 O -2.646792 0.666527 4.571067 0
M  V30 23 C -2.990043 0.907314 3.244707 0
M  V30 24 C -2.670351 -0.335143 2.428886 0
M  V30 25 N 0.250588 0.271816 -0.746800 0
M  V30 26 C 0.632776 0.192571 -2.089779 0
M  V30 27 C 2.126224 -2.473686 -1.164871 0
M  V30 28 H 4.109554 -2.203147 1.552168 0
M  V30 29 H 4.571113 0.016726 0.701233 0
M  V30 30 H 3.473532 0.667885 -1.348820 0
M  V30 31 H 2.143681 -0.656674 -4.634691 0
M  V30 32 H -1.862616 2.140540 -3.084500 0
M  V30 33 H -2.279165 2.058663 -0.485468 0
M  V30 34 H -0.692428 1.598412 1.292113 0
M  V30 35 H 0.296628 0.748144 2.993854 0
M  V30 36 H 0.681053 -0.664508 2.060504 0
M  V30 37 H -1.174231 -1.828166 2.204054 0
M  V30 38 H -2.010358 -1.716390 4.490337 0
M  V30 39 H -0.220852 -1.569017 4.470314 0
M  V30 40 H -0.618866 0.974127 4.587142 0
M  V30 41 H -1.266125 0.089329 5.956707 0
M  V30 42 H -4.072816 1.018377 3.158329 0
M  V30 43 H -2.538427 1.795948 2.808064 0
M  V30 44 H -3.395318 -1.114369 2.804065 0
M  V30 45 H -2.863490 -0.072000 1.376704 0
M  V30 46 H 1.452118 -3.083800 -1.715987 0
M  V30 END ATOM
M  V30 BEGIN BOND
M  V30 1 1 1 2
M  V30 2 1 2 3
M  V30 3 1 2 4
M  V30 4 1 2 5
M  V30 5 2 5 6
M  V30 6 1 6 7
M  V30 7 2 7 8
M  V30 8 1 8 9
M  V30 9 1 9 10
M  V30 10 1 10 11
M  V30 11 2 11 12
M  V30 12 1 12 13
M  V30 13 1 13 14
M  V30 14 2 14 15
M  V30 15 1 15 16
M  V30 16 1 16 17
M  V30 17 1 17 18
M  V30 18 1 18 19
M  V30 19 1 19 20
M  V30 20 1 20 21
M  V30 21 1 21 22
M  V30 22 1 22 23
M  V30 23 1 23 24
M  V30 24 2 16 25
M  V30 25 1 25 26
M  V30 26 2 9 27
M  V30 27 1 27 5
M  V30 28 2 26 10
M  V30 29 1 26 13
M  V30 30 1 24 19
M  V30 31 1 6 28
M  V30 32 1 7 29
M  V30 33 1 8 30
M  V30 34 1 11 31
M  V30 35 1 14 32
M  V30 36 1 15 33
M  V30 37 1 17 34
M  V30 38 1 18 35
M  V30 39 1 18 36
M  V30 40 1 19 37
M  V30 41 1 20 38
M  V30 42 1 20 39
M  V30 43 1 21 40
M  V30 44 1 21 41
M  V30 45 1 23 42
M  V30 46 1 23 43
M  V30 47 1 24 44
M  V30 48 1 24 45
M  V30 49 1 27 46
M  V30 END BOND
M  V30 END CTAB
M  END
>  <Dataset>  (543) 
ChEMBL_Kinases

>  <Ligand_Instance>  (543) 
nan

>  <PDB_ID>  (543) 
nan

>  <Standardized_SMILES>  (543) 
FC(F)(F)c1cccc(-c2cnn3ccc(NCC4CCOCC4)nc23)c1

>  <Name>  (543) 
nan

>  <Pocket>  (543) 
nan

>  <ATP_Site>  (543) 
nan

>  <Peripheral>  (543) 
nan

>  <Num_H_Atoms_ProtBoundConf>  (543) 
nan

>  <Num_Resolved_Atoms>  (543) 
nan

>  <Num_Not_Resolved_Atoms>  (543) 
nan

$$$$
CHEMBL3355555
     RDKit          3D

  0  0  0  0  0  0  0  0  0  0999 V3000
M  V30 BEGIN CTAB
M  V30 COUNTS 48 51 0 0 0
M  V30 BEGIN ATOM
M  V30 1 O -0.271995 -4.496916 4.669154 0
M  V30 2 S -0.288516 -3.794209 3.354362 0
M  V30 3 O -1.676778 -3.815900 2.760468 0
M  V30 4 C 0.807285 -4.576480 2.162366 0
M  V30 5 C 0.863562 -3.624166 0.976345 0
M  V30 6 C 1.481006 -2.295454 1.352024 0
M  V30 7 C 2.752316 -2.068245 0.560905 0
M  V30 8 N 3.396566 -0.809787 0.873410 0
M  V30 9 C 2.752246 0.436143 0.678878 0
M  V30 10 C 3.351852 1.665811 0.973901 0
M  V30 11 C 2.763403 2.881458 0.799571 0
M  V30 12 N 1.523052 2.944066 0.313232 0
M  V30 13 N 0.726492 3.950637 0.046864 0
M  V30 14 C -0.445606 3.504277 -0.436755 0
M  V30 15 C -0.339493 2.138216 -0.459865 0
M  V30 16 C -1.396827 1.229234 -0.920210 0
M  V30 17 C -1.233182 0.136984 -1.757405 0
M  V30 18 C -2.326311 -0.623235 -2.101008 0
M  V30 19 C -3.590615 -0.325402 -1.631121 0
M  V30 20 C -3.773130 0.763745 -0.792473 0
M  V30 21 C -5.128546 1.133998 -0.251163 0
M  V30 22 F -5.452413 2.433329 -0.501303 0
M  V30 23 F -6.026732 0.227366 -0.779236 0
M  V30 24 F -5.067955 0.878115 1.119645 0
M  V30 25 C -2.662236 1.533251 -0.445548 0
M  V30 26 C 0.916282 1.786745 0.018819 0
M  V30 27 N 1.509898 0.607993 0.196944 0
M  V30 28 C 1.710317 -2.156047 2.842591 0
M  V30 29 C 0.313108 -2.117722 3.474691 0
M  V30 30 H 1.780407 -4.783061 2.608921 0
M  V30 31 H 0.322732 -5.501501 1.805723 0
M  V30 32 H -0.187014 -3.462905 0.657908 0
M  V30 33 H 1.452377 -4.091119 0.160347 0
M  V30 34 H 0.784202 -1.474144 1.085740 0
M  V30 35 H 2.430052 -1.991797 -0.516228 0
M  V30 36 H 3.439894 -2.911043 0.616402 0
M  V30 37 H 4.365631 -0.763129 1.256472 0
M  V30 38 H 4.375933 1.664524 1.377871 0
M  V30 39 H 3.300850 3.789580 1.054773 0
M  V30 40 H -1.278546 4.111688 -0.736461 0
M  V30 41 H -0.226768 -0.021276 -2.073359 0
M  V30 42 H -2.171531 -1.470493 -2.755920 0
M  V30 43 H -4.462117 -0.907857 -1.887653 0
M  V30 44 H -2.851793 2.370980 0.209255 0
M  V30 45 H 2.119560 -1.132096 2.984416 0
M  V30 46 H 2.349297 -2.936694 3.273124 0
M  V30 47 H -0.299608 -1.478391 2.781804 0
M  V30 48 H 0.313415 -1.726284 4.493505 0
M  V30 END ATOM
M  V30 BEGIN BOND
M  V30 1 2 1 2
M  V30 2 2 2 3
M  V30 3 1 2 4
M  V30 4 1 4 5
M  V30 5 1 5 6
M  V30 6 1 6 7
M  V30 7 1 7 8
M  V30 8 1 8 9
M  V30 9 1 9 10
M  V30 10 2 10 11
M  V30 11 1 11 12
M  V30 12 1 12 13
M  V30 13 2 13 14
M  V30 14 1 14 15
M  V30 15 1 15 16
M  V30 16 2 16 17
M  V30 17 1 17 18
M  V30 18 2 18 19
M  V30 19 1 19 20
M  V30 20 1 20 21
M  V30 21 1 21 22
M  V30 22 1 21 23
M  V30 23 1 21 24
M  V30 24 2 20 25
M  V30 25 2 15 26
M  V30 26 1 26 27
M  V30 27 1 6 28
M  V30 28 1 28 29
M  V30 29 1 29 2
M  V30 30 2 27 9
M  V30 31 1 26 12
M  V30 32 1 25 16
M  V30 33 1 4 30
M  V30 34 1 4 31
M  V30 35 1 5 32
M  V30 36 1 5 33
M  V30 37 1 6 34
M  V30 38 1 7 35
M  V30 39 1 7 36
M  V30 40 1 8 37
M  V30 41 1 10 38
M  V30 42 1 11 39
M  V30 43 1 14 40
M  V30 44 1 17 41
M  V30 45 1 18 42
M  V30 46 1 19 43
M  V30 47 1 25 44
M  V30 48 1 28 45
M  V30 49 1 28 46
M  V30 50 1 29 47
M  V30 51 1 29 48
M  V30 END BOND
M  V30 END CTAB
M  END
>  <Dataset>  (544) 
ChEMBL_Kinases

>  <Ligand_Instance>  (544) 
nan

>  <PDB_ID>  (544) 
nan

>  <Standardized_SMILES>  (544) 
O=S1(=O)CCC(CNc2ccn3ncc(-c4cccc(C(F)(F)F)c4)c3n2)CC1

>  <Name>  (544) 
nan

>  <Pocket>  (544) 
nan

>  <ATP_Site>  (544) 
nan

>  <Peripheral>  (544) 
nan

>  <Num_H_Atoms_ProtBoundConf>  (544) 
nan

>  <Num_Resolved_Atoms>  (544) 
nan

>  <Num_Not_Resolved_Atoms>  (544) 
nan

$$$$
CHEMBL3355557
     RDKit          3D

  0  0  0  0  0  0  0  0  0  0999 V3000
M  V30 BEGIN CTAB
M  V30 COUNTS 44 47 0 0 0
M  V30 BEGIN ATOM
M  V30 1 N 0.886191 -5.611031 3.143811 0
M  V30 2 C 2.031624 -4.793750 2.743731 0 CFG=1
M  V30 3 C 1.997690 -4.542394 1.265301 0
M  V30 4 C 0.935787 -3.582907 0.816628 0
M  V30 5 C 0.766618 -2.509458 1.847309 0 CFG=2
M  V30 6 N 0.249287 -1.269301 1.370309 0
M  V30 7 C 0.770274 -0.344963 0.446638 0
M  V30 8 C 1.958561 -0.445888 -0.212198 0
M  V30 9 C 2.464210 0.460020 -1.120578 0
M  V30 10 N 1.719650 1.547823 -1.385597 0
M  V30 11 N 1.860856 2.601841 -2.169157 0
M  V30 12 C 0.801267 3.422298 -2.064683 0
M  V30 13 C -0.087686 2.877468 -1.161236 0
M  V30 14 C -1.398558 3.363484 -0.681995 0
M  V30 15 C -1.745549 3.345760 0.654432 0
M  V30 16 C -3.003480 3.821886 1.032991 0
M  V30 17 C -3.879776 4.301425 0.074493 0
M  V30 18 C -3.547777 4.327283 -1.277763 0
M  V30 19 Cl -4.658409 4.934188 -2.484780 0
M  V30 20 C -2.298928 3.852522 -1.636424 0
M  V30 21 C 0.539662 1.694353 -0.761762 0
M  V30 22 N 0.102221 0.776033 0.113023 0
M  V30 23 C 2.082166 -2.373615 2.603010 0
M  V30 24 C 2.134780 -3.549087 3.579609 0
M  V30 25 H 1.082327 -6.138728 4.020110 0
M  V30 26 H 0.658367 -6.223074 2.325813 0
M  V30 27 H 2.933659 -5.411517 2.935340 0
M  V30 28 H 3.005789 -4.266134 0.898958 0
M  V30 29 H 1.760266 -5.537713 0.796898 0
M  V30 30 H 1.217980 -3.176009 -0.170155 0
M  V30 31 H -0.009558 -4.146483 0.632051 0
M  V30 32 H 0.030815 -2.935003 2.596094 0
M  V30 33 H -0.695810 -0.972996 1.771347 0
M  V30 34 H 2.606207 -1.283780 -0.047831 0
M  V30 35 H 3.405381 0.346052 -1.620089 0
M  V30 36 H 0.582175 4.370319 -2.557937 0
M  V30 37 H -1.020885 2.958046 1.373569 0
M  V30 38 H -3.264013 3.802915 2.083312 0
M  V30 39 H -4.860145 4.675312 0.346038 0
M  V30 40 H -2.070821 3.887565 -2.708713 0
M  V30 41 H 2.165851 -1.400659 3.116708 0
M  V30 42 H 2.945521 -2.527619 1.930349 0
M  V30 43 H 3.031111 -3.525601 4.219347 0
M  V30 44 H 1.212985 -3.469703 4.201269 0
M  V30 END ATOM
M  V30 BEGIN BOND
M  V30 1 1 1 2
M  V30 2 1 2 3
M  V30 3 1 3 4
M  V30 4 1 4 5
M  V30 5 1 5 6
M  V30 6 1 6 7
M  V30 7 1 7 8
M  V30 8 2 8 9
M  V30 9 1 9 10
M  V30 10 1 10 11
M  V30 11 2 11 12
M  V30 12 1 12 13
M  V30 13 1 13 14
M  V30 14 2 14 15
M  V30 15 1 15 16
M  V30 16 2 16 17
M  V30 17 1 17 18
M  V30 18 1 18 19
M  V30 19 2 18 20
M  V30 20 2 13 21
M  V30 21 1 21 22
M  V30 22 1 5 23
M  V30 23 1 23 24
M  V30 24 1 24 2
M  V30 25 2 22 7
M  V30 26 1 21 10
M  V30 27 1 20 14
M  V30 28 1 1 25
M  V30 29 1 1 26
M  V30 30 1 2 27 CFG=3
M  V30 31 1 3 28
M  V30 32 1 3 29
M  V30 33 1 4 30
M  V30 34 1 4 31
M  V30 35 1 5 32 CFG=1
M  V30 36 1 6 33
M  V30 37 1 8 34
M  V30 38 1 9 35
M  V30 39 1 12 36
M  V30 40 1 15 37
M  V30 41 1 16 38
M  V30 42 1 17 39
M  V30 43 1 20 40
M  V30 44 1 23 41
M  V30 45 1 23 42
M  V30 46 1 24 43
M  V30 47 1 24 44
M  V30 END BOND
M  V30 END CTAB
M  END
>  <Dataset>  (545) 
ChEMBL_Kinases

>  <Ligand_Instance>  (545) 
nan

>  <PDB_ID>  (545) 
nan

>  <Standardized_SMILES>  (545) 
N[C@H]1CC[C@H](Nc2ccn3ncc(-c4cccc(Cl)c4)c3n2)CC1

>  <Name>  (545) 
nan

>  <Pocket>  (545) 
nan

>  <ATP_Site>  (545) 
nan

>  <Peripheral>  (545) 
nan

>  <Num_H_Atoms_ProtBoundConf>  (545) 
nan

>  <Num_Resolved_Atoms>  (545) 
nan

>  <Num_Not_Resolved_Atoms>  (545) 
nan

$$$$
CHEMBL3355558
     RDKit          3D

  0  0  0  0  0  0  0  0  0  0999 V3000
M  V30 BEGIN CTAB
M  V30 COUNTS 41 44 0 0 0
M  V30 BEGIN ATOM
M  V30 1 N -0.370483 -4.827567 0.598397 0
M  V30 2 C 0.501368 -3.661747 0.727042 0 CFG=1
M  V30 3 C 1.524834 -3.780564 -0.375702 0
M  V30 4 C 0.912163 -3.658967 -1.761242 0
M  V30 5 C -0.317138 -2.763114 -1.732293 0
M  V30 6 N -0.186996 -1.777721 -0.680902 0
M  V30 7 C 0.051408 -0.391881 -0.824313 0
M  V30 8 C 0.197084 0.187830 -2.051945 0
M  V30 9 C 0.428620 1.564633 -2.065311 0
M  V30 10 N 0.498236 2.254988 -0.893133 0
M  V30 11 N 0.707563 3.553233 -0.677306 0
M  V30 12 C 0.696380 3.798195 0.648891 0
M  V30 13 C 0.469955 2.604055 1.309824 0
M  V30 14 C 0.356248 2.260100 2.729900 0
M  V30 15 C 1.058806 1.118348 3.105403 0
M  V30 16 C 1.036502 0.683120 4.413943 0
M  V30 17 C 0.308083 1.395955 5.343595 0
M  V30 18 C -0.397324 2.535175 4.986629 0
M  V30 19 Cl -1.329773 3.452494 6.163205 0
M  V30 20 C -0.375124 2.965675 3.691749 0
M  V30 21 C 0.349223 1.651515 0.318143 0
M  V30 22 N 0.127720 0.328349 0.305263 0
M  V30 23 C -0.339960 -2.429847 0.600364 0
M  V30 24 H 0.162447 -5.624886 1.019267 0
M  V30 25 H -1.221615 -4.623920 1.171464 0
M  V30 26 H 1.058880 -3.682699 1.670640 0
M  V30 27 H 2.354305 -3.080158 -0.221723 0
M  V30 28 H 1.955334 -4.812091 -0.282963 0
M  V30 29 H 0.588757 -4.643145 -2.156246 0
M  V30 30 H 1.699346 -3.277120 -2.446626 0
M  V30 31 H -1.218487 -3.426371 -1.577623 0
M  V30 32 H -0.420666 -2.289756 -2.729627 0
M  V30 33 H 0.142867 -0.351328 -2.967440 0
M  V30 34 H 0.560049 2.130114 -2.992379 0
M  V30 35 H 0.831732 4.734510 1.200641 0
M  V30 36 H 1.644127 0.534298 2.389902 0
M  V30 37 H 1.597629 -0.214209 4.673025 0
M  V30 38 H 0.294170 1.048764 6.371861 0
M  V30 39 H -0.897525 3.850940 3.310906 0
M  V30 40 H -0.067676 -1.743534 1.442488 0
M  V30 41 H -1.418236 -2.687717 0.799316 0
M  V30 END ATOM
M  V30 BEGIN BOND
M  V30 1 1 1 2
M  V30 2 1 2 3
M  V30 3 1 3 4
M  V30 4 1 4 5
M  V30 5 1 5 6
M  V30 6 1 6 7
M  V30 7 1 7 8
M  V30 8 2 8 9
M  V30 9 1 9 10
M  V30 10 1 10 11
M  V30 11 2 11 12
M  V30 12 1 12 13
M  V30 13 1 13 14
M  V30 14 2 14 15
M  V30 15 1 15 16
M  V30 16 2 16 17
M  V30 17 1 17 18
M  V30 18 1 18 19
M  V30 19 2 18 20
M  V30 20 2 13 21
M  V30 21 1 21 22
M  V30 22 1 6 23
M  V30 23 1 23 2
M  V30 24 2 22 7
M  V30 25 1 21 10
M  V30 26 1 20 14
M  V30 27 1 1 24
M  V30 28 1 1 25
M  V30 29 1 2 26 CFG=1
M  V30 30 1 3 27
M  V30 31 1 3 28
M  V30 32 1 4 29
M  V30 33 1 4 30
M  V30 34 1 5 31
M  V30 35 1 5 32
M  V30 36 1 8 33
M  V30 37 1 9 34
M  V30 38 1 12 35
M  V30 39 1 15 36
M  V30 40 1 16 37
M  V30 41 1 17 38
M  V30 42 1 20 39
M  V30 43 1 23 40
M  V30 44 1 23 41
M  V30 END BOND
M  V30 END CTAB
M  END
>  <Dataset>  (546) 
ChEMBL_Kinases

>  <Ligand_Instance>  (546) 
nan

>  <PDB_ID>  (546) 
nan

>  <Standardized_SMILES>  (546) 
N[C@H]1CCCN(c2ccn3ncc(-c4cccc(Cl)c4)c3n2)C1

>  <Name>  (546) 
nan

>  <Pocket>  (546) 
nan

>  <ATP_Site>  (546) 
nan

>  <Peripheral>  (546) 
nan

>  <Num_H_Atoms_ProtBoundConf>  (546) 
nan

>  <Num_Resolved_Atoms>  (546) 
nan

>  <Num_Not_Resolved_Atoms>  (546) 
nan

$$$$
CHEMBL3355559
     RDKit          3D

  0  0  0  0  0  0  0  0  0  0999 V3000
M  V30 BEGIN CTAB
M  V30 COUNTS 43 46 0 0 0
M  V30 BEGIN ATOM
M  V30 1 O -1.069861 -3.793671 1.297710 0
M  V30 2 C 0.172973 -4.398361 1.213564 0 CFG=1
M  V30 3 C 0.497060 -4.881499 -0.171949 0
M  V30 4 C 0.292640 -3.776465 -1.145150 0
M  V30 5 C 0.282284 -2.392690 -0.572730 0 CFG=2
M  V30 6 N 0.734338 -1.486244 -1.619145 0
M  V30 7 C 0.852023 -0.066267 -1.430301 0
M  V30 8 C 1.286490 0.805081 -2.435932 0
M  V30 9 C 1.379483 2.160491 -2.196201 0
M  V30 10 N 1.059285 2.684306 -1.001226 0
M  V30 11 N 1.078490 3.935365 -0.573884 0
M  V30 12 C 0.667797 3.982193 0.715453 0
M  V30 13 C 0.399518 2.678395 1.038493 0
M  V30 14 C -0.077467 2.260946 2.352703 0
M  V30 15 C 0.513860 1.153559 2.925959 0
M  V30 16 C 0.123958 0.691442 4.163799 0
M  V30 17 C -0.874515 1.321833 4.875605 0
M  V30 18 C -1.484868 2.446004 4.309455 0
M  V30 19 Cl -2.767599 3.288565 5.179568 0
M  V30 20 C -1.074413 2.892545 3.060481 0
M  V30 21 C 0.639249 1.838952 -0.030122 0
M  V30 22 N 0.546086 0.514560 -0.257245 0
M  V30 23 C 1.161789 -2.201578 0.610083 0
M  V30 24 C 1.250145 -3.374639 1.548657 0
M  V30 25 H -1.279310 -3.705094 2.261840 0
M  V30 26 H 0.306363 -5.252368 1.919348 0
M  V30 27 H -0.072293 -5.785938 -0.425906 0
M  V30 28 H 1.578664 -5.200564 -0.140900 0
M  V30 29 H -0.698160 -3.934216 -1.646953 0
M  V30 30 H 1.068316 -3.880652 -1.936114 0
M  V30 31 H -0.773441 -2.113514 -0.317043 0
M  V30 32 H 1.005557 -1.824388 -2.590532 0
M  V30 33 H 1.538645 0.347514 -3.394519 0
M  V30 34 H 1.725396 2.745780 -3.039031 0
M  V30 35 H 0.600161 4.900209 1.282065 0
M  V30 36 H 1.293055 0.640064 2.399816 0
M  V30 37 H 0.579904 -0.183672 4.634658 0
M  V30 38 H -1.250323 1.034585 5.854352 0
M  V30 39 H -1.515317 3.746447 2.594791 0
M  V30 40 H 0.708665 -1.356728 1.204090 0
M  V30 41 H 2.193882 -1.873441 0.336171 0
M  V30 42 H 1.151989 -3.074476 2.606734 0
M  V30 43 H 2.224468 -3.891752 1.428276 0
M  V30 END ATOM
M  V30 BEGIN BOND
M  V30 1 1 1 2
M  V30 2 1 2 3
M  V30 3 1 3 4
M  V30 4 1 4 5
M  V30 5 1 5 6
M  V30 6 1 6 7
M  V30 7 1 7 8
M  V30 8 2 8 9
M  V30 9 1 9 10
M  V30 10 1 10 11
M  V30 11 2 11 12
M  V30 12 1 12 13
M  V30 13 1 13 14
M  V30 14 2 14 15
M  V30 15 1 15 16
M  V30 16 2 16 17
M  V30 17 1 17 18
M  V30 18 1 18 19
M  V30 19 2 18 20
M  V30 20 2 13 21
M  V30 21 1 21 22
M  V30 22 1 5 23
M  V30 23 1 23 24
M  V30 24 1 24 2
M  V30 25 2 22 7
M  V30 26 1 21 10
M  V30 27 1 20 14
M  V30 28 1 1 25
M  V30 29 1 2 26 CFG=1
M  V30 30 1 3 27
M  V30 31 1 3 28
M  V30 32 1 4 29
M  V30 33 1 4 30
M  V30 34 1 5 31 CFG=1
M  V30 35 1 6 32
M  V30 36 1 8 33
M  V30 37 1 9 34
M  V30 38 1 12 35
M  V30 39 1 15 36
M  V30 40 1 16 37
M  V30 41 1 17 38
M  V30 42 1 20 39
M  V30 43 1 23 40
M  V30 44 1 23 41
M  V30 45 1 24 42
M  V30 46 1 24 43
M  V30 END BOND
M  V30 END CTAB
M  END
>  <Dataset>  (547) 
ChEMBL_Kinases

>  <Ligand_Instance>  (547) 
nan

>  <PDB_ID>  (547) 
nan

>  <Standardized_SMILES>  (547) 
O[C@H]1CC[C@H](Nc2ccn3ncc(-c4cccc(Cl)c4)c3n2)CC1

>  <Name>  (547) 
nan

>  <Pocket>  (547) 
nan

>  <ATP_Site>  (547) 
nan

>  <Peripheral>  (547) 
nan

>  <Num_H_Atoms_ProtBoundConf>  (547) 
nan

>  <Num_Resolved_Atoms>  (547) 
nan

>  <Num_Not_Resolved_Atoms>  (547) 
nan

$$$$
CHEMBL3355560
     RDKit          3D

  0  0  0  0  0  0  0  0  0  0999 V3000
M  V30 BEGIN CTAB
M  V30 COUNTS 46 49 0 0 0
M  V30 BEGIN ATOM
M  V30 1 C -0.923534 -5.179868 -0.454400 0
M  V30 2 C -0.984013 -4.045427 0.555543 0 CFG=2
M  V30 3 O -2.011338 -4.236099 1.490045 0
M  V30 4 C -1.140764 -2.769969 -0.209159 0
M  V30 5 C -0.273541 -1.637037 0.317546 0
M  V30 6 C 1.192503 -1.963344 0.231703 0 CFG=2
M  V30 7 N 1.795209 -1.304267 -0.884692 0
M  V30 8 C 1.743036 0.116071 -0.910834 0
M  V30 9 C 2.294607 0.852190 -1.944033 0
M  V30 10 C 2.241752 2.232656 -1.965543 0
M  V30 11 N 1.647978 2.926073 -0.976701 0
M  V30 12 N 1.463874 4.201318 -0.758148 0
M  V30 13 C 0.799141 4.338245 0.401986 0
M  V30 14 C 0.547082 3.088577 0.949995 0
M  V30 15 C -0.129842 2.681966 2.176820 0
M  V30 16 C 0.550757 1.694625 2.893308 0
M  V30 17 C 0.074786 1.166086 4.094920 0
M  V30 18 C -1.118509 1.655293 4.573332 0
M  V30 19 C -1.800893 2.630562 3.875444 0
M  V30 20 Cl -3.324603 3.261915 4.476994 0
M  V30 21 C -1.323678 3.149375 2.686202 0
M  V30 22 C 1.111150 2.205997 0.029188 0
M  V30 23 N 1.167206 0.870051 0.041356 0
M  V30 24 C 1.341469 -3.464895 0.183594 0
M  V30 25 C 0.375212 -4.016530 1.240834 0
M  V30 26 H -1.921038 -5.664930 -0.478743 0
M  V30 27 H -0.630534 -4.842547 -1.454935 0
M  V30 28 H -0.197059 -5.960997 -0.153663 0
M  V30 29 H -2.673328 -3.497541 1.340849 0
M  V30 30 H -0.935105 -2.875445 -1.293248 0
M  V30 31 H -2.193760 -2.430452 -0.064171 0
M  V30 32 H -0.505725 -0.772629 -0.365996 0
M  V30 33 H -0.618560 -1.358858 1.319949 0
M  V30 34 H 1.746436 -1.646161 1.157371 0
M  V30 35 H 2.258762 -1.782006 -1.661497 0
M  V30 36 H 2.783736 0.366540 -2.765702 0
M  V30 37 H 2.671731 2.823826 -2.772408 0
M  V30 38 H 0.470621 5.235240 0.906445 0
M  V30 39 H 1.508429 1.269707 2.554483 0
M  V30 40 H 0.635951 0.402032 4.615810 0
M  V30 41 H -1.505395 1.256108 5.507551 0
M  V30 42 H -1.795676 3.910055 2.083241 0
M  V30 43 H 1.103652 -3.887912 -0.820570 0
M  V30 44 H 2.397543 -3.771053 0.427903 0
M  V30 45 H 0.298697 -3.273068 2.070394 0
M  V30 46 H 0.673874 -4.999943 1.619535 0
M  V30 END ATOM
M  V30 BEGIN BOND
M  V30 1 1 1 2
M  V30 2 1 2 3 CFG=1
M  V30 3 1 2 4
M  V30 4 1 4 5
M  V30 5 1 5 6
M  V30 6 1 6 7
M  V30 7 1 7 8
M  V30 8 1 8 9
M  V30 9 2 9 10
M  V30 10 1 10 11
M  V30 11 1 11 12
M  V30 12 2 12 13
M  V30 13 1 13 14
M  V30 14 1 14 15
M  V30 15 2 15 16
M  V30 16 1 16 17
M  V30 17 2 17 18
M  V30 18 1 18 19
M  V30 19 1 19 20
M  V30 20 2 19 21
M  V30 21 2 14 22
M  V30 22 1 22 23
M  V30 23 1 6 24
M  V30 24 1 24 25
M  V30 25 1 25 2
M  V30 26 2 23 8
M  V30 27 1 22 11
M  V30 28 1 21 15
M  V30 29 1 1 26
M  V30 30 1 1 27
M  V30 31 1 1 28
M  V30 32 1 3 29
M  V30 33 1 4 30
M  V30 34 1 4 31
M  V30 35 1 5 32
M  V30 36 1 5 33
M  V30 37 1 6 34 CFG=1
M  V30 38 1 7 35
M  V30 39 1 9 36
M  V30 40 1 10 37
M  V30 41 1 13 38
M  V30 42 1 16 39
M  V30 43 1 17 40
M  V30 44 1 18 41
M  V30 45 1 21 42
M  V30 46 1 24 43
M  V30 47 1 24 44
M  V30 48 1 25 45
M  V30 49 1 25 46
M  V30 END BOND
M  V30 END CTAB
M  END
>  <Dataset>  (548) 
ChEMBL_Kinases

>  <Ligand_Instance>  (548) 
nan

>  <PDB_ID>  (548) 
nan

>  <Standardized_SMILES>  (548) 
C[C@]1(O)CC[C@H](Nc2ccn3ncc(-c4cccc(Cl)c4)c3n2)CC1

>  <Name>  (548) 
nan

>  <Pocket>  (548) 
nan

>  <ATP_Site>  (548) 
nan

>  <Peripheral>  (548) 
nan

>  <Num_H_Atoms_ProtBoundConf>  (548) 
nan

>  <Num_Resolved_Atoms>  (548) 
nan

>  <Num_Not_Resolved_Atoms>  (548) 
nan

$$$$
CHEMBL3355987
     RDKit          3D

  0  0  0  0  0  0  0  0  0  0999 V3000
M  V30 BEGIN CTAB
M  V30 COUNTS 52 55 0 0 0
M  V30 BEGIN ATOM
M  V30 1 C 0.674835 -4.618780 2.135986 0
M  V30 2 C -0.615014 -4.026793 1.690405 0
M  V30 3 C -1.466464 -5.126012 1.116098 0
M  V30 4 O -1.284100 -3.568955 2.830635 0
M  V30 5 C -0.499553 -2.854373 0.749233 0 CFG=1
M  V30 6 C 0.249145 -1.729154 1.353521 0
M  V30 7 C 1.709001 -1.747749 1.054731 0
M  V30 8 C 2.066421 -1.789034 -0.397975 0 CFG=2
M  V30 9 N 2.843393 -0.677649 -0.803566 0
M  V30 10 C 2.486395 0.694811 -0.755190 0
M  V30 11 C 3.311326 1.748564 -1.170444 0
M  V30 12 C 2.915671 3.066360 -1.103553 0
M  V30 13 N 1.703762 3.406185 -0.630634 0
M  V30 14 N 1.066919 4.551862 -0.451510 0
M  V30 15 C -0.160044 4.322544 0.068770 0
M  V30 16 C -0.279036 2.940694 0.217102 0
M  V30 17 C -1.477536 2.349384 0.749700 0
M  V30 18 C -2.139569 1.266577 0.252598 0
M  V30 19 C -3.283858 0.730292 0.792015 0
M  V30 20 C -3.834113 1.306762 1.925058 0
M  V30 21 C -3.175825 2.409071 2.445855 0
M  V30 22 Cl -3.909015 3.109381 3.883614 0
M  V30 23 C -2.041784 2.922219 1.892016 0
M  V30 24 C 0.906985 2.401451 -0.230944 0
M  V30 25 N 1.297663 1.126488 -0.298938 0
M  V30 26 C 0.781600 -2.004563 -1.170331 0
M  V30 27 C 0.021417 -3.202252 -0.592431 0
M  V30 28 H 1.144065 -4.131530 3.020062 0
M  V30 29 H 0.421490 -5.654086 2.519093 0
M  V30 30 H 1.393645 -4.823198 1.308566 0
M  V30 31 H -1.196514 -5.450497 0.111571 0
M  V30 32 H -2.548626 -4.860586 1.244836 0
M  V30 33 H -1.324797 -6.019595 1.792926 0
M  V30 34 H -1.983500 -2.934362 2.479655 0
M  V30 35 H -1.564490 -2.493251 0.622541 0
M  V30 36 H 0.167873 -1.760104 2.481309 0
M  V30 37 H -0.222999 -0.746499 1.076577 0
M  V30 38 H 2.148094 -0.787021 1.465499 0
M  V30 39 H 2.237548 -2.543237 1.619681 0
M  V30 40 H 2.671404 -2.720649 -0.563431 0
M  V30 41 H 3.822918 -0.819479 -1.201708 0
M  V30 42 H 4.296832 1.489769 -1.556254 0
M  V30 43 H 3.588462 3.844914 -1.435812 0
M  V30 44 H -0.894585 5.093086 0.314617 0
M  V30 45 H -1.702742 0.814720 -0.640287 0
M  V30 46 H -3.757892 -0.137115 0.341680 0
M  V30 47 H -4.735635 0.839492 2.301546 0
M  V30 48 H -1.583400 3.791084 2.361724 0
M  V30 49 H 1.007190 -2.271157 -2.224353 0
M  V30 50 H 0.112841 -1.141730 -1.186059 0
M  V30 51 H 0.761413 -4.045811 -0.479365 0
M  V30 52 H -0.762880 -3.437032 -1.342748 0
M  V30 END ATOM
M  V30 BEGIN BOND
M  V30 1 1 1 2
M  V30 2 1 2 3
M  V30 3 1 2 4
M  V30 4 1 2 5
M  V30 5 1 5 6
M  V30 6 1 6 7
M  V30 7 1 7 8
M  V30 8 1 8 9
M  V30 9 1 9 10
M  V30 10 1 10 11
M  V30 11 2 11 12
M  V30 12 1 12 13
M  V30 13 1 13 14
M  V30 14 2 14 15
M  V30 15 1 15 16
M  V30 16 1 16 17
M  V30 17 2 17 18
M  V30 18 1 18 19
M  V30 19 2 19 20
M  V30 20 1 20 21
M  V30 21 1 21 22
M  V30 22 2 21 23
M  V30 23 2 16 24
M  V30 24 1 24 25
M  V30 25 1 8 26
M  V30 26 1 26 27
M  V30 27 1 27 5
M  V30 28 2 25 10
M  V30 29 1 24 13
M  V30 30 1 23 17
M  V30 31 1 1 28
M  V30 32 1 1 29
M  V30 33 1 1 30
M  V30 34 1 3 31
M  V30 35 1 3 32
M  V30 36 1 3 33
M  V30 37 1 4 34
M  V30 38 1 5 35 CFG=3
M  V30 39 1 6 36
M  V30 40 1 6 37
M  V30 41 1 7 38
M  V30 42 1 7 39
M  V30 43 1 8 40 CFG=1
M  V30 44 1 9 41
M  V30 45 1 11 42
M  V30 46 1 12 43
M  V30 47 1 15 44
M  V30 48 1 18 45
M  V30 49 1 19 46
M  V30 50 1 20 47
M  V30 51 1 23 48
M  V30 52 1 26 49
M  V30 53 1 26 50
M  V30 54 1 27 51
M  V30 55 1 27 52
M  V30 END BOND
M  V30 END CTAB
M  END
>  <Dataset>  (549) 
ChEMBL_Kinases

>  <Ligand_Instance>  (549) 
nan

>  <PDB_ID>  (549) 
nan

>  <Standardized_SMILES>  (549) 
CC(C)(O)[C@H]1CC[C@H](Nc2ccn3ncc(-c4cccc(Cl)c4)c3n2)CC1

>  <Name>  (549) 
nan

>  <Pocket>  (549) 
nan

>  <ATP_Site>  (549) 
nan

>  <Peripheral>  (549) 
nan

>  <Num_H_Atoms_ProtBoundConf>  (549) 
nan

>  <Num_Resolved_Atoms>  (549) 
nan

>  <Num_Not_Resolved_Atoms>  (549) 
nan

$$$$
CHEMBL3355551
     RDKit          3D

  0  0  0  0  0  0  0  0  0  0999 V3000
M  V30 BEGIN CTAB
M  V30 COUNTS 49 52 0 0 0
M  V30 BEGIN ATOM
M  V30 1 C -1.294264 -4.853904 1.119389 0
M  V30 2 C -0.173488 -3.868099 1.473313 0 CFG=2
M  V30 3 O -0.397860 -3.559558 2.833554 0
M  V30 4 C -0.398094 -2.670976 0.607748 0
M  V30 5 C 0.915196 -2.353514 -0.104564 0
M  V30 6 C 1.968153 -2.331551 0.985045 0 CFG=2
M  V30 7 N 3.087173 -1.489195 0.677807 0
M  V30 8 C 2.838376 -0.106582 0.455886 0
M  V30 9 C 3.849645 0.802042 0.150878 0
M  V30 10 C 3.666536 2.139225 -0.071496 0
M  V30 11 N 2.404138 2.607819 0.012955 0
M  V30 12 N 1.894251 3.818149 -0.141700 0
M  V30 13 C 0.564792 3.816508 0.038756 0
M  V30 14 C 0.221678 2.499383 0.328741 0
M  V30 15 C -1.139794 2.075572 0.591609 0
M  V30 16 C -1.259808 1.236919 1.677649 0
M  V30 17 C -2.504572 0.739318 2.064024 0
M  V30 18 C -3.590512 1.129623 1.307569 0
M  V30 19 C -3.510206 1.967141 0.214309 0
M  V30 20 C -4.689397 2.376835 -0.588387 0
M  V30 21 F -4.868731 3.744962 -0.596271 0
M  V30 22 F -5.832973 1.807313 -0.083094 0
M  V30 23 F -4.499127 1.893917 -1.876951 0
M  V30 24 C -2.263586 2.441784 -0.141211 0
M  V30 25 C 1.398739 1.754417 0.306956 0
M  V30 26 N 1.612775 0.444522 0.520093 0
M  V30 27 C 2.341417 -3.757174 1.239741 0
M  V30 28 C 1.106141 -4.598047 1.241750 0
M  V30 29 H -2.255241 -4.345109 1.029889 0
M  V30 30 H -1.310243 -5.706331 1.827331 0
M  V30 31 H -1.085007 -5.329901 0.116672 0
M  V30 32 H 0.425328 -3.594562 3.353412 0
M  V30 33 H -1.231974 -2.761721 -0.097728 0
M  V30 34 H -0.605288 -1.780034 1.256783 0
M  V30 35 H 0.870132 -1.451330 -0.711863 0
M  V30 36 H 1.076261 -3.246749 -0.776866 0
M  V30 37 H 1.495437 -1.964938 1.943214 0
M  V30 38 H 4.080474 -1.798637 0.600534 0
M  V30 39 H 4.862997 0.398790 0.088094 0
M  V30 40 H 4.495502 2.763993 -0.299323 0
M  V30 41 H -0.057100 4.701106 -0.040499 0
M  V30 42 H -0.411429 0.909568 2.298361 0
M  V30 43 H -2.681756 0.080577 2.898852 0
M  V30 44 H -4.580486 0.761510 1.578200 0
M  V30 45 H -2.078918 3.106605 -0.982435 0
M  V30 46 H 2.951792 -4.104097 0.358895 0
M  V30 47 H 2.976236 -3.896439 2.132261 0
M  V30 48 H 1.219070 -5.319955 2.086504 0
M  V30 49 H 0.990517 -5.236646 0.341209 0
M  V30 END ATOM
M  V30 BEGIN BOND
M  V30 1 1 1 2
M  V30 2 1 2 3 CFG=1
M  V30 3 1 2 4
M  V30 4 1 4 5
M  V30 5 1 5 6
M  V30 6 1 6 7
M  V30 7 1 7 8
M  V30 8 1 8 9
M  V30 9 2 9 10
M  V30 10 1 10 11
M  V30 11 1 11 12
M  V30 12 2 12 13
M  V30 13 1 13 14
M  V30 14 1 14 15
M  V30 15 2 15 16
M  V30 16 1 16 17
M  V30 17 2 17 18
M  V30 18 1 18 19
M  V30 19 1 19 20
M  V30 20 1 20 21
M  V30 21 1 20 22
M  V30 22 1 20 23
M  V30 23 2 19 24
M  V30 24 2 14 25
M  V30 25 1 25 26
M  V30 26 1 6 27
M  V30 27 1 27 28
M  V30 28 1 28 2
M  V30 29 2 26 8
M  V30 30 1 25 11
M  V30 31 1 24 15
M  V30 32 1 1 29
M  V30 33 1 1 30
M  V30 34 1 1 31
M  V30 35 1 3 32
M  V30 36 1 4 33
M  V30 37 1 4 34
M  V30 38 1 5 35
M  V30 39 1 5 36
M  V30 40 1 6 37 CFG=1
M  V30 41 1 7 38
M  V30 42 1 9 39
M  V30 43 1 10 40
M  V30 44 1 13 41
M  V30 45 1 16 42
M  V30 46 1 17 43
M  V30 47 1 18 44
M  V30 48 1 24 45
M  V30 49 1 27 46
M  V30 50 1 27 47
M  V30 51 1 28 48
M  V30 52 1 28 49
M  V30 END BOND
M  V30 END CTAB
M  END
>  <Dataset>  (550) 
ChEMBL_Kinases

>  <Ligand_Instance>  (550) 
nan

>  <PDB_ID>  (550) 
nan

>  <Standardized_SMILES>  (550) 
C[C@]1(O)CC[C@H](Nc2ccn3ncc(-c4cccc(C(F)(F)F)c4)c3n2)CC1

>  <Name>  (550) 
nan

>  <Pocket>  (550) 
nan

>  <ATP_Site>  (550) 
nan

>  <Peripheral>  (550) 
nan

>  <Num_H_Atoms_ProtBoundConf>  (550) 
nan

>  <Num_Resolved_Atoms>  (550) 
nan

>  <Num_Not_Resolved_Atoms>  (550) 
nan

$$$$
CHEMBL3672068
     RDKit          3D

  0  0  0  0  0  0  0  0  0  0999 V3000
M  V30 BEGIN CTAB
M  V30 COUNTS 67 73 0 0 0
M  V30 BEGIN ATOM
M  V30 1 C 5.599030 -4.137647 4.173464 0
M  V30 2 C 6.198745 -3.298535 3.099021 0
M  V30 3 C 7.472957 -3.522713 2.655806 0
M  V30 4 C 8.015689 -2.725314 1.648509 0
M  V30 5 C 7.188469 -1.728887 1.156196 0
M  V30 6 C 5.904238 -1.502843 1.602676 0
M  V30 7 C 5.050845 -0.460017 1.080275 0
M  V30 8 N 5.243912 0.463003 0.136005 0
M  V30 9 C 4.147308 1.228248 -0.008121 0
M  V30 10 C 3.797672 2.374680 -0.879624 0
M  V30 11 C 2.977554 3.437413 -0.134993 0
M  V30 12 N 1.883676 2.487926 -0.187301 0
M  V30 13 C 0.564061 3.011330 -0.351525 0
M  V30 14 C -0.448537 1.895174 -0.379921 0
M  V30 15 C -0.838159 1.269949 -1.552945 0
M  V30 16 C -1.772003 0.258806 -1.451035 0
M  V30 17 C -2.323175 -0.147372 -0.251362 0
M  V30 18 C -3.304529 -1.239004 -0.317492 0
M  V30 19 N -2.804430 -2.381254 -0.822694 0
M  V30 20 C -3.549445 -3.471738 -0.957375 0
M  V30 21 N -3.275599 -4.703377 -1.426660 0
M  V30 22 C -4.406599 -5.406341 -1.328520 0
M  V30 23 C -4.452915 -6.828383 -1.767235 0
M  V30 24 C -5.396365 -4.626981 -0.799403 0
M  V30 25 Br -7.184573 -5.172079 -0.464312 0
M  V30 26 N -4.835226 -3.437233 -0.580729 0
M  V30 27 C -5.404143 -2.331288 -0.067406 0
M  V30 28 C -4.641736 -1.189600 0.078580 0
M  V30 29 C -5.027041 0.117585 0.605685 0
M  V30 30 C -5.036199 1.337079 -0.036299 0
M  V30 31 C -5.440098 2.465262 0.647795 0
M  V30 32 C -5.829482 2.356482 1.966317 0
M  V30 33 C -5.827478 1.151597 2.623391 0
M  V30 34 C -5.420104 -0.002801 1.942593 0
M  V30 35 C -1.940791 0.469915 0.920926 0
M  V30 36 C -1.007913 1.482728 0.835066 0
M  V30 37 C 2.421547 2.093723 -1.502132 0
M  V30 38 N 3.250499 0.755049 0.881501 0
M  V30 39 N 3.787488 -0.258493 1.537742 0
M  V30 40 N 5.435226 -2.304457 2.576327 0
M  V30 41 H 6.089347 -3.883202 5.136215 0
M  V30 42 H 5.831923 -5.202689 3.969383 0
M  V30 43 H 4.494690 -3.998621 4.207737 0
M  V30 44 H 8.046011 -4.333783 3.107099 0
M  V30 45 H 9.020778 -2.888235 1.284902 0
M  V30 46 H 7.526356 -1.068059 0.378160 0
M  V30 47 H 4.550391 2.744940 -1.568367 0
M  V30 48 H 3.421224 3.551252 0.879741 0
M  V30 49 H 2.849018 4.355769 -0.711961 0
M  V30 50 H 0.469034 3.658085 -1.247113 0
M  V30 51 H 0.320042 3.636818 0.532691 0
M  V30 52 H -0.394240 1.603597 -2.478726 0
M  V30 53 H -2.050540 -0.206764 -2.400793 0
M  V30 54 H -3.544516 -7.335254 -1.370399 0
M  V30 55 H -4.389398 -6.807923 -2.885344 0
M  V30 56 H -5.385952 -7.301743 -1.459005 0
M  V30 57 H -6.419758 -2.204415 0.261928 0
M  V30 58 H -4.708578 1.285114 -1.066970 0
M  V30 59 H -5.432886 3.386453 0.117125 0
M  V30 60 H -6.151733 3.244510 2.518368 0
M  V30 61 H -6.141964 1.126178 3.653714 0
M  V30 62 H -5.451821 -0.899627 2.539035 0
M  V30 63 H -2.375496 0.146020 1.842083 0
M  V30 64 H -0.672539 2.001543 1.732814 0
M  V30 65 H 2.190519 2.828289 -2.301012 0
M  V30 66 H 2.332406 1.034656 -1.748538 0
M  V30 67 H 3.216066 -0.752717 2.281215 0
M  V30 END ATOM
M  V30 BEGIN BOND
M  V30 1 1 1 2
M  V30 2 2 2 3
M  V30 3 1 3 4
M  V30 4 2 4 5
M  V30 5 1 5 6
M  V30 6 1 6 7
M  V30 7 2 7 8
M  V30 8 1 8 9
M  V30 9 1 9 10
M  V30 10 1 10 11
M  V30 11 1 11 12
M  V30 12 1 12 13
M  V30 13 1 13 14
M  V30 14 2 14 15
M  V30 15 1 15 16
M  V30 16 2 16 17
M  V30 17 1 17 18
M  V30 18 2 18 19
M  V30 19 1 19 20
M  V30 20 2 20 21
M  V30 21 1 21 22
M  V30 22 1 22 23
M  V30 23 2 22 24
M  V30 24 1 24 25
M  V30 25 1 24 26
M  V30 26 1 26 27
M  V30 27 2 27 28
M  V30 28 1 28 29
M  V30 29 2 29 30
M  V30 30 1 30 31
M  V30 31 2 31 32
M  V30 32 1 32 33
M  V30 33 2 33 34
M  V30 34 1 17 35
M  V30 35 2 35 36
M  V30 36 1 12 37
M  V30 37 2 9 38
M  V30 38 1 38 39
M  V30 39 2 6 40
M  V30 40 1 40 2
M  V30 41 1 39 7
M  V30 42 1 37 10
M  V30 43 1 36 14
M  V30 44 1 28 18
M  V30 45 1 34 29
M  V30 46 1 26 20
M  V30 47 1 1 41
M  V30 48 1 1 42
M  V30 49 1 1 43
M  V30 50 1 3 44
M  V30 51 1 4 45
M  V30 52 1 5 46
M  V30 53 1 10 47
M  V30 54 1 11 48
M  V30 55 1 11 49
M  V30 56 1 13 50
M  V30 57 1 13 51
M  V30 58 1 15 52
M  V30 59 1 16 53
M  V30 60 1 23 54
M  V30 61 1 23 55
M  V30 62 1 23 56
M  V30 63 1 27 57
M  V30 64 1 30 58
M  V30 65 1 31 59
M  V30 66 1 32 60
M  V30 67 1 33 61
M  V30 68 1 34 62
M  V30 69 1 35 63
M  V30 70 1 36 64
M  V30 71 1 37 65
M  V30 72 1 37 66
M  V30 73 1 39 67
M  V30 END BOND
M  V30 END CTAB
M  END
>  <Dataset>  (551) 
ChEMBL_Kinases

>  <Ligand_Instance>  (551) 
nan

>  <PDB_ID>  (551) 
nan

>  <Standardized_SMILES>  (551) 
Cc1cccc(-c2nc(C3CN(Cc4ccc(-c5nc6nc(C)c(Br)n6cc5-c5ccccc5)cc4)C3)n[nH]2)n1

>  <Name>  (551) 
nan

>  <Pocket>  (551) 
nan

>  <ATP_Site>  (551) 
nan

>  <Peripheral>  (551) 
nan

>  <Num_H_Atoms_ProtBoundConf>  (551) 
nan

>  <Num_Resolved_Atoms>  (551) 
nan

>  <Num_Not_Resolved_Atoms>  (551) 
nan

$$$$
CHEMBL3672067
     RDKit          3D

  0  0  0  0  0  0  0  0  0  0999 V3000
M  V30 BEGIN CTAB
M  V30 COUNTS 64 70 0 0 0
M  V30 BEGIN ATOM
M  V30 1 C 6.523278 2.099085 6.854681 0
M  V30 2 C 5.527088 1.792377 5.782108 0
M  V30 3 C 5.541386 0.571194 5.113061 0
M  V30 4 N 4.523993 0.632294 4.226292 0
M  V30 5 C 4.063098 -0.248065 3.317515 0
M  V30 6 C 2.974583 0.048398 2.497983 0
M  V30 7 C 2.558049 -0.993123 1.538769 0
M  V30 8 C 1.333724 -1.628996 1.539714 0
M  V30 9 C 1.065403 -2.588314 0.586508 0
M  V30 10 C 2.057659 -2.869548 -0.340483 0
M  V30 11 C 3.292118 -2.256652 -0.374306 0
M  V30 12 C 3.507506 -1.304139 0.603004 0
M  V30 13 C 2.336660 1.278259 2.607726 0
M  V30 14 C 1.200796 1.557753 1.735925 0
M  V30 15 C -0.081177 1.830901 2.165044 0
M  V30 16 C -1.112007 2.086313 1.309522 0
M  V30 17 C -0.923230 2.084927 -0.056870 0
M  V30 18 C -1.947527 2.344988 -1.106969 0
M  V30 19 N -2.611833 1.123377 -1.520347 0
M  V30 20 C -3.619829 1.257767 -2.540009 0
M  V30 21 C -4.708145 0.686419 -1.694211 0
M  V30 22 C -5.109797 -0.724069 -1.998595 0
M  V30 23 N -6.319445 -1.333398 -2.131801 0
M  V30 24 N -6.111028 -2.609839 -2.406290 0
M  V30 25 C -4.784399 -2.859998 -2.457789 0
M  V30 26 C -4.107600 -4.126038 -2.728384 0
M  V30 27 C -4.835954 -5.271461 -2.975388 0
M  V30 28 C -4.200044 -6.478339 -3.233148 0
M  V30 29 C -2.813555 -6.582414 -3.253058 0
M  V30 30 C -2.126177 -5.395396 -2.997135 0
M  V30 31 N -2.750245 -4.237964 -2.749999 0
M  V30 32 N -4.173256 -1.692114 -2.205346 0
M  V30 33 C -3.678914 0.713927 -0.594783 0
M  V30 34 C 0.377250 1.807929 -0.494847 0
M  V30 35 C 1.429784 1.547580 0.362998 0
M  V30 36 N 2.828465 2.144231 3.536519 0
M  V30 37 C 3.884890 1.814337 4.308185 0
M  V30 38 N 4.505234 2.529495 5.268946 0
M  V30 39 H 6.412985 1.374431 7.710717 0
M  V30 40 H 6.261401 3.088578 7.312071 0
M  V30 41 H 7.554867 2.117755 6.497085 0
M  V30 42 H 6.231706 -0.269321 5.268423 0
M  V30 43 H 4.548830 -1.229895 3.208572 0
M  V30 44 H 0.630628 -1.335434 2.306077 0
M  V30 45 H 0.109868 -3.093971 0.576250 0
M  V30 46 H 1.889191 -3.623914 -1.115861 0
M  V30 47 H 4.033819 -2.519608 -1.128823 0
M  V30 48 H 4.496885 -0.821503 0.566232 0
M  V30 49 H -0.257701 1.838638 3.230985 0
M  V30 50 H -2.119206 2.301387 1.635686 0
M  V30 51 H -2.674149 3.071730 -0.690140 0
M  V30 52 H -1.440933 2.849648 -1.948424 0
M  V30 53 H -3.838662 2.330995 -2.798054 0
M  V30 54 H -3.356610 0.675565 -3.446233 0
M  V30 55 H -5.598062 1.348494 -1.552420 0
M  V30 56 H -6.869658 -3.296272 -2.555093 0
M  V30 57 H -5.930579 -5.259194 -2.974479 0
M  V30 58 H -4.771525 -7.374839 -3.426115 0
M  V30 59 H -2.266584 -7.492395 -3.447210 0
M  V30 60 H -1.028476 -5.376904 -2.991722 0
M  V30 61 H -3.474503 -0.273572 -0.143347 0
M  V30 62 H -3.852570 1.498645 0.182666 0
M  V30 63 H 0.591216 1.792666 -1.573570 0
M  V30 64 H 2.411488 1.341224 -0.064299 0
M  V30 END ATOM
M  V30 BEGIN BOND
M  V30 1 1 1 2
M  V30 2 2 2 3
M  V30 3 1 3 4
M  V30 4 1 4 5
M  V30 5 2 5 6
M  V30 6 1 6 7
M  V30 7 2 7 8
M  V30 8 1 8 9
M  V30 9 2 9 10
M  V30 10 1 10 11
M  V30 11 2 11 12
M  V30 12 1 6 13
M  V30 13 1 13 14
M  V30 14 2 14 15
M  V30 15 1 15 16
M  V30 16 2 16 17
M  V30 17 1 17 18
M  V30 18 1 18 19
M  V30 19 1 19 20
M  V30 20 1 20 21
M  V30 21 1 21 22
M  V30 22 2 22 23
M  V30 23 1 23 24
M  V30 24 1 24 25
M  V30 25 1 25 26
M  V30 26 2 26 27
M  V30 27 1 27 28
M  V30 28 2 28 29
M  V30 29 1 29 30
M  V30 30 2 30 31
M  V30 31 2 25 32
M  V30 32 1 21 33
M  V30 33 1 17 34
M  V30 34 2 34 35
M  V30 35 2 13 36
M  V30 36 1 36 37
M  V30 37 2 37 38
M  V30 38 1 38 2
M  V30 39 1 37 4
M  V30 40 1 12 7
M  V30 41 1 35 14
M  V30 42 1 33 19
M  V30 43 1 32 22
M  V30 44 1 31 26
M  V30 45 1 1 39
M  V30 46 1 1 40
M  V30 47 1 1 41
M  V30 48 1 3 42
M  V30 49 1 5 43
M  V30 50 1 8 44
M  V30 51 1 9 45
M  V30 52 1 10 46
M  V30 53 1 11 47
M  V30 54 1 12 48
M  V30 55 1 15 49
M  V30 56 1 16 50
M  V30 57 1 18 51
M  V30 58 1 18 52
M  V30 59 1 20 53
M  V30 60 1 20 54
M  V30 61 1 21 55
M  V30 62 1 24 56
M  V30 63 1 27 57
M  V30 64 1 28 58
M  V30 65 1 29 59
M  V30 66 1 30 60
M  V30 67 1 33 61
M  V30 68 1 33 62
M  V30 69 1 34 63
M  V30 70 1 35 64
M  V30 END BOND
M  V30 END CTAB
M  END
>  <Dataset>  (552) 
ChEMBL_Kinases

>  <Ligand_Instance>  (552) 
nan

>  <PDB_ID>  (552) 
nan

>  <Standardized_SMILES>  (552) 
Cc1cn2cc(-c3ccccc3)c(-c3ccc(CN4CC(c5n[nH]c(-c6ccccn6)n5)C4)cc3)nc2n1

>  <Name>  (552) 
nan

>  <Pocket>  (552) 
nan

>  <ATP_Site>  (552) 
nan

>  <Peripheral>  (552) 
nan

>  <Num_H_Atoms_ProtBoundConf>  (552) 
nan

>  <Num_Resolved_Atoms>  (552) 
nan

>  <Num_Not_Resolved_Atoms>  (552) 
nan

$$$$
CHEMBL3672066
     RDKit          3D

  0  0  0  0  0  0  0  0  0  0999 V3000
M  V30 BEGIN CTAB
M  V30 COUNTS 61 67 0 0 0
M  V30 BEGIN ATOM
M  V30 1 Br 7.358841 -3.671192 3.317865 0
M  V30 2 C 6.631056 -1.940811 3.661377 0
M  V30 3 C 7.130958 -1.025057 4.562174 0
M  V30 4 N 6.288995 0.025067 4.446029 0
M  V30 5 C 5.335933 -0.239314 3.529279 0
M  V30 6 N 4.291483 0.472421 3.065677 0
M  V30 7 C 3.446589 0.009505 2.129385 0
M  V30 8 C 2.348285 0.904571 1.718337 0
M  V30 9 C 1.348312 1.405865 2.538085 0
M  V30 10 C 0.387839 2.236031 1.998963 0
M  V30 11 C 0.358408 2.606107 0.670897 0
M  V30 12 C -0.638426 3.481034 0.070728 0
M  V30 13 N -1.811148 2.865059 -0.447445 0
M  V30 14 C -2.661513 2.136726 0.442531 0
M  V30 15 C -2.284388 0.805370 -0.171303 0
M  V30 16 C -3.418647 0.009348 -0.707877 0
M  V30 17 N -4.482503 0.348719 -1.456575 0
M  V30 18 N -5.257147 -0.693367 -1.709238 0
M  V30 19 C -4.671843 -1.764810 -1.096526 0
M  V30 20 C -5.197435 -3.125358 -1.119189 0
M  V30 21 C -4.487582 -4.109351 -0.446759 0
M  V30 22 C -4.976759 -5.416675 -0.458062 0
M  V30 23 C -6.163816 -5.619250 -1.161756 0
M  V30 24 C -6.865202 -4.637328 -1.828361 0
M  V30 25 N -6.337585 -3.381168 -1.781124 0
M  V30 26 N -3.555725 -1.319289 -0.492907 0
M  V30 27 C -1.695338 1.699884 -1.253559 0
M  V30 28 C 1.377762 2.072208 -0.077301 0
M  V30 29 C 2.394995 1.222862 0.380146 0
M  V30 30 C 3.650366 -1.253178 1.612655 0
M  V30 31 C 2.729457 -1.737450 0.603671 0
M  V30 32 C 1.410700 -1.897490 0.977201 0
M  V30 33 C 0.509902 -2.356749 0.037376 0
M  V30 34 C 0.959253 -2.643902 -1.256573 0
M  V30 35 C 2.279505 -2.465388 -1.568040 0
M  V30 36 C 3.223111 -2.008816 -0.667294 0
M  V30 37 C 4.729253 -2.016054 2.076476 0
M  V30 38 N 5.539771 -1.490552 3.018631 0
M  V30 39 H 7.987027 -1.094296 5.219788 0
M  V30 40 H 1.398553 1.097951 3.572642 0
M  V30 41 H -0.387406 2.616795 2.668915 0
M  V30 42 H -0.931701 4.263086 0.822943 0
M  V30 43 H -0.158568 4.058303 -0.760127 0
M  V30 44 H -2.432502 2.148964 1.513230 0
M  V30 45 H -3.755917 2.355658 0.298015 0
M  V30 46 H -1.539751 0.226214 0.391997 0
M  V30 47 H -6.123929 -0.660776 -2.264108 0
M  V30 48 H -3.575365 -3.939218 0.090740 0
M  V30 49 H -4.474020 -6.226176 0.044079 0
M  V30 50 H -6.512349 -6.653563 -1.146360 0
M  V30 51 H -7.783133 -4.882052 -2.352251 0
M  V30 52 H -0.718598 1.324299 -1.544499 0
M  V30 53 H -2.365491 1.788523 -2.156519 0
M  V30 54 H 1.412074 2.331910 -1.148168 0
M  V30 55 H 3.141021 0.870336 -0.312638 0
M  V30 56 H 1.046984 -1.683089 1.962982 0
M  V30 57 H -0.551129 -2.523259 0.208936 0
M  V30 58 H 0.290929 -3.011588 -2.046044 0
M  V30 59 H 2.611987 -2.688780 -2.562594 0
M  V30 60 H 4.274801 -1.861328 -0.897284 0
M  V30 61 H 4.892952 -3.006757 1.674164 0
M  V30 END ATOM
M  V30 BEGIN BOND
M  V30 1 1 1 2
M  V30 2 2 2 3
M  V30 3 1 3 4
M  V30 4 2 4 5
M  V30 5 1 5 6
M  V30 6 2 6 7
M  V30 7 1 7 8
M  V30 8 2 8 9
M  V30 9 1 9 10
M  V30 10 2 10 11
M  V30 11 1 11 12
M  V30 12 1 12 13
M  V30 13 1 13 14
M  V30 14 1 14 15
M  V30 15 1 15 16
M  V30 16 2 16 17
M  V30 17 1 17 18
M  V30 18 1 18 19
M  V30 19 1 19 20
M  V30 20 2 20 21
M  V30 21 1 21 22
M  V30 22 2 22 23
M  V30 23 1 23 24
M  V30 24 2 24 25
M  V30 25 2 19 26
M  V30 26 1 15 27
M  V30 27 1 11 28
M  V30 28 2 28 29
M  V30 29 1 7 30
M  V30 30 1 30 31
M  V30 31 2 31 32
M  V30 32 1 32 33
M  V30 33 2 33 34
M  V30 34 1 34 35
M  V30 35 2 35 36
M  V30 36 2 30 37
M  V30 37 1 37 38
M  V30 38 1 38 2
M  V30 39 1 38 5
M  V30 40 1 29 8
M  V30 41 1 36 31
M  V30 42 1 27 13
M  V30 43 1 26 16
M  V30 44 1 25 20
M  V30 45 1 3 39
M  V30 46 1 9 40
M  V30 47 1 10 41
M  V30 48 1 12 42
M  V30 49 1 12 43
M  V30 50 1 14 44
M  V30 51 1 14 45
M  V30 52 1 15 46
M  V30 53 1 18 47
M  V30 54 1 21 48
M  V30 55 1 22 49
M  V30 56 1 23 50
M  V30 57 1 24 51
M  V30 58 1 27 52
M  V30 59 1 27 53
M  V30 60 1 28 54
M  V30 61 1 29 55
M  V30 62 1 32 56
M  V30 63 1 33 57
M  V30 64 1 34 58
M  V30 65 1 35 59
M  V30 66 1 36 60
M  V30 67 1 37 61
M  V30 END BOND
M  V30 END CTAB
M  END
>  <Dataset>  (553) 
ChEMBL_Kinases

>  <Ligand_Instance>  (553) 
nan

>  <PDB_ID>  (553) 
nan

>  <Standardized_SMILES>  (553) 
Brc1cnc2nc(-c3ccc(CN4CC(c5n[nH]c(-c6ccccn6)n5)C4)cc3)c(-c3ccccc3)cn12

>  <Name>  (553) 
nan

>  <Pocket>  (553) 
nan

>  <ATP_Site>  (553) 
nan

>  <Peripheral>  (553) 
nan

>  <Num_H_Atoms_ProtBoundConf>  (553) 
nan

>  <Num_Resolved_Atoms>  (553) 
nan

>  <Num_Not_Resolved_Atoms>  (553) 
nan

$$$$
CHEMBL3672065
     RDKit          3D

  0  0  0  0  0  0  0  0  0  0999 V3000
M  V30 BEGIN CTAB
M  V30 COUNTS 70 76 0 0 0
M  V30 BEGIN ATOM
M  V30 1 C 6.889058 -3.523339 3.618304 0
M  V30 2 C 5.648231 -2.719943 3.720034 0
M  V30 3 C 5.086773 -2.691318 4.994199 0
M  V30 4 C 3.929421 -1.964146 5.165697 0
M  V30 5 C 3.424120 -1.324795 4.055334 0
M  V30 6 C 3.993186 -1.358485 2.778919 0
M  V30 7 C 3.341475 -0.630091 1.689600 0
M  V30 8 N 3.709817 -0.534331 0.414738 0
M  V30 9 C 2.867713 0.222511 -0.314330 0
M  V30 10 C 3.088115 0.459356 -1.757350 0
M  V30 11 C 1.949864 -0.134291 -2.560713 0
M  V30 12 C 1.429450 0.843048 -3.584608 0
M  V30 13 N 1.057958 2.102850 -3.048249 0
M  V30 14 C -0.359060 2.304250 -2.918713 0
M  V30 15 C -1.055934 1.382132 -2.028834 0
M  V30 16 C -1.608253 0.160617 -2.353867 0
M  V30 17 C -2.259974 -0.673050 -1.472239 0
M  V30 18 C -2.381955 -0.278865 -0.162855 0
M  V30 19 C -3.068167 -1.154944 0.803044 0
M  V30 20 N -2.224347 -1.464983 1.822642 0
M  V30 21 C -2.646269 -2.251220 2.826405 0
M  V30 22 N -2.035121 -2.719440 3.957913 0
M  V30 23 C -2.923700 -3.475653 4.623608 0
M  V30 24 C -4.120568 -3.521072 3.955447 0
M  V30 25 N -3.895990 -2.747366 2.851975 0
M  V30 26 C -4.745123 -2.453512 1.853867 0
M  V30 27 C -4.354688 -1.649987 0.803213 0
M  V30 28 C -5.123036 -1.228266 -0.351545 0
M  V30 29 C -5.576466 -2.090082 -1.342249 0
M  V30 30 C -6.304052 -1.561215 -2.394836 0
M  V30 31 C -6.609080 -0.218070 -2.520483 0
M  V30 32 C -6.159588 0.652053 -1.533779 0
M  V30 33 C -5.424144 0.128724 -0.466788 0
M  V30 34 F -5.020767 1.049613 0.465476 0
M  V30 35 C -1.840972 0.951482 0.225768 0
M  V30 36 C -1.196184 1.748729 -0.704700 0
M  V30 37 C 1.816350 2.532733 -1.916954 0
M  V30 38 C 3.198008 1.939528 -2.000642 0
M  V30 39 N 1.959643 0.582999 0.603736 0
M  V30 40 N 2.225903 0.086029 1.795571 0
M  V30 41 N 5.121638 -2.079564 2.659059 0
M  V30 42 H 7.574046 -3.138959 2.845512 0
M  V30 43 H 7.461503 -3.504189 4.576577 0
M  V30 44 H 6.649451 -4.601824 3.424151 0
M  V30 45 H 5.491886 -3.197558 5.857193 0
M  V30 46 H 3.385091 -1.855488 6.103877 0
M  V30 47 H 2.500388 -0.739329 4.173026 0
M  V30 48 H 4.067089 -0.036552 -2.036176 0
M  V30 49 H 2.363321 -0.999919 -3.116767 0
M  V30 50 H 1.168649 -0.533552 -1.882061 0
M  V30 51 H 0.651680 0.335881 -4.175526 0
M  V30 52 H 2.282948 1.023996 -4.287361 0
M  V30 53 H -0.547515 3.341965 -2.611067 0
M  V30 54 H -0.778662 2.205168 -3.959050 0
M  V30 55 H -1.525772 -0.164523 -3.378441 0
M  V30 56 H -2.658650 -1.612201 -1.831850 0
M  V30 57 H -2.669861 -3.960779 5.561218 0
M  V30 58 H -5.028052 -4.040197 4.225872 0
M  V30 59 H -5.785637 -2.800915 1.769056 0
M  V30 60 H -5.333592 -3.131215 -1.236551 0
M  V30 61 H -6.649241 -2.258257 -3.165241 0
M  V30 62 H -7.186762 0.168659 -3.364123 0
M  V30 63 H -6.379639 1.712089 -1.597607 0
M  V30 64 H -1.988287 1.168024 1.267445 0
M  V30 65 H -0.850695 2.654476 -0.224696 0
M  V30 66 H 1.852701 3.651669 -1.929940 0
M  V30 67 H 1.359815 2.198079 -0.964469 0
M  V30 68 H 3.895126 2.385813 -1.261512 0
M  V30 69 H 3.555650 2.119351 -3.050587 0
M  V30 70 H 1.601506 0.277338 2.636786 0
M  V30 END ATOM
M  V30 BEGIN BOND
M  V30 1 1 1 2
M  V30 2 2 2 3
M  V30 3 1 3 4
M  V30 4 2 4 5
M  V30 5 1 5 6
M  V30 6 1 6 7
M  V30 7 2 7 8
M  V30 8 1 8 9
M  V30 9 1 9 10
M  V30 10 1 10 11
M  V30 11 1 11 12
M  V30 12 1 12 13
M  V30 13 1 13 14
M  V30 14 1 14 15
M  V30 15 2 15 16
M  V30 16 1 16 17
M  V30 17 2 17 18
M  V30 18 1 18 19
M  V30 19 2 19 20
M  V30 20 1 20 21
M  V30 21 2 21 22
M  V30 22 1 22 23
M  V30 23 2 23 24
M  V30 24 1 24 25
M  V30 25 1 25 26
M  V30 26 2 26 27
M  V30 27 1 27 28
M  V30 28 2 28 29
M  V30 29 1 29 30
M  V30 30 2 30 31
M  V30 31 1 31 32
M  V30 32 2 32 33
M  V30 33 1 33 34
M  V30 34 1 18 35
M  V30 35 2 35 36
M  V30 36 1 13 37
M  V30 37 1 37 38
M  V30 38 2 9 39
M  V30 39 1 39 40
M  V30 40 2 6 41
M  V30 41 1 41 2
M  V30 42 1 40 7
M  V30 43 1 38 10
M  V30 44 1 36 15
M  V30 45 1 27 19
M  V30 46 1 33 28
M  V30 47 1 25 21
M  V30 48 1 1 42
M  V30 49 1 1 43
M  V30 50 1 1 44
M  V30 51 1 3 45
M  V30 52 1 4 46
M  V30 53 1 5 47
M  V30 54 1 10 48
M  V30 55 1 11 49
M  V30 56 1 11 50
M  V30 57 1 12 51
M  V30 58 1 12 52
M  V30 59 1 14 53
M  V30 60 1 14 54
M  V30 61 1 16 55
M  V30 62 1 17 56
M  V30 63 1 23 57
M  V30 64 1 24 58
M  V30 65 1 26 59
M  V30 66 1 29 60
M  V30 67 1 30 61
M  V30 68 1 31 62
M  V30 69 1 32 63
M  V30 70 1 35 64
M  V30 71 1 36 65
M  V30 72 1 37 66
M  V30 73 1 37 67
M  V30 74 1 38 68
M  V30 75 1 38 69
M  V30 76 1 40 70
M  V30 END BOND
M  V30 END CTAB
M  END
>  <Dataset>  (554) 
ChEMBL_Kinases

>  <Ligand_Instance>  (554) 
nan

>  <PDB_ID>  (554) 
nan

>  <Standardized_SMILES>  (554) 
Cc1cccc(-c2nc(C3CCN(Cc4ccc(-c5nc6nccn6cc5-c5ccccc5F)cc4)CC3)n[nH]2)n1

>  <Name>  (554) 
nan

>  <Pocket>  (554) 
nan

>  <ATP_Site>  (554) 
nan

>  <Peripheral>  (554) 
nan

>  <Num_H_Atoms_ProtBoundConf>  (554) 
nan

>  <Num_Resolved_Atoms>  (554) 
nan

>  <Num_Not_Resolved_Atoms>  (554) 
nan

$$$$
CHEMBL3672064
     RDKit          3D

  0  0  0  0  0  0  0  0  0  0999 V3000
M  V30 BEGIN CTAB
M  V30 COUNTS 67 73 0 0 0
M  V30 BEGIN ATOM
M  V30 1 F 2.698594 -3.121665 1.995514 0
M  V30 2 C 2.461819 -1.782699 1.928469 0
M  V30 3 C 1.587624 -1.366175 0.948902 0
M  V30 4 C 1.243569 -0.046307 0.749957 0
M  V30 5 C 1.788081 0.918458 1.557704 0
M  V30 6 C 1.611970 2.366602 1.582774 0
M  V30 7 C 2.668146 3.237591 1.354170 0
M  V30 8 N 2.518998 4.584853 1.379948 0
M  V30 9 C 3.436962 5.545711 1.180154 0
M  V30 10 Cl 5.128155 5.299565 0.820852 0
M  V30 11 C 2.757425 6.739165 1.319372 0
M  V30 12 N 1.455886 6.452273 1.597882 0
M  V30 13 C 1.291269 5.120476 1.638895 0
M  V30 14 N 0.227300 4.298280 1.868824 0
M  V30 15 C 0.368830 2.956867 1.844412 0
M  V30 16 C -0.713900 2.009066 2.070588 0
M  V30 17 C -0.779207 1.048259 3.052197 0
M  V30 18 C -1.882746 0.227373 3.131113 0
M  V30 19 C -2.979268 0.298433 2.260478 0
M  V30 20 C -4.073217 -0.666837 2.505562 0
M  V30 21 N -3.955749 -1.905406 1.807790 0
M  V30 22 C -2.728505 -2.541741 2.073464 0
M  V30 23 C -2.495661 -3.804929 1.277632 0
M  V30 24 C -2.915432 -3.723221 -0.151257 0
M  V30 25 C -1.840583 -4.123032 -1.114330 0
M  V30 26 N -1.859185 -5.176856 -1.960706 0
M  V30 27 N -0.721461 -5.202036 -2.659601 0
M  V30 28 C 0.045401 -4.172026 -2.279003 0
M  V30 29 C 1.371509 -3.788490 -2.759060 0
M  V30 30 C 2.011885 -4.514002 -3.731224 0
M  V30 31 C 3.259653 -4.185351 -4.208462 0
M  V30 32 C 3.943564 -3.070347 -3.709239 0
M  V30 33 C 3.258296 -2.357343 -2.720054 0
M  V30 34 N 2.035212 -2.719876 -2.285570 0
M  V30 35 N -0.651355 -3.518410 -1.331405 0
M  V30 36 C -3.452863 -2.368285 -0.543909 0
M  V30 37 C -4.427809 -1.833842 0.485800 0
M  V30 38 C -2.872455 1.274313 1.293438 0
M  V30 39 C -1.783334 2.094673 1.203967 0
M  V30 40 C 2.679547 0.519164 2.560781 0
M  V30 41 C 3.012743 -0.808087 2.745727 0
M  V30 42 H 1.123660 -2.076400 0.279152 0
M  V30 43 H 0.575413 0.373031 0.017601 0
M  V30 44 H 3.634540 2.767586 1.149948 0
M  V30 45 H 3.228151 7.710214 1.214888 0
M  V30 46 H 0.063648 0.990654 3.723969 0
M  V30 47 H -1.822252 -0.488949 3.941744 0
M  V30 48 H -5.033212 -0.126715 2.251263 0
M  V30 49 H -4.147240 -0.801269 3.614790 0
M  V30 50 H -1.912293 -1.811917 1.793154 0
M  V30 51 H -2.579124 -2.789296 3.142180 0
M  V30 52 H -2.898145 -4.692231 1.772385 0
M  V30 53 H -1.374542 -3.944788 1.285068 0
M  V30 54 H -3.723622 -4.491574 -0.313052 0
M  V30 55 H -0.433330 -5.893340 -3.393409 0
M  V30 56 H 1.534088 -5.400201 -4.167507 0
M  V30 57 H 3.814234 -4.714542 -4.971052 0
M  V30 58 H 4.914075 -2.703270 -3.989919 0
M  V30 59 H 3.666382 -1.462892 -2.235126 0
M  V30 60 H -4.043052 -2.491897 -1.488871 0
M  V30 61 H -2.661628 -1.631445 -0.764405 0
M  V30 62 H -5.395749 -2.399451 0.432394 0
M  V30 63 H -4.639039 -0.781745 0.212876 0
M  V30 64 H -3.699494 1.347760 0.622176 0
M  V30 65 H -1.800410 2.827805 0.406409 0
M  V30 66 H 3.196862 1.164092 3.284042 0
M  V30 67 H 3.693130 -1.173593 3.501531 0
M  V30 END ATOM
M  V30 BEGIN BOND
M  V30 1 1 1 2
M  V30 2 2 2 3
M  V30 3 1 3 4
M  V30 4 2 4 5
M  V30 5 1 5 6
M  V30 6 2 6 7
M  V30 7 1 7 8
M  V30 8 1 8 9
M  V30 9 1 9 10
M  V30 10 2 9 11
M  V30 11 1 11 12
M  V30 12 2 12 13
M  V30 13 1 13 14
M  V30 14 2 14 15
M  V30 15 1 15 16
M  V30 16 2 16 17
M  V30 17 1 17 18
M  V30 18 2 18 19
M  V30 19 1 19 20
M  V30 20 1 20 21
M  V30 21 1 21 22
M  V30 22 1 22 23
M  V30 23 1 23 24
M  V30 24 1 24 25
M  V30 25 2 25 26
M  V30 26 1 26 27
M  V30 27 1 27 28
M  V30 28 1 28 29
M  V30 29 2 29 30
M  V30 30 1 30 31
M  V30 31 2 31 32
M  V30 32 1 32 33
M  V30 33 2 33 34
M  V30 34 2 28 35
M  V30 35 1 24 36
M  V30 36 1 36 37
M  V30 37 1 19 38
M  V30 38 2 38 39
M  V30 39 1 5 40
M  V30 40 2 40 41
M  V30 41 1 41 2
M  V30 42 1 15 6
M  V30 43 1 39 16
M  V30 44 1 13 8
M  V30 45 1 37 21
M  V30 46 1 35 25
M  V30 47 1 34 29
M  V30 48 1 3 42
M  V30 49 1 4 43
M  V30 50 1 7 44
M  V30 51 1 11 45
M  V30 52 1 17 46
M  V30 53 1 18 47
M  V30 54 1 20 48
M  V30 55 1 20 49
M  V30 56 1 22 50
M  V30 57 1 22 51
M  V30 58 1 23 52
M  V30 59 1 23 53
M  V30 60 1 24 54
M  V30 61 1 27 55
M  V30 62 1 30 56
M  V30 63 1 31 57
M  V30 64 1 32 58
M  V30 65 1 33 59
M  V30 66 1 36 60
M  V30 67 1 36 61
M  V30 68 1 37 62
M  V30 69 1 37 63
M  V30 70 1 38 64
M  V30 71 1 39 65
M  V30 72 1 40 66
M  V30 73 1 41 67
M  V30 END BOND
M  V30 END CTAB
M  END
>  <Dataset>  (555) 
ChEMBL_Kinases

>  <Ligand_Instance>  (555) 
nan

>  <PDB_ID>  (555) 
nan

>  <Standardized_SMILES>  (555) 
Fc1ccc(-c2cn3c(Cl)cnc3nc2-c2ccc(CN3CCC(c4n[nH]c(-c5ccccn5)n4)CC3)cc2)cc1

>  <Name>  (555) 
nan

>  <Pocket>  (555) 
nan

>  <ATP_Site>  (555) 
nan

>  <Peripheral>  (555) 
nan

>  <Num_H_Atoms_ProtBoundConf>  (555) 
nan

>  <Num_Resolved_Atoms>  (555) 
nan

>  <Num_Not_Resolved_Atoms>  (555) 
nan

$$$$
CHEMBL3672063
     RDKit          3D

  0  0  0  0  0  0  0  0  0  0999 V3000
M  V30 BEGIN CTAB
M  V30 COUNTS 70 76 0 0 0
M  V30 BEGIN ATOM
M  V30 1 C 3.741643 -3.816008 5.424250 0
M  V30 2 C 4.205617 -3.977291 4.016574 0
M  V30 3 C 4.941783 -5.106074 3.701046 0
M  V30 4 C 5.319832 -5.165536 2.383283 0
M  V30 5 C 4.973581 -4.157964 1.478287 0
M  V30 6 C 4.231963 -3.055474 1.876712 0
M  V30 7 C 3.853826 -1.998280 0.949635 0
M  V30 8 N 4.141831 -1.933595 -0.347624 0
M  V30 9 C 3.625934 -0.805538 -0.920548 0
M  V30 10 C 3.824648 -0.528607 -2.381010 0
M  V30 11 C 4.183614 0.899115 -2.587600 0
M  V30 12 C 3.016106 1.841973 -2.386543 0
M  V30 13 N 1.849161 1.164568 -1.909908 0
M  V30 14 C 0.818396 2.076603 -1.582086 0
M  V30 15 C -0.382064 1.422358 -0.998361 0
M  V30 16 C -1.478584 0.925286 -1.678675 0
M  V30 17 C -2.534365 0.316383 -1.033161 0
M  V30 18 C -2.487512 0.201250 0.361168 0
M  V30 19 C -3.650643 -0.468844 0.943473 0
M  V30 20 N -3.211958 -1.597742 1.580927 0
M  V30 21 C -4.046937 -2.443720 2.218539 0
M  V30 22 N -3.925874 -3.596397 2.911900 0
M  V30 23 C -5.160385 -3.985297 3.322390 0
M  V30 24 C -6.086138 -3.038771 2.866499 0
M  V30 25 Br -7.971758 -3.103276 3.171203 0
M  V30 26 N -5.354321 -2.128511 2.204160 0
M  V30 27 C -5.846038 -1.036584 1.597130 0
M  V30 28 C -5.016232 -0.157558 0.939432 0
M  V30 29 C -5.257768 1.056869 0.213965 0
M  V30 30 C -5.953976 1.047885 -0.969974 0
M  V30 31 C -6.124615 2.266323 -1.584617 0
M  V30 32 C -5.648821 3.463147 -1.090219 0
M  V30 33 F -5.877299 4.606527 -1.775115 0
M  V30 34 C -4.948923 3.413618 0.118864 0
M  V30 35 C -4.748250 2.199578 0.782827 0
M  V30 36 C -1.405325 0.689105 1.065452 0
M  V30 37 C -0.368674 1.291300 0.387769 0
M  V30 38 C 1.501705 0.172229 -2.885729 0
M  V30 39 C 2.509733 -0.911893 -3.035138 0
M  V30 40 N 3.001822 -0.183116 0.112818 0
M  V30 41 N 3.148454 -0.904505 1.208384 0
M  V30 42 N 3.873548 -3.017952 3.171663 0
M  V30 43 H 4.580991 -4.034304 6.136052 0
M  V30 44 H 2.957864 -4.592230 5.612575 0
M  V30 45 H 3.263360 -2.856368 5.635337 0
M  V30 46 H 5.225681 -5.902341 4.384960 0
M  V30 47 H 5.910784 -6.032276 2.038402 0
M  V30 48 H 5.249118 -4.159119 0.418351 0
M  V30 49 H 4.608606 -1.225460 -2.736638 0
M  V30 50 H 4.470696 0.994199 -3.677964 0
M  V30 51 H 5.083244 1.179976 -2.025562 0
M  V30 52 H 3.346710 2.523237 -1.547315 0
M  V30 53 H 2.880282 2.494826 -3.252709 0
M  V30 54 H 1.156441 2.856260 -0.873830 0
M  V30 55 H 0.535184 2.625170 -2.521703 0
M  V30 56 H -1.444579 1.052679 -2.754137 0
M  V30 57 H -3.325672 -0.027126 -1.686859 0
M  V30 58 H -5.355779 -4.887127 3.905110 0
M  V30 59 H -6.880841 -0.716174 1.546108 0
M  V30 60 H -6.341071 0.119569 -1.375524 0
M  V30 61 H -6.682629 2.230918 -2.528462 0
M  V30 62 H -4.594798 4.384372 0.458304 0
M  V30 63 H -4.190831 2.295180 1.707875 0
M  V30 64 H -1.422648 0.571970 2.139671 0
M  V30 65 H 0.462118 1.656177 0.994289 0
M  V30 66 H 1.406525 0.709893 -3.852210 0
M  V30 67 H 0.516554 -0.312075 -2.729194 0
M  V30 68 H 2.730926 -1.059050 -4.109903 0
M  V30 69 H 2.137033 -1.889670 -2.658380 0
M  V30 70 H 2.721764 -0.571014 2.129821 0
M  V30 END ATOM
M  V30 BEGIN BOND
M  V30 1 1 1 2
M  V30 2 2 2 3
M  V30 3 1 3 4
M  V30 4 2 4 5
M  V30 5 1 5 6
M  V30 6 1 6 7
M  V30 7 2 7 8
M  V30 8 1 8 9
M  V30 9 1 9 10
M  V30 10 1 10 11
M  V30 11 1 11 12
M  V30 12 1 12 13
M  V30 13 1 13 14
M  V30 14 1 14 15
M  V30 15 2 15 16
M  V30 16 1 16 17
M  V30 17 2 17 18
M  V30 18 1 18 19
M  V30 19 2 19 20
M  V30 20 1 20 21
M  V30 21 2 21 22
M  V30 22 1 22 23
M  V30 23 2 23 24
M  V30 24 1 24 25
M  V30 25 1 24 26
M  V30 26 1 26 27
M  V30 27 2 27 28
M  V30 28 1 28 29
M  V30 29 2 29 30
M  V30 30 1 30 31
M  V30 31 2 31 32
M  V30 32 1 32 33
M  V30 33 1 32 34
M  V30 34 2 34 35
M  V30 35 1 18 36
M  V30 36 2 36 37
M  V30 37 1 13 38
M  V30 38 1 38 39
M  V30 39 2 9 40
M  V30 40 1 40 41
M  V30 41 2 6 42
M  V30 42 1 42 2
M  V30 43 1 41 7
M  V30 44 1 39 10
M  V30 45 1 37 15
M  V30 46 1 28 19
M  V30 47 1 35 29
M  V30 48 1 26 21
M  V30 49 1 1 43
M  V30 50 1 1 44
M  V30 51 1 1 45
M  V30 52 1 3 46
M  V30 53 1 4 47
M  V30 54 1 5 48
M  V30 55 1 10 49
M  V30 56 1 11 50
M  V30 57 1 11 51
M  V30 58 1 12 52
M  V30 59 1 12 53
M  V30 60 1 14 54
M  V30 61 1 14 55
M  V30 62 1 16 56
M  V30 63 1 17 57
M  V30 64 1 23 58
M  V30 65 1 27 59
M  V30 66 1 30 60
M  V30 67 1 31 61
M  V30 68 1 34 62
M  V30 69 1 35 63
M  V30 70 1 36 64
M  V30 71 1 37 65
M  V30 72 1 38 66
M  V30 73 1 38 67
M  V30 74 1 39 68
M  V30 75 1 39 69
M  V30 76 1 41 70
M  V30 END BOND
M  V30 END CTAB
M  END
>  <Dataset>  (556) 
ChEMBL_Kinases

>  <Ligand_Instance>  (556) 
nan

>  <PDB_ID>  (556) 
nan

>  <Standardized_SMILES>  (556) 
Cc1cccc(-c2nc(C3CCN(Cc4ccc(-c5nc6ncc(Br)n6cc5-c5ccc(F)cc5)cc4)CC3)n[nH]2)n1

>  <Name>  (556) 
nan

>  <Pocket>  (556) 
nan

>  <ATP_Site>  (556) 
nan

>  <Peripheral>  (556) 
nan

>  <Num_H_Atoms_ProtBoundConf>  (556) 
nan

>  <Num_Resolved_Atoms>  (556) 
nan

>  <Num_Not_Resolved_Atoms>  (556) 
nan

$$$$
CHEMBL3672062
     RDKit          3D

  0  0  0  0  0  0  0  0  0  0999 V3000
M  V30 BEGIN CTAB
M  V30 COUNTS 66 72 0 0 0
M  V30 BEGIN ATOM
M  V30 1 F 2.782140 -0.376817 6.940449 0
M  V30 2 C 2.722040 0.328522 5.783445 0
M  V30 3 C 3.767280 0.199085 4.866583 0
M  V30 4 C 3.658359 0.946170 3.690193 0
M  V30 5 C 2.581893 1.772328 3.433234 0
M  V30 6 C 2.724110 2.422195 2.150401 0
M  V30 7 C 3.751382 3.284141 1.794805 0
M  V30 8 N 3.732977 3.805477 0.550577 0
M  V30 9 C 4.610603 4.665290 -0.040629 0
M  V30 10 C 4.148097 4.903743 -1.339974 0
M  V30 11 N 3.010206 4.184575 -1.494896 0
M  V30 12 C 2.756835 3.515650 -0.344345 0
M  V30 13 N 1.755571 2.678601 -0.004761 0
M  V30 14 C 1.726818 2.129115 1.229076 0
M  V30 15 C 0.589611 1.236465 1.483767 0
M  V30 16 C -0.695486 1.781348 1.393822 0
M  V30 17 C -1.813464 0.994572 1.622462 0
M  V30 18 C -1.695814 -0.353479 1.946714 0
M  V30 19 C -2.953757 -1.113211 2.172182 0
M  V30 20 N -3.428386 -1.703630 0.939078 0
M  V30 21 C -4.640705 -2.447584 1.069313 0
M  V30 22 C -4.728922 -3.440322 -0.068551 0
M  V30 23 C -4.247825 -2.789270 -1.321905 0
M  V30 24 C -2.821783 -3.150802 -1.583633 0
M  V30 25 N -1.750320 -2.960449 -0.789199 0
M  V30 26 N -0.655456 -3.408812 -1.354074 0
M  V30 27 C -0.976623 -3.916434 -2.557038 0
M  V30 28 C 0.003836 -4.503888 -3.459801 0
M  V30 29 C -0.328807 -5.023446 -4.692309 0
M  V30 30 N 0.606984 -5.555804 -5.493095 0
M  V30 31 C 1.911238 -5.603905 -5.123980 0
M  V30 32 C 2.246281 -5.079452 -3.880211 0
M  V30 33 N 1.292606 -4.545568 -3.082569 0
M  V30 34 N -2.288984 -3.752643 -2.680146 0
M  V30 35 C -4.322471 -1.276288 -1.302741 0
M  V30 36 C -3.584968 -0.715534 -0.111244 0
M  V30 37 C -0.423456 -0.881058 2.032959 0
M  V30 38 C 0.699738 -0.103049 1.806226 0
M  V30 39 C 1.580687 1.864132 4.367409 0
M  V30 40 C 1.636434 1.149244 5.545921 0
M  V30 41 H 4.580562 -0.455155 5.112684 0
M  V30 42 H 4.531596 0.767809 3.045763 0
M  V30 43 H 4.492696 3.477160 2.537843 0
M  V30 44 H 5.499060 5.061648 0.465202 0
M  V30 45 H 4.714623 5.574189 -1.990090 0
M  V30 46 H -0.776781 2.849268 1.136508 0
M  V30 47 H -2.753921 1.546949 1.519645 0
M  V30 48 H -3.746480 -0.406846 2.523128 0
M  V30 49 H -2.843290 -1.898847 2.926868 0
M  V30 50 H -5.559058 -1.820418 1.054798 0
M  V30 51 H -4.686656 -2.977701 2.057477 0
M  V30 52 H -5.751732 -3.869455 -0.163587 0
M  V30 53 H -4.029414 -4.271007 0.201359 0
M  V30 54 H -4.814427 -3.117926 -2.220444 0
M  V30 55 H 0.226479 -3.312032 -0.828585 0
M  V30 56 H -1.368722 -4.997373 -5.012941 0
M  V30 57 H 2.674942 -6.036274 -5.772610 0
M  V30 58 H 3.270417 -5.085877 -3.523324 0
M  V30 59 H -3.801434 -0.943466 -2.223429 0
M  V30 60 H -5.373480 -0.916813 -1.344102 0
M  V30 61 H -4.219439 0.091605 0.304091 0
M  V30 62 H -2.600726 -0.372977 -0.441150 0
M  V30 63 H -0.334068 -1.928270 2.284901 0
M  V30 64 H 1.691748 -0.500778 1.870259 0
M  V30 65 H 0.782624 2.541117 4.064922 0
M  V30 66 H 0.813161 1.267964 6.238533 0
M  V30 END ATOM
M  V30 BEGIN BOND
M  V30 1 1 1 2
M  V30 2 2 2 3
M  V30 3 1 3 4
M  V30 4 2 4 5
M  V30 5 1 5 6
M  V30 6 2 6 7
M  V30 7 1 7 8
M  V30 8 1 8 9
M  V30 9 2 9 10
M  V30 10 1 10 11
M  V30 11 2 11 12
M  V30 12 1 12 13
M  V30 13 2 13 14
M  V30 14 1 14 15
M  V30 15 2 15 16
M  V30 16 1 16 17
M  V30 17 2 17 18
M  V30 18 1 18 19
M  V30 19 1 19 20
M  V30 20 1 20 21
M  V30 21 1 21 22
M  V30 22 1 22 23
M  V30 23 1 23 24
M  V30 24 2 24 25
M  V30 25 1 25 26
M  V30 26 1 26 27
M  V30 27 1 27 28
M  V30 28 2 28 29
M  V30 29 1 29 30
M  V30 30 2 30 31
M  V30 31 1 31 32
M  V30 32 2 32 33
M  V30 33 2 27 34
M  V30 34 1 23 35
M  V30 35 1 35 36
M  V30 36 1 18 37
M  V30 37 2 37 38
M  V30 38 1 5 39
M  V30 39 2 39 40
M  V30 40 1 40 2
M  V30 41 1 14 6
M  V30 42 1 38 15
M  V30 43 1 12 8
M  V30 44 1 36 20
M  V30 45 1 34 24
M  V30 46 1 33 28
M  V30 47 1 3 41
M  V30 48 1 4 42
M  V30 49 1 7 43
M  V30 50 1 9 44
M  V30 51 1 10 45
M  V30 52 1 16 46
M  V30 53 1 17 47
M  V30 54 1 19 48
M  V30 55 1 19 49
M  V30 56 1 21 50
M  V30 57 1 21 51
M  V30 58 1 22 52
M  V30 59 1 22 53
M  V30 60 1 23 54
M  V30 61 1 26 55
M  V30 62 1 29 56
M  V30 63 1 31 57
M  V30 64 1 32 58
M  V30 65 1 35 59
M  V30 66 1 35 60
M  V30 67 1 36 61
M  V30 68 1 36 62
M  V30 69 1 37 63
M  V30 70 1 38 64
M  V30 71 1 39 65
M  V30 72 1 40 66
M  V30 END BOND
M  V30 END CTAB
M  END
>  <Dataset>  (557) 
ChEMBL_Kinases

>  <Ligand_Instance>  (557) 
nan

>  <PDB_ID>  (557) 
nan

>  <Standardized_SMILES>  (557) 
Fc1ccc(-c2cn3ccnc3nc2-c2ccc(CN3CCC(c4n[nH]c(-c5cnccn5)n4)CC3)cc2)cc1

>  <Name>  (557) 
nan

>  <Pocket>  (557) 
nan

>  <ATP_Site>  (557) 
nan

>  <Peripheral>  (557) 
nan

>  <Num_H_Atoms_ProtBoundConf>  (557) 
nan

>  <Num_Resolved_Atoms>  (557) 
nan

>  <Num_Not_Resolved_Atoms>  (557) 
nan

$$$$
CHEMBL3672061
     RDKit          3D

  0  0  0  0  0  0  0  0  0  0999 V3000
M  V30 BEGIN CTAB
M  V30 COUNTS 67 73 0 0 0
M  V30 BEGIN ATOM
M  V30 1 F 2.377295 -2.238779 5.200064 0
M  V30 2 C 2.565795 -1.293328 4.250871 0
M  V30 3 C 3.279899 -1.571680 3.121639 0
M  V30 4 C 3.483886 -0.622090 2.141663 0
M  V30 5 C 2.956902 0.642978 2.297840 0
M  V30 6 C 3.038362 1.788892 1.416910 0
M  V30 7 C 4.308342 2.299087 1.132093 0
M  V30 8 N 4.444374 3.375569 0.310744 0
M  V30 9 C 5.576348 3.995833 -0.071951 0
M  V30 10 C 5.188043 5.039759 -0.914094 0
M  V30 11 N 3.827998 5.013849 -1.011304 0
M  V30 12 C 3.381589 3.991852 -0.258298 0
M  V30 13 N 2.157908 3.506246 0.011520 0
M  V30 14 C 1.969260 2.430984 0.827312 0
M  V30 15 C 0.660370 1.871798 1.140884 0
M  V30 16 C -0.418934 2.437601 1.785291 0
M  V30 17 C -1.576371 1.715685 1.972450 0
M  V30 18 C -1.731537 0.415054 1.541111 0
M  V30 19 C -2.950719 -0.368596 1.732431 0
M  V30 20 N -3.925388 -0.250838 0.720171 0
M  V30 21 C -5.112207 -1.005052 0.832748 0
M  V30 22 C -5.003632 -2.304579 0.074077 0
M  V30 23 C -4.690286 -2.103229 -1.376785 0
M  V30 24 C -3.608017 -3.056193 -1.739560 0
M  V30 25 N -3.604358 -3.983784 -2.737084 0
M  V30 26 N -2.430522 -4.612293 -2.688392 0
M  V30 27 C -1.669870 -4.121178 -1.688196 0
M  V30 28 C -0.326230 -4.492694 -1.257619 0
M  V30 29 C 0.379921 -5.491543 -1.897112 0
M  V30 30 C 1.661536 -5.891660 -1.533932 0
M  V30 31 C 2.215337 -5.219072 -0.465037 0
M  V30 32 C 1.522649 -4.219480 0.183481 0
M  V30 33 N 0.270673 -3.859809 -0.204901 0
M  V30 34 N -2.416284 -3.159848 -1.113910 0
M  V30 35 C -4.203653 -0.721170 -1.700044 0
M  V30 36 C -3.542321 0.009916 -0.600682 0
M  V30 37 C -0.625641 -0.144367 0.888889 0
M  V30 38 C 0.555697 0.556109 0.683950 0
M  V30 39 C 2.223155 0.937528 3.452479 0
M  V30 40 C 2.015373 -0.022002 4.446042 0
M  V30 41 H 3.725822 -2.547778 2.928882 0
M  V30 42 H 4.031081 -0.740810 1.216154 0
M  V30 43 H 5.201896 1.840271 1.564363 0
M  V30 44 H 6.592137 3.750403 0.206362 0
M  V30 45 H 5.917417 5.700682 -1.363565 0
M  V30 46 H -0.228993 3.454389 2.094831 0
M  V30 47 H -2.386536 2.209584 2.482928 0
M  V30 48 H -2.646899 -1.424140 1.953901 0
M  V30 49 H -3.439768 -0.041309 2.697963 0
M  V30 50 H -5.959655 -0.404156 0.474393 0
M  V30 51 H -5.362444 -1.303097 1.885353 0
M  V30 52 H -5.987739 -2.811350 0.150964 0
M  V30 53 H -4.273891 -2.969730 0.571442 0
M  V30 54 H -5.559999 -2.338871 -2.013446 0
M  V30 55 H -2.112926 -5.376400 -3.316155 0
M  V30 56 H -0.086519 -5.999245 -2.734291 0
M  V30 57 H 2.190900 -6.676428 -2.053193 0
M  V30 58 H 3.207668 -5.457856 -0.107358 0
M  V30 59 H 1.926671 -3.664604 1.032862 0
M  V30 60 H -5.076262 -0.135613 -2.056521 0
M  V30 61 H -3.532999 -0.777473 -2.601798 0
M  V30 62 H -2.428627 -0.093714 -0.765203 0
M  V30 63 H -3.709097 1.113723 -0.790387 0
M  V30 64 H -0.743532 -1.173234 0.547288 0
M  V30 65 H 1.318630 -0.006780 0.166915 0
M  V30 66 H 1.758264 1.904053 3.685914 0
M  V30 67 H 1.451420 0.193796 5.340420 0
M  V30 END ATOM
M  V30 BEGIN BOND
M  V30 1 1 1 2
M  V30 2 2 2 3
M  V30 3 1 3 4
M  V30 4 2 4 5
M  V30 5 1 5 6
M  V30 6 2 6 7
M  V30 7 1 7 8
M  V30 8 1 8 9
M  V30 9 2 9 10
M  V30 10 1 10 11
M  V30 11 2 11 12
M  V30 12 1 12 13
M  V30 13 2 13 14
M  V30 14 1 14 15
M  V30 15 2 15 16
M  V30 16 1 16 17
M  V30 17 2 17 18
M  V30 18 1 18 19
M  V30 19 1 19 20
M  V30 20 1 20 21
M  V30 21 1 21 22
M  V30 22 1 22 23
M  V30 23 1 23 24
M  V30 24 2 24 25
M  V30 25 1 25 26
M  V30 26 1 26 27
M  V30 27 1 27 28
M  V30 28 2 28 29
M  V30 29 1 29 30
M  V30 30 2 30 31
M  V30 31 1 31 32
M  V30 32 2 32 33
M  V30 33 2 27 34
M  V30 34 1 23 35
M  V30 35 1 35 36
M  V30 36 1 18 37
M  V30 37 2 37 38
M  V30 38 1 5 39
M  V30 39 2 39 40
M  V30 40 1 40 2
M  V30 41 1 14 6
M  V30 42 1 38 15
M  V30 43 1 12 8
M  V30 44 1 36 20
M  V30 45 1 34 24
M  V30 46 1 33 28
M  V30 47 1 3 41
M  V30 48 1 4 42
M  V30 49 1 7 43
M  V30 50 1 9 44
M  V30 51 1 10 45
M  V30 52 1 16 46
M  V30 53 1 17 47
M  V30 54 1 19 48
M  V30 55 1 19 49
M  V30 56 1 21 50
M  V30 57 1 21 51
M  V30 58 1 22 52
M  V30 59 1 22 53
M  V30 60 1 23 54
M  V30 61 1 26 55
M  V30 62 1 29 56
M  V30 63 1 30 57
M  V30 64 1 31 58
M  V30 65 1 32 59
M  V30 66 1 35 60
M  V30 67 1 35 61
M  V30 68 1 36 62
M  V30 69 1 36 63
M  V30 70 1 37 64
M  V30 71 1 38 65
M  V30 72 1 39 66
M  V30 73 1 40 67
M  V30 END BOND
M  V30 END CTAB
M  END
>  <Dataset>  (558) 
ChEMBL_Kinases

>  <Ligand_Instance>  (558) 
nan

>  <PDB_ID>  (558) 
nan

>  <Standardized_SMILES>  (558) 
Fc1ccc(-c2cn3ccnc3nc2-c2ccc(CN3CCC(c4n[nH]c(-c5ccccn5)n4)CC3)cc2)cc1

>  <Name>  (558) 
nan

>  <Pocket>  (558) 
nan

>  <ATP_Site>  (558) 
nan

>  <Peripheral>  (558) 
nan

>  <Num_H_Atoms_ProtBoundConf>  (558) 
nan

>  <Num_Resolved_Atoms>  (558) 
nan

>  <Num_Not_Resolved_Atoms>  (558) 
nan

$$$$
CHEMBL4128069
     RDKit          3D

  0  0  0  0  0  0  0  0  0  0999 V3000
M  V30 BEGIN CTAB
M  V30 COUNTS 52 54 0 0 0
M  V30 BEGIN ATOM
M  V30 1 C 0.265392 1.779923 -2.228235 0
M  V30 2 N 1.171074 1.946476 -1.090695 0
M  V30 3 C 2.382096 1.243425 -1.212057 0
M  V30 4 O 2.241766 0.691265 -2.359402 0
M  V30 5 C 3.586474 1.010267 -0.468349 0
M  V30 6 C 4.591721 0.332858 -1.119778 0
M  V30 7 C 5.804965 0.166833 -0.495515 0
M  V30 8 C 6.065214 0.652380 0.767168 0
M  V30 9 C 5.038749 1.335736 1.418904 0
M  V30 10 C 3.802997 1.502781 0.782190 0
M  V30 11 O 2.983435 2.186570 1.618883 0
M  V30 12 C 1.816817 1.703292 2.221686 0
M  V30 13 N 1.347201 0.435219 2.033673 0
M  V30 14 C 0.205586 0.036017 2.653713 0
M  V30 15 N -0.332236 -1.246489 2.507378 0
M  V30 16 C -1.264305 -1.881367 1.649668 0
M  V30 17 C -1.866710 -1.138215 0.662268 0
M  V30 18 C -2.763854 -1.869427 -0.116476 0
M  V30 19 O -3.456842 -1.269204 -1.155971 0
M  V30 20 C -3.187227 0.123183 -1.362337 0
M  V30 21 C -3.024818 -3.222115 0.085817 0
M  V30 22 O -3.934508 -3.898140 -0.728649 0
M  V30 23 C -5.296776 -3.901484 -0.291860 0
M  V30 24 C -2.364989 -3.898472 1.115465 0
M  V30 25 O -2.672348 -5.236989 1.257928 0
M  V30 26 C -2.090263 -6.041821 2.244558 0
M  V30 27 C -1.468499 -3.216970 1.912292 0
M  V30 28 N -0.441297 0.911661 3.447072 0
M  V30 29 C -0.002577 2.170004 3.652035 0
M  V30 30 C 1.153701 2.599117 3.034158 0
M  V30 31 Br 1.823897 4.386625 3.293250 0
M  V30 32 H 0.038190 0.721223 -2.446921 0
M  V30 33 H -0.691717 2.280705 -1.983540 0
M  V30 34 H 0.647347 2.270211 -3.146480 0
M  V30 35 H 1.125333 2.485334 -0.221276 0
M  V30 36 H 4.471554 -0.081383 -2.113414 0
M  V30 37 H 6.580324 -0.371354 -1.032737 0
M  V30 38 H 7.046703 0.467679 1.158718 0
M  V30 39 H 5.352111 1.671799 2.399804 0
M  V30 40 H 0.189168 -1.693696 3.291120 0
M  V30 41 H -1.681192 -0.102000 0.490140 0
M  V30 42 H -3.532449 0.672453 -0.451530 0
M  V30 43 H -2.120450 0.318542 -1.479175 0
M  V30 44 H -3.764130 0.542650 -2.211065 0
M  V30 45 H -5.436877 -3.370360 0.660009 0
M  V30 46 H -5.656288 -4.947325 -0.127554 0
M  V30 47 H -5.978832 -3.455951 -1.035919 0
M  V30 48 H -1.050767 -5.760258 2.432917 0
M  V30 49 H -2.685222 -5.970408 3.179914 0
M  V30 50 H -2.127853 -7.115186 1.894531 0
M  V30 51 H -0.962151 -3.745900 2.706734 0
M  V30 52 H -0.512297 2.893741 4.290629 0
M  V30 END ATOM
M  V30 BEGIN BOND
M  V30 1 1 1 2
M  V30 2 1 2 3
M  V30 3 2 3 4
M  V30 4 1 3 5
M  V30 5 2 5 6
M  V30 6 1 6 7
M  V30 7 2 7 8
M  V30 8 1 8 9
M  V30 9 2 9 10
M  V30 10 1 10 11
M  V30 11 1 11 12
M  V30 12 2 12 13
M  V30 13 1 13 14
M  V30 14 1 14 15
M  V30 15 1 15 16
M  V30 16 2 16 17
M  V30 17 1 17 18
M  V30 18 1 18 19
M  V30 19 1 19 20
M  V30 20 2 18 21
M  V30 21 1 21 22
M  V30 22 1 22 23
M  V30 23 1 21 24
M  V30 24 1 24 25
M  V30 25 1 25 26
M  V30 26 2 24 27
M  V30 27 2 14 28
M  V30 28 1 28 29
M  V30 29 2 29 30
M  V30 30 1 30 31
M  V30 31 1 10 5
M  V30 32 1 30 12
M  V30 33 1 27 16
M  V30 34 1 1 32
M  V30 35 1 1 33
M  V30 36 1 1 34
M  V30 37 1 2 35
M  V30 38 1 6 36
M  V30 39 1 7 37
M  V30 40 1 8 38
M  V30 41 1 9 39
M  V30 42 1 15 40
M  V30 43 1 17 41
M  V30 44 1 20 42
M  V30 45 1 20 43
M  V30 46 1 20 44
M  V30 47 1 23 45
M  V30 48 1 23 46
M  V30 49 1 23 47
M  V30 50 1 26 48
M  V30 51 1 26 49
M  V30 52 1 26 50
M  V30 53 1 27 51
M  V30 54 1 29 52
M  V30 END BOND
M  V30 END CTAB
M  END
>  <Dataset>  (559) 
ChEMBL_Kinases

>  <Ligand_Instance>  (559) 
nan

>  <PDB_ID>  (559) 
nan

>  <Standardized_SMILES>  (559) 
CNC(=O)c1ccccc1Oc1nc(Nc2cc(OC)c(OC)c(OC)c2)ncc1Br

>  <Name>  (559) 
nan

>  <Pocket>  (559) 
nan

>  <ATP_Site>  (559) 
nan

>  <Peripheral>  (559) 
nan

>  <Num_H_Atoms_ProtBoundConf>  (559) 
nan

>  <Num_Resolved_Atoms>  (559) 
nan

>  <Num_Not_Resolved_Atoms>  (559) 
nan

$$$$
CHEMBL3355543
     RDKit          3D

  0  0  0  0  0  0  0  0  0  0999 V3000
M  V30 BEGIN CTAB
M  V30 COUNTS 45 48 0 0 0
M  V30 BEGIN ATOM
M  V30 1 N 0.415384 -4.088736 0.934812 0
M  V30 2 C 0.870119 -3.776557 -0.392096 0 CFG=1
M  V30 3 C -0.314612 -3.873180 -1.319180 0
M  V30 4 C -0.005283 -3.430224 -2.733226 0
M  V30 5 C 1.175148 -2.456116 -2.742959 0
M  V30 6 N 1.071121 -1.693913 -1.539701 0
M  V30 7 C 0.578666 -0.365769 -1.428475 0
M  V30 8 C 0.132438 0.337425 -2.527680 0
M  V30 9 C -0.343536 1.642185 -2.370673 0
M  V30 10 N -0.346791 2.174495 -1.115088 0
M  V30 11 N -0.750090 3.378704 -0.745515 0
M  V30 12 C -0.596351 3.537426 0.594357 0
M  V30 13 C -0.061653 2.336782 1.053344 0
M  V30 14 C 0.334055 1.860365 2.380919 0
M  V30 15 C 1.541964 1.198078 2.502632 0
M  V30 16 C 2.011308 0.708156 3.704310 0
M  V30 17 C 1.173777 0.933920 4.778577 0
M  V30 18 C -0.040569 1.588804 4.710467 0
M  V30 19 O -0.760187 1.731209 5.889434 0
M  V30 20 C -1.688860 0.700689 6.238353 0
M  V30 21 F -2.661459 0.554284 5.271701 0
M  V30 22 F -2.253118 0.943787 7.470887 0
M  V30 23 F -0.985193 -0.497534 6.328054 0
M  V30 24 C -0.464630 2.058129 3.492361 0
M  V30 25 C 0.094602 1.475088 -0.036941 0
M  V30 26 N 0.552401 0.209652 -0.213143 0
M  V30 27 C 1.529855 -2.425045 -0.401029 0
M  V30 28 H 0.863319 -3.488659 1.668240 0
M  V30 29 H -0.619545 -3.986757 1.005531 0
M  V30 30 H 1.587748 -4.587115 -0.684905 0
M  V30 31 H -0.588922 -4.948466 -1.385519 0
M  V30 32 H -1.156530 -3.291624 -0.896852 0
M  V30 33 H 0.286552 -4.277962 -3.396391 0
M  V30 34 H -0.862189 -2.938253 -3.235156 0
M  V30 35 H 1.133545 -1.865503 -3.660181 0
M  V30 36 H 2.125004 -3.056206 -2.800580 0
M  V30 37 H 0.139012 -0.093675 -3.519301 0
M  V30 38 H -0.700233 2.214049 -3.226071 0
M  V30 39 H -0.781103 4.314357 1.303622 0
M  V30 40 H 2.154752 1.056340 1.600273 0
M  V30 41 H 2.952021 0.187767 3.821949 0
M  V30 42 H 1.518439 0.555680 5.752631 0
M  V30 43 H -1.396579 2.564523 3.421167 0
M  V30 44 H 2.638400 -2.598890 -0.405477 0
M  V30 45 H 1.326638 -1.894713 0.572664 0
M  V30 END ATOM
M  V30 BEGIN BOND
M  V30 1 1 1 2
M  V30 2 1 2 3
M  V30 3 1 3 4
M  V30 4 1 4 5
M  V30 5 1 5 6
M  V30 6 1 6 7
M  V30 7 1 7 8
M  V30 8 2 8 9
M  V30 9 1 9 10
M  V30 10 1 10 11
M  V30 11 2 11 12
M  V30 12 1 12 13
M  V30 13 1 13 14
M  V30 14 2 14 15
M  V30 15 1 15 16
M  V30 16 2 16 17
M  V30 17 1 17 18
M  V30 18 1 18 19
M  V30 19 1 19 20
M  V30 20 1 20 21
M  V30 21 1 20 22
M  V30 22 1 20 23
M  V30 23 2 18 24
M  V30 24 2 13 25
M  V30 25 1 25 26
M  V30 26 1 6 27
M  V30 27 1 27 2
M  V30 28 2 26 7
M  V30 29 1 25 10
M  V30 30 1 24 14
M  V30 31 1 1 28
M  V30 32 1 1 29
M  V30 33 1 2 30 CFG=3
M  V30 34 1 3 31
M  V30 35 1 3 32
M  V30 36 1 4 33
M  V30 37 1 4 34
M  V30 38 1 5 35
M  V30 39 1 5 36
M  V30 40 1 8 37
M  V30 41 1 9 38
M  V30 42 1 12 39
M  V30 43 1 15 40
M  V30 44 1 16 41
M  V30 45 1 17 42
M  V30 46 1 24 43
M  V30 47 1 27 44
M  V30 48 1 27 45
M  V30 END BOND
M  V30 END CTAB
M  END
>  <Dataset>  (560) 
ChEMBL_Kinases

>  <Ligand_Instance>  (560) 
nan

>  <PDB_ID>  (560) 
nan

>  <Standardized_SMILES>  (560) 
N[C@H]1CCCN(c2ccn3ncc(-c4cccc(OC(F)(F)F)c4)c3n2)C1

>  <Name>  (560) 
nan

>  <Pocket>  (560) 
nan

>  <ATP_Site>  (560) 
nan

>  <Peripheral>  (560) 
nan

>  <Num_H_Atoms_ProtBoundConf>  (560) 
nan

>  <Num_Resolved_Atoms>  (560) 
nan

>  <Num_Not_Resolved_Atoms>  (560) 
nan

$$$$
CHEMBL4127890
     RDKit          3D

  0  0  0  0  0  0  0  0  0  0999 V3000
M  V30 BEGIN CTAB
M  V30 COUNTS 44 48 0 0 0
M  V30 BEGIN ATOM
M  V30 1 O 5.865318 -2.459652 1.767359 0
M  V30 2 C 4.705839 -2.854416 1.540120 0
M  V30 3 N 4.212855 -4.208309 1.482238 0
M  V30 4 C 2.785657 -4.184722 1.178202 0
M  V30 5 C 2.405173 -2.794629 1.699958 0
M  V30 6 N 3.570134 -2.039186 1.278315 0
M  V30 7 C 3.555109 -0.734632 0.713419 0
M  V30 8 C 4.706244 -0.090564 0.337760 0
M  V30 9 N 4.652664 1.148052 -0.194896 0
M  V30 10 C 3.451794 1.768592 -0.363501 0
M  V30 11 C 2.300263 1.138884 0.005949 0
M  V30 12 C 0.990286 1.760684 -0.154065 0
M  V30 13 C 0.772228 3.016707 -0.680510 0
M  V30 14 C -0.491509 3.551710 -0.806752 0
M  V30 15 C -1.597896 2.854315 -0.411711 0
M  V30 16 N -2.930053 3.071724 -0.394491 0
M  V30 17 C -3.595226 2.020290 0.117158 0
M  V30 18 C -2.661918 1.040040 0.464141 0
M  V30 19 C -2.843640 -0.297167 1.059254 0
M  V30 20 C -3.015178 -1.351718 0.169676 0
M  V30 21 C -3.195790 -2.655429 0.584292 0
M  V30 22 C -3.208819 -2.939712 1.943389 0
M  V30 23 C -3.036985 -1.883471 2.835350 0
M  V30 24 C -2.857074 -0.582850 2.408630 0
M  V30 25 F -2.687014 0.469199 3.244337 0
M  V30 26 C -1.431542 1.591645 0.121944 0
M  V30 27 C -0.152012 1.089741 0.232508 0
M  V30 28 N 2.386141 -0.094743 0.533746 0
M  V30 29 H 4.777961 -5.070575 1.632149 0
M  V30 30 H 2.628849 -4.187202 0.062914 0
M  V30 31 H 2.231379 -4.981323 1.694669 0
M  V30 32 H 2.296659 -2.856389 2.796292 0
M  V30 33 H 1.477621 -2.431887 1.199044 0
M  V30 34 H 5.679879 -0.544317 0.452747 0
M  V30 35 H 3.462910 2.742871 -0.786937 0
M  V30 36 H 1.626362 3.590964 -1.001041 0
M  V30 37 H -0.632280 4.534291 -1.221091 0
M  V30 38 H -3.388673 3.961470 -0.741956 0
M  V30 39 H -4.658722 1.885553 0.264609 0
M  V30 40 H -3.020154 -1.229488 -0.923914 0
M  V30 41 H -3.330093 -3.481238 -0.110497 0
M  V30 42 H -3.349818 -3.961826 2.297138 0
M  V30 43 H -3.043422 -2.079648 3.895927 0
M  V30 44 H -0.015622 0.087542 0.655714 0
M  V30 END ATOM
M  V30 BEGIN BOND
M  V30 1 2 1 2
M  V30 2 1 2 3
M  V30 3 1 3 4
M  V30 4 1 4 5
M  V30 5 1 5 6
M  V30 6 1 6 7
M  V30 7 2 7 8
M  V30 8 1 8 9
M  V30 9 2 9 10
M  V30 10 1 10 11
M  V30 11 1 11 12
M  V30 12 2 12 13
M  V30 13 1 13 14
M  V30 14 2 14 15
M  V30 15 1 15 16
M  V30 16 1 16 17
M  V30 17 2 17 18
M  V30 18 1 18 19
M  V30 19 2 19 20
M  V30 20 1 20 21
M  V30 21 2 21 22
M  V30 22 1 22 23
M  V30 23 2 23 24
M  V30 24 1 24 25
M  V30 25 1 18 26
M  V30 26 2 26 27
M  V30 27 2 11 28
M  V30 28 1 6 2
M  V30 29 1 28 7
M  V30 30 1 27 12
M  V30 31 1 26 15
M  V30 32 1 24 19
M  V30 33 1 3 29
M  V30 34 1 4 30
M  V30 35 1 4 31
M  V30 36 1 5 32
M  V30 37 1 5 33
M  V30 38 1 8 34
M  V30 39 1 10 35
M  V30 40 1 13 36
M  V30 41 1 14 37
M  V30 42 1 16 38
M  V30 43 1 17 39
M  V30 44 1 20 40
M  V30 45 1 21 41
M  V30 46 1 22 42
M  V30 47 1 23 43
M  V30 48 1 27 44
M  V30 END BOND
M  V30 END CTAB
M  END
>  <Dataset>  (561) 
ChEMBL_Kinases

>  <Ligand_Instance>  (561) 
nan

>  <PDB_ID>  (561) 
nan

>  <Standardized_SMILES>  (561) 
O=C1NCCN1c1cncc(-c2ccc3[nH]cc(-c4ccccc4F)c3c2)n1

>  <Name>  (561) 
nan

>  <Pocket>  (561) 
nan

>  <ATP_Site>  (561) 
nan

>  <Peripheral>  (561) 
nan

>  <Num_H_Atoms_ProtBoundConf>  (561) 
nan

>  <Num_Resolved_Atoms>  (561) 
nan

>  <Num_Not_Resolved_Atoms>  (561) 
nan

$$$$
CHEMBL3672059
     RDKit          3D

  0  0  0  0  0  0  0  0  0  0999 V3000
M  V30 BEGIN CTAB
M  V30 COUNTS 73 80 0 0 0
M  V30 BEGIN ATOM
M  V30 1 F 4.842951 -6.408225 2.851134 0
M  V30 2 C 4.740317 -5.264199 2.107222 0
M  V30 3 C 5.249300 -4.111328 2.697562 0
M  V30 4 C 5.132667 -2.972653 1.926049 0
M  V30 5 C 4.572873 -2.895229 0.666609 0
M  V30 6 C 4.501673 -1.632948 -0.059175 0
M  V30 7 C 5.559744 -0.841681 -0.430960 0
M  V30 8 N 5.387583 0.311115 -1.100646 0
M  V30 9 N 6.207188 1.232652 -1.566540 0
M  V30 10 C 5.493507 2.212538 -2.179373 0
M  V30 11 C 5.978622 3.452946 -2.854110 0
M  V30 12 C 5.350678 3.693335 -4.212466 0
M  V30 13 C 5.048606 4.573995 -3.028270 0
M  V30 14 N 4.194610 1.863718 -2.076122 0
M  V30 15 C 4.126100 0.687198 -1.409101 0
M  V30 16 N 3.050416 -0.074510 -1.055435 0
M  V30 17 C 3.219840 -1.244568 -0.376237 0
M  V30 18 C 1.952150 -1.908178 -0.096108 0
M  V30 19 C 1.377006 -2.198871 1.124555 0
M  V30 20 C 0.156137 -2.838127 1.177281 0
M  V30 21 C -0.545595 -3.215494 0.051000 0
M  V30 22 C -1.840679 -3.891416 0.026610 0
M  V30 23 N -2.977627 -3.034431 -0.001541 0
M  V30 24 C -4.237033 -3.751062 -0.035140 0
M  V30 25 C -5.382154 -2.794381 0.316609 0
M  V30 26 C -5.287385 -2.378426 1.773655 0
M  V30 27 C -5.844164 -1.023916 2.012202 0
M  V30 28 N -6.864921 -0.583451 2.802342 0
M  V30 29 N -6.985582 0.735934 2.679454 0
M  V30 30 C -6.049401 1.157654 1.813745 0
M  V30 31 C -5.812908 2.528702 1.378913 0
M  V30 32 C -4.806937 2.806735 0.477682 0
M  V30 33 C -4.566812 4.097404 0.052056 0
M  V30 34 Cl -3.286418 4.453718 -1.096133 0
M  V30 35 C -5.321098 5.161559 0.509153 0
M  V30 36 C -6.310085 4.789957 1.412154 0
M  V30 37 N -6.566723 3.538100 1.844978 0
M  V30 38 N -5.358282 0.076908 1.412292 0
M  V30 39 C -3.824179 -2.350125 2.219845 0
M  V30 40 C -3.001508 -2.004294 1.002350 0
M  V30 41 C 0.056505 -2.910829 -1.176365 0
M  V30 42 C 1.289278 -2.265741 -1.265174 0
M  V30 43 C 4.097139 -4.090357 0.168165 0
M  V30 44 C 4.158659 -5.289099 0.846411 0
M  V30 45 H 5.698322 -4.097862 3.673413 0
M  V30 46 H 5.532131 -2.063628 2.386484 0
M  V30 47 H 6.543744 -1.190636 -0.158624 0
M  V30 48 H 7.089647 3.594156 -2.834490 0
M  V30 49 H 4.485921 3.076275 -4.541170 0
M  V30 50 H 6.011440 4.079881 -5.025741 0
M  V30 51 H 4.055694 4.550818 -2.558030 0
M  V30 52 H 5.425692 5.616551 -3.142052 0
M  V30 53 H 1.952831 -1.890630 1.961203 0
M  V30 54 H -0.279784 -3.059041 2.134443 0
M  V30 55 H -1.889163 -4.533968 -0.880659 0
M  V30 56 H -1.873199 -4.612463 0.880502 0
M  V30 57 H -4.417973 -4.061180 -1.087136 0
M  V30 58 H -4.264757 -4.636219 0.608119 0
M  V30 59 H -6.323456 -3.341248 0.190930 0
M  V30 60 H -5.382518 -1.946383 -0.378996 0
M  V30 61 H -5.802078 -3.152633 2.380687 0
M  V30 62 H -7.695947 1.277459 3.188797 0
M  V30 63 H -4.210864 1.974997 0.115807 0
M  V30 64 H -5.203843 6.198823 0.231184 0
M  V30 65 H -6.978025 5.532351 1.851014 0
M  V30 66 H -3.558381 -3.310398 2.677081 0
M  V30 67 H -3.634464 -1.545415 2.959081 0
M  V30 68 H -2.003676 -1.649135 1.246877 0
M  V30 69 H -3.516539 -1.127462 0.516450 0
M  V30 70 H -0.469904 -3.193933 -2.098331 0
M  V30 71 H 1.651589 -2.085193 -2.282632 0
M  V30 72 H 3.643047 -4.101483 -0.819905 0
M  V30 73 H 3.781191 -6.208654 0.437689 0
M  V30 END ATOM
M  V30 BEGIN BOND
M  V30 1 1 1 2
M  V30 2 2 2 3
M  V30 3 1 3 4
M  V30 4 2 4 5
M  V30 5 1 5 6
M  V30 6 2 6 7
M  V30 7 1 7 8
M  V30 8 1 8 9
M  V30 9 2 9 10
M  V30 10 1 10 11
M  V30 11 1 11 12
M  V30 12 1 12 13
M  V30 13 1 10 14
M  V30 14 2 14 15
M  V30 15 1 15 16
M  V30 16 2 16 17
M  V30 17 1 17 18
M  V30 18 2 18 19
M  V30 19 1 19 20
M  V30 20 2 20 21
M  V30 21 1 21 22
M  V30 22 1 22 23
M  V30 23 1 23 24
M  V30 24 1 24 25
M  V30 25 1 25 26
M  V30 26 1 26 27
M  V30 27 2 27 28
M  V30 28 1 28 29
M  V30 29 1 29 30
M  V30 30 1 30 31
M  V30 31 2 31 32
M  V30 32 1 32 33
M  V30 33 1 33 34
M  V30 34 2 33 35
M  V30 35 1 35 36
M  V30 36 2 36 37
M  V30 37 2 30 38
M  V30 38 1 26 39
M  V30 39 1 39 40
M  V30 40 1 21 41
M  V30 41 2 41 42
M  V30 42 1 5 43
M  V30 43 2 43 44
M  V30 44 1 44 2
M  V30 45 1 17 6
M  V30 46 1 42 18
M  V30 47 1 15 8
M  V30 48 1 40 23
M  V30 49 1 13 11
M  V30 50 1 38 27
M  V30 51 1 37 31
M  V30 52 1 3 45
M  V30 53 1 4 46
M  V30 54 1 7 47
M  V30 55 1 11 48
M  V30 56 1 12 49
M  V30 57 1 12 50
M  V30 58 1 13 51
M  V30 59 1 13 52
M  V30 60 1 19 53
M  V30 61 1 20 54
M  V30 62 1 22 55
M  V30 63 1 22 56
M  V30 64 1 24 57
M  V30 65 1 24 58
M  V30 66 1 25 59
M  V30 67 1 25 60
M  V30 68 1 26 61
M  V30 69 1 29 62
M  V30 70 1 32 63
M  V30 71 1 35 64
M  V30 72 1 36 65
M  V30 73 1 39 66
M  V30 74 1 39 67
M  V30 75 1 40 68
M  V30 76 1 40 69
M  V30 77 1 41 70
M  V30 78 1 42 71
M  V30 79 1 43 72
M  V30 80 1 44 73
M  V30 END BOND
M  V30 END CTAB
M  END
>  <Dataset>  (562) 
ChEMBL_Kinases

>  <Ligand_Instance>  (562) 
nan

>  <PDB_ID>  (562) 
nan

>  <Standardized_SMILES>  (562) 
Fc1ccc(-c2cn3nc(C4CC4)nc3nc2-c2ccc(CN3CCC(c4n[nH]c(-c5cc(Cl)ccn5)n4)CC3)cc2)cc1

>  <Name>  (562) 
nan

>  <Pocket>  (562) 
nan

>  <ATP_Site>  (562) 
nan

>  <Peripheral>  (562) 
nan

>  <Num_H_Atoms_ProtBoundConf>  (562) 
nan

>  <Num_Resolved_Atoms>  (562) 
nan

>  <Num_Not_Resolved_Atoms>  (562) 
nan

$$$$
CHEMBL3672058
     RDKit          3D

  0  0  0  0  0  0  0  0  0  0999 V3000
M  V30 BEGIN CTAB
M  V30 COUNTS 73 80 0 0 0
M  V30 BEGIN ATOM
M  V30 1 F 4.830810 -6.424753 1.422948 0
M  V30 2 C 4.752983 -5.165164 0.917165 0
M  V30 3 C 5.203758 -4.046311 1.613186 0
M  V30 4 C 5.092014 -2.798998 1.036085 0
M  V30 5 C 4.543908 -2.619753 -0.218831 0
M  V30 6 C 4.383290 -1.344004 -0.909079 0
M  V30 7 C 5.364908 -0.451543 -1.287929 0
M  V30 8 N 5.029319 0.685807 -1.921622 0
M  V30 9 N 5.816220 1.675521 -2.370166 0
M  V30 10 C 5.014734 2.614502 -2.942985 0
M  V30 11 C 5.384061 3.900676 -3.587823 0
M  V30 12 C 4.418991 5.025571 -3.485268 0
M  V30 13 C 4.539316 4.279244 -4.766922 0
M  V30 14 N 3.746424 2.176491 -2.832065 0
M  V30 15 C 3.728183 0.982742 -2.202457 0
M  V30 16 N 2.758590 0.101623 -1.828452 0
M  V30 17 C 3.072177 -1.060032 -1.183970 0
M  V30 18 C 1.850377 -1.806277 -0.903678 0
M  V30 19 C 1.524660 -2.013965 0.432937 0
M  V30 20 C 0.365575 -2.722274 0.712719 0
M  V30 21 C -0.483562 -3.233170 -0.249644 0
M  V30 22 C -1.703351 -3.975879 0.078307 0
M  V30 23 N -2.872189 -3.159314 0.200890 0
M  V30 24 C -2.809755 -2.149704 1.208282 0
M  V30 25 C -3.256112 -2.765563 2.517590 0
M  V30 26 C -4.772196 -2.778642 2.481910 0
M  V30 27 C -5.228612 -1.431793 2.928236 0
M  V30 28 N -5.995632 -1.164736 3.985276 0
M  V30 29 N -6.216574 0.152319 4.098961 0
M  V30 30 C -5.578241 0.758945 3.091702 0
M  V30 31 C -5.508404 2.178069 2.773816 0
M  V30 32 C -4.805485 2.624683 1.698149 0
M  V30 33 C -4.731931 3.962715 1.387196 0
M  V30 34 C -5.372861 4.907795 2.160272 0
M  V30 35 C -6.065964 4.401698 3.231041 0
M  V30 36 N -6.138701 3.090571 3.536649 0
M  V30 37 N -4.985834 -0.222957 2.394637 0
M  V30 38 C -5.171679 -3.092975 1.063973 0
M  V30 39 C -4.085732 -3.905613 0.353722 0
M  V30 40 C -0.129133 -3.008027 -1.584938 0
M  V30 41 C 1.030283 -2.299157 -1.915004 0
M  V30 42 C 4.086670 -3.737317 -0.929529 0
M  V30 43 C 4.200727 -4.989459 -0.345980 0
M  V30 44 H 5.635509 -4.167716 2.596446 0
M  V30 45 H 5.430599 -1.908411 1.545141 0
M  V30 46 H 6.361436 -0.751424 -1.034605 0
M  V30 47 H 6.479454 4.131640 -3.608908 0
M  V30 48 H 4.823312 6.067205 -3.511046 0
M  V30 49 H 3.497667 4.934950 -2.886802 0
M  V30 50 H 5.010475 4.789073 -5.640332 0
M  V30 51 H 3.698827 3.620063 -5.071707 0
M  V30 52 H 2.151113 -1.637555 1.212368 0
M  V30 53 H 0.154150 -2.859073 1.767746 0
M  V30 54 H -1.896574 -4.815643 -0.618357 0
M  V30 55 H -1.540944 -4.469405 1.072789 0
M  V30 56 H -1.844209 -1.621513 1.299127 0
M  V30 57 H -3.529310 -1.339557 0.887946 0
M  V30 58 H -2.975445 -3.852350 2.576558 0
M  V30 59 H -2.875919 -2.203843 3.397641 0
M  V30 60 H -5.188889 -3.532957 3.183571 0
M  V30 61 H -6.771082 0.676881 4.812269 0
M  V30 62 H -4.298500 1.890364 1.084778 0
M  V30 63 H -4.161736 4.293608 0.519543 0
M  V30 64 H -5.292669 5.934952 1.887591 0
M  V30 65 H -6.585222 5.140654 3.861491 0
M  V30 66 H -6.045050 -3.776328 1.113220 0
M  V30 67 H -5.488644 -2.233366 0.474093 0
M  V30 68 H -4.512757 -4.216748 -0.617252 0
M  V30 69 H -3.877776 -4.777717 0.991827 0
M  V30 70 H -0.743914 -3.377015 -2.404729 0
M  V30 71 H 1.317383 -2.117159 -2.939553 0
M  V30 72 H 3.649669 -3.638128 -1.918402 0
M  V30 73 H 3.833752 -5.840702 -0.928632 0
M  V30 END ATOM
M  V30 BEGIN BOND
M  V30 1 1 1 2
M  V30 2 2 2 3
M  V30 3 1 3 4
M  V30 4 2 4 5
M  V30 5 1 5 6
M  V30 6 2 6 7
M  V30 7 1 7 8
M  V30 8 1 8 9
M  V30 9 2 9 10
M  V30 10 1 10 11
M  V30 11 1 11 12
M  V30 12 1 12 13
M  V30 13 1 10 14
M  V30 14 2 14 15
M  V30 15 1 15 16
M  V30 16 2 16 17
M  V30 17 1 17 18
M  V30 18 2 18 19
M  V30 19 1 19 20
M  V30 20 2 20 21
M  V30 21 1 21 22
M  V30 22 1 22 23
M  V30 23 1 23 24
M  V30 24 1 24 25
M  V30 25 1 25 26
M  V30 26 1 26 27
M  V30 27 2 27 28
M  V30 28 1 28 29
M  V30 29 1 29 30
M  V30 30 1 30 31
M  V30 31 2 31 32
M  V30 32 1 32 33
M  V30 33 2 33 34
M  V30 34 1 34 35
M  V30 35 2 35 36
M  V30 36 2 30 37
M  V30 37 1 26 38
M  V30 38 1 38 39
M  V30 39 1 21 40
M  V30 40 2 40 41
M  V30 41 1 5 42
M  V30 42 2 42 43
M  V30 43 1 43 2
M  V30 44 1 17 6
M  V30 45 1 41 18
M  V30 46 1 15 8
M  V30 47 1 39 23
M  V30 48 1 13 11
M  V30 49 1 37 27
M  V30 50 1 36 31
M  V30 51 1 3 44
M  V30 52 1 4 45
M  V30 53 1 7 46
M  V30 54 1 11 47
M  V30 55 1 12 48
M  V30 56 1 12 49
M  V30 57 1 13 50
M  V30 58 1 13 51
M  V30 59 1 19 52
M  V30 60 1 20 53
M  V30 61 1 22 54
M  V30 62 1 22 55
M  V30 63 1 24 56
M  V30 64 1 24 57
M  V30 65 1 25 58
M  V30 66 1 25 59
M  V30 67 1 26 60
M  V30 68 1 29 61
M  V30 69 1 32 62
M  V30 70 1 33 63
M  V30 71 1 34 64
M  V30 72 1 35 65
M  V30 73 1 38 66
M  V30 74 1 38 67
M  V30 75 1 39 68
M  V30 76 1 39 69
M  V30 77 1 40 70
M  V30 78 1 41 71
M  V30 79 1 42 72
M  V30 80 1 43 73
M  V30 END BOND
M  V30 END CTAB
M  END
>  <Dataset>  (563) 
ChEMBL_Kinases

>  <Ligand_Instance>  (563) 
nan

>  <PDB_ID>  (563) 
nan

>  <Standardized_SMILES>  (563) 
Fc1ccc(-c2cn3nc(C4CC4)nc3nc2-c2ccc(CN3CCC(c4n[nH]c(-c5ccccn5)n4)CC3)cc2)cc1

>  <Name>  (563) 
nan

>  <Pocket>  (563) 
nan

>  <ATP_Site>  (563) 
nan

>  <Peripheral>  (563) 
nan

>  <Num_H_Atoms_ProtBoundConf>  (563) 
nan

>  <Num_Resolved_Atoms>  (563) 
nan

>  <Num_Not_Resolved_Atoms>  (563) 
nan

$$$$
CHEMBL3672057
     RDKit          3D

  0  0  0  0  0  0  0  0  0  0999 V3000
M  V30 BEGIN CTAB
M  V30 COUNTS 76 83 0 0 0
M  V30 BEGIN ATOM
M  V30 1 C 3.453662 -6.690156 4.010217 0
M  V30 2 C 4.219758 -6.250586 2.809550 0
M  V30 3 C 5.091050 -7.133852 2.212512 0
M  V30 4 C 5.757620 -6.627566 1.102341 0
M  V30 5 C 5.560846 -5.346644 0.639181 0
M  V30 6 C 4.669999 -4.506590 1.284012 0
M  V30 7 C 4.395867 -3.134039 0.856763 0
M  V30 8 N 4.867157 -2.395140 -0.144130 0
M  V30 9 C 4.323175 -1.157469 -0.164275 0
M  V30 10 C 4.636583 -0.080305 -1.154021 0
M  V30 11 C 3.579971 0.058467 -2.204205 0
M  V30 12 C 2.572901 1.140202 -1.999390 0
M  V30 13 N 2.952248 2.250155 -1.206924 0
M  V30 14 C 2.405827 2.334096 0.108586 0
M  V30 15 C 0.950478 2.251190 0.222470 0
M  V30 16 C 0.391499 0.989157 0.465143 0
M  V30 17 C -0.993232 0.817380 0.583173 0
M  V30 18 C -1.853361 1.919601 0.458906 0
M  V30 19 C -3.229227 1.471881 0.624028 0
M  V30 20 N -4.081827 1.826883 1.600955 0
M  V30 21 C -5.339512 1.330660 1.661561 0
M  V30 22 N -6.355021 1.525118 2.522241 0
M  V30 23 C -7.434625 0.778278 2.144023 0
M  V30 24 C -8.740626 0.728111 2.851774 0
M  V30 25 C -9.968483 0.693735 1.932327 0
M  V30 26 C -9.592598 -0.483286 2.748675 0
M  V30 27 N -7.050172 0.127188 1.034751 0
M  V30 28 N -5.798177 0.451952 0.738958 0
M  V30 29 C -4.967107 0.068026 -0.265475 0
M  V30 30 C -3.662418 0.564496 -0.353112 0
M  V30 31 C -2.908411 0.050137 -1.495837 0
M  V30 32 C -2.595611 -1.300031 -1.557842 0
M  V30 33 C -1.894017 -1.845843 -2.599487 0
M  V30 34 C -1.456269 -1.070164 -3.655033 0
M  V30 35 F -0.761163 -1.590389 -4.694000 0
M  V30 36 C -1.756564 0.276504 -3.613709 0
M  V30 37 C -2.459919 0.816592 -2.567018 0
M  V30 38 C -1.304565 3.161953 0.220547 0
M  V30 39 C 0.060837 3.297720 0.109634 0
M  V30 40 C 4.388165 2.408507 -1.140488 0
M  V30 41 C 5.074389 1.203902 -0.558637 0
M  V30 42 N 3.500630 -1.177314 0.869094 0
M  V30 43 N 3.528838 -2.341318 1.489177 0
M  V30 44 N 4.021908 -4.985623 2.356481 0
M  V30 45 H 2.638903 -7.420745 3.743843 0
M  V30 46 H 4.161201 -7.151193 4.719727 0
M  V30 47 H 2.922479 -5.829508 4.476910 0
M  V30 48 H 5.237588 -8.141271 2.583798 0
M  V30 49 H 6.454764 -7.291329 0.598622 0
M  V30 50 H 6.088109 -4.947820 -0.239181 0
M  V30 51 H 5.527439 -0.513909 -1.714155 0
M  V30 52 H 4.037384 0.262963 -3.222805 0
M  V30 53 H 3.052519 -0.911103 -2.360725 0
M  V30 54 H 1.630215 0.661755 -1.649387 0
M  V30 55 H 2.252856 1.584809 -3.005127 0
M  V30 56 H 2.853313 1.523557 0.721869 0
M  V30 57 H 2.687065 3.345213 0.539462 0
M  V30 58 H 1.062434 0.123096 0.570069 0
M  V30 59 H -1.280450 -0.223758 0.774014 0
M  V30 60 H -8.837270 1.359189 3.742545 0
M  V30 61 H -9.810979 0.615258 0.840727 0
M  V30 62 H -10.860868 1.244335 2.253565 0
M  V30 63 H -10.222224 -0.722667 3.627054 0
M  V30 64 H -9.225476 -1.386559 2.227159 0
M  V30 65 H -5.371750 -0.626349 -0.970641 0
M  V30 66 H -2.892511 -1.989797 -0.780136 0
M  V30 67 H -1.632373 -2.894597 -2.678777 0
M  V30 68 H -1.431909 0.932300 -4.427553 0
M  V30 69 H -2.709302 1.888350 -2.517941 0
M  V30 70 H -2.046253 3.913348 0.145636 0
M  V30 71 H 0.450469 4.276583 -0.075865 0
M  V30 72 H 4.759134 2.532374 -2.177573 0
M  V30 73 H 4.622573 3.326263 -0.585152 0
M  V30 74 H 6.170837 1.319318 -0.607739 0
M  V30 75 H 4.835304 1.185414 0.532398 0
M  V30 76 H 2.908880 -2.448921 2.319317 0
M  V30 END ATOM
M  V30 BEGIN BOND
M  V30 1 1 1 2
M  V30 2 2 2 3
M  V30 3 1 3 4
M  V30 4 2 4 5
M  V30 5 1 5 6
M  V30 6 1 6 7
M  V30 7 2 7 8
M  V30 8 1 8 9
M  V30 9 1 9 10
M  V30 10 1 10 11
M  V30 11 1 11 12
M  V30 12 1 12 13
M  V30 13 1 13 14
M  V30 14 1 14 15
M  V30 15 2 15 16
M  V30 16 1 16 17
M  V30 17 2 17 18
M  V30 18 1 18 19
M  V30 19 2 19 20
M  V30 20 1 20 21
M  V30 21 2 21 22
M  V30 22 1 22 23
M  V30 23 1 23 24
M  V30 24 1 24 25
M  V30 25 1 25 26
M  V30 26 2 23 27
M  V30 27 1 27 28
M  V30 28 1 28 29
M  V30 29 2 29 30
M  V30 30 1 30 31
M  V30 31 2 31 32
M  V30 32 1 32 33
M  V30 33 2 33 34
M  V30 34 1 34 35
M  V30 35 1 34 36
M  V30 36 2 36 37
M  V30 37 1 18 38
M  V30 38 2 38 39
M  V30 39 1 13 40
M  V30 40 1 40 41
M  V30 41 2 9 42
M  V30 42 1 42 43
M  V30 43 2 6 44
M  V30 44 1 44 2
M  V30 45 1 43 7
M  V30 46 1 41 10
M  V30 47 1 39 15
M  V30 48 1 30 19
M  V30 49 1 37 31
M  V30 50 1 28 21
M  V30 51 1 26 24
M  V30 52 1 1 45
M  V30 53 1 1 46
M  V30 54 1 1 47
M  V30 55 1 3 48
M  V30 56 1 4 49
M  V30 57 1 5 50
M  V30 58 1 10 51
M  V30 59 1 11 52
M  V30 60 1 11 53
M  V30 61 1 12 54
M  V30 62 1 12 55
M  V30 63 1 14 56
M  V30 64 1 14 57
M  V30 65 1 16 58
M  V30 66 1 17 59
M  V30 67 1 24 60
M  V30 68 1 25 61
M  V30 69 1 25 62
M  V30 70 1 26 63
M  V30 71 1 26 64
M  V30 72 1 29 65
M  V30 73 1 32 66
M  V30 74 1 33 67
M  V30 75 1 36 68
M  V30 76 1 37 69
M  V30 77 1 38 70
M  V30 78 1 39 71
M  V30 79 1 40 72
M  V30 80 1 40 73
M  V30 81 1 41 74
M  V30 82 1 41 75
M  V30 83 1 43 76
M  V30 END BOND
M  V30 END CTAB
M  END
>  <Dataset>  (564) 
ChEMBL_Kinases

>  <Ligand_Instance>  (564) 
nan

>  <PDB_ID>  (564) 
nan

>  <Standardized_SMILES>  (564) 
Cc1cccc(-c2nc(C3CCN(Cc4ccc(-c5nc6nc(C7CC7)nn6cc5-c5ccc(F)cc5)cc4)CC3)n[nH]2)n1

>  <Name>  (564) 
nan

>  <Pocket>  (564) 
nan

>  <ATP_Site>  (564) 
nan

>  <Peripheral>  (564) 
nan

>  <Num_H_Atoms_ProtBoundConf>  (564) 
nan

>  <Num_Resolved_Atoms>  (564) 
nan

>  <Num_Not_Resolved_Atoms>  (564) 
nan

$$$$
CHEMBL3672056
     RDKit          3D

  0  0  0  0  0  0  0  0  0  0999 V3000
M  V30 BEGIN CTAB
M  V30 COUNTS 68 74 0 0 0
M  V30 BEGIN ATOM
M  V30 1 C 5.243726 -4.900834 5.947216 0
M  V30 2 C 4.906752 -3.682795 5.152093 0
M  V30 3 N 3.774123 -3.441725 4.441553 0
M  V30 4 C 3.839013 -2.231929 3.858710 0
M  V30 5 N 3.006263 -1.529244 3.068124 0
M  V30 6 C 3.341663 -0.288915 2.609721 0
M  V30 7 C 2.345684 0.345209 1.763941 0
M  V30 8 C 1.685619 1.532263 2.000353 0
M  V30 9 C 0.761068 2.001584 1.096452 0
M  V30 10 C 0.472051 1.296789 -0.066952 0
M  V30 11 C -0.490982 1.727004 -1.073611 0
M  V30 12 N -1.830267 1.298385 -0.895527 0
M  V30 13 C -2.652664 1.778593 -1.948506 0
M  V30 14 C -3.720086 0.867186 -2.444854 0
M  V30 15 C -3.243092 -0.540350 -2.702500 0
M  V30 16 C -4.314032 -1.466514 -2.249170 0
M  V30 17 N -4.863871 -1.578545 -1.027053 0
M  V30 18 N -5.787672 -2.521478 -1.027774 0
M  V30 19 C -5.871359 -3.059809 -2.260889 0
M  V30 20 C -6.764605 -4.129764 -2.694046 0
M  V30 21 C -7.636179 -4.681461 -1.777547 0
M  V30 22 N -8.503448 -5.682467 -2.094974 0
M  V30 23 C -8.532761 -6.172045 -3.345162 0
M  V30 24 C -7.659875 -5.627053 -4.283735 0
M  V30 25 N -6.800726 -4.629193 -3.952392 0
M  V30 26 N -4.959875 -2.400580 -2.998211 0
M  V30 27 C -1.998906 -0.868149 -1.907081 0
M  V30 28 C -2.061904 -0.074831 -0.644719 0
M  V30 29 C 1.146905 0.094423 -0.296751 0
M  V30 30 C 2.078245 -0.389210 0.602254 0
M  V30 31 C 4.572213 0.233366 2.982299 0
M  V30 32 C 4.800897 1.560193 2.426317 0
M  V30 33 C 4.910878 1.972385 1.115139 0
M  V30 34 C 5.129457 3.306381 0.840528 0
M  V30 35 C 5.240640 4.240063 1.863048 0
M  V30 36 F 5.454679 5.536984 1.554325 0
M  V30 37 C 5.133243 3.846317 3.182296 0
M  V30 38 C 4.914530 2.509448 3.444658 0
M  V30 39 F 4.827622 2.254314 4.792390 0
M  V30 40 C 5.423927 -0.489543 3.792972 0
M  V30 41 N 5.027386 -1.706680 4.207702 0
M  V30 42 N 5.666741 -2.574926 4.981950 0
M  V30 43 H 5.864801 -4.595374 6.804072 0
M  V30 44 H 5.744192 -5.637206 5.275180 0
M  V30 45 H 4.333941 -5.381308 6.362680 0
M  V30 46 H 1.947024 2.037392 2.916032 0
M  V30 47 H 0.244555 2.932575 1.283527 0
M  V30 48 H -0.086409 1.464454 -2.084443 0
M  V30 49 H -0.494803 2.846623 -1.062722 0
M  V30 50 H -2.009403 2.172626 -2.779540 0
M  V30 51 H -3.180731 2.705260 -1.576079 0
M  V30 52 H -4.629742 0.869352 -1.812550 0
M  V30 53 H -4.057226 1.266072 -3.441869 0
M  V30 54 H -3.057533 -0.729069 -3.761550 0
M  V30 55 H -6.356102 -2.786689 -0.170826 0
M  V30 56 H -7.633879 -4.300800 -0.747547 0
M  V30 57 H -9.228565 -6.957472 -3.551285 0
M  V30 58 H -7.690704 -6.027840 -5.288082 0
M  V30 59 H -1.070995 -0.719899 -2.493221 0
M  V30 60 H -1.991639 -1.949459 -1.593273 0
M  V30 61 H -3.118953 -0.157543 -0.263473 0
M  V30 62 H -1.451455 -0.504872 0.176092 0
M  V30 63 H 0.936942 -0.476394 -1.202985 0
M  V30 64 H 2.556998 -1.327934 0.349747 0
M  V30 65 H 4.807687 1.160163 0.424187 0
M  V30 66 H 5.207067 3.568827 -0.209435 0
M  V30 67 H 5.228497 4.619400 3.918710 0
M  V30 68 H 6.358189 -0.004599 4.030837 0
M  V30 END ATOM
M  V30 BEGIN BOND
M  V30 1 1 1 2
M  V30 2 1 2 3
M  V30 3 2 3 4
M  V30 4 1 4 5
M  V30 5 2 5 6
M  V30 6 1 6 7
M  V30 7 2 7 8
M  V30 8 1 8 9
M  V30 9 2 9 10
M  V30 10 1 10 11
M  V30 11 1 11 12
M  V30 12 1 12 13
M  V30 13 1 13 14
M  V30 14 1 14 15
M  V30 15 1 15 16
M  V30 16 2 16 17
M  V30 17 1 17 18
M  V30 18 1 18 19
M  V30 19 1 19 20
M  V30 20 2 20 21
M  V30 21 1 21 22
M  V30 22 2 22 23
M  V30 23 1 23 24
M  V30 24 2 24 25
M  V30 25 2 19 26
M  V30 26 1 15 27
M  V30 27 1 27 28
M  V30 28 1 10 29
M  V30 29 2 29 30
M  V30 30 1 6 31
M  V30 31 1 31 32
M  V30 32 2 32 33
M  V30 33 1 33 34
M  V30 34 2 34 35
M  V30 35 1 35 36
M  V30 36 1 35 37
M  V30 37 2 37 38
M  V30 38 1 38 39
M  V30 39 2 31 40
M  V30 40 1 40 41
M  V30 41 1 41 42
M  V30 42 2 42 2
M  V30 43 1 41 4
M  V30 44 1 30 7
M  V30 45 1 38 32
M  V30 46 1 28 12
M  V30 47 1 26 16
M  V30 48 1 25 20
M  V30 49 1 1 43
M  V30 50 1 1 44
M  V30 51 1 1 45
M  V30 52 1 8 46
M  V30 53 1 9 47
M  V30 54 1 11 48
M  V30 55 1 11 49
M  V30 56 1 13 50
M  V30 57 1 13 51
M  V30 58 1 14 52
M  V30 59 1 14 53
M  V30 60 1 15 54
M  V30 61 1 18 55
M  V30 62 1 21 56
M  V30 63 1 23 57
M  V30 64 1 24 58
M  V30 65 1 27 59
M  V30 66 1 27 60
M  V30 67 1 28 61
M  V30 68 1 28 62
M  V30 69 1 29 63
M  V30 70 1 30 64
M  V30 71 1 33 65
M  V30 72 1 34 66
M  V30 73 1 37 67
M  V30 74 1 40 68
M  V30 END BOND
M  V30 END CTAB
M  END
>  <Dataset>  (565) 
ChEMBL_Kinases

>  <Ligand_Instance>  (565) 
nan

>  <PDB_ID>  (565) 
nan

>  <Standardized_SMILES>  (565) 
Cc1nc2nc(-c3ccc(CN4CCC(c5n[nH]c(-c6cnccn6)n5)CC4)cc3)c(-c3ccc(F)cc3F)cn2n1

>  <Name>  (565) 
nan

>  <Pocket>  (565) 
nan

>  <ATP_Site>  (565) 
nan

>  <Peripheral>  (565) 
nan

>  <Num_H_Atoms_ProtBoundConf>  (565) 
nan

>  <Num_Resolved_Atoms>  (565) 
nan

>  <Num_Not_Resolved_Atoms>  (565) 
nan

$$$$
CHEMBL3672055
     RDKit          3D

  0  0  0  0  0  0  0  0  0  0999 V3000
M  V30 BEGIN CTAB
M  V30 COUNTS 72 78 0 0 0
M  V30 BEGIN ATOM
M  V30 1 C 0.979417 -4.235376 3.481709 0
M  V30 2 C 1.402427 -5.124036 2.353629 0
M  V30 3 C 1.622203 -6.489846 2.490106 0
M  V30 4 C 2.002054 -7.102939 1.325788 0
M  V30 5 C 2.150990 -6.426307 0.135296 0
M  V30 6 C 1.920767 -5.078832 0.059470 0
M  V30 7 C 2.076938 -4.356206 -1.201852 0
M  V30 8 N 1.860843 -3.028918 -1.324165 0
M  V30 9 C 2.076367 -2.626812 -2.588610 0
M  V30 10 C 1.896902 -1.202679 -2.945192 0
M  V30 11 C 0.768623 -1.057322 -3.918982 0
M  V30 12 C 0.751455 0.334546 -4.488405 0
M  V30 13 N 1.531001 1.218331 -3.755255 0
M  V30 14 C 0.941699 2.257911 -3.012357 0
M  V30 15 C 0.011763 1.887515 -1.946178 0
M  V30 16 C 0.503061 1.677412 -0.660699 0
M  V30 17 C -0.243463 1.319762 0.466475 0
M  V30 18 C -1.618426 1.163430 0.256345 0
M  V30 19 C -2.342150 0.789046 1.466703 0
M  V30 20 N -2.915965 -0.438732 1.300094 0
M  V30 21 C -3.648594 -1.003164 2.302960 0
M  V30 22 N -4.311768 -2.194498 2.386675 0
M  V30 23 C -4.870484 -2.232886 3.626791 0
M  V30 24 C -5.693540 -3.372131 4.142023 0
M  V30 25 N -4.535634 -1.077895 4.255013 0
M  V30 26 N -3.800403 -0.328257 3.470198 0
M  V30 27 C -3.237882 0.882612 3.642100 0
M  V30 28 C -2.493896 1.471335 2.642566 0
M  V30 29 C -1.832890 2.752438 2.672664 0
M  V30 30 C -2.258848 3.714637 1.765397 0
M  V30 31 C -1.612977 4.946373 1.805911 0
M  V30 32 C -0.595883 5.227336 2.692813 0
M  V30 33 F 0.013200 6.451732 2.699585 0
M  V30 34 C -0.172385 4.275952 3.592265 0
M  V30 35 C -0.801043 3.045467 3.568485 0
M  V30 36 F -0.466701 2.027608 4.411142 0
M  V30 37 C -2.163761 1.358302 -0.995561 0
M  V30 38 C -1.366305 1.710348 -2.063146 0
M  V30 39 C 2.884904 0.924248 -3.530268 0
M  V30 40 C 3.133894 -0.590134 -3.515839 0
M  V30 41 N 2.433510 -3.725321 -3.265638 0
M  V30 42 N 2.435297 -4.772696 -2.432119 0
M  V30 43 N 1.541608 -4.446854 1.205020 0
M  V30 44 H -0.140131 -4.159618 3.394699 0
M  V30 45 H 1.460344 -3.251799 3.444947 0
M  V30 46 H 1.167974 -4.756232 4.435566 0
M  V30 47 H 1.481839 -6.935022 3.458667 0
M  V30 48 H 2.187670 -8.185943 1.385728 0
M  V30 49 H 2.449371 -6.913030 -0.774160 0
M  V30 50 H 1.625364 -0.607926 -2.034570 0
M  V30 51 H -0.202940 -1.255321 -3.419936 0
M  V30 52 H 0.867132 -1.804766 -4.725636 0
M  V30 53 H -0.284724 0.688168 -4.578553 0
M  V30 54 H 1.134072 0.278440 -5.549467 0
M  V30 55 H 1.738461 2.892588 -2.587236 0
M  V30 56 H 0.365652 2.916422 -3.726864 0
M  V30 57 H 1.585348 1.803259 -0.508095 0
M  V30 58 H 0.255505 1.187492 1.402934 0
M  V30 59 H -6.381099 -3.706847 3.337905 0
M  V30 60 H -5.048216 -4.203363 4.492978 0
M  V30 61 H -6.325243 -2.958688 4.949665 0
M  V30 62 H -3.329407 1.459895 4.552443 0
M  V30 63 H -3.052076 3.542436 1.050121 0
M  V30 64 H -1.947984 5.698898 1.094260 0
M  V30 65 H 0.620745 4.453610 4.304698 0
M  V30 66 H -3.215138 1.222730 -1.082898 0
M  V30 67 H -1.778492 1.866631 -3.050022 0
M  V30 68 H 3.180724 1.323891 -2.543444 0
M  V30 69 H 3.513391 1.427134 -4.292305 0
M  V30 70 H 4.020149 -0.808083 -2.915005 0
M  V30 71 H 3.310872 -0.887388 -4.574314 0
M  V30 72 H 2.667182 -5.770200 -2.644425 0
M  V30 END ATOM
M  V30 BEGIN BOND
M  V30 1 1 1 2
M  V30 2 2 2 3
M  V30 3 1 3 4
M  V30 4 2 4 5
M  V30 5 1 5 6
M  V30 6 1 6 7
M  V30 7 2 7 8
M  V30 8 1 8 9
M  V30 9 1 9 10
M  V30 10 1 10 11
M  V30 11 1 11 12
M  V30 12 1 12 13
M  V30 13 1 13 14
M  V30 14 1 14 15
M  V30 15 2 15 16
M  V30 16 1 16 17
M  V30 17 2 17 18
M  V30 18 1 18 19
M  V30 19 2 19 20
M  V30 20 1 20 21
M  V30 21 2 21 22
M  V30 22 1 22 23
M  V30 23 1 23 24
M  V30 24 2 23 25
M  V30 25 1 25 26
M  V30 26 1 26 27
M  V30 27 2 27 28
M  V30 28 1 28 29
M  V30 29 2 29 30
M  V30 30 1 30 31
M  V30 31 2 31 32
M  V30 32 1 32 33
M  V30 33 1 32 34
M  V30 34 2 34 35
M  V30 35 1 35 36
M  V30 36 1 18 37
M  V30 37 2 37 38
M  V30 38 1 13 39
M  V30 39 1 39 40
M  V30 40 2 9 41
M  V30 41 1 41 42
M  V30 42 2 6 43
M  V30 43 1 43 2
M  V30 44 1 42 7
M  V30 45 1 40 10
M  V30 46 1 38 15
M  V30 47 1 28 19
M  V30 48 1 35 29
M  V30 49 1 26 21
M  V30 50 1 1 44
M  V30 51 1 1 45
M  V30 52 1 1 46
M  V30 53 1 3 47
M  V30 54 1 4 48
M  V30 55 1 5 49
M  V30 56 1 10 50
M  V30 57 1 11 51
M  V30 58 1 11 52
M  V30 59 1 12 53
M  V30 60 1 12 54
M  V30 61 1 14 55
M  V30 62 1 14 56
M  V30 63 1 16 57
M  V30 64 1 17 58
M  V30 65 1 24 59
M  V30 66 1 24 60
M  V30 67 1 24 61
M  V30 68 1 27 62
M  V30 69 1 30 63
M  V30 70 1 31 64
M  V30 71 1 34 65
M  V30 72 1 37 66
M  V30 73 1 38 67
M  V30 74 1 39 68
M  V30 75 1 39 69
M  V30 76 1 40 70
M  V30 77 1 40 71
M  V30 78 1 42 72
M  V30 END BOND
M  V30 END CTAB
M  END
>  <Dataset>  (566) 
ChEMBL_Kinases

>  <Ligand_Instance>  (566) 
nan

>  <PDB_ID>  (566) 
nan

>  <Standardized_SMILES>  (566) 
Cc1cccc(-c2nc(C3CCN(Cc4ccc(-c5nc6nc(C)nn6cc5-c5ccc(F)cc5F)cc4)CC3)n[nH]2)n1

>  <Name>  (566) 
nan

>  <Pocket>  (566) 
nan

>  <ATP_Site>  (566) 
nan

>  <Peripheral>  (566) 
nan

>  <Num_H_Atoms_ProtBoundConf>  (566) 
nan

>  <Num_Resolved_Atoms>  (566) 
nan

>  <Num_Not_Resolved_Atoms>  (566) 
nan

$$$$
CHEMBL3355541
     RDKit          3D

  0  0  0  0  0  0  0  0  0  0999 V3000
M  V30 BEGIN CTAB
M  V30 COUNTS 51 54 0 0 0
M  V30 BEGIN ATOM
M  V30 1 C -1.142330 -2.705951 -0.254662 0
M  V30 2 N 0.114056 -2.429180 0.405771 0
M  V30 3 C -0.042070 -2.357975 1.778883 0
M  V30 4 C 1.261808 -2.033612 2.513851 0
M  V30 5 C 2.459799 -2.699318 1.888034 0
M  V30 6 C 3.550228 -1.773574 1.501189 0
M  V30 7 N 3.142995 -0.650356 0.774352 0
M  V30 8 C 2.729898 0.466726 0.036878 0
M  V30 9 C 3.540123 1.408879 -0.661685 0
M  V30 10 C 2.787822 2.441202 -1.169985 0
M  V30 11 N 1.472140 2.554971 -1.026745 0
M  V30 12 N 0.772093 3.552721 -1.486999 0
M  V30 13 C -0.516132 3.445968 -1.203240 0
M  V30 14 C -0.515855 2.284839 -0.538684 0
M  V30 15 C -1.709633 1.592390 0.001796 0
M  V30 16 C -2.640116 1.225401 -0.972087 0
M  V30 17 C -3.819333 0.546415 -0.791308 0
M  V30 18 C -4.095168 0.202876 0.580859 0
M  V30 19 C -3.199349 0.566385 1.545050 0
M  V30 20 O -3.806564 0.085214 2.738142 0
M  V30 21 C -3.605384 -1.218799 3.296538 0
M  V30 22 F -4.493964 -1.361178 4.395646 0
M  V30 23 F -3.806850 -2.207604 2.400025 0
M  V30 24 F -2.361462 -1.287846 3.850275 0
M  V30 25 C -2.067799 1.219951 1.247977 0
M  V30 26 C 0.687382 1.637417 -0.358111 0
M  V30 27 N 1.414986 0.668328 0.107788 0
M  V30 28 C 2.157924 -3.715751 0.819675 0
M  V30 29 C 1.185830 -3.166048 -0.174785 0
M  V30 30 H -1.926414 -2.212987 0.294297 0
M  V30 31 H -1.081003 -2.201671 -1.277753 0
M  V30 32 H -1.275232 -3.792000 -0.458837 0
M  V30 33 H -0.662445 -1.452788 1.955230 0
M  V30 34 H -0.528234 -3.181188 2.294027 0
M  V30 35 H 1.160868 -2.375241 3.578818 0
M  V30 36 H 1.454185 -0.952278 2.558525 0
M  V30 37 H 2.934285 -3.398224 2.724087 0
M  V30 38 H 4.222515 -2.355827 0.723226 0
M  V30 39 H 4.258783 -1.634653 2.315195 0
M  V30 40 H 3.544714 0.058510 1.554308 0
M  V30 41 H 4.549925 1.085076 -0.617853 0
M  V30 42 H 3.467461 3.158566 -1.662490 0
M  V30 43 H -1.384992 4.043984 -1.367118 0
M  V30 44 H -2.420945 1.494981 -2.031040 0
M  V30 45 H -4.502228 0.306166 -1.603615 0
M  V30 46 H -5.045289 -0.345535 0.639855 0
M  V30 47 H -1.404453 1.474028 2.083186 0
M  V30 48 H 1.699928 -4.666640 1.200316 0
M  V30 49 H 3.112663 -3.927217 0.286101 0
M  V30 50 H 1.776927 -2.503392 -0.895274 0
M  V30 51 H 0.841605 -4.040869 -0.812971 0
M  V30 END ATOM
M  V30 BEGIN BOND
M  V30 1 1 1 2
M  V30 2 1 2 3
M  V30 3 1 3 4
M  V30 4 1 4 5
M  V30 5 1 5 6
M  V30 6 1 6 7
M  V30 7 1 7 8
M  V30 8 1 8 9
M  V30 9 2 9 10
M  V30 10 1 10 11
M  V30 11 1 11 12
M  V30 12 2 12 13
M  V30 13 1 13 14
M  V30 14 1 14 15
M  V30 15 2 15 16
M  V30 16 1 16 17
M  V30 17 2 17 18
M  V30 18 1 18 19
M  V30 19 1 19 20
M  V30 20 1 20 21
M  V30 21 1 21 22
M  V30 22 1 21 23
M  V30 23 1 21 24
M  V30 24 2 19 25
M  V30 25 2 14 26
M  V30 26 1 26 27
M  V30 27 1 5 28
M  V30 28 1 28 29
M  V30 29 1 29 2
M  V30 30 2 27 8
M  V30 31 1 26 11
M  V30 32 1 25 15
M  V30 33 1 1 30
M  V30 34 1 1 31
M  V30 35 1 1 32
M  V30 36 1 3 33
M  V30 37 1 3 34
M  V30 38 1 4 35
M  V30 39 1 4 36
M  V30 40 1 5 37
M  V30 41 1 6 38
M  V30 42 1 6 39
M  V30 43 1 7 40
M  V30 44 1 9 41
M  V30 45 1 10 42
M  V30 46 1 13 43
M  V30 47 1 16 44
M  V30 48 1 17 45
M  V30 49 1 18 46
M  V30 50 1 25 47
M  V30 51 1 28 48
M  V30 52 1 28 49
M  V30 53 1 29 50
M  V30 54 1 29 51
M  V30 END BOND
M  V30 END CTAB
M  END
>  <Dataset>  (567) 
ChEMBL_Kinases

>  <Ligand_Instance>  (567) 
nan

>  <PDB_ID>  (567) 
nan

>  <Standardized_SMILES>  (567) 
CN1CCC(CNc2ccn3ncc(-c4cccc(OC(F)(F)F)c4)c3n2)CC1

>  <Name>  (567) 
nan

>  <Pocket>  (567) 
nan

>  <ATP_Site>  (567) 
nan

>  <Peripheral>  (567) 
nan

>  <Num_H_Atoms_ProtBoundConf>  (567) 
nan

>  <Num_Resolved_Atoms>  (567) 
nan

>  <Num_Not_Resolved_Atoms>  (567) 
nan

$$$$
CHEMBL3672054
     RDKit          3D

  0  0  0  0  0  0  0  0  0  0999 V3000
M  V30 BEGIN CTAB
M  V30 COUNTS 69 75 0 0 0
M  V30 BEGIN ATOM
M  V30 1 C 1.167111 -0.795427 8.013331 0
M  V30 2 C 1.492123 -0.592371 6.572002 0
M  V30 3 N 0.679738 -0.071052 5.631675 0
M  V30 4 C 1.343972 -0.052223 4.438008 0
M  V30 5 N 0.983641 0.365182 3.202494 0
M  V30 6 C 1.824900 0.285448 2.150517 0
M  V30 7 C 1.265947 0.783133 0.898247 0
M  V30 8 C 1.111646 -0.043595 -0.196540 0
M  V30 9 C 0.574442 0.511148 -1.336298 0
M  V30 10 C 0.170172 1.828159 -1.493886 0
M  V30 11 C -0.392822 2.316788 -2.778533 0
M  V30 12 N -1.781330 2.130191 -2.797470 0
M  V30 13 C -2.596272 2.743305 -1.831410 0
M  V30 14 C -3.070965 1.656560 -0.862739 0
M  V30 15 C -3.903807 0.691633 -1.639253 0
M  V30 16 C -3.602479 -0.730965 -1.293068 0
M  V30 17 N -2.319053 -1.065174 -1.510529 0
M  V30 18 N -2.091407 -2.308585 -1.200125 0
M  V30 19 C -3.266981 -2.825697 -0.758435 0
M  V30 20 C -3.540069 -4.177975 -0.293652 0
M  V30 21 C -2.477309 -5.076275 -0.292422 0
M  V30 22 C -2.592785 -6.388939 0.121127 0
M  V30 23 Cl -1.253009 -7.506144 0.118278 0
M  V30 24 C -3.819050 -6.841068 0.556394 0
M  V30 25 C -4.856437 -5.937414 0.547314 0
M  V30 26 N -4.709052 -4.665556 0.137837 0
M  V30 27 N -4.178082 -1.864290 -0.817388 0
M  V30 28 C -3.778201 0.885582 -3.142501 0
M  V30 29 C -2.344972 1.105640 -3.579934 0
M  V30 30 C 0.340525 2.622830 -0.376631 0
M  V30 31 C 0.875211 2.095939 0.777345 0
M  V30 32 C 3.083670 -0.243240 2.377389 0
M  V30 33 C 3.943784 -0.301187 1.201686 0
M  V30 34 C 4.260686 -1.627950 0.890407 0
M  V30 35 C 5.066864 -1.951174 -0.184642 0
M  V30 36 C 5.561336 -0.917412 -0.958324 0
M  V30 37 F 6.360782 -1.183629 -2.030005 0
M  V30 38 C 5.255116 0.391165 -0.659977 0
M  V30 39 C 4.450000 0.707776 0.414275 0
M  V30 40 F 4.065680 1.938019 0.829338 0
M  V30 41 C 3.429873 -0.661863 3.641617 0
M  V30 42 N 2.579896 -0.576861 4.685026 0
M  V30 43 N 2.673565 -0.902726 5.965091 0
M  V30 44 H 1.389160 0.109570 8.616915 0
M  V30 45 H 0.084121 -1.011801 8.163049 0
M  V30 46 H 1.699963 -1.690940 8.388403 0
M  V30 47 H 1.398524 -1.088558 -0.169842 0
M  V30 48 H 0.452393 -0.149811 -2.207781 0
M  V30 49 H 0.044789 1.632209 -3.563128 0
M  V30 50 H -0.049780 3.352090 -2.981985 0
M  V30 51 H -3.548723 3.117229 -2.308462 0
M  V30 52 H -2.167745 3.597337 -1.304335 0
M  V30 53 H -2.158410 1.120643 -0.525605 0
M  V30 54 H -3.581245 2.095294 0.013609 0
M  V30 55 H -4.976536 0.855469 -1.412924 0
M  V30 56 H -1.207683 -2.872614 -1.251603 0
M  V30 57 H -1.469867 -4.805731 -0.620310 0
M  V30 58 H -4.033889 -7.839802 0.902410 0
M  V30 59 H -5.847264 -6.255978 0.885414 0
M  V30 60 H -4.151765 -0.085974 -3.578924 0
M  V30 61 H -4.441526 1.694148 -3.445515 0
M  V30 62 H -1.744750 0.178061 -3.470409 0
M  V30 63 H -2.400265 1.341284 -4.666084 0
M  V30 64 H 0.050889 3.663181 -0.419219 0
M  V30 65 H 0.980076 2.790336 1.624280 0
M  V30 66 H 3.926635 -2.523177 1.431039 0
M  V30 67 H 5.336927 -2.960407 -0.461125 0
M  V30 68 H 5.611611 1.248869 -1.228105 0
M  V30 69 H 4.426604 -1.066413 3.758927 0
M  V30 END ATOM
M  V30 BEGIN BOND
M  V30 1 1 1 2
M  V30 2 1 2 3
M  V30 3 2 3 4
M  V30 4 1 4 5
M  V30 5 2 5 6
M  V30 6 1 6 7
M  V30 7 2 7 8
M  V30 8 1 8 9
M  V30 9 2 9 10
M  V30 10 1 10 11
M  V30 11 1 11 12
M  V30 12 1 12 13
M  V30 13 1 13 14
M  V30 14 1 14 15
M  V30 15 1 15 16
M  V30 16 2 16 17
M  V30 17 1 17 18
M  V30 18 1 18 19
M  V30 19 1 19 20
M  V30 20 2 20 21
M  V30 21 1 21 22
M  V30 22 1 22 23
M  V30 23 2 22 24
M  V30 24 1 24 25
M  V30 25 2 25 26
M  V30 26 2 19 27
M  V30 27 1 15 28
M  V30 28 1 28 29
M  V30 29 1 10 30
M  V30 30 2 30 31
M  V30 31 1 6 32
M  V30 32 1 32 33
M  V30 33 2 33 34
M  V30 34 1 34 35
M  V30 35 2 35 36
M  V30 36 1 36 37
M  V30 37 1 36 38
M  V30 38 2 38 39
M  V30 39 1 39 40
M  V30 40 2 32 41
M  V30 41 1 41 42
M  V30 42 1 42 43
M  V30 43 2 43 2
M  V30 44 1 42 4
M  V30 45 1 31 7
M  V30 46 1 39 33
M  V30 47 1 29 12
M  V30 48 1 27 16
M  V30 49 1 26 20
M  V30 50 1 1 44
M  V30 51 1 1 45
M  V30 52 1 1 46
M  V30 53 1 8 47
M  V30 54 1 9 48
M  V30 55 1 11 49
M  V30 56 1 11 50
M  V30 57 1 13 51
M  V30 58 1 13 52
M  V30 59 1 14 53
M  V30 60 1 14 54
M  V30 61 1 15 55
M  V30 62 1 18 56
M  V30 63 1 21 57
M  V30 64 1 24 58
M  V30 65 1 25 59
M  V30 66 1 28 60
M  V30 67 1 28 61
M  V30 68 1 29 62
M  V30 69 1 29 63
M  V30 70 1 30 64
M  V30 71 1 31 65
M  V30 72 1 34 66
M  V30 73 1 35 67
M  V30 74 1 38 68
M  V30 75 1 41 69
M  V30 END BOND
M  V30 END CTAB
M  END
>  <Dataset>  (568) 
ChEMBL_Kinases

>  <Ligand_Instance>  (568) 
nan

>  <PDB_ID>  (568) 
nan

>  <Standardized_SMILES>  (568) 
Cc1nc2nc(-c3ccc(CN4CCC(c5n[nH]c(-c6cc(Cl)ccn6)n5)CC4)cc3)c(-c3ccc(F)cc3F)cn2n1

>  <Name>  (568) 
nan

>  <Pocket>  (568) 
nan

>  <ATP_Site>  (568) 
nan

>  <Peripheral>  (568) 
nan

>  <Num_H_Atoms_ProtBoundConf>  (568) 
nan

>  <Num_Resolved_Atoms>  (568) 
nan

>  <Num_Not_Resolved_Atoms>  (568) 
nan

$$$$
CHEMBL3355542
     RDKit          3D

  0  0  0  0  0  0  0  0  0  0999 V3000
M  V30 BEGIN CTAB
M  V30 COUNTS 48 51 0 0 0
M  V30 BEGIN ATOM
M  V30 1 N -2.461299 -5.148631 0.453266 0
M  V30 2 C -1.362098 -4.264100 0.774606 0 CFG=1
M  V30 3 C -1.746030 -2.807964 0.750309 0
M  V30 4 C -0.475418 -2.004108 0.752858 0
M  V30 5 C 0.627721 -2.517661 1.567700 0 CFG=2
M  V30 6 N 1.863114 -2.471635 0.768523 0
M  V30 7 C 2.421674 -1.280172 0.221236 0
M  V30 8 C 3.579370 -1.225102 -0.529568 0
M  V30 9 C 4.041211 -0.020861 -1.016898 0
M  V30 10 N 3.397994 1.148089 -0.790305 0
M  V30 11 N 3.639024 2.402927 -1.144142 0
M  V30 12 C 2.678506 3.212425 -0.657071 0
M  V30 13 C 1.819312 2.374895 0.026703 0
M  V30 14 C 0.600726 2.736296 0.750380 0
M  V30 15 C 0.471990 3.805069 1.618407 0
M  V30 16 C -0.719295 4.070664 2.258524 0
M  V30 17 C -1.833843 3.285646 2.063598 0
M  V30 18 C -1.770502 2.203828 1.209490 0
M  V30 19 O -2.802261 1.308878 0.899822 0
M  V30 20 C -3.685884 1.529012 -0.174294 0
M  V30 21 F -3.029509 1.602618 -1.385519 0
M  V30 22 F -4.429032 2.660535 -0.013239 0
M  V30 23 F -4.559686 0.440235 -0.201117 0
M  V30 24 C -0.548571 1.956278 0.572014 0
M  V30 25 C 2.277039 1.055573 -0.057100 0
M  V30 26 N 1.793250 -0.087381 0.434561 0
M  V30 27 C 0.541446 -3.851384 2.190358 0
M  V30 28 C -0.817682 -4.496117 2.160938 0
M  V30 29 H -2.205107 -6.086011 0.869361 0
M  V30 30 H -2.416289 -5.298497 -0.591584 0
M  V30 31 H -0.505022 -4.389225 0.069936 0
M  V30 32 H -2.286327 -2.540810 1.691728 0
M  V30 33 H -2.351841 -2.520531 -0.128112 0
M  V30 34 H -0.798667 -0.968687 1.055209 0
M  V30 35 H -0.188682 -1.890670 -0.323416 0
M  V30 36 H 0.843605 -1.762996 2.381718 0
M  V30 37 H 2.416172 -3.354544 0.554269 0
M  V30 38 H 4.085681 -2.163180 -0.705082 0
M  V30 39 H 4.959273 -0.027179 -1.604355 0
M  V30 40 H 2.493968 4.271347 -0.707006 0
M  V30 41 H 1.351140 4.418923 1.768038 0
M  V30 42 H -0.817855 4.903396 2.934199 0
M  V30 43 H -2.804036 3.432494 2.531561 0
M  V30 44 H -0.454115 1.103173 -0.117806 0
M  V30 45 H 0.842685 -3.839120 3.262703 0
M  V30 46 H 1.247027 -4.589175 1.725412 0
M  V30 47 H -1.451018 -3.929435 2.885018 0
M  V30 48 H -0.727834 -5.554338 2.438896 0
M  V30 END ATOM
M  V30 BEGIN BOND
M  V30 1 1 1 2
M  V30 2 1 2 3
M  V30 3 1 3 4
M  V30 4 1 4 5
M  V30 5 1 5 6
M  V30 6 1 6 7
M  V30 7 1 7 8
M  V30 8 2 8 9
M  V30 9 1 9 10
M  V30 10 1 10 11
M  V30 11 2 11 12
M  V30 12 1 12 13
M  V30 13 1 13 14
M  V30 14 2 14 15
M  V30 15 1 15 16
M  V30 16 2 16 17
M  V30 17 1 17 18
M  V30 18 1 18 19
M  V30 19 1 19 20
M  V30 20 1 20 21
M  V30 21 1 20 22
M  V30 22 1 20 23
M  V30 23 2 18 24
M  V30 24 2 13 25
M  V30 25 1 25 26
M  V30 26 1 5 27
M  V30 27 1 27 28
M  V30 28 1 28 2
M  V30 29 2 26 7
M  V30 30 1 25 10
M  V30 31 1 24 14
M  V30 32 1 1 29
M  V30 33 1 1 30
M  V30 34 1 2 31 CFG=3
M  V30 35 1 3 32
M  V30 36 1 3 33
M  V30 37 1 4 34
M  V30 38 1 4 35
M  V30 39 1 5 36 CFG=1
M  V30 40 1 6 37
M  V30 41 1 8 38
M  V30 42 1 9 39
M  V30 43 1 12 40
M  V30 44 1 15 41
M  V30 45 1 16 42
M  V30 46 1 17 43
M  V30 47 1 24 44
M  V30 48 1 27 45
M  V30 49 1 27 46
M  V30 50 1 28 47
M  V30 51 1 28 48
M  V30 END BOND
M  V30 END CTAB
M  END
>  <Dataset>  (569) 
ChEMBL_Kinases

>  <Ligand_Instance>  (569) 
nan

>  <PDB_ID>  (569) 
nan

>  <Standardized_SMILES>  (569) 
N[C@H]1CC[C@H](Nc2ccn3ncc(-c4cccc(OC(F)(F)F)c4)c3n2)CC1

>  <Name>  (569) 
nan

>  <Pocket>  (569) 
nan

>  <ATP_Site>  (569) 
nan

>  <Peripheral>  (569) 
nan

>  <Num_H_Atoms_ProtBoundConf>  (569) 
nan

>  <Num_Resolved_Atoms>  (569) 
nan

>  <Num_Not_Resolved_Atoms>  (569) 
nan

$$$$
CHEMBL3672060
     RDKit          3D

  0  0  0  0  0  0  0  0  0  0999 V3000
M  V30 BEGIN CTAB
M  V30 COUNTS 70 76 0 0 0
M  V30 BEGIN ATOM
M  V30 1 C 7.510177 -1.636698 4.196933 0
M  V30 2 C 6.137058 -1.071837 4.082731 0
M  V30 3 C 5.427932 -0.862039 5.252267 0
M  V30 4 C 4.149250 -0.337683 5.169266 0
M  V30 5 C 3.702084 -0.071713 3.900160 0
M  V30 6 C 4.388001 -0.271993 2.728029 0
M  V30 7 C 3.769765 0.063821 1.445910 0
M  V30 8 N 4.271436 -0.058799 0.222915 0
M  V30 9 C 3.377101 0.364891 -0.699895 0
M  V30 10 C 3.576371 0.382107 -2.168532 0
M  V30 11 C 3.458188 1.791113 -2.686927 0
M  V30 12 C 2.032859 2.196667 -2.953452 0
M  V30 13 N 1.058245 1.405529 -2.329447 0
M  V30 14 C -0.210743 1.948147 -2.058846 0
M  V30 15 C -1.060214 0.902112 -1.394838 0
M  V30 16 C -1.872265 0.010341 -2.075921 0
M  V30 17 C -2.621214 -0.923101 -1.373082 0
M  V30 18 C -2.558700 -0.966768 0.024716 0
M  V30 19 C -3.379958 -1.981864 0.674601 0
M  V30 20 N -2.606122 -2.871750 1.345475 0
M  V30 21 C -3.129318 -3.915712 2.034692 0
M  V30 22 N -2.595983 -4.915658 2.765685 0
M  V30 23 C -3.607235 -5.674511 3.223618 0
M  V30 24 C -4.810402 -5.140829 2.770663 0
M  V30 25 N -4.464115 -4.052113 2.038189 0
M  V30 26 C -5.277410 -3.195524 1.387804 0
M  V30 27 C -4.739028 -2.133486 0.686982 0
M  V30 28 C -5.454169 -1.114375 -0.068480 0
M  V30 29 C -6.198875 -1.620013 -1.131754 0
M  V30 30 C -6.930552 -0.784685 -1.940193 0
M  V30 31 C -6.906349 0.562126 -1.669740 0
M  V30 32 F -7.621408 1.412052 -2.453716 0
M  V30 33 C -6.184764 1.105355 -0.630170 0
M  V30 34 C -5.455426 0.243408 0.170537 0
M  V30 35 C -1.745587 -0.074346 0.712486 0
M  V30 36 C -1.012935 0.842383 -0.016313 0
M  V30 37 C 1.181299 0.003972 -2.408463 0
M  V30 38 C 2.543561 -0.480931 -2.813137 0
M  V30 39 N 2.303465 0.754255 -0.002769 0
M  V30 40 N 2.524898 0.579321 1.286223 0
M  V30 41 N 5.634185 -0.785630 2.849106 0
M  V30 42 H 8.150342 -1.220687 3.389487 0
M  V30 43 H 7.906628 -1.465667 5.206196 0
M  V30 44 H 7.437070 -2.756444 4.093774 0
M  V30 45 H 5.846198 -1.096364 6.226408 0
M  V30 46 H 3.546991 -0.151995 6.051811 0
M  V30 47 H 2.699966 0.340906 3.811956 0
M  V30 48 H 4.609185 -0.003173 -2.363545 0
M  V30 49 H 4.022270 1.856298 -3.631102 0
M  V30 50 H 3.917218 2.472613 -1.951687 0
M  V30 51 H 1.834139 2.162844 -4.065299 0
M  V30 52 H 1.908154 3.254690 -2.648345 0
M  V30 53 H -0.261711 2.834213 -1.422512 0
M  V30 54 H -0.740411 2.179954 -3.022953 0
M  V30 55 H -1.889791 0.081211 -3.171724 0
M  V30 56 H -3.258692 -1.621190 -1.931428 0
M  V30 57 H -3.521938 -6.567193 3.849531 0
M  V30 58 H -5.824566 -5.517790 2.963065 0
M  V30 59 H -6.364851 -3.257270 1.356321 0
M  V30 60 H -6.252577 -2.683434 -1.390588 0
M  V30 61 H -7.527392 -1.112712 -2.778556 0
M  V30 62 H -6.172219 2.163459 -0.426037 0
M  V30 63 H -4.855529 0.568408 1.012996 0
M  V30 64 H -1.722145 -0.138087 1.801106 0
M  V30 65 H -0.378482 1.537196 0.542184 0
M  V30 66 H 0.904685 -0.495806 -1.466186 0
M  V30 67 H 0.488977 -0.342208 -3.230862 0
M  V30 68 H 2.657145 -0.580173 -3.902223 0
M  V30 69 H 2.688980 -1.514112 -2.394634 0
M  V30 70 H 1.831027 0.812649 2.018036 0
M  V30 END ATOM
M  V30 BEGIN BOND
M  V30 1 1 1 2
M  V30 2 2 2 3
M  V30 3 1 3 4
M  V30 4 2 4 5
M  V30 5 1 5 6
M  V30 6 1 6 7
M  V30 7 2 7 8
M  V30 8 1 8 9
M  V30 9 1 9 10
M  V30 10 1 10 11
M  V30 11 1 11 12
M  V30 12 1 12 13
M  V30 13 1 13 14
M  V30 14 1 14 15
M  V30 15 2 15 16
M  V30 16 1 16 17
M  V30 17 2 17 18
M  V30 18 1 18 19
M  V30 19 2 19 20
M  V30 20 1 20 21
M  V30 21 2 21 22
M  V30 22 1 22 23
M  V30 23 2 23 24
M  V30 24 1 24 25
M  V30 25 1 25 26
M  V30 26 2 26 27
M  V30 27 1 27 28
M  V30 28 2 28 29
M  V30 29 1 29 30
M  V30 30 2 30 31
M  V30 31 1 31 32
M  V30 32 1 31 33
M  V30 33 2 33 34
M  V30 34 1 18 35
M  V30 35 2 35 36
M  V30 36 1 13 37
M  V30 37 1 37 38
M  V30 38 2 9 39
M  V30 39 1 39 40
M  V30 40 2 6 41
M  V30 41 1 41 2
M  V30 42 1 40 7
M  V30 43 1 38 10
M  V30 44 1 36 15
M  V30 45 1 27 19
M  V30 46 1 34 28
M  V30 47 1 25 21
M  V30 48 1 1 42
M  V30 49 1 1 43
M  V30 50 1 1 44
M  V30 51 1 3 45
M  V30 52 1 4 46
M  V30 53 1 5 47
M  V30 54 1 10 48
M  V30 55 1 11 49
M  V30 56 1 11 50
M  V30 57 1 12 51
M  V30 58 1 12 52
M  V30 59 1 14 53
M  V30 60 1 14 54
M  V30 61 1 16 55
M  V30 62 1 17 56
M  V30 63 1 23 57
M  V30 64 1 24 58
M  V30 65 1 26 59
M  V30 66 1 29 60
M  V30 67 1 30 61
M  V30 68 1 33 62
M  V30 69 1 34 63
M  V30 70 1 35 64
M  V30 71 1 36 65
M  V30 72 1 37 66
M  V30 73 1 37 67
M  V30 74 1 38 68
M  V30 75 1 38 69
M  V30 76 1 40 70
M  V30 END BOND
M  V30 END CTAB
M  END
>  <Dataset>  (570) 
ChEMBL_Kinases

>  <Ligand_Instance>  (570) 
nan

>  <PDB_ID>  (570) 
nan

>  <Standardized_SMILES>  (570) 
Cc1cccc(-c2nc(C3CCN(Cc4ccc(-c5nc6nccn6cc5-c5ccc(F)cc5)cc4)CC3)n[nH]2)n1

>  <Name>  (570) 
nan

>  <Pocket>  (570) 
nan

>  <ATP_Site>  (570) 
nan

>  <Peripheral>  (570) 
nan

>  <Num_H_Atoms_ProtBoundConf>  (570) 
nan

>  <Num_Resolved_Atoms>  (570) 
nan

>  <Num_Not_Resolved_Atoms>  (570) 
nan

$$$$
CHEMBL3670455
     RDKit          3D

  0  0  0  0  0  0  0  0  0  0999 V3000
M  V30 BEGIN CTAB
M  V30 COUNTS 37 39 0 0 0
M  V30 BEGIN ATOM
M  V30 1 N 0.742967 -5.268125 3.808706 0
M  V30 2 C 0.123509 -4.078542 3.342582 0
M  V30 3 O -0.731452 -3.673474 4.180442 0
M  V30 4 C 0.496158 -3.490600 2.061801 0
M  V30 5 C 1.463886 -4.099820 1.293929 0
M  V30 6 C 1.791075 -3.504226 0.074330 0
M  V30 7 N 2.789358 -4.133146 -0.717249 0
M  V30 8 C 1.131582 -2.351890 -0.285218 0
M  V30 9 C 0.166670 -1.722378 0.453988 0
M  V30 10 C -0.459266 -0.567767 0.039860 0
M  V30 11 N -0.140345 0.045171 -1.195166 0
M  V30 12 C -0.716921 1.250583 -1.743047 0
M  V30 13 C -0.431765 2.392096 -0.833642 0
M  V30 14 C -1.223711 2.904194 0.160669 0
M  V30 15 C -0.819957 3.964751 0.938877 0
M  V30 16 C 0.403127 4.575382 0.765386 0
M  V30 17 C 1.223420 4.092037 -0.219443 0
M  V30 18 C 0.787929 3.029505 -0.979324 0
M  V30 19 N -1.370165 -0.109728 0.900945 0
M  V30 20 C -1.704079 -0.655866 2.071739 0
M  V30 21 N -1.070462 -1.793845 2.454049 0
M  V30 22 C -0.130324 -2.336452 1.648998 0
M  V30 23 H 0.313459 -6.193377 3.573523 0
M  V30 24 H 1.572510 -4.882782 4.333418 0
M  V30 25 H 1.911056 -5.000144 1.680207 0
M  V30 26 H 2.539925 -4.966273 -1.311004 0
M  V30 27 H 2.878071 -4.932255 -1.381664 0
M  V30 28 H 1.452211 -1.972945 -1.235054 0
M  V30 29 H 0.571399 -0.350593 -1.832094 0
M  V30 30 H -1.818690 1.124458 -1.886459 0
M  V30 31 H -0.294745 1.539005 -2.723163 0
M  V30 32 H -2.183996 2.442418 0.299330 0
M  V30 33 H -1.505823 4.315618 1.710484 0
M  V30 34 H 0.634567 5.398024 1.420324 0
M  V30 35 H 2.184953 4.559167 -0.368676 0
M  V30 36 H 1.479866 2.688946 -1.744744 0
M  V30 37 H -2.458351 -0.193553 2.685331 0
M  V30 END ATOM
M  V30 BEGIN BOND
M  V30 1 1 1 2
M  V30 2 2 2 3
M  V30 3 1 2 4
M  V30 4 2 4 5
M  V30 5 1 5 6
M  V30 6 1 6 7
M  V30 7 2 6 8
M  V30 8 1 8 9
M  V30 9 2 9 10
M  V30 10 1 10 11
M  V30 11 1 11 12
M  V30 12 1 12 13
M  V30 13 2 13 14
M  V30 14 1 14 15
M  V30 15 2 15 16
M  V30 16 1 16 17
M  V30 17 2 17 18
M  V30 18 1 10 19
M  V30 19 2 19 20
M  V30 20 1 20 21
M  V30 21 2 21 22
M  V30 22 1 22 4
M  V30 23 1 22 9
M  V30 24 1 18 13
M  V30 25 1 1 23
M  V30 26 1 1 24
M  V30 27 1 5 25
M  V30 28 1 7 26
M  V30 29 1 7 27
M  V30 30 1 8 28
M  V30 31 1 11 29
M  V30 32 1 12 30
M  V30 33 1 12 31
M  V30 34 1 14 32
M  V30 35 1 15 33
M  V30 36 1 16 34
M  V30 37 1 17 35
M  V30 38 1 18 36
M  V30 39 1 20 37
M  V30 END BOND
M  V30 END CTAB
M  END
>  <Dataset>  (571) 
ChEMBL_Kinases

>  <Ligand_Instance>  (571) 
nan

>  <PDB_ID>  (571) 
nan

>  <Standardized_SMILES>  (571) 
NC(=O)c1cc(N)cc2c(NCc3ccccc3)ncnc12

>  <Name>  (571) 
nan

>  <Pocket>  (571) 
nan

>  <ATP_Site>  (571) 
nan

>  <Peripheral>  (571) 
nan

>  <Num_H_Atoms_ProtBoundConf>  (571) 
nan

>  <Num_Resolved_Atoms>  (571) 
nan

>  <Num_Not_Resolved_Atoms>  (571) 
nan

$$$$
CHEMBL3393708
     RDKit          3D

  0  0  0  0  0  0  0  0  0  0999 V3000
M  V30 BEGIN CTAB
M  V30 COUNTS 53 58 0 0 0
M  V30 BEGIN ATOM
M  V30 1 F -0.082939 1.354847 -1.700027 0
M  V30 2 C 1.112290 1.170816 -2.264054 0
M  V30 3 C 1.278991 0.621130 -3.504720 0
M  V30 4 C 2.572648 0.507109 -3.926671 0
M  V30 5 C 3.697588 0.879995 -3.246929 0
M  V30 6 C 3.498480 1.439488 -1.980264 0
M  V30 7 C 2.191359 1.579578 -1.498740 0
M  V30 8 C 2.117049 2.174700 -0.168399 0
M  V30 9 C 2.894667 3.298991 0.122978 0
M  V30 10 C 2.773768 3.807155 1.398849 0
M  V30 11 C 1.948796 3.292815 2.401995 0
M  V30 12 N 1.736655 3.682605 3.670314 0
M  V30 13 N 0.850831 2.832970 4.172537 0
M  V30 14 C 0.506444 1.921900 3.243891 0
M  V30 15 C -0.440953 0.813553 3.395582 0
M  V30 16 C -1.069150 0.653166 4.612978 0
M  V30 17 N -1.943767 -0.364011 4.766594 0
M  V30 18 C -2.213396 -1.217874 3.764935 0
M  V30 19 C -1.600184 -1.080069 2.539919 0
M  V30 20 O -1.682392 -1.791320 1.358789 0
M  V30 21 C -2.490750 -2.925501 1.125455 0 CFG=1
M  V30 22 C -3.524898 -2.628559 0.091515 0
M  V30 23 N -3.299193 -3.131363 -1.215199 0
M  V30 24 C -2.961115 -4.543051 -1.185414 0
M  V30 25 C -1.584815 -4.586151 -0.558764 0
M  V30 26 C -1.584814 -4.059101 0.838866 0
M  V30 27 C -0.337126 -4.183938 1.621689 0
M  V30 28 C -1.423203 -5.105030 1.962114 0
M  V30 29 N -0.717134 -0.054258 2.382685 0
M  V30 30 C 1.194603 2.171304 2.059156 0
M  V30 31 C 1.275099 1.623232 0.804025 0
M  V30 32 H 0.426580 0.307729 -4.088234 0
M  V30 33 H 2.754202 0.071014 -4.917228 0
M  V30 34 H 4.703749 0.763966 -3.635517 0
M  V30 35 H 4.382965 1.745628 -1.417055 0
M  V30 36 H 3.551037 3.750051 -0.594939 0
M  V30 37 H 3.378563 4.687530 1.637123 0
M  V30 38 H 2.203753 4.500374 4.121282 0
M  V30 39 H -0.910612 1.290116 5.463516 0
M  V30 40 H -2.889585 -2.060184 3.775107 0
M  V30 41 H -3.036905 -3.127713 2.069540 0
M  V30 42 H -4.545457 -2.941122 0.398896 0
M  V30 43 H -3.607887 -1.507872 -0.002574 0
M  V30 44 H -2.582753 -2.641794 -1.770865 0
M  V30 45 H -2.908978 -4.928987 -2.208810 0
M  V30 46 H -3.663081 -5.151555 -0.611819 0
M  V30 47 H -0.889754 -3.988626 -1.183928 0
M  V30 48 H -1.211890 -5.630897 -0.579690 0
M  V30 49 H 0.549383 -4.604972 1.116369 0
M  V30 50 H -0.096540 -3.333353 2.313913 0
M  V30 51 H -2.073895 -4.969644 2.866512 0
M  V30 52 H -1.320050 -6.167447 1.638393 0
M  V30 53 H 0.679782 0.768651 0.591928 0
M  V30 END ATOM
M  V30 BEGIN BOND
M  V30 1 1 1 2
M  V30 2 2 2 3
M  V30 3 1 3 4
M  V30 4 2 4 5
M  V30 5 1 5 6
M  V30 6 2 6 7
M  V30 7 1 7 8
M  V30 8 2 8 9
M  V30 9 1 9 10
M  V30 10 2 10 11
M  V30 11 1 11 12
M  V30 12 1 12 13
M  V30 13 2 13 14
M  V30 14 1 14 15
M  V30 15 2 15 16
M  V30 16 1 16 17
M  V30 17 2 17 18
M  V30 18 1 18 19
M  V30 19 1 19 20
M  V30 20 1 20 21
M  V30 21 1 21 22
M  V30 22 1 22 23
M  V30 23 1 23 24
M  V30 24 1 24 25
M  V30 25 1 25 26
M  V30 26 1 26 27
M  V30 27 1 27 28
M  V30 28 2 19 29
M  V30 29 1 14 30
M  V30 30 2 30 31
M  V30 31 1 7 2
M  V30 32 1 31 8
M  V30 33 1 30 11
M  V30 34 1 29 15
M  V30 35 1 26 21
M  V30 36 1 28 26
M  V30 37 1 3 32
M  V30 38 1 4 33
M  V30 39 1 5 34
M  V30 40 1 6 35
M  V30 41 1 9 36
M  V30 42 1 10 37
M  V30 43 1 12 38
M  V30 44 1 16 39
M  V30 45 1 18 40
M  V30 46 1 21 41 CFG=1
M  V30 47 1 22 42
M  V30 48 1 22 43
M  V30 49 1 23 44
M  V30 50 1 24 45
M  V30 51 1 24 46
M  V30 52 1 25 47
M  V30 53 1 25 48
M  V30 54 1 27 49
M  V30 55 1 27 50
M  V30 56 1 28 51
M  V30 57 1 28 52
M  V30 58 1 31 53
M  V30 END BOND
M  V30 END CTAB
M  END
>  <Dataset>  (572) 
ChEMBL_Kinases

>  <Ligand_Instance>  (572) 
nan

>  <PDB_ID>  (572) 
nan

>  <Standardized_SMILES>  (572) 
Fc1ccccc1-c1ccc2[nH]nc(-c3cncc(O[C@H]4CNCCC45CC5)n3)c2c1

>  <Name>  (572) 
nan

>  <Pocket>  (572) 
nan

>  <ATP_Site>  (572) 
nan

>  <Peripheral>  (572) 
nan

>  <Num_H_Atoms_ProtBoundConf>  (572) 
nan

>  <Num_Resolved_Atoms>  (572) 
nan

>  <Num_Not_Resolved_Atoms>  (572) 
nan

$$$$
CHEMBL3393709
     RDKit          3D

  0  0  0  0  0  0  0  0  0  0999 V3000
M  V30 BEGIN CTAB
M  V30 COUNTS 53 58 0 0 0
M  V30 BEGIN ATOM
M  V30 1 C 0.328063 -4.608114 3.964135 0
M  V30 2 C 1.691401 -4.675841 4.166054 0
M  V30 3 C 2.553800 -3.625474 3.917152 0
M  V30 4 C 1.989789 -2.452332 3.439073 0
M  V30 5 C 2.758192 -1.249498 3.126167 0
M  V30 6 C 3.920003 -0.900616 3.825007 0
M  V30 7 C 4.628065 0.243974 3.508127 0
M  V30 8 C 4.177516 1.053992 2.483698 0
M  V30 9 N 4.666697 2.212432 1.971923 0
M  V30 10 N 3.865720 2.600663 0.989043 0
M  V30 11 C 2.863209 1.750089 0.823848 0
M  V30 12 C 1.781244 1.830359 -0.150007 0
M  V30 13 C 1.745175 2.893860 -1.027257 0
M  V30 14 N 0.766495 2.999211 -1.934303 0
M  V30 15 C -0.206412 2.095013 -2.032563 0
M  V30 16 C -0.209913 1.004661 -1.167217 0
M  V30 17 O -1.064077 -0.076042 -1.025171 0
M  V30 18 C -2.185482 -0.261555 -1.821179 0 CFG=1
M  V30 19 C -2.094837 -1.611053 -2.545936 0
M  V30 20 N -3.415672 -2.134696 -2.741317 0
M  V30 21 C -4.399853 -1.096576 -3.074656 0
M  V30 22 C -4.633774 -0.192211 -1.876076 0
M  V30 23 C -3.436066 -0.337780 -0.988040 0
M  V30 24 C -3.465636 -0.071802 0.450415 0
M  V30 25 C -3.512501 -1.538206 -0.023543 0
M  V30 26 N 0.799728 0.921671 -0.251937 0
M  V30 27 C 3.046826 0.760055 1.767215 0
M  V30 28 C 2.361169 -0.392898 2.109606 0
M  V30 29 C 0.628065 -2.369393 3.232074 0
M  V30 30 C -0.217782 -3.432241 3.487496 0
M  V30 31 H -0.322528 -5.445312 4.167407 0
M  V30 32 H 2.124365 -5.598176 4.540478 0
M  V30 33 H 3.615644 -3.652798 4.065683 0
M  V30 34 H 4.197729 -1.594849 4.611935 0
M  V30 35 H 5.532378 0.465479 4.091931 0
M  V30 36 H 5.524901 2.707700 2.298942 0
M  V30 37 H 2.494921 3.690392 -1.030798 0
M  V30 38 H -1.052037 2.044487 -2.703415 0
M  V30 39 H -2.370160 0.512503 -2.590539 0
M  V30 40 H -1.537811 -2.282776 -1.858107 0
M  V30 41 H -1.567960 -1.460963 -3.502576 0
M  V30 42 H -3.482659 -2.846355 -3.483350 0
M  V30 43 H -4.127971 -0.541612 -3.979364 0
M  V30 44 H -5.356605 -1.664710 -3.242902 0
M  V30 45 H -4.620374 0.853250 -2.278068 0
M  V30 46 H -5.587039 -0.408304 -1.363238 0
M  V30 47 H -2.519259 0.199739 0.957346 0
M  V30 48 H -4.371673 0.302201 0.928478 0
M  V30 49 H -2.601407 -2.147524 0.098199 0
M  V30 50 H -4.465006 -2.082896 0.027979 0
M  V30 51 H 1.476859 -0.609913 1.539020 0
M  V30 52 H 0.163423 -1.447570 2.853547 0
M  V30 53 H -1.290817 -3.345629 3.317185 0
M  V30 END ATOM
M  V30 BEGIN BOND
M  V30 1 2 1 2
M  V30 2 1 2 3
M  V30 3 2 3 4
M  V30 4 1 4 5
M  V30 5 2 5 6
M  V30 6 1 6 7
M  V30 7 2 7 8
M  V30 8 1 8 9
M  V30 9 1 9 10
M  V30 10 2 10 11
M  V30 11 1 11 12
M  V30 12 2 12 13
M  V30 13 1 13 14
M  V30 14 2 14 15
M  V30 15 1 15 16
M  V30 16 1 16 17
M  V30 17 1 17 18
M  V30 18 1 18 19
M  V30 19 1 19 20
M  V30 20 1 20 21
M  V30 21 1 21 22
M  V30 22 1 22 23
M  V30 23 1 23 24
M  V30 24 1 24 25
M  V30 25 2 16 26
M  V30 26 1 11 27
M  V30 27 2 27 28
M  V30 28 1 4 29
M  V30 29 2 29 30
M  V30 30 1 30 1
M  V30 31 1 28 5
M  V30 32 1 27 8
M  V30 33 1 26 12
M  V30 34 1 23 18
M  V30 35 1 25 23
M  V30 36 1 1 31
M  V30 37 1 2 32
M  V30 38 1 3 33
M  V30 39 1 6 34
M  V30 40 1 7 35
M  V30 41 1 9 36
M  V30 42 1 13 37
M  V30 43 1 15 38
M  V30 44 1 18 39 CFG=3
M  V30 45 1 19 40
M  V30 46 1 19 41
M  V30 47 1 20 42
M  V30 48 1 21 43
M  V30 49 1 21 44
M  V30 50 1 22 45
M  V30 51 1 22 46
M  V30 52 1 24 47
M  V30 53 1 24 48
M  V30 54 1 25 49
M  V30 55 1 25 50
M  V30 56 1 28 51
M  V30 57 1 29 52
M  V30 58 1 30 53
M  V30 END BOND
M  V30 END CTAB
M  END
>  <Dataset>  (573) 
ChEMBL_Kinases

>  <Ligand_Instance>  (573) 
nan

>  <PDB_ID>  (573) 
nan

>  <Standardized_SMILES>  (573) 
c1ccc(-c2ccc3[nH]nc(-c4cncc(O[C@H]5CNCCC56CC6)n4)c3c2)cc1

>  <Name>  (573) 
nan

>  <Pocket>  (573) 
nan

>  <ATP_Site>  (573) 
nan

>  <Peripheral>  (573) 
nan

>  <Num_H_Atoms_ProtBoundConf>  (573) 
nan

>  <Num_Resolved_Atoms>  (573) 
nan

>  <Num_Not_Resolved_Atoms>  (573) 
nan

$$$$
CHEMBL3393710
     RDKit          3D

  0  0  0  0  0  0  0  0  0  0999 V3000
M  V30 BEGIN CTAB
M  V30 COUNTS 52 57 0 0 0
M  V30 BEGIN ATOM
M  V30 1 F 1.441367 -2.066653 -0.816560 0
M  V30 2 C 2.498251 -2.399801 -0.047354 0
M  V30 3 C 2.825768 -3.647349 0.444087 0
M  V30 4 C 3.954393 -3.810512 1.222896 0
M  V30 5 C 4.769122 -2.736886 1.521606 0
M  V30 6 N 4.432191 -1.533498 1.033736 0
M  V30 7 C 3.331242 -1.343737 0.267260 0
M  V30 8 C 3.203110 0.061074 -0.127750 0
M  V30 9 C 4.270915 0.789914 -0.586467 0
M  V30 10 C 4.081498 2.115475 -0.943846 0
M  V30 11 C 2.821886 2.667823 -0.828590 0
M  V30 12 N 2.405399 3.924897 -1.114507 0
M  V30 13 N 1.099700 3.985004 -0.840486 0
M  V30 14 C 0.678768 2.793702 -0.387032 0
M  V30 15 C -0.680622 2.452242 0.020114 0
M  V30 16 C -1.675210 3.420056 -0.049265 0
M  V30 17 N -2.948956 3.132067 0.322584 0
M  V30 18 C -3.241222 1.890334 0.762507 0
M  V30 19 C -2.289043 0.909509 0.845300 0
M  V30 20 O -2.636031 -0.331834 1.297353 0
M  V30 21 C -1.804242 -1.437446 1.444704 0 CFG=1
M  V30 22 C -1.799339 -1.897063 2.873366 0
M  V30 23 N -3.039618 -2.413617 3.339047 0
M  V30 24 C -4.130705 -2.408985 2.429679 0
M  V30 25 C -3.830658 -2.725731 1.008866 0
M  V30 26 C -2.398987 -2.560618 0.620318 0
M  V30 27 C -1.575858 -3.636380 0.038579 0
M  V30 28 C -2.054916 -2.500830 -0.834582 0
M  V30 29 N -1.040381 1.238768 0.466612 0
M  V30 30 C 1.754460 1.928102 -0.366675 0
M  V30 31 C 1.954098 0.598562 -0.010384 0
M  V30 32 H 2.134460 -4.436678 0.163695 0
M  V30 33 H 4.119533 -4.825120 1.555953 0
M  V30 34 H 5.645904 -2.912540 2.137453 0
M  V30 35 H 5.243620 0.298499 -0.655900 0
M  V30 36 H 4.905093 2.705186 -1.305949 0
M  V30 37 H 2.921635 4.747874 -1.478212 0
M  V30 38 H -1.376425 4.401094 -0.412009 0
M  V30 39 H -4.285516 1.711194 1.050182 0
M  V30 40 H -0.751244 -1.242649 1.150357 0
M  V30 41 H -1.064209 -2.751381 2.913173 0
M  V30 42 H -1.354158 -1.109116 3.513414 0
M  V30 43 H -3.331696 -1.817839 4.168769 0
M  V30 44 H -4.759751 -1.482211 2.568250 0
M  V30 45 H -4.832750 -3.222000 2.782432 0
M  V30 46 H -4.404943 -1.981332 0.382964 0
M  V30 47 H -4.190876 -3.724840 0.664130 0
M  V30 48 H -2.071899 -4.604596 -0.145197 0
M  V30 49 H -0.506030 -3.739073 0.257952 0
M  V30 50 H -2.904041 -2.630112 -1.515917 0
M  V30 51 H -1.226394 -1.821699 -1.157795 0
M  V30 52 H 1.077645 0.084205 0.340826 0
M  V30 END ATOM
M  V30 BEGIN BOND
M  V30 1 1 1 2
M  V30 2 2 2 3
M  V30 3 1 3 4
M  V30 4 2 4 5
M  V30 5 1 5 6
M  V30 6 2 6 7
M  V30 7 1 7 8
M  V30 8 2 8 9
M  V30 9 1 9 10
M  V30 10 2 10 11
M  V30 11 1 11 12
M  V30 12 1 12 13
M  V30 13 2 13 14
M  V30 14 1 14 15
M  V30 15 2 15 16
M  V30 16 1 16 17
M  V30 17 2 17 18
M  V30 18 1 18 19
M  V30 19 1 19 20
M  V30 20 1 20 21
M  V30 21 1 21 22
M  V30 22 1 22 23
M  V30 23 1 23 24
M  V30 24 1 24 25
M  V30 25 1 25 26
M  V30 26 1 26 27
M  V30 27 1 27 28
M  V30 28 2 19 29
M  V30 29 1 14 30
M  V30 30 2 30 31
M  V30 31 1 7 2
M  V30 32 1 31 8
M  V30 33 1 30 11
M  V30 34 1 29 15
M  V30 35 1 26 21
M  V30 36 1 28 26
M  V30 37 1 3 32
M  V30 38 1 4 33
M  V30 39 1 5 34
M  V30 40 1 9 35
M  V30 41 1 10 36
M  V30 42 1 12 37
M  V30 43 1 16 38
M  V30 44 1 18 39
M  V30 45 1 21 40 CFG=3
M  V30 46 1 22 41
M  V30 47 1 22 42
M  V30 48 1 23 43
M  V30 49 1 24 44
M  V30 50 1 24 45
M  V30 51 1 25 46
M  V30 52 1 25 47
M  V30 53 1 27 48
M  V30 54 1 27 49
M  V30 55 1 28 50
M  V30 56 1 28 51
M  V30 57 1 31 52
M  V30 END BOND
M  V30 END CTAB
M  END
>  <Dataset>  (574) 
ChEMBL_Kinases

>  <Ligand_Instance>  (574) 
nan

>  <PDB_ID>  (574) 
nan

>  <Standardized_SMILES>  (574) 
Fc1cccnc1-c1ccc2[nH]nc(-c3cncc(O[C@H]4CNCCC45CC5)n3)c2c1

>  <Name>  (574) 
nan

>  <Pocket>  (574) 
nan

>  <ATP_Site>  (574) 
nan

>  <Peripheral>  (574) 
nan

>  <Num_H_Atoms_ProtBoundConf>  (574) 
nan

>  <Num_Resolved_Atoms>  (574) 
nan

>  <Num_Not_Resolved_Atoms>  (574) 
nan

$$$$
CHEMBL3393711
     RDKit          3D

  0  0  0  0  0  0  0  0  0  0999 V3000
M  V30 BEGIN CTAB
M  V30 COUNTS 52 57 0 0 0
M  V30 BEGIN ATOM
M  V30 1 F 1.376433 -1.764261 -1.161659 0
M  V30 2 C 2.494744 -2.236315 -0.569684 0
M  V30 3 C 2.848817 -3.552653 -0.382198 0
M  V30 4 C 4.028535 -3.876156 0.242301 0
M  V30 5 N 4.853948 -2.907232 0.679194 0
M  V30 6 C 4.525266 -1.613622 0.505151 0
M  V30 7 C 3.336786 -1.241116 -0.123988 0
M  V30 8 C 3.070536 0.191239 -0.264994 0
M  V30 9 C 4.113019 0.980746 -0.694645 0
M  V30 10 C 3.923884 2.353490 -0.849337 0
M  V30 11 C 2.651962 2.843866 -0.548198 0
M  V30 12 N 2.154683 4.087764 -0.591921 0
M  V30 13 N 0.895260 4.084922 -0.218793 0
M  V30 14 C 0.491047 2.853300 0.089823 0
M  V30 15 C -0.832078 2.450861 0.543111 0
M  V30 16 C -1.816603 3.401512 0.688594 0
M  V30 17 N -3.088961 3.163730 1.101593 0
M  V30 18 C -3.416645 1.877796 1.395864 0
M  V30 19 C -2.442216 0.883847 1.260013 0
M  V30 20 O -2.815922 -0.408763 1.568930 0
M  V30 21 C -1.885861 -1.446525 1.452842 0 CFG=1
M  V30 22 C -1.647107 -2.143120 2.799369 0
M  V30 23 N -2.839244 -2.752803 3.297271 0
M  V30 24 C -3.963914 -2.707763 2.397720 0
M  V30 25 C -3.619136 -3.137653 1.009254 0
M  V30 26 C -2.330381 -2.536510 0.518745 0
M  V30 27 C -1.887087 -2.664229 -0.865931 0
M  V30 28 C -1.230327 -3.524364 0.144673 0
M  V30 29 N -1.184321 1.203495 0.838730 0
M  V30 30 C 1.591549 2.047720 -0.112220 0
M  V30 31 C 1.830521 0.711015 0.022193 0
M  V30 32 H 2.136181 -4.288555 -0.759404 0
M  V30 33 H 4.288183 -4.928672 0.379804 0
M  V30 34 H 5.214108 -0.859422 0.869753 0
M  V30 35 H 5.087966 0.599739 -0.924684 0
M  V30 36 H 4.659525 3.068015 -1.176685 0
M  V30 37 H 2.654929 4.961342 -0.874012 0
M  V30 38 H -1.559693 4.438837 0.453404 0
M  V30 39 H -4.425797 1.696582 1.722299 0
M  V30 40 H -0.935808 -1.044943 1.109849 0
M  V30 41 H -0.942751 -2.992077 2.558980 0
M  V30 42 H -1.110930 -1.507079 3.506820 0
M  V30 43 H -3.145883 -2.426260 4.234274 0
M  V30 44 H -4.524980 -1.739338 2.450034 0
M  V30 45 H -4.692473 -3.465729 2.790212 0
M  V30 46 H -3.531662 -4.254370 1.025635 0
M  V30 47 H -4.481297 -2.883162 0.351603 0
M  V30 48 H -1.312874 -1.879134 -1.370352 0
M  V30 49 H -2.589645 -3.194732 -1.563769 0
M  V30 50 H -0.188980 -3.275962 0.438868 0
M  V30 51 H -1.468687 -4.617041 0.237528 0
M  V30 52 H 1.047719 0.073200 0.351728 0
M  V30 END ATOM
M  V30 BEGIN BOND
M  V30 1 1 1 2
M  V30 2 2 2 3
M  V30 3 1 3 4
M  V30 4 2 4 5
M  V30 5 1 5 6
M  V30 6 2 6 7
M  V30 7 1 7 8
M  V30 8 2 8 9
M  V30 9 1 9 10
M  V30 10 2 10 11
M  V30 11 1 11 12
M  V30 12 1 12 13
M  V30 13 2 13 14
M  V30 14 1 14 15
M  V30 15 2 15 16
M  V30 16 1 16 17
M  V30 17 2 17 18
M  V30 18 1 18 19
M  V30 19 1 19 20
M  V30 20 1 20 21
M  V30 21 1 21 22
M  V30 22 1 22 23
M  V30 23 1 23 24
M  V30 24 1 24 25
M  V30 25 1 25 26
M  V30 26 1 26 27
M  V30 27 1 27 28
M  V30 28 2 19 29
M  V30 29 1 14 30
M  V30 30 2 30 31
M  V30 31 1 7 2
M  V30 32 1 31 8
M  V30 33 1 30 11
M  V30 34 1 29 15
M  V30 35 1 26 21
M  V30 36 1 28 26
M  V30 37 1 3 32
M  V30 38 1 4 33
M  V30 39 1 6 34
M  V30 40 1 9 35
M  V30 41 1 10 36
M  V30 42 1 12 37
M  V30 43 1 16 38
M  V30 44 1 18 39
M  V30 45 1 21 40 CFG=3
M  V30 46 1 22 41
M  V30 47 1 22 42
M  V30 48 1 23 43
M  V30 49 1 24 44
M  V30 50 1 24 45
M  V30 51 1 25 46
M  V30 52 1 25 47
M  V30 53 1 27 48
M  V30 54 1 27 49
M  V30 55 1 28 50
M  V30 56 1 28 51
M  V30 57 1 31 52
M  V30 END BOND
M  V30 END CTAB
M  END
>  <Dataset>  (575) 
ChEMBL_Kinases

>  <Ligand_Instance>  (575) 
nan

>  <PDB_ID>  (575) 
nan

>  <Standardized_SMILES>  (575) 
Fc1ccncc1-c1ccc2[nH]nc(-c3cncc(O[C@H]4CNCCC45CC5)n3)c2c1

>  <Name>  (575) 
nan

>  <Pocket>  (575) 
nan

>  <ATP_Site>  (575) 
nan

>  <Peripheral>  (575) 
nan

>  <Num_H_Atoms_ProtBoundConf>  (575) 
nan

>  <Num_Resolved_Atoms>  (575) 
nan

>  <Num_Not_Resolved_Atoms>  (575) 
nan

$$$$
CHEMBL3393712
     RDKit          3D

  0  0  0  0  0  0  0  0  0  0999 V3000
M  V30 BEGIN CTAB
M  V30 COUNTS 52 57 0 0 0
M  V30 BEGIN ATOM
M  V30 1 F 4.294688 -2.151725 -1.891743 0
M  V30 2 C 3.812492 -2.469179 -0.661562 0
M  V30 3 C 3.869951 -3.706800 -0.052352 0
M  V30 4 N 3.362064 -3.913966 1.168024 0
M  V30 5 C 2.770184 -2.923722 1.860366 0
M  V30 6 C 2.688044 -1.662404 1.290453 0
M  V30 7 C 3.212202 -1.422421 0.015466 0
M  V30 8 C 3.070114 -0.045411 -0.493480 0
M  V30 9 C 4.085644 0.670627 -1.120610 0
M  V30 10 C 3.828182 1.950328 -1.551885 0
M  V30 11 C 2.626143 2.578520 -1.405704 0
M  V30 12 N 2.110425 3.785686 -1.721762 0
M  V30 13 N 0.834096 3.855186 -1.325183 0
M  V30 14 C 0.481803 2.698929 -0.740892 0
M  V30 15 C -0.825565 2.379751 -0.176972 0
M  V30 16 C -1.834705 3.317838 -0.220197 0
M  V30 17 N -3.076263 3.111069 0.276416 0
M  V30 18 C -3.366579 1.926755 0.851460 0
M  V30 19 C -2.365181 0.954202 0.911183 0
M  V30 20 O -2.687109 -0.246980 1.503563 0
M  V30 21 C -1.776442 -1.294208 1.623619 0 CFG=1
M  V30 22 C -1.556924 -1.690038 3.090025 0
M  V30 23 N -2.761735 -2.155959 3.701657 0
M  V30 24 C -3.854777 -2.372181 2.803286 0
M  V30 25 C -3.483783 -3.085806 1.546061 0
M  V30 26 C -2.233072 -2.561788 0.937555 0
M  V30 27 C -1.778119 -2.914549 -0.412493 0
M  V30 28 C -1.133955 -3.595976 0.751767 0
M  V30 29 N -1.137404 1.219159 0.395645 0
M  V30 30 C 1.591118 1.879197 -0.778839 0
M  V30 31 C 1.853989 0.594721 -0.347436 0
M  V30 32 H 4.360375 -4.474802 -0.657129 0
M  V30 33 H 2.385820 -3.178026 2.841713 0
M  V30 34 H 2.194060 -0.936416 1.927832 0
M  V30 35 H 5.022792 0.161775 -1.226858 0
M  V30 36 H 4.638401 2.483001 -2.036635 0
M  V30 37 H 2.673873 4.521362 -2.206412 0
M  V30 38 H -1.709407 4.316647 -0.665395 0
M  V30 39 H -4.360623 1.792101 1.236591 0
M  V30 40 H -0.790870 -1.054493 1.198563 0
M  V30 41 H -0.849928 -2.565601 3.036337 0
M  V30 42 H -1.018248 -0.898207 3.641887 0
M  V30 43 H -3.085082 -1.491888 4.441037 0
M  V30 44 H -4.481468 -1.460833 2.641842 0
M  V30 45 H -4.554647 -3.071594 3.349543 0
M  V30 46 H -3.458274 -4.198335 1.717450 0
M  V30 47 H -4.328969 -2.919671 0.824246 0
M  V30 48 H -1.128603 -2.193633 -0.957199 0
M  V30 49 H -2.410128 -3.526401 -1.072038 0
M  V30 50 H -0.083998 -3.296765 1.018427 0
M  V30 51 H -1.329256 -4.659108 0.965520 0
M  V30 52 H 1.058997 0.045489 0.138931 0
M  V30 END ATOM
M  V30 BEGIN BOND
M  V30 1 1 1 2
M  V30 2 2 2 3
M  V30 3 1 3 4
M  V30 4 2 4 5
M  V30 5 1 5 6
M  V30 6 2 6 7
M  V30 7 1 7 8
M  V30 8 2 8 9
M  V30 9 1 9 10
M  V30 10 2 10 11
M  V30 11 1 11 12
M  V30 12 1 12 13
M  V30 13 2 13 14
M  V30 14 1 14 15
M  V30 15 2 15 16
M  V30 16 1 16 17
M  V30 17 2 17 18
M  V30 18 1 18 19
M  V30 19 1 19 20
M  V30 20 1 20 21
M  V30 21 1 21 22
M  V30 22 1 22 23
M  V30 23 1 23 24
M  V30 24 1 24 25
M  V30 25 1 25 26
M  V30 26 1 26 27
M  V30 27 1 27 28
M  V30 28 2 19 29
M  V30 29 1 14 30
M  V30 30 2 30 31
M  V30 31 1 7 2
M  V30 32 1 31 8
M  V30 33 1 30 11
M  V30 34 1 29 15
M  V30 35 1 26 21
M  V30 36 1 28 26
M  V30 37 1 3 32
M  V30 38 1 5 33
M  V30 39 1 6 34
M  V30 40 1 9 35
M  V30 41 1 10 36
M  V30 42 1 12 37
M  V30 43 1 16 38
M  V30 44 1 18 39
M  V30 45 1 21 40 CFG=3
M  V30 46 1 22 41
M  V30 47 1 22 42
M  V30 48 1 23 43
M  V30 49 1 24 44
M  V30 50 1 24 45
M  V30 51 1 25 46
M  V30 52 1 25 47
M  V30 53 1 27 48
M  V30 54 1 27 49
M  V30 55 1 28 50
M  V30 56 1 28 51
M  V30 57 1 31 52
M  V30 END BOND
M  V30 END CTAB
M  END
>  <Dataset>  (576) 
ChEMBL_Kinases

>  <Ligand_Instance>  (576) 
nan

>  <PDB_ID>  (576) 
nan

>  <Standardized_SMILES>  (576) 
Fc1cnccc1-c1ccc2[nH]nc(-c3cncc(O[C@H]4CNCCC45CC5)n3)c2c1

>  <Name>  (576) 
nan

>  <Pocket>  (576) 
nan

>  <ATP_Site>  (576) 
nan

>  <Peripheral>  (576) 
nan

>  <Num_H_Atoms_ProtBoundConf>  (576) 
nan

>  <Num_Resolved_Atoms>  (576) 
nan

>  <Num_Not_Resolved_Atoms>  (576) 
nan

$$$$
CHEMBL3393713
     RDKit          3D

  0  0  0  0  0  0  0  0  0  0999 V3000
M  V30 BEGIN CTAB
M  V30 COUNTS 52 57 0 0 0
M  V30 BEGIN ATOM
M  V30 1 F 4.492114 -1.981681 -1.723155 0
M  V30 2 C 3.937613 -2.396155 -0.566618 0
M  V30 3 N 3.961516 -3.637846 -0.042437 0
M  V30 4 C 3.358848 -3.909500 1.133062 0
M  V30 5 C 2.688085 -2.939610 1.861563 0
M  V30 6 C 2.660336 -1.664145 1.328702 0
M  V30 7 C 3.281111 -1.398890 0.124523 0
M  V30 8 C 3.139163 0.014289 -0.271738 0
M  V30 9 C 4.205443 0.764258 -0.761076 0
M  V30 10 C 3.985634 2.081387 -1.108980 0
M  V30 11 C 2.765538 2.688780 -0.995947 0
M  V30 12 N 2.247199 3.910228 -1.241691 0
M  V30 13 N 0.961953 3.947183 -0.938787 0
M  V30 14 C 0.555440 2.753165 -0.475330 0
M  V30 15 C -0.789938 2.405387 -0.040414 0
M  V30 16 C -1.784062 3.359289 -0.088251 0
M  V30 17 N -3.058919 3.153479 0.286139 0
M  V30 18 C -3.421255 1.949301 0.741872 0
M  V30 19 C -2.450410 0.957587 0.806930 0
M  V30 20 O -2.836713 -0.286442 1.280671 0
M  V30 21 C -1.891175 -1.306082 1.360408 0 CFG=1
M  V30 22 C -1.682928 -1.771839 2.807459 0
M  V30 23 N -2.827949 -2.436578 3.344689 0
M  V30 24 C -3.922107 -2.599360 2.433057 0
M  V30 25 C -3.478112 -3.202615 1.124755 0
M  V30 26 C -2.250412 -2.549783 0.588276 0
M  V30 27 C -1.757154 -2.819798 -0.765962 0
M  V30 28 C -1.028764 -3.465275 0.356692 0
M  V30 29 N -1.170725 1.221353 0.413690 0
M  V30 30 C 1.689762 1.970314 -0.513898 0
M  V30 31 C 1.918672 0.654182 -0.168523 0
M  V30 32 H 3.408422 -4.917103 1.505766 0
M  V30 33 H 2.240125 -3.256650 2.787759 0
M  V30 34 H 2.118390 -0.943161 1.945844 0
M  V30 35 H 5.165579 0.289632 -0.851060 0
M  V30 36 H 4.791447 2.694743 -1.492993 0
M  V30 37 H 2.835331 4.700720 -1.626507 0
M  V30 38 H -1.593176 4.379480 -0.445970 0
M  V30 39 H -4.433848 1.756076 1.048317 0
M  V30 40 H -0.919862 -0.943068 1.012150 0
M  V30 41 H -0.848991 -2.506293 2.754024 0
M  V30 42 H -1.318355 -0.933298 3.431002 0
M  V30 43 H -3.177252 -2.038451 4.234426 0
M  V30 44 H -4.512112 -1.695913 2.236549 0
M  V30 45 H -4.609251 -3.358363 2.894712 0
M  V30 46 H -3.305215 -4.310137 1.249733 0
M  V30 47 H -4.276965 -3.107647 0.381750 0
M  V30 48 H -1.228594 -2.095413 -1.391669 0
M  V30 49 H -2.389377 -3.523157 -1.373949 0
M  V30 50 H -0.025050 -3.074909 0.570851 0
M  V30 51 H -1.163879 -4.526109 0.609031 0
M  V30 52 H 1.109168 0.047897 0.214241 0
M  V30 END ATOM
M  V30 BEGIN BOND
M  V30 1 1 1 2
M  V30 2 2 2 3
M  V30 3 1 3 4
M  V30 4 2 4 5
M  V30 5 1 5 6
M  V30 6 2 6 7
M  V30 7 1 7 8
M  V30 8 2 8 9
M  V30 9 1 9 10
M  V30 10 2 10 11
M  V30 11 1 11 12
M  V30 12 1 12 13
M  V30 13 2 13 14
M  V30 14 1 14 15
M  V30 15 2 15 16
M  V30 16 1 16 17
M  V30 17 2 17 18
M  V30 18 1 18 19
M  V30 19 1 19 20
M  V30 20 1 20 21
M  V30 21 1 21 22
M  V30 22 1 22 23
M  V30 23 1 23 24
M  V30 24 1 24 25
M  V30 25 1 25 26
M  V30 26 1 26 27
M  V30 27 1 27 28
M  V30 28 2 19 29
M  V30 29 1 14 30
M  V30 30 2 30 31
M  V30 31 1 7 2
M  V30 32 1 31 8
M  V30 33 1 30 11
M  V30 34 1 29 15
M  V30 35 1 26 21
M  V30 36 1 28 26
M  V30 37 1 4 32
M  V30 38 1 5 33
M  V30 39 1 6 34
M  V30 40 1 9 35
M  V30 41 1 10 36
M  V30 42 1 12 37
M  V30 43 1 16 38
M  V30 44 1 18 39
M  V30 45 1 21 40 CFG=3
M  V30 46 1 22 41
M  V30 47 1 22 42
M  V30 48 1 23 43
M  V30 49 1 24 44
M  V30 50 1 24 45
M  V30 51 1 25 46
M  V30 52 1 25 47
M  V30 53 1 27 48
M  V30 54 1 27 49
M  V30 55 1 28 50
M  V30 56 1 28 51
M  V30 57 1 31 52
M  V30 END BOND
M  V30 END CTAB
M  END
>  <Dataset>  (577) 
ChEMBL_Kinases

>  <Ligand_Instance>  (577) 
nan

>  <PDB_ID>  (577) 
nan

>  <Standardized_SMILES>  (577) 
Fc1ncccc1-c1ccc2[nH]nc(-c3cncc(O[C@H]4CNCCC45CC5)n3)c2c1

>  <Name>  (577) 
nan

>  <Pocket>  (577) 
nan

>  <ATP_Site>  (577) 
nan

>  <Peripheral>  (577) 
nan

>  <Num_H_Atoms_ProtBoundConf>  (577) 
nan

>  <Num_Resolved_Atoms>  (577) 
nan

>  <Num_Not_Resolved_Atoms>  (577) 
nan

$$$$
CHEMBL3393714
     RDKit          3D

  0  0  0  0  0  0  0  0  0  0999 V3000
M  V30 BEGIN CTAB
M  V30 COUNTS 53 58 0 0 0
M  V30 BEGIN ATOM
M  V30 1 C 2.225563 -2.430895 -0.381290 0
M  V30 2 N 2.842023 -1.847816 -1.553559 0
M  V30 3 C 2.937114 -2.476290 -2.735061 0
M  V30 4 N 3.550717 -1.726119 -3.665470 0
M  V30 5 C 3.859785 -0.570825 -3.051241 0
M  V30 6 C 3.427204 -0.628668 -1.739229 0
M  V30 7 C 3.501187 0.326844 -0.646598 0
M  V30 8 C 4.727353 0.969133 -0.471446 0
M  V30 9 C 4.893154 1.893010 0.540165 0
M  V30 10 C 3.841073 2.187935 1.388424 0
M  V30 11 N 3.696445 3.017476 2.436285 0
M  V30 12 N 2.476756 2.931350 2.914527 0
M  V30 13 C 1.746604 2.034742 2.203392 0
M  V30 14 C 0.353287 1.655855 2.418799 0
M  V30 15 C -0.335119 2.256018 3.455117 0
M  V30 16 N -1.619372 1.919821 3.669189 0
M  V30 17 C -2.253205 1.014939 2.902220 0
M  V30 18 C -1.584596 0.401719 1.859883 0
M  V30 19 O -2.002364 -0.538191 0.948744 0
M  V30 20 C -3.294637 -1.112132 0.886177 0 CFG=1
M  V30 21 C -3.822879 -0.853888 -0.498159 0
M  V30 22 N -4.973602 -1.651241 -0.830278 0
M  V30 23 C -5.367785 -2.549647 0.228471 0
M  V30 24 C -4.197447 -3.440318 0.559974 0
M  V30 25 C -3.129247 -2.589380 1.172150 0
M  V30 26 C -1.728775 -3.149311 1.297856 0
M  V30 27 C -2.573513 -2.955217 2.519271 0
M  V30 28 N -0.284434 0.752407 1.655334 0
M  V30 29 C 2.606372 1.558112 1.232041 0
M  V30 30 C 2.467495 0.638533 0.212703 0
M  V30 31 H 2.474478 -3.511260 -0.328395 0
M  V30 32 H 1.125459 -2.379830 -0.406186 0
M  V30 33 H 2.671147 -1.970751 0.528570 0
M  V30 34 H 2.603816 -3.473250 -3.050640 0
M  V30 35 H 4.358910 0.344386 -3.383159 0
M  V30 36 H 5.566235 0.739883 -1.140824 0
M  V30 37 H 5.833123 2.421445 0.716947 0
M  V30 38 H 4.469624 3.615730 2.774864 0
M  V30 39 H 0.082767 3.000066 4.134939 0
M  V30 40 H -3.275927 0.673961 2.986185 0
M  V30 41 H -3.970043 -0.719302 1.671682 0
M  V30 42 H -4.128627 0.212433 -0.546506 0
M  V30 43 H -2.986132 -0.970642 -1.217570 0
M  V30 44 H -4.707599 -2.244454 -1.659921 0
M  V30 45 H -5.756547 -2.002624 1.100318 0
M  V30 46 H -6.215802 -3.151367 -0.158569 0
M  V30 47 H -3.871990 -3.918946 -0.393770 0
M  V30 48 H -4.531376 -4.205388 1.294839 0
M  V30 49 H -0.905800 -2.450953 1.069054 0
M  V30 50 H -1.609725 -4.179136 0.866060 0
M  V30 51 H -2.317881 -2.118141 3.193628 0
M  V30 52 H -2.844022 -3.905761 3.018575 0
M  V30 53 H 1.536821 0.141965 0.069090 0
M  V30 END ATOM
M  V30 BEGIN BOND
M  V30 1 1 1 2
M  V30 2 1 2 3
M  V30 3 2 3 4
M  V30 4 1 4 5
M  V30 5 2 5 6
M  V30 6 1 6 7
M  V30 7 2 7 8
M  V30 8 1 8 9
M  V30 9 2 9 10
M  V30 10 1 10 11
M  V30 11 1 11 12
M  V30 12 2 12 13
M  V30 13 1 13 14
M  V30 14 2 14 15
M  V30 15 1 15 16
M  V30 16 2 16 17
M  V30 17 1 17 18
M  V30 18 1 18 19
M  V30 19 1 19 20
M  V30 20 1 20 21
M  V30 21 1 21 22
M  V30 22 1 22 23
M  V30 23 1 23 24
M  V30 24 1 24 25
M  V30 25 1 25 26
M  V30 26 1 26 27
M  V30 27 2 18 28
M  V30 28 1 13 29
M  V30 29 2 29 30
M  V30 30 1 6 2
M  V30 31 1 30 7
M  V30 32 1 29 10
M  V30 33 1 28 14
M  V30 34 1 25 20
M  V30 35 1 27 25
M  V30 36 1 1 31
M  V30 37 1 1 32
M  V30 38 1 1 33
M  V30 39 1 3 34
M  V30 40 1 5 35
M  V30 41 1 8 36
M  V30 42 1 9 37
M  V30 43 1 11 38
M  V30 44 1 15 39
M  V30 45 1 17 40
M  V30 46 1 20 41 CFG=1
M  V30 47 1 21 42
M  V30 48 1 21 43
M  V30 49 1 22 44
M  V30 50 1 23 45
M  V30 51 1 23 46
M  V30 52 1 24 47
M  V30 53 1 24 48
M  V30 54 1 26 49
M  V30 55 1 26 50
M  V30 56 1 27 51
M  V30 57 1 27 52
M  V30 58 1 30 53
M  V30 END BOND
M  V30 END CTAB
M  END
>  <Dataset>  (578) 
ChEMBL_Kinases

>  <Ligand_Instance>  (578) 
nan

>  <PDB_ID>  (578) 
nan

>  <Standardized_SMILES>  (578) 
Cn1cncc1-c1ccc2[nH]nc(-c3cncc(O[C@H]4CNCCC45CC5)n3)c2c1

>  <Name>  (578) 
nan

>  <Pocket>  (578) 
nan

>  <ATP_Site>  (578) 
nan

>  <Peripheral>  (578) 
nan

>  <Num_H_Atoms_ProtBoundConf>  (578) 
nan

>  <Num_Resolved_Atoms>  (578) 
nan

>  <Num_Not_Resolved_Atoms>  (578) 
nan

$$$$
CHEMBL3393715
     RDKit          3D

  0  0  0  0  0  0  0  0  0  0999 V3000
M  V30 BEGIN CTAB
M  V30 COUNTS 49 54 0 0 0
M  V30 BEGIN ATOM
M  V30 1 C -2.239571 -0.358377 -3.094582 0
M  V30 2 C -2.475250 -0.569883 -4.415035 0
M  V30 3 S -0.775099 -1.270378 -4.940709 0
M  V30 4 C -0.160711 -1.101612 -3.225488 0
M  V30 5 C 1.258002 -1.529852 -2.953965 0
M  V30 6 C 2.087521 -2.020910 -3.901936 0
M  V30 7 C 3.375288 -2.375322 -3.482856 0
M  V30 8 C 3.763625 -2.225670 -2.168348 0
M  V30 9 N 4.924227 -2.490534 -1.539199 0
M  V30 10 N 4.819182 -2.172958 -0.237505 0
M  V30 11 C 3.586247 -1.696397 -0.001663 0
M  V30 12 C 3.003100 -1.221710 1.252780 0
M  V30 13 C 3.743151 -1.218307 2.416904 0
M  V30 14 N 3.214811 -0.781740 3.573783 0
M  V30 15 C 1.949521 -0.332715 3.644580 0
M  V30 16 C 1.175863 -0.319975 2.502348 0
M  V30 17 O -0.126445 0.069572 2.247266 0
M  V30 18 C -1.050111 0.591144 3.150107 0 CFG=1
M  V30 19 C -1.394951 2.008776 2.831956 0
M  V30 20 N -2.653812 2.076745 2.149740 0
M  V30 21 C -3.662911 1.719973 3.125723 0
M  V30 22 C -3.529987 0.297854 3.588585 0
M  V30 23 C -2.215800 -0.329200 3.271411 0
M  V30 24 C -1.974886 -1.634150 4.047350 0
M  V30 25 C -2.124435 -1.638594 2.557535 0
M  V30 26 N 1.734299 -0.766680 1.345228 0
M  V30 27 C 2.901235 -1.720032 -1.205837 0
M  V30 28 C 1.621223 -1.370407 -1.633586 0
M  V30 29 N -1.059639 -0.650460 -2.583477 0
M  V30 30 H -2.971036 0.052022 -2.378873 0
M  V30 31 H -3.416285 -0.352587 -4.895397 0
M  V30 32 H 1.730532 -2.115346 -4.908155 0
M  V30 33 H 4.064463 -2.772601 -4.223775 0
M  V30 34 H 5.817212 -2.880175 -1.915673 0
M  V30 35 H 4.776057 -1.564964 2.452458 0
M  V30 36 H 1.389808 0.045539 4.488355 0
M  V30 37 H -0.529539 0.607514 4.147255 0
M  V30 38 H -1.445988 2.608564 3.740645 0
M  V30 39 H -0.560280 2.420156 2.214105 0
M  V30 40 H -2.709045 1.447964 1.317864 0
M  V30 41 H -3.511269 2.396717 3.992535 0
M  V30 42 H -4.652657 1.959417 2.679836 0
M  V30 43 H -4.322186 -0.279766 3.054048 0
M  V30 44 H -3.743713 0.190393 4.670684 0
M  V30 45 H -2.798031 -2.069018 4.643685 0
M  V30 46 H -0.989554 -1.792058 4.521487 0
M  V30 47 H -3.029767 -2.124984 2.166939 0
M  V30 48 H -1.175481 -1.872866 2.038347 0
M  V30 49 H 0.955971 -0.979572 -0.881878 0
M  V30 END ATOM
M  V30 BEGIN BOND
M  V30 1 2 1 2
M  V30 2 1 2 3
M  V30 3 1 3 4
M  V30 4 1 4 5
M  V30 5 2 5 6
M  V30 6 1 6 7
M  V30 7 2 7 8
M  V30 8 1 8 9
M  V30 9 1 9 10
M  V30 10 2 10 11
M  V30 11 1 11 12
M  V30 12 2 12 13
M  V30 13 1 13 14
M  V30 14 2 14 15
M  V30 15 1 15 16
M  V30 16 1 16 17
M  V30 17 1 17 18
M  V30 18 1 18 19
M  V30 19 1 19 20
M  V30 20 1 20 21
M  V30 21 1 21 22
M  V30 22 1 22 23
M  V30 23 1 23 24
M  V30 24 1 24 25
M  V30 25 2 16 26
M  V30 26 1 11 27
M  V30 27 2 27 28
M  V30 28 2 4 29
M  V30 29 1 29 1
M  V30 30 1 28 5
M  V30 31 1 27 8
M  V30 32 1 26 12
M  V30 33 1 23 18
M  V30 34 1 25 23
M  V30 35 1 1 30
M  V30 36 1 2 31
M  V30 37 1 6 32
M  V30 38 1 7 33
M  V30 39 1 9 34
M  V30 40 1 13 35
M  V30 41 1 15 36
M  V30 42 1 18 37 CFG=1
M  V30 43 1 19 38
M  V30 44 1 19 39
M  V30 45 1 20 40
M  V30 46 1 21 41
M  V30 47 1 21 42
M  V30 48 1 22 43
M  V30 49 1 22 44
M  V30 50 1 24 45
M  V30 51 1 24 46
M  V30 52 1 25 47
M  V30 53 1 25 48
M  V30 54 1 28 49
M  V30 END BOND
M  V30 END CTAB
M  END
>  <Dataset>  (579) 
ChEMBL_Kinases

>  <Ligand_Instance>  (579) 
nan

>  <PDB_ID>  (579) 
nan

>  <Standardized_SMILES>  (579) 
c1csc(-c2ccc3[nH]nc(-c4cncc(O[C@H]5CNCCC56CC6)n4)c3c2)n1

>  <Name>  (579) 
nan

>  <Pocket>  (579) 
nan

>  <ATP_Site>  (579) 
nan

>  <Peripheral>  (579) 
nan

>  <Num_H_Atoms_ProtBoundConf>  (579) 
nan

>  <Num_Resolved_Atoms>  (579) 
nan

>  <Num_Not_Resolved_Atoms>  (579) 
nan

$$$$
CHEMBL3356466
     RDKit          3D

  0  0  0  0  0  0  0  0  0  0999 V3000
M  V30 BEGIN CTAB
M  V30 COUNTS 47 50 0 0 0
M  V30 BEGIN ATOM
M  V30 1 C 3.393661 -3.007350 1.580549 0
M  V30 2 C 2.138254 -2.718427 2.358133 0
M  V30 3 C 1.616771 -4.097580 2.790910 0
M  V30 4 C 1.134929 -2.029212 1.508975 0
M  V30 5 C 0.244211 -2.835614 0.832314 0
M  V30 6 C -0.743842 -2.313420 0.006720 0
M  V30 7 C -0.818463 -0.941901 -0.126176 0
M  V30 8 C 0.092434 -0.173282 0.568733 0
M  V30 9 C 1.086730 -0.655587 1.397275 0
M  V30 10 N 2.002312 0.173340 2.088626 0
M  V30 11 C 2.076910 1.607261 2.080038 0
M  V30 12 C 0.858121 2.351698 2.576916 0
M  V30 13 N 1.785195 3.325879 3.176613 0
M  V30 14 C 2.733807 2.232682 3.276726 0
M  V30 15 N -1.818484 -0.372063 -0.963126 0
M  V30 16 C -2.698738 -1.270669 -1.625350 0
M  V30 17 N -3.577506 -0.908200 -2.495672 0
M  V30 18 N -3.700893 0.428730 -2.831443 0
M  V30 19 C -2.849686 1.376780 -2.204126 0
M  V30 20 O -2.863985 2.596248 -2.572116 0
M  V30 21 C -1.901738 1.055304 -1.107017 0
M  V30 22 C -2.432892 1.729157 0.140447 0
M  V30 23 C -2.719443 -2.758437 -1.396262 0
M  V30 24 O -1.604197 -3.186502 -0.641908 0
M  V30 25 H 4.122465 -3.407739 2.317027 0
M  V30 26 H 3.253508 -3.820173 0.843535 0
M  V30 27 H 3.851874 -2.090915 1.158804 0
M  V30 28 H 2.408671 -2.184106 3.273664 0
M  V30 29 H 2.086304 -4.368870 3.771771 0
M  V30 30 H 0.525824 -3.985416 2.953945 0
M  V30 31 H 1.783395 -4.861616 2.029903 0
M  V30 32 H 0.291030 -3.909578 0.926971 0
M  V30 33 H -0.015438 0.891498 0.424041 0
M  V30 34 H 2.718269 -0.268560 2.679382 0
M  V30 35 H 2.486640 2.047345 1.148801 0
M  V30 36 H 0.211191 2.815552 1.820170 0
M  V30 37 H 0.368305 1.771514 3.385690 0
M  V30 38 H 2.110339 3.961391 2.388242 0
M  V30 39 H 2.563406 1.626734 4.212723 0
M  V30 40 H 3.786101 2.554624 3.167927 0
M  V30 41 H -4.391241 0.805119 -3.530433 0
M  V30 42 H -0.875339 1.407470 -1.349388 0
M  V30 43 H -2.348422 1.120467 1.052296 0
M  V30 44 H -3.533854 1.953151 0.035839 0
M  V30 45 H -1.948625 2.727547 0.258380 0
M  V30 46 H -2.651129 -3.260527 -2.389780 0
M  V30 47 H -3.646657 -3.078018 -0.877689 0
M  V30 END ATOM
M  V30 BEGIN BOND
M  V30 1 1 1 2
M  V30 2 1 2 3
M  V30 3 1 2 4
M  V30 4 2 4 5
M  V30 5 1 5 6
M  V30 6 2 6 7
M  V30 7 1 7 8
M  V30 8 2 8 9
M  V30 9 1 9 10
M  V30 10 1 10 11
M  V30 11 1 11 12
M  V30 12 1 12 13
M  V30 13 1 13 14
M  V30 14 1 7 15
M  V30 15 1 15 16
M  V30 16 2 16 17
M  V30 17 1 17 18
M  V30 18 1 18 19
M  V30 19 2 19 20
M  V30 20 1 19 21
M  V30 21 1 21 22
M  V30 22 1 16 23
M  V30 23 1 23 24
M  V30 24 1 9 4
M  V30 25 1 14 11
M  V30 26 1 21 15
M  V30 27 1 24 6
M  V30 28 1 1 25
M  V30 29 1 1 26
M  V30 30 1 1 27
M  V30 31 1 2 28
M  V30 32 1 3 29
M  V30 33 1 3 30
M  V30 34 1 3 31
M  V30 35 1 5 32
M  V30 36 1 8 33
M  V30 37 1 10 34
M  V30 38 1 11 35
M  V30 39 1 12 36
M  V30 40 1 12 37
M  V30 41 1 13 38
M  V30 42 1 14 39
M  V30 43 1 14 40
M  V30 44 1 18 41
M  V30 45 1 21 42
M  V30 46 1 22 43
M  V30 47 1 22 44
M  V30 48 1 22 45
M  V30 49 1 23 46
M  V30 50 1 23 47
M  V30 END BOND
M  V30 END CTAB
M  END
>  <Dataset>  (580) 
ChEMBL_Kinases

>  <Ligand_Instance>  (580) 
nan

>  <PDB_ID>  (580) 
nan

>  <Standardized_SMILES>  (580) 
CC(C)c1cc2c(cc1NC1CNC1)N1C(=NNC(=O)C1C)CO2

>  <Name>  (580) 
nan

>  <Pocket>  (580) 
nan

>  <ATP_Site>  (580) 
nan

>  <Peripheral>  (580) 
nan

>  <Num_H_Atoms_ProtBoundConf>  (580) 
nan

>  <Num_Resolved_Atoms>  (580) 
nan

>  <Num_Not_Resolved_Atoms>  (580) 
nan

$$$$
CHEMBL3393717
     RDKit          3D

  0  0  0  0  0  0  0  0  0  0999 V3000
M  V30 BEGIN CTAB
M  V30 COUNTS 54 59 0 0 0
M  V30 BEGIN ATOM
M  V30 1 O 0.198908 -5.973435 3.134022 0
M  V30 2 C 0.820361 -4.780430 2.782399 0
M  V30 3 C 1.583079 -4.149758 3.752206 0
M  V30 4 C 2.254782 -2.959030 3.538158 0
M  V30 5 C 2.143415 -2.387983 2.281652 0
M  V30 6 C 2.805338 -1.133474 1.934306 0
M  V30 7 C 4.110953 -1.015767 2.332502 0
M  V30 8 C 4.809883 0.138721 2.043944 0
M  V30 9 C 4.135224 1.139466 1.350203 0
M  V30 10 N 4.575014 2.344251 0.948741 0
M  V30 11 N 3.578055 2.954188 0.322984 0
M  V30 12 C 2.489589 2.180199 0.301695 0
M  V30 13 C 1.200720 2.509869 -0.296373 0
M  V30 14 C 1.024645 3.726617 -0.916730 0
M  V30 15 N -0.118430 4.117372 -1.492394 0
M  V30 16 C -1.192778 3.275988 -1.477820 0
M  V30 17 C -1.041505 2.036519 -0.855613 0
M  V30 18 O -2.146648 1.231809 -0.868566 0
M  V30 19 C -2.273408 -0.045969 -0.325075 0 CFG=1
M  V30 20 C -3.414990 -0.029072 0.680828 0
M  V30 21 N -4.105341 -1.293274 0.719257 0
M  V30 22 C -4.851375 -1.600350 -0.461756 0
M  V30 23 C -4.145019 -1.031172 -1.657252 0
M  V30 24 C -2.652524 -1.094988 -1.356087 0
M  V30 25 C -1.695936 -1.632612 -2.325953 0
M  V30 26 C -2.073788 -2.480505 -1.140477 0
M  V30 27 N 0.142620 1.679334 -0.281157 0
M  V30 28 C 2.814382 1.008169 0.952978 0
M  V30 29 C 2.112309 -0.140395 1.237727 0
M  V30 30 C 1.394739 -2.979382 1.283198 0
M  V30 31 F 1.294406 -2.408287 0.055983 0
M  V30 32 C 0.732861 -4.172712 1.527777 0
M  V30 33 H -0.425235 -6.460183 2.500419 0
M  V30 34 H 1.680352 -4.581338 4.736712 0
M  V30 35 H 2.848856 -2.462942 4.285372 0
M  V30 36 H 4.620429 -1.801394 2.870123 0
M  V30 37 H 5.841407 0.299882 2.327212 0
M  V30 38 H 5.529352 2.771891 1.082773 0
M  V30 39 H 1.844224 4.425056 -0.953856 0
M  V30 40 H -2.104381 3.598037 -1.941708 0
M  V30 41 H -1.324170 -0.356886 0.146698 0
M  V30 42 H -4.119742 0.762829 0.391377 0
M  V30 43 H -3.031673 0.184875 1.692698 0
M  V30 44 H -4.776234 -1.242457 1.526118 0
M  V30 45 H -5.924963 -1.269018 -0.391795 0
M  V30 46 H -4.809907 -2.721694 -0.588133 0
M  V30 47 H -4.431947 0.019558 -1.826470 0
M  V30 48 H -4.346953 -1.670560 -2.529604 0
M  V30 49 H -0.680202 -1.204112 -2.395757 0
M  V30 50 H -2.072732 -1.947238 -3.325281 0
M  V30 51 H -1.375119 -2.617698 -0.290094 0
M  V30 52 H -2.774516 -3.337005 -1.357861 0
M  V30 53 H 1.083056 -0.262817 0.937449 0
M  V30 54 H 0.131511 -4.684147 0.786998 0
M  V30 END ATOM
M  V30 BEGIN BOND
M  V30 1 1 1 2
M  V30 2 2 2 3
M  V30 3 1 3 4
M  V30 4 2 4 5
M  V30 5 1 5 6
M  V30 6 2 6 7
M  V30 7 1 7 8
M  V30 8 2 8 9
M  V30 9 1 9 10
M  V30 10 1 10 11
M  V30 11 2 11 12
M  V30 12 1 12 13
M  V30 13 2 13 14
M  V30 14 1 14 15
M  V30 15 2 15 16
M  V30 16 1 16 17
M  V30 17 1 17 18
M  V30 18 1 18 19
M  V30 19 1 19 20
M  V30 20 1 20 21
M  V30 21 1 21 22
M  V30 22 1 22 23
M  V30 23 1 23 24
M  V30 24 1 24 25
M  V30 25 1 25 26
M  V30 26 2 17 27
M  V30 27 1 12 28
M  V30 28 2 28 29
M  V30 29 1 5 30
M  V30 30 1 30 31
M  V30 31 2 30 32
M  V30 32 1 32 2
M  V30 33 1 29 6
M  V30 34 1 28 9
M  V30 35 1 27 13
M  V30 36 1 24 19
M  V30 37 1 26 24
M  V30 38 1 1 33
M  V30 39 1 3 34
M  V30 40 1 4 35
M  V30 41 1 7 36
M  V30 42 1 8 37
M  V30 43 1 10 38
M  V30 44 1 14 39
M  V30 45 1 16 40
M  V30 46 1 19 41 CFG=1
M  V30 47 1 20 42
M  V30 48 1 20 43
M  V30 49 1 21 44
M  V30 50 1 22 45
M  V30 51 1 22 46
M  V30 52 1 23 47
M  V30 53 1 23 48
M  V30 54 1 25 49
M  V30 55 1 25 50
M  V30 56 1 26 51
M  V30 57 1 26 52
M  V30 58 1 29 53
M  V30 59 1 32 54
M  V30 END BOND
M  V30 END CTAB
M  END
>  <Dataset>  (581) 
ChEMBL_Kinases

>  <Ligand_Instance>  (581) 
nan

>  <PDB_ID>  (581) 
nan

>  <Standardized_SMILES>  (581) 
Oc1ccc(-c2ccc3[nH]nc(-c4cncc(O[C@H]5CNCCC56CC6)n4)c3c2)c(F)c1

>  <Name>  (581) 
nan

>  <Pocket>  (581) 
nan

>  <ATP_Site>  (581) 
nan

>  <Peripheral>  (581) 
nan

>  <Num_H_Atoms_ProtBoundConf>  (581) 
nan

>  <Num_Resolved_Atoms>  (581) 
nan

>  <Num_Not_Resolved_Atoms>  (581) 
nan

$$$$
CHEMBL3393718
     RDKit          3D

  0  0  0  0  0  0  0  0  0  0999 V3000
M  V30 BEGIN CTAB
M  V30 COUNTS 57 62 0 0 0
M  V30 BEGIN ATOM
M  V30 1 N 2.893920 -5.264841 -2.706816 0
M  V30 2 C 2.824202 -4.243956 -3.712022 0
M  V30 3 O 2.906320 -4.623467 -4.908981 0
M  V30 4 C 2.663891 -2.872533 -3.199445 0
M  V30 5 C 2.582639 -2.553582 -1.849337 0
M  V30 6 C 2.433253 -1.223601 -1.523307 0
M  V30 7 C 2.363761 -0.225048 -2.473163 0
M  V30 8 C 2.205195 1.106579 -1.895532 0
M  V30 9 C 2.997812 2.106322 -2.420573 0
M  V30 10 C 2.888359 3.379684 -1.912632 0
M  V30 11 C 1.989947 3.653049 -0.883570 0
M  V30 12 N 1.730919 4.803597 -0.256265 0
M  V30 13 N 0.793486 4.558632 0.653890 0
M  V30 14 C 0.444999 3.248452 0.616165 0
M  V30 15 C -0.550463 2.571056 1.453867 0
M  V30 16 C -1.227867 3.330336 2.400142 0
M  V30 17 N -2.155264 2.732625 3.190767 0
M  V30 18 C -2.405049 1.418474 3.048113 0
M  V30 19 C -1.746713 0.641612 2.116461 0
M  V30 20 O -1.908859 -0.697497 1.873980 0
M  V30 21 C -2.793056 -1.567586 2.535004 0 CFG=1
M  V30 22 C -3.785158 -2.069946 1.477722 0
M  V30 23 N -4.857378 -2.768181 2.115672 0
M  V30 24 C -4.452420 -3.339781 3.378179 0
M  V30 25 C -3.058454 -3.919692 3.284734 0
M  V30 26 C -2.065639 -2.824611 2.994047 0
M  V30 27 C -0.831251 -3.123697 2.209545 0
M  V30 28 C -0.769843 -2.781929 3.675182 0
M  V30 29 N -0.815452 1.251612 1.325558 0
M  V30 30 C 1.202479 2.641295 -0.367642 0
M  V30 31 C 1.315799 1.365765 -0.880321 0
M  V30 32 C 2.446562 -0.564110 -3.808188 0
M  V30 33 F 2.365985 0.502814 -4.645187 0
M  V30 34 C 2.596530 -1.888894 -4.165632 0
M  V30 35 H 3.562657 -6.073627 -2.711335 0
M  V30 36 H 2.410321 -5.506643 -1.815859 0
M  V30 37 H 2.640730 -3.359060 -1.140303 0
M  V30 38 H 2.377672 -1.061358 -0.437738 0
M  V30 39 H 3.723705 1.961168 -3.228641 0
M  V30 40 H 3.514277 4.176633 -2.324949 0
M  V30 41 H 2.141942 5.761247 -0.393021 0
M  V30 42 H -1.036504 4.389272 2.525520 0
M  V30 43 H -3.130954 0.903742 3.652525 0
M  V30 44 H -3.390804 -1.090466 3.309640 0
M  V30 45 H -4.152248 -1.243331 0.857411 0
M  V30 46 H -3.172325 -2.746717 0.823373 0
M  V30 47 H -5.627962 -2.083622 2.292498 0
M  V30 48 H -5.160955 -4.143859 3.704528 0
M  V30 49 H -4.518348 -2.556112 4.170655 0
M  V30 50 H -3.056072 -4.672799 2.485569 0
M  V30 51 H -2.789069 -4.427512 4.217992 0
M  V30 52 H -0.424300 -2.351118 1.525300 0
M  V30 53 H -0.625366 -4.148237 1.848989 0
M  V30 54 H -0.258596 -1.853077 3.996672 0
M  V30 55 H -0.537571 -3.674926 4.303228 0
M  V30 56 H 0.696554 0.581685 -0.471064 0
M  V30 57 H 2.652035 -2.053989 -5.240314 0
M  V30 END ATOM
M  V30 BEGIN BOND
M  V30 1 1 1 2
M  V30 2 2 2 3
M  V30 3 1 2 4
M  V30 4 2 4 5
M  V30 5 1 5 6
M  V30 6 2 6 7
M  V30 7 1 7 8
M  V30 8 2 8 9
M  V30 9 1 9 10
M  V30 10 2 10 11
M  V30 11 1 11 12
M  V30 12 1 12 13
M  V30 13 2 13 14
M  V30 14 1 14 15
M  V30 15 2 15 16
M  V30 16 1 16 17
M  V30 17 2 17 18
M  V30 18 1 18 19
M  V30 19 1 19 20
M  V30 20 1 20 21
M  V30 21 1 21 22
M  V30 22 1 22 23
M  V30 23 1 23 24
M  V30 24 1 24 25
M  V30 25 1 25 26
M  V30 26 1 26 27
M  V30 27 1 27 28
M  V30 28 2 19 29
M  V30 29 1 14 30
M  V30 30 2 30 31
M  V30 31 1 7 32
M  V30 32 1 32 33
M  V30 33 2 32 34
M  V30 34 1 34 4
M  V30 35 1 31 8
M  V30 36 1 30 11
M  V30 37 1 29 15
M  V30 38 1 26 21
M  V30 39 1 28 26
M  V30 40 1 1 35
M  V30 41 1 1 36
M  V30 42 1 5 37
M  V30 43 1 6 38
M  V30 44 1 9 39
M  V30 45 1 10 40
M  V30 46 1 12 41
M  V30 47 1 16 42
M  V30 48 1 18 43
M  V30 49 1 21 44 CFG=1
M  V30 50 1 22 45
M  V30 51 1 22 46
M  V30 52 1 23 47
M  V30 53 1 24 48
M  V30 54 1 24 49
M  V30 55 1 25 50
M  V30 56 1 25 51
M  V30 57 1 27 52
M  V30 58 1 27 53
M  V30 59 1 28 54
M  V30 60 1 28 55
M  V30 61 1 31 56
M  V30 62 1 34 57
M  V30 END BOND
M  V30 END CTAB
M  END
>  <Dataset>  (582) 
ChEMBL_Kinases

>  <Ligand_Instance>  (582) 
nan

>  <PDB_ID>  (582) 
nan

>  <Standardized_SMILES>  (582) 
NC(=O)c1ccc(-c2ccc3[nH]nc(-c4cncc(O[C@H]5CNCCC56CC6)n4)c3c2)c(F)c1

>  <Name>  (582) 
nan

>  <Pocket>  (582) 
nan

>  <ATP_Site>  (582) 
nan

>  <Peripheral>  (582) 
nan

>  <Num_H_Atoms_ProtBoundConf>  (582) 
nan

>  <Num_Resolved_Atoms>  (582) 
nan

>  <Num_Not_Resolved_Atoms>  (582) 
nan

$$$$
CHEMBL3393719
     RDKit          3D

  0  0  0  0  0  0  0  0  0  0999 V3000
M  V30 BEGIN CTAB
M  V30 COUNTS 59 64 0 0 0
M  V30 BEGIN ATOM
M  V30 1 C 3.860405 -5.205838 1.337237 0
M  V30 2 S 4.928478 -4.075935 0.512545 0
M  V30 3 O 6.322092 -4.156257 1.063927 0
M  V30 4 O 4.987142 -4.443338 -0.944606 0
M  V30 5 C 4.306826 -2.440306 0.709265 0
M  V30 6 C 3.419983 -2.004132 -0.269549 0
M  V30 7 C 2.899594 -0.734579 -0.171053 0
M  V30 8 C 3.215783 0.133300 0.857251 0
M  V30 9 C 2.686305 1.484956 0.997164 0
M  V30 10 C 3.543603 2.536599 1.322927 0
M  V30 11 C 3.051715 3.821783 1.457927 0
M  V30 12 C 1.711875 4.123651 1.280420 0
M  V30 13 N 0.997234 5.265115 1.352837 0
M  V30 14 N -0.273199 4.977813 1.086749 0
M  V30 15 C -0.398563 3.661656 0.841013 0
M  V30 16 C -1.592476 2.890430 0.505503 0
M  V30 17 C -2.799113 3.576065 0.415726 0
M  V30 18 N -3.905137 2.868471 0.106065 0
M  V30 19 C -3.872015 1.541670 -0.114047 0
M  V30 20 C -2.699005 0.861201 -0.029128 0
M  V30 21 O -2.388344 -0.476098 -0.203516 0
M  V30 22 C -3.287132 -1.479025 -0.527940 0 CFG=1
M  V30 23 C -2.911407 -2.149371 -1.814938 0
M  V30 24 N -3.110529 -3.528858 -1.929374 0
M  V30 25 C -4.054706 -4.202998 -1.118966 0
M  V30 26 C -4.536802 -3.445240 0.080753 0
M  V30 27 C -3.393663 -2.564444 0.505884 0
M  V30 28 C -2.088711 -3.315329 0.749548 0
M  V30 29 C -2.827484 -2.528354 1.829880 0
M  V30 30 N -1.583380 1.546093 0.278297 0
M  V30 31 C 0.855843 3.086718 0.957392 0
M  V30 32 C 1.359092 1.821874 0.827790 0
M  V30 33 C 4.110706 -0.355655 1.812571 0
M  V30 34 F 4.493646 0.410970 2.868997 0
M  V30 35 C 4.651355 -1.616806 1.748639 0
M  V30 36 H 3.098051 -5.546591 0.613987 0
M  V30 37 H 4.393680 -6.099069 1.724930 0
M  V30 38 H 3.329808 -4.733120 2.200379 0
M  V30 39 H 3.133537 -2.635333 -1.098298 0
M  V30 40 H 2.204485 -0.343206 -0.905382 0
M  V30 41 H 4.594082 2.274779 1.457815 0
M  V30 42 H 3.778114 4.607221 1.715910 0
M  V30 43 H 1.473067 6.169002 1.588244 0
M  V30 44 H -2.843265 4.646363 0.590330 0
M  V30 45 H -4.713374 0.918959 -0.363923 0
M  V30 46 H -4.299602 -1.040781 -0.627983 0
M  V30 47 H -1.839589 -1.896264 -2.021660 0
M  V30 48 H -3.470191 -1.641841 -2.631575 0
M  V30 49 H -2.197510 -4.034456 -1.877815 0
M  V30 50 H -3.667904 -5.183081 -0.769644 0
M  V30 51 H -4.939731 -4.459661 -1.744192 0
M  V30 52 H -5.383339 -2.777073 -0.202247 0
M  V30 53 H -4.795054 -4.142384 0.877011 0
M  V30 54 H -1.141591 -2.817559 0.440575 0
M  V30 55 H -2.116034 -4.420013 0.778745 0
M  V30 56 H -3.283325 -3.161258 2.602861 0
M  V30 57 H -2.383514 -1.587024 2.209313 0
M  V30 58 H 0.712316 0.993314 0.576021 0
M  V30 59 H 5.345745 -1.991661 2.492954 0
M  V30 END ATOM
M  V30 BEGIN BOND
M  V30 1 1 1 2
M  V30 2 2 2 3
M  V30 3 2 2 4
M  V30 4 1 2 5
M  V30 5 2 5 6
M  V30 6 1 6 7
M  V30 7 2 7 8
M  V30 8 1 8 9
M  V30 9 2 9 10
M  V30 10 1 10 11
M  V30 11 2 11 12
M  V30 12 1 12 13
M  V30 13 1 13 14
M  V30 14 2 14 15
M  V30 15 1 15 16
M  V30 16 2 16 17
M  V30 17 1 17 18
M  V30 18 2 18 19
M  V30 19 1 19 20
M  V30 20 1 20 21
M  V30 21 1 21 22
M  V30 22 1 22 23
M  V30 23 1 23 24
M  V30 24 1 24 25
M  V30 25 1 25 26
M  V30 26 1 26 27
M  V30 27 1 27 28
M  V30 28 1 28 29
M  V30 29 2 20 30
M  V30 30 1 15 31
M  V30 31 2 31 32
M  V30 32 1 8 33
M  V30 33 1 33 34
M  V30 34 2 33 35
M  V30 35 1 35 5
M  V30 36 1 32 9
M  V30 37 1 31 12
M  V30 38 1 30 16
M  V30 39 1 27 22
M  V30 40 1 29 27
M  V30 41 1 1 36
M  V30 42 1 1 37
M  V30 43 1 1 38
M  V30 44 1 6 39
M  V30 45 1 7 40
M  V30 46 1 10 41
M  V30 47 1 11 42
M  V30 48 1 13 43
M  V30 49 1 17 44
M  V30 50 1 19 45
M  V30 51 1 22 46 CFG=3
M  V30 52 1 23 47
M  V30 53 1 23 48
M  V30 54 1 24 49
M  V30 55 1 25 50
M  V30 56 1 25 51
M  V30 57 1 26 52
M  V30 58 1 26 53
M  V30 59 1 28 54
M  V30 60 1 28 55
M  V30 61 1 29 56
M  V30 62 1 29 57
M  V30 63 1 32 58
M  V30 64 1 35 59
M  V30 END BOND
M  V30 END CTAB
M  END
>  <Dataset>  (583) 
ChEMBL_Kinases

>  <Ligand_Instance>  (583) 
nan

>  <PDB_ID>  (583) 
nan

>  <Standardized_SMILES>  (583) 
CS(=O)(=O)c1ccc(-c2ccc3[nH]nc(-c4cncc(O[C@H]5CNCCC56CC6)n4)c3c2)c(F)c1

>  <Name>  (583) 
nan

>  <Pocket>  (583) 
nan

>  <ATP_Site>  (583) 
nan

>  <Peripheral>  (583) 
nan

>  <Num_H_Atoms_ProtBoundConf>  (583) 
nan

>  <Num_Resolved_Atoms>  (583) 
nan

>  <Num_Not_Resolved_Atoms>  (583) 
nan

$$$$
CHEMBL3670452
     RDKit          3D

  0  0  0  0  0  0  0  0  0  0999 V3000
M  V30 BEGIN CTAB
M  V30 COUNTS 52 55 0 0 0
M  V30 BEGIN ATOM
M  V30 1 N 6.002821 -5.275198 -0.097288 0
M  V30 2 C 5.125461 -4.255508 -0.558811 0
M  V30 3 O 4.479869 -4.694013 -1.552835 0
M  V30 4 C 5.067562 -2.948060 0.093406 0
M  V30 5 C 5.889416 -2.719515 1.177195 0
M  V30 6 C 5.801702 -1.462970 1.766655 0
M  V30 7 C 4.935260 -0.522826 1.274231 0
M  V30 8 C 4.116285 -0.740742 0.199639 0
M  V30 9 C 3.268412 0.254597 -0.240713 0
M  V30 10 N 3.170319 1.538658 0.348009 0
M  V30 11 C 2.292556 2.580915 -0.099166 0
M  V30 12 C 0.864685 2.283013 -0.049222 0
M  V30 13 C 0.198853 2.532245 1.159592 0
M  V30 14 C -1.141646 2.329115 1.410612 0
M  V30 15 C -1.899520 1.832602 0.370733 0
M  V30 16 N -3.293443 1.580128 0.504549 0
M  V30 17 C -3.502695 0.246314 0.953168 0
M  V30 18 O -2.408318 -0.391713 1.124633 0
M  V30 19 C -4.829644 -0.335933 1.193622 0
M  V30 20 C -6.023867 0.335375 1.014528 0
M  V30 21 C -7.218160 -0.321830 1.275060 0
M  V30 22 C -7.214317 -1.646020 1.713117 0
M  V30 23 C -6.015207 -2.330069 1.896252 0
M  V30 24 C -5.979610 -3.754377 2.366300 0
M  V30 25 F -6.998416 -4.062897 3.212323 0
M  V30 26 F -5.963527 -4.551213 1.238638 0
M  V30 27 F -4.742946 -3.953621 2.989322 0
M  V30 28 C -4.848755 -1.625663 1.621102 0
M  V30 29 C -1.309984 1.564371 -0.847391 0
M  V30 30 C 0.037339 1.789197 -1.036267 0
M  V30 31 N 2.542828 -0.136427 -1.301673 0
M  V30 32 C 2.615165 -1.344492 -1.882360 0
M  V30 33 N 3.452440 -2.294414 -1.429369 0
M  V30 34 C 4.212084 -1.990180 -0.376485 0
M  V30 35 H 5.708532 -5.527031 0.884675 0
M  V30 36 H 6.780762 -5.663523 -0.675422 0
M  V30 37 H 6.566057 -3.472661 1.551316 0
M  V30 38 H 6.465007 -1.304464 2.627079 0
M  V30 39 H 4.965016 0.390205 1.811589 0
M  V30 40 H 3.767803 1.769413 1.167234 0
M  V30 41 H 2.461235 3.484982 0.513529 0
M  V30 42 H 2.562847 2.767799 -1.173725 0
M  V30 43 H 0.772849 2.929208 2.011956 0
M  V30 44 H -1.569884 2.543984 2.357069 0
M  V30 45 H -4.121763 2.185982 0.334113 0
M  V30 46 H -5.973804 1.345969 0.678304 0
M  V30 47 H -8.151597 0.174239 1.144550 0
M  V30 48 H -8.134758 -2.176232 1.921755 0
M  V30 49 H -3.945635 -2.198710 1.778175 0
M  V30 50 H -1.902142 1.172941 -1.670710 0
M  V30 51 H 0.505483 1.591277 -1.981613 0
M  V30 52 H 1.925329 -1.418767 -2.727296 0
M  V30 END ATOM
M  V30 BEGIN BOND
M  V30 1 1 1 2
M  V30 2 2 2 3
M  V30 3 1 2 4
M  V30 4 2 4 5
M  V30 5 1 5 6
M  V30 6 2 6 7
M  V30 7 1 7 8
M  V30 8 2 8 9
M  V30 9 1 9 10
M  V30 10 1 10 11
M  V30 11 1 11 12
M  V30 12 2 12 13
M  V30 13 1 13 14
M  V30 14 2 14 15
M  V30 15 1 15 16
M  V30 16 1 16 17
M  V30 17 2 17 18
M  V30 18 1 17 19
M  V30 19 2 19 20
M  V30 20 1 20 21
M  V30 21 2 21 22
M  V30 22 1 22 23
M  V30 23 1 23 24
M  V30 24 1 24 25
M  V30 25 1 24 26
M  V30 26 1 24 27
M  V30 27 2 23 28
M  V30 28 1 15 29
M  V30 29 2 29 30
M  V30 30 1 9 31
M  V30 31 2 31 32
M  V30 32 1 32 33
M  V30 33 2 33 34
M  V30 34 1 34 4
M  V30 35 1 34 8
M  V30 36 1 30 12
M  V30 37 1 28 19
M  V30 38 1 1 35
M  V30 39 1 1 36
M  V30 40 1 5 37
M  V30 41 1 6 38
M  V30 42 1 7 39
M  V30 43 1 10 40
M  V30 44 1 11 41
M  V30 45 1 11 42
M  V30 46 1 13 43
M  V30 47 1 14 44
M  V30 48 1 16 45
M  V30 49 1 20 46
M  V30 50 1 21 47
M  V30 51 1 22 48
M  V30 52 1 28 49
M  V30 53 1 29 50
M  V30 54 1 30 51
M  V30 55 1 32 52
M  V30 END BOND
M  V30 END CTAB
M  END
>  <Dataset>  (584) 
ChEMBL_Kinases

>  <Ligand_Instance>  (584) 
nan

>  <PDB_ID>  (584) 
nan

>  <Standardized_SMILES>  (584) 
NC(=O)c1cccc2c(NCc3ccc(NC(=O)c4cccc(C(F)(F)F)c4)cc3)ncnc12

>  <Name>  (584) 
nan

>  <Pocket>  (584) 
nan

>  <ATP_Site>  (584) 
nan

>  <Peripheral>  (584) 
nan

>  <Num_H_Atoms_ProtBoundConf>  (584) 
nan

>  <Num_Resolved_Atoms>  (584) 
nan

>  <Num_Not_Resolved_Atoms>  (584) 
nan

$$$$
CHEMBL3393720
     RDKit          3D

  0  0  0  0  0  0  0  0  0  0999 V3000
M  V30 BEGIN CTAB
M  V30 COUNTS 61 66 0 0 0
M  V30 BEGIN ATOM
M  V30 1 C 5.743721 -1.275912 4.539814 0
M  V30 2 S 5.384732 -2.191430 3.058786 0
M  V30 3 O 6.484303 -3.153710 2.703773 0
M  V30 4 O 4.118710 -2.983405 3.298454 0
M  V30 5 N 5.100583 -1.147616 1.711429 0
M  V30 6 C 4.056017 -0.211981 1.660092 0
M  V30 7 C 3.663794 0.662378 2.651471 0
M  V30 8 C 2.616255 1.548536 2.499313 0
M  V30 9 C 1.904188 1.591641 1.315362 0
M  V30 10 C 0.807081 2.548882 1.211389 0
M  V30 11 C 0.898952 3.855804 1.625151 0
M  V30 12 C -0.208066 4.664457 1.474174 0
M  V30 13 C -1.370898 4.169201 0.922932 0
M  V30 14 N -2.542619 4.774110 0.689819 0
M  V30 15 N -3.365402 3.890289 0.143956 0
M  V30 16 C -2.776295 2.710436 0.005409 0
M  V30 17 C -3.272466 1.451110 -0.536036 0
M  V30 18 C -4.575047 1.463856 -0.989326 0
M  V30 19 N -5.057250 0.317093 -1.493888 0
M  V30 20 C -4.333482 -0.812667 -1.570376 0
M  V30 21 C -3.029852 -0.843482 -1.121979 0
M  V30 22 O -2.064912 -1.810861 -1.066498 0
M  V30 23 C -2.293187 -3.098856 -1.525628 0 CFG=1
M  V30 24 C -1.296999 -3.475911 -2.634244 0
M  V30 25 N -1.882814 -4.606393 -3.317022 0
M  V30 26 C -1.917506 -5.739249 -2.412743 0
M  V30 27 C -1.534410 -5.398030 -1.018705 0
M  V30 28 C -2.125523 -4.155606 -0.457500 0
M  V30 29 C -2.922952 -4.136667 0.780241 0
M  V30 30 C -1.477167 -3.683846 0.848949 0
M  V30 31 N -2.517630 0.314157 -0.603637 0
M  V30 32 C -1.479107 2.845626 0.498551 0
M  V30 33 C -0.365018 2.047226 0.655018 0
M  V30 34 C 2.270032 0.731894 0.305379 0
M  V30 35 F 1.563625 0.775884 -0.866333 0
M  V30 36 C 3.317221 -0.145041 0.474694 0
M  V30 37 H 6.470234 -1.897252 5.133301 0
M  V30 38 H 4.853430 -1.077563 5.148527 0
M  V30 39 H 6.313826 -0.357125 4.261347 0
M  V30 40 H 5.722187 -1.185382 0.865186 0
M  V30 41 H 4.226955 0.617774 3.567702 0
M  V30 42 H 2.397346 2.193757 3.356294 0
M  V30 43 H 1.837930 4.203398 2.055094 0
M  V30 44 H -0.100494 5.686428 1.810010 0
M  V30 45 H -2.764591 5.765546 0.901596 0
M  V30 46 H -5.186212 2.354463 -0.943295 0
M  V30 47 H -4.643813 -1.751767 -1.953790 0
M  V30 48 H -3.309724 -3.251240 -1.936804 0
M  V30 49 H -1.129864 -2.641716 -3.338945 0
M  V30 50 H -0.349642 -3.817805 -2.170442 0
M  V30 51 H -2.875177 -4.356509 -3.607419 0
M  V30 52 H -2.863463 -6.291847 -2.477024 0
M  V30 53 H -1.117032 -6.432944 -2.806142 0
M  V30 54 H -1.905741 -6.244608 -0.370725 0
M  V30 55 H -0.415419 -5.415611 -0.906502 0
M  V30 56 H -3.696832 -3.384655 0.933702 0
M  V30 57 H -3.135527 -5.143528 1.219468 0
M  V30 58 H -0.724527 -4.342877 1.318329 0
M  V30 59 H -1.284396 -2.588005 0.945282 0
M  V30 60 H -0.443190 1.019855 0.327686 0
M  V30 61 H 3.575307 -0.813320 -0.357247 0
M  V30 END ATOM
M  V30 BEGIN BOND
M  V30 1 1 1 2
M  V30 2 2 2 3
M  V30 3 2 2 4
M  V30 4 1 2 5
M  V30 5 1 5 6
M  V30 6 2 6 7
M  V30 7 1 7 8
M  V30 8 2 8 9
M  V30 9 1 9 10
M  V30 10 2 10 11
M  V30 11 1 11 12
M  V30 12 2 12 13
M  V30 13 1 13 14
M  V30 14 1 14 15
M  V30 15 2 15 16
M  V30 16 1 16 17
M  V30 17 2 17 18
M  V30 18 1 18 19
M  V30 19 2 19 20
M  V30 20 1 20 21
M  V30 21 1 21 22
M  V30 22 1 22 23
M  V30 23 1 23 24
M  V30 24 1 24 25
M  V30 25 1 25 26
M  V30 26 1 26 27
M  V30 27 1 27 28
M  V30 28 1 28 29
M  V30 29 1 29 30
M  V30 30 2 21 31
M  V30 31 1 16 32
M  V30 32 2 32 33
M  V30 33 1 9 34
M  V30 34 1 34 35
M  V30 35 2 34 36
M  V30 36 1 36 6
M  V30 37 1 33 10
M  V30 38 1 32 13
M  V30 39 1 31 17
M  V30 40 1 28 23
M  V30 41 1 30 28
M  V30 42 1 1 37
M  V30 43 1 1 38
M  V30 44 1 1 39
M  V30 45 1 5 40
M  V30 46 1 7 41
M  V30 47 1 8 42
M  V30 48 1 11 43
M  V30 49 1 12 44
M  V30 50 1 14 45
M  V30 51 1 18 46
M  V30 52 1 20 47
M  V30 53 1 23 48 CFG=3
M  V30 54 1 24 49
M  V30 55 1 24 50
M  V30 56 1 25 51
M  V30 57 1 26 52
M  V30 58 1 26 53
M  V30 59 1 27 54
M  V30 60 1 27 55
M  V30 61 1 29 56
M  V30 62 1 29 57
M  V30 63 1 30 58
M  V30 64 1 30 59
M  V30 65 1 33 60
M  V30 66 1 36 61
M  V30 END BOND
M  V30 END CTAB
M  END
>  <Dataset>  (585) 
ChEMBL_Kinases

>  <Ligand_Instance>  (585) 
nan

>  <PDB_ID>  (585) 
nan

>  <Standardized_SMILES>  (585) 
CS(=O)(=O)Nc1ccc(-c2ccc3[nH]nc(-c4cncc(O[C@H]5CNCCC56CC6)n4)c3c2)c(F)c1

>  <Name>  (585) 
nan

>  <Pocket>  (585) 
nan

>  <ATP_Site>  (585) 
nan

>  <Peripheral>  (585) 
nan

>  <Num_H_Atoms_ProtBoundConf>  (585) 
nan

>  <Num_Resolved_Atoms>  (585) 
nan

>  <Num_Not_Resolved_Atoms>  (585) 
nan

$$$$
CHEMBL3670451
     RDKit          3D

  0  0  0  0  0  0  0  0  0  0999 V3000
M  V30 BEGIN CTAB
M  V30 COUNTS 52 55 0 0 0
M  V30 BEGIN ATOM
M  V30 1 N 5.998716 -2.249415 -2.647022 0
M  V30 2 C 6.104590 -2.724135 -1.314998 0
M  V30 3 O 6.841954 -3.727282 -1.160289 0
M  V30 4 C 5.415956 -2.107871 -0.191005 0
M  V30 5 C 5.608565 -2.674152 1.052746 0
M  V30 6 C 4.986058 -2.143585 2.165656 0
M  V30 7 C 4.179047 -1.041127 1.970705 0
M  V30 8 C 3.954785 -0.440010 0.751916 0
M  V30 9 C 3.136498 0.660358 0.621160 0
M  V30 10 N 2.479347 1.242629 1.710868 0
M  V30 11 C 1.600832 2.394209 1.677155 0
M  V30 12 C 0.422257 2.187438 0.802867 0
M  V30 13 C 0.307508 2.547242 -0.503659 0
M  V30 14 C -0.772934 2.348515 -1.312040 0
M  V30 15 C -1.878308 1.710535 -0.744787 0
M  V30 16 C -1.817195 1.318587 0.594410 0
M  V30 17 N -3.024614 0.690589 0.999312 0
M  V30 18 C -3.289466 -0.707948 0.901895 0
M  V30 19 O -2.350727 -1.418869 0.410572 0
M  V30 20 C -4.576779 -1.255145 1.350822 0
M  V30 21 C -5.633196 -0.534998 1.890689 0
M  V30 22 C -6.784822 -1.193753 2.266610 0
M  V30 23 C -6.902865 -2.546711 2.115713 0
M  V30 24 C -5.877234 -3.304368 1.583029 0
M  V30 25 C -6.006713 -4.783814 1.417384 0
M  V30 26 F -7.238545 -5.092142 0.886685 0
M  V30 27 F -5.036392 -5.155777 0.484915 0
M  V30 28 F -5.822020 -5.465410 2.593698 0
M  V30 29 C -4.738344 -2.623997 1.215585 0
M  V30 30 C -0.684861 1.557597 1.342284 0
M  V30 31 N 3.045591 1.094415 -0.626366 0
M  V30 32 C 3.656147 0.569781 -1.700328 0
M  V30 33 N 4.460813 -0.513613 -1.565732 0
M  V30 34 C 4.600445 -1.010323 -0.322991 0
M  V30 35 H 6.631333 -2.526797 -3.420787 0
M  V30 36 H 5.521712 -1.662996 -3.349165 0
M  V30 37 H 6.242379 -3.526291 1.152168 0
M  V30 38 H 5.150154 -2.601531 3.129053 0
M  V30 39 H 3.720841 -0.671683 2.874877 0
M  V30 40 H 2.561191 0.891203 2.687593 0
M  V30 41 H 1.219697 2.720403 2.641421 0
M  V30 42 H 2.184557 3.286556 1.287899 0
M  V30 43 H 1.137329 3.049923 -0.973154 0
M  V30 44 H -0.797960 2.662621 -2.353496 0
M  V30 45 H -2.738943 1.560186 -1.412959 0
M  V30 46 H -3.710836 1.354310 1.381010 0
M  V30 47 H -5.469054 0.521075 1.978989 0
M  V30 48 H -7.583009 -0.577549 2.685380 0
M  V30 49 H -7.810590 -3.052149 2.413738 0
M  V30 50 H -3.945504 -3.231858 0.800479 0
M  V30 51 H -0.749599 1.207824 2.379088 0
M  V30 52 H 3.436547 1.092761 -2.635901 0
M  V30 END ATOM
M  V30 BEGIN BOND
M  V30 1 1 1 2
M  V30 2 2 2 3
M  V30 3 1 2 4
M  V30 4 2 4 5
M  V30 5 1 5 6
M  V30 6 2 6 7
M  V30 7 1 7 8
M  V30 8 2 8 9
M  V30 9 1 9 10
M  V30 10 1 10 11
M  V30 11 1 11 12
M  V30 12 2 12 13
M  V30 13 1 13 14
M  V30 14 2 14 15
M  V30 15 1 15 16
M  V30 16 1 16 17
M  V30 17 1 17 18
M  V30 18 2 18 19
M  V30 19 1 18 20
M  V30 20 2 20 21
M  V30 21 1 21 22
M  V30 22 2 22 23
M  V30 23 1 23 24
M  V30 24 1 24 25
M  V30 25 1 25 26
M  V30 26 1 25 27
M  V30 27 1 25 28
M  V30 28 2 24 29
M  V30 29 2 16 30
M  V30 30 1 9 31
M  V30 31 2 31 32
M  V30 32 1 32 33
M  V30 33 2 33 34
M  V30 34 1 34 4
M  V30 35 1 34 8
M  V30 36 1 30 12
M  V30 37 1 29 20
M  V30 38 1 1 35
M  V30 39 1 1 36
M  V30 40 1 5 37
M  V30 41 1 6 38
M  V30 42 1 7 39
M  V30 43 1 10 40
M  V30 44 1 11 41
M  V30 45 1 11 42
M  V30 46 1 13 43
M  V30 47 1 14 44
M  V30 48 1 15 45
M  V30 49 1 17 46
M  V30 50 1 21 47
M  V30 51 1 22 48
M  V30 52 1 23 49
M  V30 53 1 29 50
M  V30 54 1 30 51
M  V30 55 1 32 52
M  V30 END BOND
M  V30 END CTAB
M  END
>  <Dataset>  (586) 
ChEMBL_Kinases

>  <Ligand_Instance>  (586) 
nan

>  <PDB_ID>  (586) 
nan

>  <Standardized_SMILES>  (586) 
NC(=O)c1cccc2c(NCc3cccc(NC(=O)c4cccc(C(F)(F)F)c4)c3)ncnc12

>  <Name>  (586) 
nan

>  <Pocket>  (586) 
nan

>  <ATP_Site>  (586) 
nan

>  <Peripheral>  (586) 
nan

>  <Num_H_Atoms_ProtBoundConf>  (586) 
nan

>  <Num_Resolved_Atoms>  (586) 
nan

>  <Num_Not_Resolved_Atoms>  (586) 
nan

$$$$
CHEMBL3670448
     RDKit          3D

  0  0  0  0  0  0  0  0  0  0999 V3000
M  V30 BEGIN CTAB
M  V30 COUNTS 39 41 0 0 0
M  V30 BEGIN ATOM
M  V30 1 N -0.815849 -4.965539 2.853917 0
M  V30 2 C -0.061114 -5.330799 1.714611 0
M  V30 3 O 0.270351 -6.527272 1.561527 0
M  V30 4 C 0.299748 -4.292690 0.763255 0
M  V30 5 C 1.029517 -4.639941 -0.344914 0
M  V30 6 C 1.407652 -3.697754 -1.292686 0
M  V30 7 C 1.017037 -2.396133 -1.071017 0
M  V30 8 C 0.284195 -2.014388 0.030794 0
M  V30 9 C -0.062275 -0.689207 0.170706 0
M  V30 10 N 0.278874 0.342545 -0.744906 0
M  V30 11 C -0.159473 1.694642 -0.459759 0 CFG=2
M  V30 12 C 0.263804 2.682830 -1.499976 0
M  V30 13 O -0.299579 2.274032 -2.724779 0
M  V30 14 C 0.171350 2.122309 0.917595 0
M  V30 15 C 1.472003 1.797577 1.306121 0
M  V30 16 C 1.906697 2.146710 2.582516 0
M  V30 17 C 1.029225 2.801779 3.412690 0
M  V30 18 C -0.252021 3.133262 3.059023 0
M  V30 19 C -0.678404 2.784325 1.790774 0
M  V30 20 N -0.773598 -0.419064 1.273684 0
M  V30 21 C -1.127212 -1.347371 2.175744 0
M  V30 22 N -0.778465 -2.637512 2.020375 0
M  V30 23 C -0.062779 -2.991418 0.937930 0
M  V30 24 H -1.414567 -4.650402 3.626394 0
M  V30 25 H -0.488920 -5.392350 3.749081 0
M  V30 26 H 1.283859 -5.680839 -0.425185 0
M  V30 27 H 1.983468 -4.013084 -2.153248 0
M  V30 28 H 1.322206 -1.691384 -1.817397 0
M  V30 29 H 0.822967 0.238976 -1.623014 0
M  V30 30 H -1.285920 1.681985 -0.489379 0
M  V30 31 H -0.198724 3.668694 -1.294646 0
M  V30 32 H 1.337794 2.825339 -1.604342 0
M  V30 33 H -1.245413 2.597330 -2.790818 0
M  V30 34 H 2.173452 1.286816 0.674879 0
M  V30 35 H 2.912911 1.893128 2.877175 0
M  V30 36 H 1.354252 3.081081 4.412802 0
M  V30 37 H -0.941989 3.654470 3.727162 0
M  V30 38 H -1.679108 3.003880 1.415828 0
M  V30 39 H -1.708987 -0.975368 3.027597 0
M  V30 END ATOM
M  V30 BEGIN BOND
M  V30 1 1 1 2
M  V30 2 2 2 3
M  V30 3 1 2 4
M  V30 4 2 4 5
M  V30 5 1 5 6
M  V30 6 2 6 7
M  V30 7 1 7 8
M  V30 8 2 8 9
M  V30 9 1 9 10
M  V30 10 1 10 11
M  V30 11 1 11 12
M  V30 12 1 12 13
M  V30 13 1 11 14
M  V30 14 2 14 15
M  V30 15 1 15 16
M  V30 16 2 16 17
M  V30 17 1 17 18
M  V30 18 2 18 19
M  V30 19 1 9 20
M  V30 20 2 20 21
M  V30 21 1 21 22
M  V30 22 2 22 23
M  V30 23 1 23 4
M  V30 24 1 23 8
M  V30 25 1 19 14
M  V30 26 1 1 24
M  V30 27 1 1 25
M  V30 28 1 5 26
M  V30 29 1 6 27
M  V30 30 1 7 28
M  V30 31 1 10 29
M  V30 32 1 11 30 CFG=1
M  V30 33 1 12 31
M  V30 34 1 12 32
M  V30 35 1 13 33
M  V30 36 1 15 34
M  V30 37 1 16 35
M  V30 38 1 17 36
M  V30 39 1 18 37
M  V30 40 1 19 38
M  V30 41 1 21 39
M  V30 END BOND
M  V30 END CTAB
M  END
>  <Dataset>  (587) 
ChEMBL_Kinases

>  <Ligand_Instance>  (587) 
nan

>  <PDB_ID>  (587) 
nan

>  <Standardized_SMILES>  (587) 
NC(=O)c1cccc2c(N[C@H](CO)c3ccccc3)ncnc12

>  <Name>  (587) 
nan

>  <Pocket>  (587) 
nan

>  <ATP_Site>  (587) 
nan

>  <Peripheral>  (587) 
nan

>  <Num_H_Atoms_ProtBoundConf>  (587) 
nan

>  <Num_Resolved_Atoms>  (587) 
nan

>  <Num_Not_Resolved_Atoms>  (587) 
nan

$$$$
CHEMBL3393741
     RDKit          3D

  0  0  0  0  0  0  0  0  0  0999 V3000
M  V30 BEGIN CTAB
M  V30 COUNTS 82 82 0 0 0
M  V30 BEGIN ATOM
M  V30 1 C 5.064486 1.846205 8.130864 0
M  V30 2 C 4.331610 1.478065 6.848390 0
M  V30 3 C 5.126414 0.396919 6.191467 0
M  V30 4 C 4.547140 -0.104782 4.893444 0
M  V30 5 C 3.174045 -0.674893 5.066071 0
M  V30 6 C 2.629267 -1.167668 3.783259 0
M  V30 7 C 1.557927 -0.851083 3.077152 0
M  V30 8 C 1.314088 -1.572548 1.796697 0
M  V30 9 C 1.269656 -0.689109 0.611176 0
M  V30 10 C 0.235669 -0.523814 -0.240948 0
M  V30 11 C 0.359442 0.401194 -1.378106 0
M  V30 12 C -0.673530 1.515067 -1.343314 0
M  V30 13 C -0.577862 2.327961 -0.091472 0
M  V30 14 C -1.526612 3.451639 0.038477 0
M  V30 15 C -2.977157 3.211080 0.019464 0
M  V30 16 C -3.626850 2.365824 1.018617 0
M  V30 17 C -3.412987 0.915349 1.111401 0
M  V30 18 C -3.900518 0.172901 -0.108823 0
M  V30 19 O -4.318585 0.779304 -1.125470 0
M  V30 20 O -3.936345 -1.184230 -0.206699 0
M  V30 21 C -4.359342 -2.006567 -1.224619 0
M  V30 22 C -3.631688 -1.995149 -2.516068 0
M  V30 23 C -4.443685 -2.935461 -3.445259 0
M  V30 24 O -5.712985 -2.408469 -3.594072 0
M  V30 25 C -2.239805 -2.535427 -2.498359 0
M  V30 26 C -1.625822 -1.896695 -3.724429 0
M  V30 27 C -0.717587 -2.445107 -4.494460 0
M  V30 28 C -0.116288 -3.772288 -4.332872 0
M  V30 29 C 1.385527 -3.748818 -4.155269 0
M  V30 30 C 2.080263 -3.118309 -5.333322 0
M  V30 31 C 1.820794 -3.028670 -2.903183 0
M  V30 32 C -2.325939 -0.596831 -3.775009 0
M  V30 33 O -1.802839 0.398155 -4.363911 0
M  V30 34 O -3.560152 -0.721758 -3.095111 0
M  V30 35 H 4.696740 2.839299 8.468364 0
M  V30 36 H 6.147733 1.880427 7.886734 0
M  V30 37 H 4.906825 1.074647 8.933196 0
M  V30 38 H 3.270228 1.234424 7.015825 0
M  V30 39 H 4.380308 2.396544 6.209844 0
M  V30 40 H 6.123376 0.817472 5.939299 0
M  V30 41 H 5.232555 -0.463625 6.894280 0
M  V30 42 H 4.501316 0.696582 4.139992 0
M  V30 43 H 5.212272 -0.897327 4.524547 0
M  V30 44 H 3.231630 -1.539891 5.789078 0
M  V30 45 H 2.463543 0.056654 5.532392 0
M  V30 46 H 3.321992 -1.950053 3.424550 0
M  V30 47 H 0.992881 -0.072126 3.567322 0
M  V30 48 H 2.001868 -2.418052 1.682595 0
M  V30 49 H 0.283618 -2.010053 1.906691 0
M  V30 50 H 2.222260 -0.155549 0.499053 0
M  V30 51 H -0.567675 -1.158380 0.105219 0
M  V30 52 H 1.384235 0.788340 -1.421718 0
M  V30 53 H 0.190426 -0.111438 -2.352702 0
M  V30 54 H -0.357868 2.206595 -2.182359 0
M  V30 55 H -1.685432 1.198684 -1.611849 0
M  V30 56 H -0.610929 1.677952 0.781070 0
M  V30 57 H 0.488396 2.766328 -0.038802 0
M  V30 58 H -1.240415 4.309380 -0.663677 0
M  V30 59 H -1.291758 3.930798 1.057893 0
M  V30 60 H -3.461035 4.251335 0.120046 0
M  V30 61 H -3.331386 2.863877 -1.000940 0
M  V30 62 H -3.298474 2.779226 2.042386 0
M  V30 63 H -4.748860 2.546947 1.071370 0
M  V30 64 H -2.458597 0.556722 1.485112 0
M  V30 65 H -4.155797 0.551000 1.910944 0
M  V30 66 H -4.243744 -3.073029 -0.826403 0
M  V30 67 H -5.483377 -1.956186 -1.381889 0
M  V30 68 H -3.933076 -3.001290 -4.408499 0
M  V30 69 H -4.491311 -3.917821 -2.949454 0
M  V30 70 H -5.614673 -1.419486 -3.699802 0
M  V30 71 H -2.249917 -3.640223 -2.728327 0
M  V30 72 H -1.660708 -2.370534 -1.598753 0
M  V30 73 H -0.390032 -1.849970 -5.325056 0
M  V30 74 H -0.532076 -4.374621 -3.506940 0
M  V30 75 H -0.302723 -4.400901 -5.253665 0
M  V30 76 H 1.784575 -4.800618 -4.066874 0
M  V30 77 H 3.138833 -2.942602 -5.074990 0
M  V30 78 H 1.635054 -2.120621 -5.516034 0
M  V30 79 H 1.986625 -3.795882 -6.211219 0
M  V30 80 H 2.766825 -2.446894 -3.102702 0
M  V30 81 H 2.005784 -3.767665 -2.093302 0
M  V30 82 H 1.023834 -2.309549 -2.633830 0
M  V30 END ATOM
M  V30 BEGIN BOND
M  V30 1 1 1 2
M  V30 2 1 2 3
M  V30 3 1 3 4
M  V30 4 1 4 5
M  V30 5 1 5 6
M  V30 6 2 6 7
M  V30 7 1 7 8
M  V30 8 1 8 9
M  V30 9 2 9 10
M  V30 10 1 10 11
M  V30 11 1 11 12
M  V30 12 1 12 13
M  V30 13 1 13 14
M  V30 14 1 14 15
M  V30 15 1 15 16
M  V30 16 1 16 17
M  V30 17 1 17 18
M  V30 18 2 18 19
M  V30 19 1 18 20
M  V30 20 1 20 21
M  V30 21 1 21 22
M  V30 22 1 22 23
M  V30 23 1 23 24
M  V30 24 1 22 25
M  V30 25 1 25 26
M  V30 26 2 26 27
M  V30 27 1 27 28
M  V30 28 1 28 29
M  V30 29 1 29 30
M  V30 30 1 29 31
M  V30 31 1 26 32
M  V30 32 2 32 33
M  V30 33 1 32 34
M  V30 34 1 34 22
M  V30 35 1 1 35
M  V30 36 1 1 36
M  V30 37 1 1 37
M  V30 38 1 2 38
M  V30 39 1 2 39
M  V30 40 1 3 40
M  V30 41 1 3 41
M  V30 42 1 4 42
M  V30 43 1 4 43
M  V30 44 1 5 44
M  V30 45 1 5 45
M  V30 46 1 6 46
M  V30 47 1 7 47
M  V30 48 1 8 48
M  V30 49 1 8 49
M  V30 50 1 9 50
M  V30 51 1 10 51
M  V30 52 1 11 52
M  V30 53 1 11 53
M  V30 54 1 12 54
M  V30 55 1 12 55
M  V30 56 1 13 56
M  V30 57 1 13 57
M  V30 58 1 14 58
M  V30 59 1 14 59
M  V30 60 1 15 60
M  V30 61 1 15 61
M  V30 62 1 16 62
M  V30 63 1 16 63
M  V30 64 1 17 64
M  V30 65 1 17 65
M  V30 66 1 21 66
M  V30 67 1 21 67
M  V30 68 1 23 68
M  V30 69 1 23 69
M  V30 70 1 24 70
M  V30 71 1 25 71
M  V30 72 1 25 72
M  V30 73 1 27 73
M  V30 74 1 28 74
M  V30 75 1 28 75
M  V30 76 1 29 76
M  V30 77 1 30 77
M  V30 78 1 30 78
M  V30 79 1 30 79
M  V30 80 1 31 80
M  V30 81 1 31 81
M  V30 82 1 31 82
M  V30 END BOND
M  V30 END CTAB
M  END
>  <Dataset>  (588) 
ChEMBL_Kinases

>  <Ligand_Instance>  (588) 
nan

>  <PDB_ID>  (588) 
nan

>  <Standardized_SMILES>  (588) 
CCCCC/C=C/C/C=C/CCCCCCCC(=O)OCC1(CO)C/C(=C\CC(C)C)C(=O)O1

>  <Name>  (588) 
nan

>  <Pocket>  (588) 
nan

>  <ATP_Site>  (588) 
nan

>  <Peripheral>  (588) 
nan

>  <Num_H_Atoms_ProtBoundConf>  (588) 
nan

>  <Num_Resolved_Atoms>  (588) 
nan

>  <Num_Not_Resolved_Atoms>  (588) 
nan

$$$$
CHEMBL3393742
     RDKit          3D

  0  0  0  0  0  0  0  0  0  0999 V3000
M  V30 BEGIN CTAB
M  V30 COUNTS 88 90 0 0 0
M  V30 BEGIN ATOM
M  V30 1 C -0.186416 -4.198159 6.873492 0
M  V30 2 C 0.793291 -3.045867 6.725821 0
M  V30 3 C 1.558079 -3.134228 5.429219 0
M  V30 4 C 0.735293 -3.086023 4.207031 0
M  V30 5 C -0.086539 -1.889727 3.927542 0
M  V30 6 C 0.623889 -0.590775 3.715699 0
M  V30 7 C 1.434771 -0.040368 4.836028 0
M  V30 8 C 0.121714 0.647276 4.311262 0
M  V30 9 C 0.346396 2.020249 3.837086 0
M  V30 10 C -0.127411 2.374931 2.458520 0
M  V30 11 C 0.205681 3.872732 2.151123 0
M  V30 12 C -1.189055 3.373988 2.189874 0
M  V30 13 C -2.111899 3.834407 3.249959 0
M  V30 14 C -2.992472 2.806456 3.897870 0
M  V30 15 C -3.995667 2.130798 3.079330 0
M  V30 16 C -3.729517 1.326595 1.907282 0
M  V30 17 C -2.897865 0.118363 1.937135 0
M  V30 18 C -2.832547 -0.464873 0.510721 0
M  V30 19 C -1.993959 -1.697770 0.444977 0
M  V30 20 C -1.933407 -2.262053 -0.951040 0
M  V30 21 O -2.907162 -2.851803 -1.486122 0
M  V30 22 O -0.790676 -2.155154 -1.714386 0
M  V30 23 C -0.610658 -2.636960 -3.018041 0
M  V30 24 C 0.767770 -2.346636 -3.557994 0
M  V30 25 C 1.845058 -2.990194 -2.715725 0
M  V30 26 O 1.861276 -2.456317 -1.430407 0
M  V30 27 C 0.862939 -2.873937 -4.970140 0
M  V30 28 C 1.541222 -1.760574 -5.691102 0
M  V30 29 C 1.866537 -1.592485 -6.950969 0
M  V30 30 C 2.536420 -0.495359 -7.675750 0
M  V30 31 C 1.572025 -0.012025 -8.767942 0
M  V30 32 C 2.224558 1.108404 -9.524969 0
M  V30 33 C 1.224521 -1.172878 -9.700393 0
M  V30 34 C 1.872198 -0.716783 -4.733004 0
M  V30 35 O 2.696832 0.223296 -4.833552 0
M  V30 36 O 1.059559 -0.962294 -3.612467 0
M  V30 37 H 0.320133 -5.121484 7.259487 0
M  V30 38 H -0.923662 -3.910896 7.658208 0
M  V30 39 H -0.724150 -4.443476 5.947251 0
M  V30 40 H 0.280530 -2.076939 6.857749 0
M  V30 41 H 1.527740 -3.141642 7.551282 0
M  V30 42 H 2.328349 -2.352308 5.414877 0
M  V30 43 H 2.134131 -4.104635 5.399230 0
M  V30 44 H 1.476987 -3.150280 3.338149 0
M  V30 45 H 0.126282 -4.015379 4.044240 0
M  V30 46 H -0.937119 -1.776028 4.661789 0
M  V30 47 H -0.644994 -2.108810 2.962445 0
M  V30 48 H 1.088114 -0.560052 2.676598 0
M  V30 49 H 2.389245 0.430193 4.493984 0
M  V30 50 H 1.405864 -0.326093 5.875974 0
M  V30 51 H -0.733416 0.500615 5.020731 0
M  V30 52 H 1.444413 2.282490 3.853131 0
M  V30 53 H -0.087126 2.733148 4.599656 0
M  V30 54 H 0.150426 1.658117 1.660495 0
M  V30 55 H 0.491620 4.525212 2.969925 0
M  V30 56 H 0.714397 4.055975 1.196480 0
M  V30 57 H -1.641148 3.328241 1.163449 0
M  V30 58 H -2.827468 4.572033 2.769280 0
M  V30 59 H -1.618267 4.449802 4.037953 0
M  V30 60 H -2.419553 2.142633 4.593017 0
M  V30 61 H -3.570900 3.436849 4.655999 0
M  V30 62 H -4.701699 1.558403 3.781112 0
M  V30 63 H -4.716505 2.962652 2.753150 0
M  V30 64 H -4.757371 0.927902 1.548972 0
M  V30 65 H -3.463914 1.928753 0.985441 0
M  V30 66 H -3.410628 -0.708406 2.518281 0
M  V30 67 H -1.888071 0.142091 2.292723 0
M  V30 68 H -2.293342 0.328081 -0.084276 0
M  V30 69 H -3.833271 -0.560427 0.080696 0
M  V30 70 H -0.950532 -1.417227 0.703275 0
M  V30 71 H -2.422628 -2.486758 1.069421 0
M  V30 72 H -1.399030 -2.354073 -3.734561 0
M  V30 73 H -0.671362 -3.758250 -2.956628 0
M  V30 74 H 2.845166 -2.787962 -3.146848 0
M  V30 75 H 1.734934 -4.094545 -2.720262 0
M  V30 76 H 1.568367 -3.170090 -0.799108 0
M  V30 77 H 1.533666 -3.760235 -5.001223 0
M  V30 78 H -0.121248 -3.131718 -5.408075 0
M  V30 79 H 1.614863 -2.391008 -7.640106 0
M  V30 80 H 3.471189 -0.833827 -8.176750 0
M  V30 81 H 2.733038 0.395376 -7.064962 0
M  V30 82 H 0.635192 0.264850 -8.249765 0
M  V30 83 H 1.973237 1.122776 -10.604992 0
M  V30 84 H 1.888861 2.105020 -9.122669 0
M  V30 85 H 3.325696 1.062332 -9.389638 0
M  V30 86 H 0.472360 -1.840770 -9.236094 0
M  V30 87 H 2.118110 -1.768933 -9.978684 0
M  V30 88 H 0.724251 -0.707406 -10.591123 0
M  V30 END ATOM
M  V30 BEGIN BOND
M  V30 1 1 1 2
M  V30 2 1 2 3
M  V30 3 1 3 4
M  V30 4 1 4 5
M  V30 5 1 5 6
M  V30 6 1 6 7
M  V30 7 1 7 8
M  V30 8 1 8 9
M  V30 9 1 9 10
M  V30 10 1 10 11
M  V30 11 1 11 12
M  V30 12 1 12 13
M  V30 13 1 13 14
M  V30 14 1 14 15
M  V30 15 1 15 16
M  V30 16 1 16 17
M  V30 17 1 17 18
M  V30 18 1 18 19
M  V30 19 1 19 20
M  V30 20 2 20 21
M  V30 21 1 20 22
M  V30 22 1 22 23
M  V30 23 1 23 24
M  V30 24 1 24 25
M  V30 25 1 25 26
M  V30 26 1 24 27
M  V30 27 1 27 28
M  V30 28 2 28 29
M  V30 29 1 29 30
M  V30 30 1 30 31
M  V30 31 1 31 32
M  V30 32 1 31 33
M  V30 33 1 28 34
M  V30 34 2 34 35
M  V30 35 1 34 36
M  V30 36 1 8 6
M  V30 37 1 12 10
M  V30 38 1 36 24
M  V30 39 1 1 37
M  V30 40 1 1 38
M  V30 41 1 1 39
M  V30 42 1 2 40
M  V30 43 1 2 41
M  V30 44 1 3 42
M  V30 45 1 3 43
M  V30 46 1 4 44
M  V30 47 1 4 45
M  V30 48 1 5 46
M  V30 49 1 5 47
M  V30 50 1 6 48
M  V30 51 1 7 49
M  V30 52 1 7 50
M  V30 53 1 8 51
M  V30 54 1 9 52
M  V30 55 1 9 53
M  V30 56 1 10 54
M  V30 57 1 11 55
M  V30 58 1 11 56
M  V30 59 1 12 57
M  V30 60 1 13 58
M  V30 61 1 13 59
M  V30 62 1 14 60
M  V30 63 1 14 61
M  V30 64 1 15 62
M  V30 65 1 15 63
M  V30 66 1 16 64
M  V30 67 1 16 65
M  V30 68 1 17 66
M  V30 69 1 17 67
M  V30 70 1 18 68
M  V30 71 1 18 69
M  V30 72 1 19 70
M  V30 73 1 19 71
M  V30 74 1 23 72
M  V30 75 1 23 73
M  V30 76 1 25 74
M  V30 77 1 25 75
M  V30 78 1 26 76
M  V30 79 1 27 77
M  V30 80 1 27 78
M  V30 81 1 29 79
M  V30 82 1 30 80
M  V30 83 1 30 81
M  V30 84 1 31 82
M  V30 85 1 32 83
M  V30 86 1 32 84
M  V30 87 1 32 85
M  V30 88 1 33 86
M  V30 89 1 33 87
M  V30 90 1 33 88
M  V30 END BOND
M  V30 END CTAB
M  END
>  <Dataset>  (589) 
ChEMBL_Kinases

>  <Ligand_Instance>  (589) 
nan

>  <PDB_ID>  (589) 
nan

>  <Standardized_SMILES>  (589) 
CCCCCC1CC1CC1CC1CCCCCCCC(=O)OCC1(CO)C/C(=C/CC(C)C)C(=O)O1

>  <Name>  (589) 
nan

>  <Pocket>  (589) 
nan

>  <ATP_Site>  (589) 
nan

>  <Peripheral>  (589) 
nan

>  <Num_H_Atoms_ProtBoundConf>  (589) 
nan

>  <Num_Resolved_Atoms>  (589) 
nan

>  <Num_Not_Resolved_Atoms>  (589) 
nan

$$$$
CHEMBL3393716
     RDKit          3D

  0  0  0  0  0  0  0  0  0  0999 V3000
M  V30 BEGIN CTAB
M  V30 COUNTS 55 60 0 0 0
M  V30 BEGIN ATOM
M  V30 1 N 1.705620 -6.582883 -0.149436 0
M  V30 2 C 2.223276 -5.264836 -0.270597 0
M  V30 3 C 3.087548 -4.961643 -1.325671 0
M  V30 4 C 3.563553 -3.654558 -1.394309 0
M  V30 5 C 3.185093 -2.734850 -0.459231 0
M  V30 6 C 3.618432 -1.339625 -0.429295 0
M  V30 7 C 4.964635 -1.069666 -0.637476 0
M  V30 8 C 5.446146 0.221723 -0.623288 0
M  V30 9 C 4.512405 1.209826 -0.391688 0
M  V30 10 N 4.662756 2.542224 -0.318291 0
M  V30 11 N 3.509394 3.121320 -0.079792 0
M  V30 12 C 2.521528 2.213590 0.020302 0
M  V30 13 C 1.099563 2.434145 0.277712 0
M  V30 14 C 0.685228 3.747356 0.445441 0
M  V30 15 N -0.633414 4.004174 0.688017 0
M  V30 16 C -1.492083 2.969964 0.756774 0
M  V30 17 C -1.113199 1.658437 0.595180 0
M  V30 18 O -1.912820 0.549088 0.648348 0
M  V30 19 C -3.286766 0.498850 0.877460 0 CFG=1
M  V30 20 C -4.059005 -0.117309 -0.285883 0
M  V30 21 N -5.334286 -0.636737 0.194313 0
M  V30 22 C -5.887813 0.200949 1.243735 0
M  V30 23 C -5.060547 0.060440 2.508517 0
M  V30 24 C -3.658585 -0.329057 2.087769 0
M  V30 25 C -2.684067 -0.841458 3.047059 0
M  V30 26 C -3.346350 -1.812676 2.059743 0
M  V30 27 N 0.208833 1.416143 0.353109 0
M  V30 28 C 3.161855 1.004879 -0.177948 0
M  V30 29 C 2.725593 -0.306476 -0.201289 0
M  V30 30 C 2.317691 -3.060607 0.590007 0
M  V30 31 F 1.921197 -2.157817 1.542312 0
M  V30 32 C 1.834004 -4.340354 0.681525 0
M  V30 33 H 1.671267 -7.176104 0.731215 0
M  V30 34 H 1.258672 -7.310064 -0.753650 0
M  V30 35 H 3.375584 -5.700491 -2.054813 0
M  V30 36 H 4.232296 -3.333244 -2.171705 0
M  V30 37 H 5.717238 -1.841905 -0.822366 0
M  V30 38 H 6.493364 0.474821 -0.782044 0
M  V30 39 H 5.589021 3.039245 -0.438417 0
M  V30 40 H 1.327922 4.622743 0.401506 0
M  V30 41 H -2.538849 3.145686 0.947250 0
M  V30 42 H -3.740565 1.499469 1.028688 0
M  V30 43 H -3.503925 -0.892238 -0.813938 0
M  V30 44 H -4.337130 0.666938 -1.039385 0
M  V30 45 H -5.994807 -0.798999 -0.571514 0
M  V30 46 H -6.924496 -0.149420 1.425439 0
M  V30 47 H -5.879256 1.244426 0.862712 0
M  V30 48 H -5.062082 1.046517 3.006738 0
M  V30 49 H -5.509266 -0.700404 3.178867 0
M  V30 50 H -1.608902 -0.692466 2.924021 0
M  V30 51 H -3.051540 -0.966724 4.098196 0
M  V30 52 H -2.766692 -2.129453 1.181363 0
M  V30 53 H -4.128514 -2.508344 2.447832 0
M  V30 54 H 1.682687 -0.501017 -0.038934 0
M  V30 55 H 1.157641 -4.622463 1.487055 0
M  V30 END ATOM
M  V30 BEGIN BOND
M  V30 1 1 1 2
M  V30 2 2 2 3
M  V30 3 1 3 4
M  V30 4 2 4 5
M  V30 5 1 5 6
M  V30 6 2 6 7
M  V30 7 1 7 8
M  V30 8 2 8 9
M  V30 9 1 9 10
M  V30 10 1 10 11
M  V30 11 2 11 12
M  V30 12 1 12 13
M  V30 13 2 13 14
M  V30 14 1 14 15
M  V30 15 2 15 16
M  V30 16 1 16 17
M  V30 17 1 17 18
M  V30 18 1 18 19
M  V30 19 1 19 20
M  V30 20 1 20 21
M  V30 21 1 21 22
M  V30 22 1 22 23
M  V30 23 1 23 24
M  V30 24 1 24 25
M  V30 25 1 25 26
M  V30 26 2 17 27
M  V30 27 1 12 28
M  V30 28 2 28 29
M  V30 29 1 5 30
M  V30 30 1 30 31
M  V30 31 2 30 32
M  V30 32 1 32 2
M  V30 33 1 29 6
M  V30 34 1 28 9
M  V30 35 1 27 13
M  V30 36 1 24 19
M  V30 37 1 26 24
M  V30 38 1 1 33
M  V30 39 1 1 34
M  V30 40 1 3 35
M  V30 41 1 4 36
M  V30 42 1 7 37
M  V30 43 1 8 38
M  V30 44 1 10 39
M  V30 45 1 14 40
M  V30 46 1 16 41
M  V30 47 1 19 42 CFG=1
M  V30 48 1 20 43
M  V30 49 1 20 44
M  V30 50 1 21 45
M  V30 51 1 22 46
M  V30 52 1 22 47
M  V30 53 1 23 48
M  V30 54 1 23 49
M  V30 55 1 25 50
M  V30 56 1 25 51
M  V30 57 1 26 52
M  V30 58 1 26 53
M  V30 59 1 29 54
M  V30 60 1 32 55
M  V30 END BOND
M  V30 END CTAB
M  END
>  <Dataset>  (590) 
ChEMBL_Kinases

>  <Ligand_Instance>  (590) 
nan

>  <PDB_ID>  (590) 
nan

>  <Standardized_SMILES>  (590) 
Nc1ccc(-c2ccc3[nH]nc(-c4cncc(O[C@H]5CNCCC56CC6)n4)c3c2)c(F)c1

>  <Name>  (590) 
nan

>  <Pocket>  (590) 
nan

>  <ATP_Site>  (590) 
nan

>  <Peripheral>  (590) 
nan

>  <Num_H_Atoms_ProtBoundConf>  (590) 
nan

>  <Num_Resolved_Atoms>  (590) 
nan

>  <Num_Not_Resolved_Atoms>  (590) 
nan

$$$$
CHEMBL3670489
     RDKit          3D

  0  0  0  0  0  0  0  0  0  0999 V3000
M  V30 BEGIN CTAB
M  V30 COUNTS 43 45 0 0 0
M  V30 BEGIN ATOM
M  V30 1 C 1.329819 -6.272746 0.845693 0
M  V30 2 O 1.910151 -5.031549 0.523172 0
M  V30 3 C 1.198243 -4.053244 -0.135283 0
M  V30 4 C -0.096279 -4.012213 -0.600556 0
M  V30 5 C -0.635950 -2.922689 -1.246864 0
M  V30 6 C 0.192671 -1.809285 -1.429165 0
M  V30 7 O -0.338970 -0.692003 -2.084058 0
M  V30 8 C -1.665172 -0.633035 -2.569560 0
M  V30 9 C 1.495580 -1.812860 -0.976733 0
M  V30 10 C 2.311784 -0.554329 -1.218016 0
M  V30 11 N 2.023997 0.499541 -0.320956 0
M  V30 12 C 1.739926 1.576476 0.583918 0
M  V30 13 N 2.271338 2.804468 0.568244 0
M  V30 14 C 2.006060 3.810646 1.392377 0
M  V30 15 N 1.102704 3.509121 2.319312 0
M  V30 16 C 0.500940 2.327532 2.442675 0
M  V30 17 C -0.403436 2.225369 3.478015 0
M  V30 18 C -0.678905 3.342824 4.371148 0
M  V30 19 N -1.612937 3.235373 5.437113 0
M  V30 20 O -0.087786 4.460248 4.225072 0
M  V30 21 C -1.068756 1.035425 3.680253 0
M  V30 22 C -0.791229 -0.014242 2.820244 0
M  V30 23 C 0.121432 0.181374 1.822177 0
M  V30 24 C 0.809520 1.314928 1.563901 0
M  V30 25 C 2.016742 -2.936181 -0.322999 0
M  V30 26 H 0.467836 -6.481970 0.203268 0
M  V30 27 H 2.109568 -7.063806 0.747763 0
M  V30 28 H 1.000616 -6.285914 1.909276 0
M  V30 29 H -0.634693 -4.910786 -0.406845 0
M  V30 30 H -1.654467 -2.982717 -1.574230 0
M  V30 31 H -1.941374 -1.573603 -3.061018 0
M  V30 32 H -2.389814 -0.354989 -1.781246 0
M  V30 33 H -1.691973 0.186551 -3.343037 0
M  V30 34 H 2.067852 -0.239622 -2.278133 0
M  V30 35 H 3.371509 -0.908482 -1.254005 0
M  V30 36 H 2.755092 1.029667 -0.862272 0
M  V30 37 H 2.532558 4.740814 1.231986 0
M  V30 38 H -2.397838 3.913789 5.456385 0
M  V30 39 H -1.563272 2.518586 6.203017 0
M  V30 40 H -1.784662 0.868162 4.455137 0
M  V30 41 H -1.286613 -0.985817 2.928071 0
M  V30 42 H 0.317824 -0.650704 1.178578 0
M  V30 43 H 3.045330 -2.777488 -0.033027 0
M  V30 END ATOM
M  V30 BEGIN BOND
M  V30 1 1 1 2
M  V30 2 1 2 3
M  V30 3 2 3 4
M  V30 4 1 4 5
M  V30 5 2 5 6
M  V30 6 1 6 7
M  V30 7 1 7 8
M  V30 8 1 6 9
M  V30 9 1 9 10
M  V30 10 1 10 11
M  V30 11 1 11 12
M  V30 12 2 12 13
M  V30 13 1 13 14
M  V30 14 2 14 15
M  V30 15 1 15 16
M  V30 16 2 16 17
M  V30 17 1 17 18
M  V30 18 1 18 19
M  V30 19 2 18 20
M  V30 20 1 17 21
M  V30 21 2 21 22
M  V30 22 1 22 23
M  V30 23 2 23 24
M  V30 24 2 9 25
M  V30 25 1 25 3
M  V30 26 1 24 12
M  V30 27 1 24 16
M  V30 28 1 1 26
M  V30 29 1 1 27
M  V30 30 1 1 28
M  V30 31 1 4 29
M  V30 32 1 5 30
M  V30 33 1 8 31
M  V30 34 1 8 32
M  V30 35 1 8 33
M  V30 36 1 10 34
M  V30 37 1 10 35
M  V30 38 1 11 36
M  V30 39 1 14 37
M  V30 40 1 19 38
M  V30 41 1 19 39
M  V30 42 1 21 40
M  V30 43 1 22 41
M  V30 44 1 23 42
M  V30 45 1 25 43
M  V30 END BOND
M  V30 END CTAB
M  END
>  <Dataset>  (591) 
ChEMBL_Kinases

>  <Ligand_Instance>  (591) 
nan

>  <PDB_ID>  (591) 
nan

>  <Standardized_SMILES>  (591) 
COc1ccc(OC)c(CNc2ncnc3c(C(N)=O)cccc23)c1

>  <Name>  (591) 
nan

>  <Pocket>  (591) 
nan

>  <ATP_Site>  (591) 
nan

>  <Peripheral>  (591) 
nan

>  <Num_H_Atoms_ProtBoundConf>  (591) 
nan

>  <Num_Resolved_Atoms>  (591) 
nan

>  <Num_Not_Resolved_Atoms>  (591) 
nan

$$$$
CHEMBL3670488
     RDKit          3D

  0  0  0  0  0  0  0  0  0  0999 V3000
M  V30 BEGIN CTAB
M  V30 COUNTS 42 44 0 0 0
M  V30 BEGIN ATOM
M  V30 1 C 0.164834 -5.603458 0.410933 0
M  V30 2 O 1.441968 -5.108248 0.669670 0
M  V30 3 C 1.777084 -3.760454 0.655344 0
M  V30 4 C 3.111913 -3.492153 0.942591 0
M  V30 5 C 3.499287 -2.169909 0.941941 0
M  V30 6 C 4.888476 -1.838283 1.237300 0
M  V30 7 N 5.335478 -0.487835 1.248472 0
M  V30 8 O 5.736781 -2.731587 1.491549 0
M  V30 9 C 2.614671 -1.147680 0.670562 0
M  V30 10 N 3.043871 0.132026 0.682334 0
M  V30 11 C 2.135641 1.087269 0.410054 0
M  V30 12 N 0.848576 0.812916 0.134142 0
M  V30 13 C 0.354309 -0.435649 0.105385 0
M  V30 14 N -1.014307 -0.690368 -0.190415 0
M  V30 15 C -1.853052 0.453539 -0.459602 0 CFG=2
M  V30 16 C -1.361418 1.251895 -1.653115 0
M  V30 17 C -1.978792 1.348180 0.719579 0
M  V30 18 C -2.210126 0.645603 1.884783 0
M  V30 19 C -2.356938 1.316904 3.101802 0
M  V30 20 C -2.266523 2.696059 3.118505 0
M  V30 21 C -2.033621 3.400919 1.944328 0
M  V30 22 C -1.890750 2.723525 0.749691 0
M  V30 23 C 1.291381 -1.406785 0.385333 0
M  V30 24 C 0.912340 -2.722730 0.387464 0
M  V30 25 H 0.087644 -6.595371 0.935122 0
M  V30 26 H -0.586956 -4.892662 0.828366 0
M  V30 27 H -0.002142 -5.739836 -0.675352 0
M  V30 28 H 3.827106 -4.274827 1.159025 0
M  V30 29 H 5.756108 0.121905 0.492337 0
M  V30 30 H 5.278834 0.081298 2.105605 0
M  V30 31 H 2.491823 2.123321 0.421536 0
M  V30 32 H -1.443741 -1.636722 -0.224448 0
M  V30 33 H -2.862448 0.108246 -0.724801 0
M  V30 34 H -2.236128 1.863467 -1.999317 0
M  V30 35 H -0.569069 1.976188 -1.383050 0
M  V30 36 H -1.096582 0.592739 -2.490079 0
M  V30 37 H -2.296745 -0.425539 1.975628 0
M  V30 38 H -2.539597 0.787788 4.032962 0
M  V30 39 H -2.381675 3.204215 4.065197 0
M  V30 40 H -1.960533 4.480202 1.942620 0
M  V30 41 H -1.710089 3.183053 -0.198586 0
M  V30 42 H -0.081998 -3.023707 0.180319 0
M  V30 END ATOM
M  V30 BEGIN BOND
M  V30 1 1 1 2
M  V30 2 1 2 3
M  V30 3 2 3 4
M  V30 4 1 4 5
M  V30 5 1 5 6
M  V30 6 1 6 7
M  V30 7 2 6 8
M  V30 8 2 5 9
M  V30 9 1 9 10
M  V30 10 2 10 11
M  V30 11 1 11 12
M  V30 12 2 12 13
M  V30 13 1 13 14
M  V30 14 1 14 15
M  V30 15 1 15 16
M  V30 16 1 15 17
M  V30 17 2 17 18
M  V30 18 1 18 19
M  V30 19 2 19 20
M  V30 20 1 20 21
M  V30 21 2 21 22
M  V30 22 1 13 23
M  V30 23 2 23 24
M  V30 24 1 24 3
M  V30 25 1 23 9
M  V30 26 1 22 17
M  V30 27 1 1 25
M  V30 28 1 1 26
M  V30 29 1 1 27
M  V30 30 1 4 28
M  V30 31 1 7 29
M  V30 32 1 7 30
M  V30 33 1 11 31
M  V30 34 1 14 32
M  V30 35 1 15 33 CFG=3
M  V30 36 1 16 34
M  V30 37 1 16 35
M  V30 38 1 16 36
M  V30 39 1 18 37
M  V30 40 1 19 38
M  V30 41 1 20 39
M  V30 42 1 21 40
M  V30 43 1 22 41
M  V30 44 1 24 42
M  V30 END BOND
M  V30 END CTAB
M  END
>  <Dataset>  (592) 
ChEMBL_Kinases

>  <Ligand_Instance>  (592) 
nan

>  <PDB_ID>  (592) 
nan

>  <Standardized_SMILES>  (592) 
COc1cc(C(N)=O)c2ncnc(N[C@H](C)c3ccccc3)c2c1

>  <Name>  (592) 
nan

>  <Pocket>  (592) 
nan

>  <ATP_Site>  (592) 
nan

>  <Peripheral>  (592) 
nan

>  <Num_H_Atoms_ProtBoundConf>  (592) 
nan

>  <Num_Resolved_Atoms>  (592) 
nan

>  <Num_Not_Resolved_Atoms>  (592) 
nan

$$$$
CHEMBL3393598
     RDKit          3D

  0  0  0  0  0  0  0  0  0  0999 V3000
M  V30 BEGIN CTAB
M  V30 COUNTS 71 76 0 0 0
M  V30 BEGIN ATOM
M  V30 1 O 0.743597 0.271625 4.211684 0
M  V30 2 C 1.232022 -0.822842 3.764957 0
M  V30 3 N 2.635548 -1.041540 3.724908 0
M  V30 4 C 3.579086 -0.048028 4.182222 0
M  V30 5 C 3.463765 1.244533 3.403159 0
M  V30 6 N 3.703299 1.074001 2.002191 0
M  V30 7 C 3.572559 2.362734 1.350863 0
M  V30 8 C 3.398812 2.209710 -0.149226 0
M  V30 9 N 3.982355 0.927416 -0.539737 0
M  V30 10 C 4.278658 0.973816 -1.942839 0
M  V30 11 C 4.892015 -0.260636 -2.543052 0
M  V30 12 C 3.898551 -0.173866 -3.700864 0
M  V30 13 C 3.082868 0.784062 -2.850604 0
M  V30 14 C 5.234332 0.795680 0.183989 0
M  V30 15 C 4.993909 0.556963 1.663544 0
M  V30 16 C 0.293846 -1.839904 3.297354 0
M  V30 17 C 0.671704 -3.065580 2.790921 0
M  V30 18 C -0.207931 -4.030143 2.347479 0
M  V30 19 C -1.557774 -3.753944 2.413518 0
M  V30 20 C -1.995922 -2.532934 2.915712 0
M  V30 21 N -3.402364 -2.302880 2.959653 0
M  V30 22 N -4.288469 -2.300168 3.959396 0
M  V30 23 C -5.512063 -2.026762 3.499214 0
M  V30 24 C -5.376114 -1.848694 2.127702 0
M  V30 25 C -6.344705 -1.547882 1.186777 0
M  V30 26 C -5.982647 -1.413169 -0.150059 0
M  V30 27 N -6.902134 -1.095550 -1.213032 0
M  V30 28 C -6.511108 -1.109388 -2.580152 0
M  V30 29 C -6.538111 -0.032018 -3.438686 0
M  V30 30 C -6.141039 -0.146954 -4.758043 0
M  V30 31 C -5.697596 -1.362171 -5.268058 0
M  V30 32 C -5.683790 -2.426232 -4.374861 0
M  V30 33 C -6.075807 -2.351419 -3.038307 0
M  V30 34 Cl -5.969418 -3.844914 -2.125208 0
M  V30 35 C -4.642909 -1.586571 -0.505219 0
M  V30 36 C -3.693395 -1.887693 0.459438 0
M  V30 37 C -4.040251 -2.023832 1.787800 0
M  V30 38 C -1.065526 -1.632584 3.333733 0
M  V30 39 H 3.050306 -1.928482 3.363861 0
M  V30 40 H 3.278685 0.196034 5.236177 0
M  V30 41 H 4.607384 -0.419861 4.234221 0
M  V30 42 H 2.462328 1.688298 3.530936 0
M  V30 43 H 4.177647 2.008555 3.773939 0
M  V30 44 H 4.531573 2.910391 1.574437 0
M  V30 45 H 2.718888 2.911259 1.751176 0
M  V30 46 H 2.336866 2.274083 -0.431247 0
M  V30 47 H 4.009164 2.996880 -0.630087 0
M  V30 48 H 4.834044 1.886690 -2.273683 0
M  V30 49 H 4.780231 -1.185652 -1.950192 0
M  V30 50 H 5.922793 -0.100981 -2.934899 0
M  V30 51 H 4.311499 0.250951 -4.634781 0
M  V30 52 H 3.326005 -1.116504 -3.838442 0
M  V30 53 H 2.817363 1.675669 -3.454008 0
M  V30 54 H 2.190876 0.338990 -2.380108 0
M  V30 55 H 5.792786 1.738944 0.031500 0
M  V30 56 H 5.844221 -0.009536 -0.278100 0
M  V30 57 H 5.065438 -0.560200 1.806783 0
M  V30 58 H 5.783035 1.103957 2.216708 0
M  V30 59 H 1.711962 -3.312522 2.725252 0
M  V30 60 H 0.123342 -4.979406 1.956987 0
M  V30 61 H -2.256266 -4.502259 2.068883 0
M  V30 62 H -6.415593 -1.961259 4.090188 0
M  V30 63 H -7.390359 -1.406642 1.425603 0
M  V30 64 H -7.885124 -0.847841 -0.964109 0
M  V30 65 H -6.884015 0.907990 -3.033187 0
M  V30 66 H -6.172459 0.726066 -5.419258 0
M  V30 67 H -5.378895 -1.494463 -6.290763 0
M  V30 68 H -5.332106 -3.366866 -4.799166 0
M  V30 69 H -4.234346 -1.505171 -1.505230 0
M  V30 70 H -2.632607 -2.028582 0.202236 0
M  V30 71 H -1.485247 -0.710202 3.709703 0
M  V30 END ATOM
M  V30 BEGIN BOND
M  V30 1 2 1 2
M  V30 2 1 2 3
M  V30 3 1 3 4
M  V30 4 1 4 5
M  V30 5 1 5 6
M  V30 6 1 6 7
M  V30 7 1 7 8
M  V30 8 1 8 9
M  V30 9 1 9 10
M  V30 10 1 10 11
M  V30 11 1 11 12
M  V30 12 1 12 13
M  V30 13 1 9 14
M  V30 14 1 14 15
M  V30 15 1 2 16
M  V30 16 2 16 17
M  V30 17 1 17 18
M  V30 18 2 18 19
M  V30 19 1 19 20
M  V30 20 1 20 21
M  V30 21 1 21 22
M  V30 22 2 22 23
M  V30 23 1 23 24
M  V30 24 2 24 25
M  V30 25 1 25 26
M  V30 26 1 26 27
M  V30 27 1 27 28
M  V30 28 2 28 29
M  V30 29 1 29 30
M  V30 30 2 30 31
M  V30 31 1 31 32
M  V30 32 2 32 33
M  V30 33 1 33 34
M  V30 34 2 26 35
M  V30 35 1 35 36
M  V30 36 2 36 37
M  V30 37 2 20 38
M  V30 38 1 15 6
M  V30 39 1 38 16
M  V30 40 1 13 10
M  V30 41 1 37 21
M  V30 42 1 37 24
M  V30 43 1 33 28
M  V30 44 1 3 39
M  V30 45 1 4 40
M  V30 46 1 4 41
M  V30 47 1 5 42
M  V30 48 1 5 43
M  V30 49 1 7 44
M  V30 50 1 7 45
M  V30 51 1 8 46
M  V30 52 1 8 47
M  V30 53 1 10 48
M  V30 54 1 11 49
M  V30 55 1 11 50
M  V30 56 1 12 51
M  V30 57 1 12 52
M  V30 58 1 13 53
M  V30 59 1 13 54
M  V30 60 1 14 55
M  V30 61 1 14 56
M  V30 62 1 15 57
M  V30 63 1 15 58
M  V30 64 1 17 59
M  V30 65 1 18 60
M  V30 66 1 19 61
M  V30 67 1 23 62
M  V30 68 1 25 63
M  V30 69 1 27 64
M  V30 70 1 29 65
M  V30 71 1 30 66
M  V30 72 1 31 67
M  V30 73 1 32 68
M  V30 74 1 35 69
M  V30 75 1 36 70
M  V30 76 1 38 71
M  V30 END BOND
M  V30 END CTAB
M  END
>  <Dataset>  (593) 
ChEMBL_Kinases

>  <Ligand_Instance>  (593) 
nan

>  <PDB_ID>  (593) 
nan

>  <Standardized_SMILES>  (593) 
O=C(NCCN1CCN(C2CCC2)CC1)c1cccc(-n2ncc3cc(Nc4ccccc4Cl)ccc32)c1

>  <Name>  (593) 
nan

>  <Pocket>  (593) 
nan

>  <ATP_Site>  (593) 
nan

>  <Peripheral>  (593) 
nan

>  <Num_H_Atoms_ProtBoundConf>  (593) 
nan

>  <Num_Resolved_Atoms>  (593) 
nan

>  <Num_Not_Resolved_Atoms>  (593) 
nan

$$$$
CHEMBL3670486
     RDKit          3D

  0  0  0  0  0  0  0  0  0  0999 V3000
M  V30 BEGIN CTAB
M  V30 COUNTS 42 44 0 0 0
M  V30 BEGIN ATOM
M  V30 1 C -0.546718 -3.028127 0.965909 0
M  V30 2 O 0.357807 -3.113681 -0.093114 0
M  V30 3 C 1.078248 -2.031860 -0.569610 0
M  V30 4 C 1.939141 -2.250677 -1.624756 0
M  V30 5 C 2.642517 -1.165864 -2.080935 0
M  V30 6 C 3.533120 -1.408489 -3.176787 0
M  V30 7 N 4.490682 -0.987425 -4.125010 0
M  V30 8 O 3.608238 -2.596857 -3.661012 0
M  V30 9 C 2.493233 0.075987 -1.511114 0
M  V30 10 N 3.209114 1.054438 -2.019543 0
M  V30 11 C 3.158909 2.304748 -1.564226 0
M  V30 12 N 2.334588 2.510917 -0.553946 0
M  V30 13 C 1.551054 1.616024 0.058852 0
M  V30 14 N 0.660539 1.807877 1.159026 0
M  V30 15 C -0.201564 1.993993 2.224221 0
M  V30 16 C -0.962705 0.790631 2.708521 0
M  V30 17 C -2.199435 0.449021 2.205553 0
M  V30 18 C -2.874593 -0.671344 2.688461 0
M  V30 19 C -2.262323 -1.412704 3.675987 0
M  V30 20 C -2.983526 -2.614784 4.197981 0
M  V30 21 F -4.285194 -2.625297 3.751512 0
M  V30 22 F -2.990070 -2.610611 5.589788 0
M  V30 23 F -2.352712 -3.787427 3.807798 0
M  V30 24 C -1.031421 -1.071380 4.175300 0
M  V30 25 C -0.341165 0.046831 3.703698 0
M  V30 26 C 1.638340 0.335477 -0.449633 0
M  V30 27 C 0.969290 -0.769118 -0.039200 0
M  V30 28 H -0.008706 -3.049080 1.950128 0
M  V30 29 H -1.149224 -2.107581 0.877626 0
M  V30 30 H -1.239195 -3.918085 0.876982 0
M  V30 31 H 2.013629 -3.247067 -2.029872 0
M  V30 32 H 5.546752 -0.986191 -4.002166 0
M  V30 33 H 4.305000 -0.611864 -5.082791 0
M  V30 34 H 3.722989 3.165320 -1.936778 0
M  V30 35 H 0.869993 2.859963 1.226630 0
M  V30 36 H 0.326173 2.431820 3.127887 0
M  V30 37 H -1.034620 2.737604 2.012665 0
M  V30 38 H -2.551995 1.122175 1.437490 0
M  V30 39 H -3.841594 -0.887383 2.252832 0
M  V30 40 H -0.636212 -1.708666 4.941350 0
M  V30 41 H 0.620446 0.229599 4.162397 0
M  V30 42 H 0.288066 -0.663410 0.773617 0
M  V30 END ATOM
M  V30 BEGIN BOND
M  V30 1 1 1 2
M  V30 2 1 2 3
M  V30 3 2 3 4
M  V30 4 1 4 5
M  V30 5 1 5 6
M  V30 6 1 6 7
M  V30 7 2 6 8
M  V30 8 2 5 9
M  V30 9 1 9 10
M  V30 10 2 10 11
M  V30 11 1 11 12
M  V30 12 2 12 13
M  V30 13 1 13 14
M  V30 14 1 14 15
M  V30 15 1 15 16
M  V30 16 2 16 17
M  V30 17 1 17 18
M  V30 18 2 18 19
M  V30 19 1 19 20
M  V30 20 1 20 21
M  V30 21 1 20 22
M  V30 22 1 20 23
M  V30 23 1 19 24
M  V30 24 2 24 25
M  V30 25 1 13 26
M  V30 26 2 26 27
M  V30 27 1 27 3
M  V30 28 1 26 9
M  V30 29 1 25 16
M  V30 30 1 1 28
M  V30 31 1 1 29
M  V30 32 1 1 30
M  V30 33 1 4 31
M  V30 34 1 7 32
M  V30 35 1 7 33
M  V30 36 1 11 34
M  V30 37 1 14 35
M  V30 38 1 15 36
M  V30 39 1 15 37
M  V30 40 1 17 38
M  V30 41 1 18 39
M  V30 42 1 24 40
M  V30 43 1 25 41
M  V30 44 1 27 42
M  V30 END BOND
M  V30 END CTAB
M  END
>  <Dataset>  (594) 
ChEMBL_Kinases

>  <Ligand_Instance>  (594) 
nan

>  <PDB_ID>  (594) 
nan

>  <Standardized_SMILES>  (594) 
COc1cc(C(N)=O)c2ncnc(NCc3ccc(C(F)(F)F)cc3)c2c1

>  <Name>  (594) 
nan

>  <Pocket>  (594) 
nan

>  <ATP_Site>  (594) 
nan

>  <Peripheral>  (594) 
nan

>  <Num_H_Atoms_ProtBoundConf>  (594) 
nan

>  <Num_Resolved_Atoms>  (594) 
nan

>  <Num_Not_Resolved_Atoms>  (594) 
nan

$$$$
CHEMBL3670484
     RDKit          3D

  0  0  0  0  0  0  0  0  0  0999 V3000
M  V30 BEGIN CTAB
M  V30 COUNTS 55 58 0 0 0
M  V30 BEGIN ATOM
M  V30 1 N -2.402765 -2.111020 5.617383 0
M  V30 2 C -1.304775 -2.425143 4.800470 0
M  V30 3 O -1.288793 -3.689645 4.780716 0
M  V30 4 C -0.407540 -1.445223 4.138038 0
M  V30 5 C -0.501478 -0.085574 4.294387 0
M  V30 6 C 0.398355 0.704055 3.579417 0
M  V30 7 C 1.315858 0.009014 2.765633 0
M  V30 8 C 1.383890 -1.455041 2.620644 0
M  V30 9 C 2.372518 -1.289295 1.793269 0
M  V30 10 N 3.399497 -1.117886 0.933947 0
M  V30 11 C 3.953435 -0.037363 0.177873 0
M  V30 12 C 2.925259 1.049891 -0.062966 0
M  V30 13 C 3.273705 2.321275 0.298940 0
M  V30 14 C 2.447210 3.409830 0.198729 0
M  V30 15 C 1.129813 3.251245 -0.309234 0
M  V30 16 C 0.815553 1.943287 -0.659750 0
M  V30 17 O -0.456792 1.717481 -1.147369 0
M  V30 18 C -0.855512 0.401950 -1.487379 0
M  V30 19 C -2.318061 0.497340 -1.909886 0
M  V30 20 N -2.914872 -0.751184 -2.215976 0
M  V30 21 C -3.071344 -1.612008 -1.062449 0
M  V30 22 C -3.328429 -3.039384 -1.432838 0
M  V30 23 O -2.418396 -3.536165 -2.317566 0
M  V30 24 C -1.962591 -2.729692 -3.313178 0
M  V30 25 C -2.585043 -1.370807 -3.431562 0
M  V30 26 C 1.673337 0.855197 -0.551435 0
M  V30 27 N 2.476139 -2.722869 1.648612 0
M  V30 28 C 1.743128 -3.660080 2.228355 0
M  V30 29 N 0.752199 -3.371245 3.071437 0
M  V30 30 C 0.467962 -2.112884 3.359682 0
M  V30 31 H -2.003483 -1.999614 6.596956 0
M  V30 32 H -3.318439 -2.052487 5.141827 0
M  V30 33 H -1.274580 0.191137 4.961674 0
M  V30 34 H 0.258237 1.746153 3.760941 0
M  V30 35 H 1.924876 0.830236 2.341903 0
M  V30 36 H 4.176321 -1.684955 0.571043 0
M  V30 37 H 4.207472 -0.392682 -0.872878 0
M  V30 38 H 4.824486 0.404346 0.700009 0
M  V30 39 H 4.267586 2.524102 0.701965 0
M  V30 40 H 2.680841 4.431652 0.463164 0
M  V30 41 H 0.479495 4.082050 -0.395109 0
M  V30 42 H -0.691004 -0.232333 -0.598086 0
M  V30 43 H -0.219662 -0.039399 -2.296157 0
M  V30 44 H -2.873425 1.074343 -1.150356 0
M  V30 45 H -2.313542 1.087520 -2.876810 0
M  V30 46 H -3.938564 -1.237227 -0.477358 0
M  V30 47 H -2.214291 -1.532848 -0.332468 0
M  V30 48 H -4.380044 -3.110858 -1.789145 0
M  V30 49 H -3.217400 -3.649437 -0.489441 0
M  V30 50 H -2.066838 -3.227131 -4.327516 0
M  V30 51 H -0.840073 -2.635384 -3.197173 0
M  V30 52 H -1.856602 -0.718752 -3.996266 0
M  V30 53 H -3.517010 -1.471452 -4.044644 0
M  V30 54 H 1.360831 -0.131855 -0.851406 0
M  V30 55 H 1.778423 -4.794118 2.156636 0
M  V30 END ATOM
M  V30 BEGIN BOND
M  V30 1 1 1 2
M  V30 2 2 2 3
M  V30 3 1 2 4
M  V30 4 2 4 5
M  V30 5 1 5 6
M  V30 6 2 6 7
M  V30 7 1 7 8
M  V30 8 2 8 9
M  V30 9 1 9 10
M  V30 10 1 10 11
M  V30 11 1 11 12
M  V30 12 2 12 13
M  V30 13 1 13 14
M  V30 14 2 14 15
M  V30 15 1 15 16
M  V30 16 1 16 17
M  V30 17 1 17 18
M  V30 18 1 18 19
M  V30 19 1 19 20
M  V30 20 1 20 21
M  V30 21 1 21 22
M  V30 22 1 22 23
M  V30 23 1 23 24
M  V30 24 1 24 25
M  V30 25 2 16 26
M  V30 26 1 9 27
M  V30 27 2 27 28
M  V30 28 1 28 29
M  V30 29 2 29 30
M  V30 30 1 30 4
M  V30 31 1 30 8
M  V30 32 1 26 12
M  V30 33 1 25 20
M  V30 34 1 1 31
M  V30 35 1 1 32
M  V30 36 1 5 33
M  V30 37 1 6 34
M  V30 38 1 7 35
M  V30 39 1 10 36
M  V30 40 1 11 37
M  V30 41 1 11 38
M  V30 42 1 13 39
M  V30 43 1 14 40
M  V30 44 1 15 41
M  V30 45 1 18 42
M  V30 46 1 18 43
M  V30 47 1 19 44
M  V30 48 1 19 45
M  V30 49 1 21 46
M  V30 50 1 21 47
M  V30 51 1 22 48
M  V30 52 1 22 49
M  V30 53 1 24 50
M  V30 54 1 24 51
M  V30 55 1 25 52
M  V30 56 1 25 53
M  V30 57 1 26 54
M  V30 58 1 28 55
M  V30 END BOND
M  V30 END CTAB
M  END
>  <Dataset>  (595) 
ChEMBL_Kinases

>  <Ligand_Instance>  (595) 
nan

>  <PDB_ID>  (595) 
nan

>  <Standardized_SMILES>  (595) 
NC(=O)c1cccc2c(NCc3cccc(OCCN4CCOCC4)c3)ncnc12

>  <Name>  (595) 
nan

>  <Pocket>  (595) 
nan

>  <ATP_Site>  (595) 
nan

>  <Peripheral>  (595) 
nan

>  <Num_H_Atoms_ProtBoundConf>  (595) 
nan

>  <Num_Resolved_Atoms>  (595) 
nan

>  <Num_Not_Resolved_Atoms>  (595) 
nan

$$$$
CHEMBL3670483
     RDKit          3D

  0  0  0  0  0  0  0  0  0  0999 V3000
M  V30 BEGIN CTAB
M  V30 COUNTS 46 48 0 0 0
M  V30 BEGIN ATOM
M  V30 1 C 4.987200 -5.503310 3.534213 0
M  V30 2 O 4.770301 -4.524467 2.541108 0
M  V30 3 C 3.887785 -4.968600 1.584635 0
M  V30 4 C 3.658759 -3.900263 0.513917 0
M  V30 5 O 3.137093 -2.777885 1.156055 0
M  V30 6 C 2.800939 -1.600549 0.506457 0
M  V30 7 C 2.993016 -1.533859 -0.854445 0
M  V30 8 C 2.644381 -0.345018 -1.452074 0
M  V30 9 C 2.133100 0.735099 -0.775061 0
M  V30 10 C 1.936897 0.678854 0.584777 0
M  V30 11 C 1.397854 1.686856 1.532433 0
M  V30 12 N -0.023850 1.553292 1.763304 0
M  V30 13 C -1.034561 1.686104 0.780858 0
M  V30 14 N -0.798398 1.961492 -0.509156 0
M  V30 15 C -1.745807 2.093283 -1.451561 0
M  V30 16 N -3.048191 1.951457 -1.149048 0
M  V30 17 C -3.350830 1.674255 0.129715 0
M  V30 18 C -4.685823 1.527668 0.442692 0
M  V30 19 C -5.733710 1.665711 -0.560699 0
M  V30 20 N -5.568638 1.956050 -1.940130 0
M  V30 21 O -6.960578 1.539194 -0.315250 0
M  V30 22 C -5.105660 1.241710 1.725176 0
M  V30 23 C -4.122381 1.102862 2.712977 0
M  V30 24 C -2.803962 1.258345 2.351098 0
M  V30 25 C -2.370517 1.540911 1.089600 0
M  V30 26 C 2.288815 -0.528115 1.205455 0
M  V30 27 H 5.399150 -6.416353 3.103672 0
M  V30 28 H 5.712019 -5.066317 4.256041 0
M  V30 29 H 4.034938 -5.721239 4.084599 0
M  V30 30 H 2.905826 -5.207370 2.026064 0
M  V30 31 H 4.313216 -5.881313 1.132195 0
M  V30 32 H 3.000141 -4.292070 -0.285485 0
M  V30 33 H 4.647276 -3.706540 0.009370 0
M  V30 34 H 3.385650 -2.325081 -1.463873 0
M  V30 35 H 2.758692 -0.195210 -2.520120 0
M  V30 36 H 1.855825 1.680431 -1.204123 0
M  V30 37 H 2.011909 1.674456 2.445397 0
M  V30 38 H 1.543801 2.732728 1.113405 0
M  V30 39 H -0.224661 1.344970 2.745986 0
M  V30 40 H -1.448307 2.317303 -2.470091 0
M  V30 41 H -4.860420 1.699587 -2.685728 0
M  V30 42 H -4.858176 1.695297 -2.676105 0
M  V30 43 H -6.146540 1.128943 1.962179 0
M  V30 44 H -4.472695 0.877963 3.715280 0
M  V30 45 H -2.130116 1.135915 3.162469 0
M  V30 46 H 2.177536 -0.693644 2.289723 0
M  V30 END ATOM
M  V30 BEGIN BOND
M  V30 1 1 1 2
M  V30 2 1 2 3
M  V30 3 1 3 4
M  V30 4 1 4 5
M  V30 5 1 5 6
M  V30 6 2 6 7
M  V30 7 1 7 8
M  V30 8 2 8 9
M  V30 9 1 9 10
M  V30 10 1 10 11
M  V30 11 1 11 12
M  V30 12 1 12 13
M  V30 13 2 13 14
M  V30 14 1 14 15
M  V30 15 2 15 16
M  V30 16 1 16 17
M  V30 17 2 17 18
M  V30 18 1 18 19
M  V30 19 1 19 20
M  V30 20 2 19 21
M  V30 21 1 18 22
M  V30 22 2 22 23
M  V30 23 1 23 24
M  V30 24 2 24 25
M  V30 25 2 10 26
M  V30 26 1 26 6
M  V30 27 1 25 13
M  V30 28 1 25 17
M  V30 29 1 1 27
M  V30 30 1 1 28
M  V30 31 1 1 29
M  V30 32 1 3 30
M  V30 33 1 3 31
M  V30 34 1 4 32
M  V30 35 1 4 33
M  V30 36 1 7 34
M  V30 37 1 8 35
M  V30 38 1 9 36
M  V30 39 1 11 37
M  V30 40 1 11 38
M  V30 41 1 12 39
M  V30 42 1 15 40
M  V30 43 1 20 41
M  V30 44 1 20 42
M  V30 45 1 22 43
M  V30 46 1 23 44
M  V30 47 1 24 45
M  V30 48 1 26 46
M  V30 END BOND
M  V30 END CTAB
M  END
>  <Dataset>  (596) 
ChEMBL_Kinases

>  <Ligand_Instance>  (596) 
nan

>  <PDB_ID>  (596) 
nan

>  <Standardized_SMILES>  (596) 
COCCOc1cccc(CNc2ncnc3c(C(N)=O)cccc23)c1

>  <Name>  (596) 
nan

>  <Pocket>  (596) 
nan

>  <ATP_Site>  (596) 
nan

>  <Peripheral>  (596) 
nan

>  <Num_H_Atoms_ProtBoundConf>  (596) 
nan

>  <Num_Resolved_Atoms>  (596) 
nan

>  <Num_Not_Resolved_Atoms>  (596) 
nan

$$$$
CHEMBL3670482
     RDKit          3D

  0  0  0  0  0  0  0  0  0  0999 V3000
M  V30 BEGIN CTAB
M  V30 COUNTS 42 44 0 0 0
M  V30 BEGIN ATOM
M  V30 1 C -1.170285 -2.835482 0.062542 0
M  V30 2 O -0.219602 -2.625172 -0.948151 0
M  V30 3 C 0.659119 -1.585272 -1.044961 0
M  V30 4 C 1.561407 -1.505352 -2.120516 0
M  V30 5 C 2.467414 -0.438618 -2.224909 0
M  V30 6 C 3.262835 -0.580631 -3.397156 0
M  V30 7 N 3.871972 -0.942523 -4.551306 0
M  V30 8 O 4.064998 0.436460 -3.404518 0
M  V30 9 C 2.472411 0.536935 -1.266170 0
M  V30 10 N 3.360011 1.497997 -1.452585 0
M  V30 11 C 3.500010 2.520918 -0.622840 0
M  V30 12 N 2.669810 2.495774 0.412356 0
M  V30 13 C 1.746430 1.566302 0.676240 0
M  V30 14 N 0.849265 1.555374 1.801651 0
M  V30 15 C -0.029022 1.544711 2.903416 0
M  V30 16 C -0.992334 0.394401 2.961373 0
M  V30 17 C -2.249275 0.364309 2.405176 0
M  V30 18 C -3.074683 -0.733809 2.525035 0
M  V30 19 C -2.633747 -1.852299 3.227856 0
M  V30 20 Cl -3.770507 -3.166625 3.301796 0
M  V30 21 C -1.386050 -1.846663 3.789766 0
M  V30 22 C -1.003361 -3.082862 4.515415 0
M  V30 23 F -1.077564 -4.114468 3.580616 0
M  V30 24 F 0.317671 -3.001492 4.922369 0
M  V30 25 F -1.860100 -3.285933 5.550495 0
M  V30 26 C -0.583682 -0.747332 3.659076 0
M  V30 27 C 1.613600 0.500030 -0.204299 0
M  V30 28 C 0.767966 -0.545768 -0.156278 0
M  V30 29 H -1.161047 -3.935561 0.312519 0
M  V30 30 H -0.898274 -2.289903 0.967049 0
M  V30 31 H -2.201484 -2.576394 -0.299794 0
M  V30 32 H 1.471563 -2.344458 -2.834438 0
M  V30 33 H 4.726387 -1.569351 -4.680443 0
M  V30 34 H 3.617705 -0.689696 -5.554691 0
M  V30 35 H 4.147224 3.388010 -0.594109 0
M  V30 36 H 1.215605 2.478812 2.212911 0
M  V30 37 H 0.567299 1.507060 3.877868 0
M  V30 38 H -0.650126 2.487627 3.006939 0
M  V30 39 H -2.562893 1.245381 1.865500 0
M  V30 40 H -4.044715 -0.630122 2.037985 0
M  V30 41 H 0.398795 -0.821122 4.139156 0
M  V30 42 H 0.104145 -0.565739 0.673773 0
M  V30 END ATOM
M  V30 BEGIN BOND
M  V30 1 1 1 2
M  V30 2 1 2 3
M  V30 3 2 3 4
M  V30 4 1 4 5
M  V30 5 1 5 6
M  V30 6 1 6 7
M  V30 7 2 6 8
M  V30 8 2 5 9
M  V30 9 1 9 10
M  V30 10 2 10 11
M  V30 11 1 11 12
M  V30 12 2 12 13
M  V30 13 1 13 14
M  V30 14 1 14 15
M  V30 15 1 15 16
M  V30 16 2 16 17
M  V30 17 1 17 18
M  V30 18 2 18 19
M  V30 19 1 19 20
M  V30 20 1 19 21
M  V30 21 1 21 22
M  V30 22 1 22 23
M  V30 23 1 22 24
M  V30 24 1 22 25
M  V30 25 2 21 26
M  V30 26 1 13 27
M  V30 27 2 27 28
M  V30 28 1 28 3
M  V30 29 1 27 9
M  V30 30 1 26 16
M  V30 31 1 1 29
M  V30 32 1 1 30
M  V30 33 1 1 31
M  V30 34 1 4 32
M  V30 35 1 7 33
M  V30 36 1 7 34
M  V30 37 1 11 35
M  V30 38 1 14 36
M  V30 39 1 15 37
M  V30 40 1 15 38
M  V30 41 1 17 39
M  V30 42 1 18 40
M  V30 43 1 26 41
M  V30 44 1 28 42
M  V30 END BOND
M  V30 END CTAB
M  END
>  <Dataset>  (597) 
ChEMBL_Kinases

>  <Ligand_Instance>  (597) 
nan

>  <PDB_ID>  (597) 
nan

>  <Standardized_SMILES>  (597) 
COc1cc(C(N)=O)c2ncnc(NCc3ccc(Cl)c(C(F)(F)F)c3)c2c1

>  <Name>  (597) 
nan

>  <Pocket>  (597) 
nan

>  <ATP_Site>  (597) 
nan

>  <Peripheral>  (597) 
nan

>  <Num_H_Atoms_ProtBoundConf>  (597) 
nan

>  <Num_Resolved_Atoms>  (597) 
nan

>  <Num_Not_Resolved_Atoms>  (597) 
nan

$$$$
CHEMBL3670481
     RDKit          3D

  0  0  0  0  0  0  0  0  0  0999 V3000
M  V30 BEGIN CTAB
M  V30 COUNTS 44 47 0 0 0
M  V30 BEGIN ATOM
M  V30 1 N 0.745393 -6.292430 1.239119 0
M  V30 2 C 1.946851 -5.937505 0.564373 0
M  V30 3 O 2.819755 -6.816801 0.355949 0
M  V30 4 C 2.206966 -4.578917 0.100661 0
M  V30 5 C 3.402247 -4.335812 -0.543480 0
M  V30 6 C 3.672062 -3.042508 -0.995731 0
M  V30 7 C 2.729854 -2.059766 -0.778947 0
M  V30 8 C 1.530592 -2.259297 -0.143657 0
M  V30 9 C 0.633082 -1.218277 0.036859 0
M  V30 10 N 0.898128 0.101697 -0.419648 0
M  V30 11 C -0.134005 1.088357 -0.159895 0 CFG=2
M  V30 12 C 0.308477 2.397899 -0.700225 0
M  V30 13 N -0.611132 3.490598 -0.521637 0
M  V30 14 C -0.663197 4.341915 0.532522 0
M  V30 15 C -1.702291 5.247578 0.299137 0
M  V30 16 N -2.225324 4.893096 -0.890031 0
M  V30 17 N -1.562749 3.848114 -1.359468 0
M  V30 18 C -0.480691 1.128076 1.276896 0
M  V30 19 C -1.784408 1.166357 1.711434 0
M  V30 20 C -2.243266 1.205483 3.012151 0
M  V30 21 C -1.208447 1.203869 3.954576 0
M  V30 22 C 0.123396 1.166672 3.596097 0
M  V30 23 C 0.484973 1.129014 2.265617 0
M  V30 24 N -0.500043 -1.540457 0.670240 0
M  V30 25 C -0.714464 -2.798931 1.086801 0
M  V30 26 N 0.157562 -3.836097 0.917775 0
M  V30 27 C 1.311222 -3.555451 0.284655 0
M  V30 28 H 0.173064 -5.937964 2.033804 0
M  V30 29 H 0.226715 -7.136700 0.905779 0
M  V30 30 H 4.131594 -5.120754 -0.705273 0
M  V30 31 H 4.614094 -2.862505 -1.500541 0
M  V30 32 H 3.010207 -1.108552 -1.151588 0
M  V30 33 H 1.750745 0.393613 -0.908482 0
M  V30 34 H -1.060593 0.790030 -0.704165 0
M  V30 35 H 0.523855 2.267754 -1.780333 0
M  V30 36 H 1.286944 2.663308 -0.237140 0
M  V30 37 H 0.038249 4.248247 1.374750 0
M  V30 38 H -1.856942 5.996387 1.076454 0
M  V30 39 H -2.545449 1.165458 0.925150 0
M  V30 40 H -3.281978 1.233547 3.249254 0
M  V30 41 H -1.483953 1.233528 5.012007 0
M  V30 42 H 0.900272 1.166601 4.354620 0
M  V30 43 H 1.519202 1.099383 1.953697 0
M  V30 44 H -1.688686 -2.898676 1.587448 0
M  V30 END ATOM
M  V30 BEGIN BOND
M  V30 1 1 1 2
M  V30 2 2 2 3
M  V30 3 1 2 4
M  V30 4 2 4 5
M  V30 5 1 5 6
M  V30 6 2 6 7
M  V30 7 1 7 8
M  V30 8 2 8 9
M  V30 9 1 9 10
M  V30 10 1 10 11
M  V30 11 1 11 12
M  V30 12 1 12 13
M  V30 13 1 13 14
M  V30 14 2 14 15
M  V30 15 1 15 16
M  V30 16 2 16 17
M  V30 17 1 11 18
M  V30 18 2 18 19
M  V30 19 1 19 20
M  V30 20 2 20 21
M  V30 21 1 21 22
M  V30 22 2 22 23
M  V30 23 1 9 24
M  V30 24 2 24 25
M  V30 25 1 25 26
M  V30 26 2 26 27
M  V30 27 1 27 4
M  V30 28 1 27 8
M  V30 29 1 17 13
M  V30 30 1 23 18
M  V30 31 1 1 28
M  V30 32 1 1 29
M  V30 33 1 5 30
M  V30 34 1 6 31
M  V30 35 1 7 32
M  V30 36 1 10 33
M  V30 37 1 11 34 CFG=3
M  V30 38 1 12 35
M  V30 39 1 12 36
M  V30 40 1 14 37
M  V30 41 1 15 38
M  V30 42 1 19 39
M  V30 43 1 20 40
M  V30 44 1 21 41
M  V30 45 1 22 42
M  V30 46 1 23 43
M  V30 47 1 25 44
M  V30 END BOND
M  V30 END CTAB
M  END
>  <Dataset>  (598) 
ChEMBL_Kinases

>  <Ligand_Instance>  (598) 
nan

>  <PDB_ID>  (598) 
nan

>  <Standardized_SMILES>  (598) 
NC(=O)c1cccc2c(N[C@H](Cn3ccnn3)c3ccccc3)ncnc12

>  <Name>  (598) 
nan

>  <Pocket>  (598) 
nan

>  <ATP_Site>  (598) 
nan

>  <Peripheral>  (598) 
nan

>  <Num_H_Atoms_ProtBoundConf>  (598) 
nan

>  <Num_Resolved_Atoms>  (598) 
nan

>  <Num_Not_Resolved_Atoms>  (598) 
nan

$$$$
CHEMBL3670480
     RDKit          3D

  0  0  0  0  0  0  0  0  0  0999 V3000
M  V30 BEGIN CTAB
M  V30 COUNTS 56 59 0 0 0
M  V30 BEGIN ATOM
M  V30 1 C 6.936693 -2.168856 5.679847 0
M  V30 2 O 5.960460 -2.466262 4.708015 0
M  V30 3 C 5.523688 -1.603404 3.727764 0
M  V30 4 C 5.931218 -0.300728 3.470541 0
M  V30 5 C 5.404150 0.451948 2.449384 0
M  V30 6 C 4.435687 -0.077299 1.636757 0
M  V30 7 C 3.718861 0.534549 0.489045 0
M  V30 8 C 2.497919 1.221894 1.043114 0
M  V30 9 O 2.100918 1.418167 2.226132 0
M  V30 10 N 1.659217 1.722043 0.014119 0
M  V30 11 C 0.423884 2.429919 0.054120 0
M  V30 12 C 0.077393 3.783334 -0.091075 0
M  V30 13 C -1.246518 4.137829 0.025152 0
M  V30 14 C -2.292611 3.262823 0.278545 0
M  V30 15 C -1.932339 1.946169 0.420051 0
M  V30 16 C -3.031065 0.952920 0.704623 0
M  V30 17 N -3.519024 0.185759 -0.340789 0
M  V30 18 C -4.019047 -0.589491 -1.412322 0
M  V30 19 N -4.556339 -0.236370 -2.607432 0
M  V30 20 C -4.971624 -1.151921 -3.484674 0
M  V30 21 N -4.855780 -2.442939 -3.184318 0
M  V30 22 C -4.344191 -2.891568 -2.042733 0
M  V30 23 C -4.269306 -4.227841 -1.815867 0
M  V30 24 C -4.744815 -5.142226 -2.818570 0
M  V30 25 N -5.240266 -4.637033 -4.033789 0
M  V30 26 O -5.030739 -6.219363 -3.359752 0
M  V30 27 C -3.756366 -4.755052 -0.648625 0
M  V30 28 C -3.316325 -3.851833 0.285471 0
M  V30 29 C -3.405951 -2.524019 0.024569 0
M  V30 30 C -3.918602 -1.959585 -1.139633 0
M  V30 31 C -0.625268 1.526301 0.313391 0
M  V30 32 C 3.995160 -1.392149 1.862561 0
M  V30 33 C 4.533309 -2.156199 2.903017 0
M  V30 34 H 7.782697 -1.615646 5.221207 0
M  V30 35 H 6.499233 -1.502964 6.479144 0
M  V30 36 H 7.286800 -3.085799 6.203670 0
M  V30 37 H 6.693396 0.082290 4.128070 0
M  V30 38 H 5.703497 1.448759 2.235802 0
M  V30 39 H 3.434848 -0.199195 -0.290875 0
M  V30 40 H 4.382697 1.286650 -0.012196 0
M  V30 41 H 1.709513 1.709760 -1.035004 0
M  V30 42 H 0.961020 4.347600 -0.279585 0
M  V30 43 H -1.382595 5.211627 -0.108448 0
M  V30 44 H -3.295541 3.668362 0.348270 0
M  V30 45 H -2.536729 0.270261 1.483487 0
M  V30 46 H -3.784726 1.500391 1.341303 0
M  V30 47 H -3.727858 1.138552 -0.789533 0
M  V30 48 H -5.363773 -0.680569 -4.360120 0
M  V30 49 H -5.447635 -4.328756 -5.009355 0
M  V30 50 H -5.570017 -4.280983 -4.933127 0
M  V30 51 H -3.751615 -5.814176 -0.585894 0
M  V30 52 H -2.912872 -4.234648 1.197267 0
M  V30 53 H -3.060390 -1.866364 0.784423 0
M  V30 54 H -0.506477 0.444642 0.450437 0
M  V30 55 H 3.231402 -1.896087 1.269128 0
M  V30 56 H 4.156245 -3.189083 3.048136 0
M  V30 END ATOM
M  V30 BEGIN BOND
M  V30 1 1 1 2
M  V30 2 1 2 3
M  V30 3 2 3 4
M  V30 4 1 4 5
M  V30 5 2 5 6
M  V30 6 1 6 7
M  V30 7 1 7 8
M  V30 8 2 8 9
M  V30 9 1 8 10
M  V30 10 1 10 11
M  V30 11 2 11 12
M  V30 12 1 12 13
M  V30 13 2 13 14
M  V30 14 1 14 15
M  V30 15 1 15 16
M  V30 16 1 16 17
M  V30 17 1 17 18
M  V30 18 2 18 19
M  V30 19 1 19 20
M  V30 20 2 20 21
M  V30 21 1 21 22
M  V30 22 2 22 23
M  V30 23 1 23 24
M  V30 24 1 24 25
M  V30 25 2 24 26
M  V30 26 1 23 27
M  V30 27 2 27 28
M  V30 28 1 28 29
M  V30 29 2 29 30
M  V30 30 2 15 31
M  V30 31 1 6 32
M  V30 32 2 32 33
M  V30 33 1 33 3
M  V30 34 1 31 11
M  V30 35 1 30 18
M  V30 36 1 30 22
M  V30 37 1 1 34
M  V30 38 1 1 35
M  V30 39 1 1 36
M  V30 40 1 4 37
M  V30 41 1 5 38
M  V30 42 1 7 39
M  V30 43 1 7 40
M  V30 44 1 10 41
M  V30 45 1 12 42
M  V30 46 1 13 43
M  V30 47 1 14 44
M  V30 48 1 16 45
M  V30 49 1 16 46
M  V30 50 1 17 47
M  V30 51 1 20 48
M  V30 52 1 25 49
M  V30 53 1 25 50
M  V30 54 1 27 51
M  V30 55 1 28 52
M  V30 56 1 29 53
M  V30 57 1 31 54
M  V30 58 1 32 55
M  V30 59 1 33 56
M  V30 END BOND
M  V30 END CTAB
M  END
>  <Dataset>  (599) 
ChEMBL_Kinases

>  <Ligand_Instance>  (599) 
nan

>  <PDB_ID>  (599) 
nan

>  <Standardized_SMILES>  (599) 
COc1ccc(CC(=O)Nc2cccc(CNc3ncnc4c(C(N)=O)cccc34)c2)cc1

>  <Name>  (599) 
nan

>  <Pocket>  (599) 
nan

>  <ATP_Site>  (599) 
nan

>  <Peripheral>  (599) 
nan

>  <Num_H_Atoms_ProtBoundConf>  (599) 
nan

>  <Num_Resolved_Atoms>  (599) 
nan

>  <Num_Not_Resolved_Atoms>  (599) 
nan

$$$$
CHEMBL3670456
     RDKit          3D

  0  0  0  0  0  0  0  0  0  0999 V3000
M  V30 BEGIN CTAB
M  V30 COUNTS 38 40 0 0 0
M  V30 BEGIN ATOM
M  V30 1 C -1.723399 -2.903765 2.976753 0
M  V30 2 C -0.899539 -2.869483 1.759117 0
M  V30 3 C -0.356433 -4.041837 1.301742 0
M  V30 4 C 0.413017 -4.004966 0.162643 0
M  V30 5 C 0.996714 -5.240024 -0.339062 0
M  V30 6 N 0.777276 -6.475824 0.328459 0
M  V30 7 O 1.725259 -5.561831 -1.308829 0
M  V30 8 C 0.608006 -2.799591 -0.471574 0
M  V30 9 N 1.351216 -2.799221 -1.564313 0
M  V30 10 C 1.599879 -1.685849 -2.253370 0
M  V30 11 N 1.114463 -0.500464 -1.884015 0
M  V30 12 C 0.349955 -0.425457 -0.781512 0
M  V30 13 N -0.274424 0.709325 -0.184638 0
M  V30 14 C -0.879213 1.808731 0.393443 0
M  V30 15 C -0.032107 2.946307 0.851278 0
M  V30 16 C 0.502155 3.016582 2.144866 0
M  V30 17 C 1.276644 4.104750 2.492309 0
M  V30 18 C 1.519082 5.097419 1.591168 0
M  V30 19 C 1.020244 5.089401 0.294421 0
M  V30 20 F 1.283895 6.087664 -0.557501 0
M  V30 21 C 0.247488 3.984668 -0.023149 0
M  V30 22 C 0.090484 -1.588955 -0.062418 0
M  V30 23 C -0.665165 -1.698966 1.077258 0
M  V30 24 H -1.986886 -1.859064 3.264162 0
M  V30 25 H -1.214070 -3.470601 3.784789 0
M  V30 26 H -2.667520 -3.426507 2.719392 0
M  V30 27 H -0.520858 -4.974431 1.811717 0
M  V30 28 H 0.982411 -6.503270 1.338501 0
M  V30 29 H 0.997275 -6.472664 1.366614 0
M  V30 30 H 2.205810 -1.715587 -3.136103 0
M  V30 31 H 0.060573 1.441529 -0.898851 0
M  V30 32 H -1.360700 1.458011 1.376319 0
M  V30 33 H -1.807998 2.171299 -0.154063 0
M  V30 34 H 0.245359 2.174292 2.775186 0
M  V30 35 H 1.629769 4.047735 3.507897 0
M  V30 36 H 2.131375 5.915518 1.930488 0
M  V30 37 H -0.145723 3.972998 -1.037930 0
M  V30 38 H -1.119597 -0.829005 1.490987 0
M  V30 END ATOM
M  V30 BEGIN BOND
M  V30 1 1 1 2
M  V30 2 2 2 3
M  V30 3 1 3 4
M  V30 4 1 4 5
M  V30 5 1 5 6
M  V30 6 2 5 7
M  V30 7 2 4 8
M  V30 8 1 8 9
M  V30 9 2 9 10
M  V30 10 1 10 11
M  V30 11 2 11 12
M  V30 12 1 12 13
M  V30 13 1 13 14
M  V30 14 1 14 15
M  V30 15 2 15 16
M  V30 16 1 16 17
M  V30 17 2 17 18
M  V30 18 1 18 19
M  V30 19 1 19 20
M  V30 20 2 19 21
M  V30 21 1 12 22
M  V30 22 2 22 23
M  V30 23 1 23 2
M  V30 24 1 22 8
M  V30 25 1 21 15
M  V30 26 1 1 24
M  V30 27 1 1 25
M  V30 28 1 1 26
M  V30 29 1 3 27
M  V30 30 1 6 28
M  V30 31 1 6 29
M  V30 32 1 10 30
M  V30 33 1 13 31
M  V30 34 1 14 32
M  V30 35 1 14 33
M  V30 36 1 16 34
M  V30 37 1 17 35
M  V30 38 1 18 36
M  V30 39 1 21 37
M  V30 40 1 23 38
M  V30 END BOND
M  V30 END CTAB
M  END
>  <Dataset>  (600) 
ChEMBL_Kinases

>  <Ligand_Instance>  (600) 
nan

>  <PDB_ID>  (600) 
nan

>  <Standardized_SMILES>  (600) 
Cc1cc(C(N)=O)c2ncnc(NCc3cccc(F)c3)c2c1

>  <Name>  (600) 
nan

>  <Pocket>  (600) 
nan

>  <ATP_Site>  (600) 
nan

>  <Peripheral>  (600) 
nan

>  <Num_H_Atoms_ProtBoundConf>  (600) 
nan

>  <Num_Resolved_Atoms>  (600) 
nan

>  <Num_Not_Resolved_Atoms>  (600) 
nan

$$$$
CHEMBL3670475
     RDKit          3D

  0  0  0  0  0  0  0  0  0  0999 V3000
M  V30 BEGIN CTAB
M  V30 COUNTS 49 52 0 0 0
M  V30 BEGIN ATOM
M  V30 1 N 4.700481 -4.992175 5.867197 0
M  V30 2 C 4.399299 -4.687726 4.526437 0
M  V30 3 O 4.886271 -5.583173 3.814503 0
M  V30 4 C 3.644382 -3.516348 4.082084 0
M  V30 5 C 3.143703 -2.574594 4.969309 0
M  V30 6 C 2.448750 -1.515377 4.426308 0
M  V30 7 C 2.246257 -1.374597 3.067085 0
M  V30 8 C 2.744128 -2.310154 2.191427 0
M  V30 9 C 2.525558 -2.142028 0.840909 0
M  V30 10 N 1.807849 -1.049678 0.272143 0
M  V30 11 C 1.663551 -1.017608 -1.183738 0
M  V30 12 C 0.899683 0.166662 -1.619829 0
M  V30 13 C 1.598189 1.306327 -1.895288 0
M  V30 14 C 0.967270 2.462792 -2.309053 0
M  V30 15 C -0.422126 2.458775 -2.447058 0
M  V30 16 C -1.100892 1.300252 -2.163929 0
M  V30 17 N -2.533599 1.176011 -2.269210 0
M  V30 18 C -3.075789 1.535482 -0.988258 0
M  V30 19 O -2.143374 1.844947 -0.177088 0
M  V30 20 C -4.526475 1.533833 -0.691355 0
M  V30 21 C -5.515891 1.195555 -1.591875 0
M  V30 22 C -6.814989 1.251412 -1.138323 0
M  V30 23 C -7.174041 1.620993 0.145792 0
M  V30 24 C -6.128500 1.953029 1.014184 0
M  V30 25 C -4.810573 1.911866 0.604741 0
M  V30 26 C -0.473643 0.123565 -1.744414 0
M  V30 27 N 3.047363 -3.103098 0.063010 0
M  V30 28 C 3.719482 -4.131166 0.561795 0
M  V30 29 N 3.919173 -4.273243 1.878350 0
M  V30 30 C 3.437328 -3.364710 2.747117 0
M  V30 31 H 4.431294 -5.723804 6.563223 0
M  V30 32 H 5.307856 -4.561716 6.599802 0
M  V30 33 H 3.319053 -2.713440 6.025170 0
M  V30 34 H 2.076505 -0.804425 5.163746 0
M  V30 35 H 1.689448 -0.511015 2.738708 0
M  V30 36 H 1.377067 -0.275400 0.778821 0
M  V30 37 H 1.079745 -1.920393 -1.483399 0
M  V30 38 H 2.667484 -1.064529 -1.640899 0
M  V30 39 H 2.668630 1.399040 -1.816139 0
M  V30 40 H 1.448192 3.394411 -2.543206 0
M  V30 41 H -0.961108 3.318793 -2.761723 0
M  V30 42 H -3.217590 0.897053 -3.033240 0
M  V30 43 H -5.205376 0.915663 -2.572475 0
M  V30 44 H -7.596124 0.981874 -1.857600 0
M  V30 45 H -8.221566 1.637624 0.418494 0
M  V30 46 H -6.418165 2.241625 2.018535 0
M  V30 47 H -4.074111 2.188516 1.356177 0
M  V30 48 H -1.012667 -0.785840 -1.522790 0
M  V30 49 H 4.155508 -4.927312 -0.038576 0
M  V30 END ATOM
M  V30 BEGIN BOND
M  V30 1 1 1 2
M  V30 2 2 2 3
M  V30 3 1 2 4
M  V30 4 2 4 5
M  V30 5 1 5 6
M  V30 6 2 6 7
M  V30 7 1 7 8
M  V30 8 2 8 9
M  V30 9 1 9 10
M  V30 10 1 10 11
M  V30 11 1 11 12
M  V30 12 2 12 13
M  V30 13 1 13 14
M  V30 14 2 14 15
M  V30 15 1 15 16
M  V30 16 1 16 17
M  V30 17 1 17 18
M  V30 18 2 18 19
M  V30 19 1 18 20
M  V30 20 2 20 21
M  V30 21 1 21 22
M  V30 22 2 22 23
M  V30 23 1 23 24
M  V30 24 2 24 25
M  V30 25 2 16 26
M  V30 26 1 9 27
M  V30 27 2 27 28
M  V30 28 1 28 29
M  V30 29 2 29 30
M  V30 30 1 30 4
M  V30 31 1 30 8
M  V30 32 1 26 12
M  V30 33 1 25 20
M  V30 34 1 1 31
M  V30 35 1 1 32
M  V30 36 1 5 33
M  V30 37 1 6 34
M  V30 38 1 7 35
M  V30 39 1 10 36
M  V30 40 1 11 37
M  V30 41 1 11 38
M  V30 42 1 13 39
M  V30 43 1 14 40
M  V30 44 1 15 41
M  V30 45 1 17 42
M  V30 46 1 21 43
M  V30 47 1 22 44
M  V30 48 1 23 45
M  V30 49 1 24 46
M  V30 50 1 25 47
M  V30 51 1 26 48
M  V30 52 1 28 49
M  V30 END BOND
M  V30 END CTAB
M  END
>  <Dataset>  (601) 
ChEMBL_Kinases

>  <Ligand_Instance>  (601) 
nan

>  <PDB_ID>  (601) 
nan

>  <Standardized_SMILES>  (601) 
NC(=O)c1cccc2c(NCc3cccc(NC(=O)c4ccccc4)c3)ncnc12

>  <Name>  (601) 
nan

>  <Pocket>  (601) 
nan

>  <ATP_Site>  (601) 
nan

>  <Peripheral>  (601) 
nan

>  <Num_H_Atoms_ProtBoundConf>  (601) 
nan

>  <Num_Resolved_Atoms>  (601) 
nan

>  <Num_Not_Resolved_Atoms>  (601) 
nan

$$$$
CHEMBL3393654
     RDKit          3D

  0  0  0  0  0  0  0  0  0  0999 V3000
M  V30 BEGIN CTAB
M  V30 COUNTS 82 82 0 0 0
M  V30 BEGIN ATOM
M  V30 1 C 5.336394 -1.309333 6.705125 0
M  V30 2 C 4.533679 -1.048181 5.452218 0
M  V30 3 C 3.116695 -1.443557 5.702952 0
M  V30 4 C 2.186301 -1.241490 4.537713 0
M  V30 5 C 2.089109 0.185135 4.067761 0
M  V30 6 C 1.134604 0.205110 2.925391 0
M  V30 7 C 1.303258 0.578803 1.643418 0
M  V30 8 C 0.209820 0.524248 0.636553 0
M  V30 9 C -0.119010 1.831099 0.035597 0
M  V30 10 C -0.016929 2.078602 -1.277790 0
M  V30 11 C -0.243716 3.192460 -2.169300 0
M  V30 12 C -0.756866 4.467809 -1.758205 0
M  V30 13 C -2.141504 4.706663 -1.380483 0
M  V30 14 C -2.961170 4.032623 -0.393594 0
M  V30 15 C -3.416492 2.632729 -0.623592 0
M  V30 16 C -4.296146 2.295645 0.601377 0
M  V30 17 C -4.874938 0.928348 0.544615 0
M  V30 18 C -3.924199 -0.181536 0.524989 0
M  V30 19 O -3.326834 -0.253880 1.621918 0
M  V30 20 O -3.565328 -1.128463 -0.416298 0
M  V30 21 C -2.600171 -2.117235 -0.180107 0
M  V30 22 C -2.497436 -2.957875 -1.445657 0
M  V30 23 C -3.785785 -3.703663 -1.657461 0
M  V30 24 O -4.883477 -2.917156 -1.887245 0
M  V30 25 C -1.414984 -4.029128 -1.260822 0
M  V30 26 C -0.218657 -3.351987 -1.846758 0
M  V30 27 C 1.067791 -3.419494 -1.617327 0
M  V30 28 C 2.159680 -2.694760 -2.266506 0
M  V30 29 C 3.141002 -3.626835 -2.956356 0
M  V30 30 C 2.429432 -4.446711 -4.030578 0
M  V30 31 C 4.225668 -2.824536 -3.625540 0
M  V30 32 C -0.786175 -2.484873 -2.856446 0
M  V30 33 O -0.153710 -2.086176 -3.895166 0
M  V30 34 O -2.111649 -2.160447 -2.518218 0
M  V30 35 H 5.511775 -0.381962 7.289089 0
M  V30 36 H 6.275397 -1.823912 6.440005 0
M  V30 37 H 4.772564 -2.019189 7.343697 0
M  V30 38 H 4.632969 0.058437 5.251760 0
M  V30 39 H 5.008663 -1.617824 4.627072 0
M  V30 40 H 3.135282 -2.561200 5.873153 0
M  V30 41 H 2.756314 -1.013388 6.634216 0
M  V30 42 H 2.441251 -1.941333 3.700061 0
M  V30 43 H 1.179378 -1.587325 4.878368 0
M  V30 44 H 1.631415 0.778555 4.888590 0
M  V30 45 H 3.094119 0.562837 3.795125 0
M  V30 46 H 0.144394 -0.158415 3.249685 0
M  V30 47 H 2.317661 0.907920 1.480564 0
M  V30 48 H 0.489419 -0.181616 -0.144541 0
M  V30 49 H -0.690011 0.184857 1.183351 0
M  V30 50 H -0.470674 2.736203 0.520914 0
M  V30 51 H 0.342141 1.174608 -1.823463 0
M  V30 52 H 0.728951 3.315759 -2.763994 0
M  V30 53 H -0.925410 2.785971 -2.997195 0
M  V30 54 H -0.042648 5.020596 -1.032416 0
M  V30 55 H -0.586319 5.177296 -2.669056 0
M  V30 56 H -2.748658 4.721979 -2.401752 0
M  V30 57 H -2.278110 5.865763 -1.175790 0
M  V30 58 H -3.922828 4.630512 -0.198303 0
M  V30 59 H -2.475104 4.098203 0.629300 0
M  V30 60 H -4.084942 2.599379 -1.535771 0
M  V30 61 H -2.724298 1.837960 -0.737481 0
M  V30 62 H -3.628488 2.461507 1.476754 0
M  V30 63 H -5.103970 3.031867 0.595686 0
M  V30 64 H -5.528952 0.834492 1.463380 0
M  V30 65 H -5.563095 0.903779 -0.340234 0
M  V30 66 H -1.617713 -1.735723 0.103122 0
M  V30 67 H -3.024677 -2.767673 0.638191 0
M  V30 68 H -3.652543 -4.389912 -2.522309 0
M  V30 69 H -3.911293 -4.362338 -0.760689 0
M  V30 70 H -4.684443 -2.026473 -2.262223 0
M  V30 71 H -1.671240 -4.970367 -1.780058 0
M  V30 72 H -1.300385 -4.204008 -0.182835 0
M  V30 73 H 1.370669 -4.116765 -0.828107 0
M  V30 74 H 1.896749 -1.857099 -2.903674 0
M  V30 75 H 2.765436 -2.235018 -1.425178 0
M  V30 76 H 3.592939 -4.340046 -2.238388 0
M  V30 77 H 3.124640 -5.227398 -4.399635 0
M  V30 78 H 2.119485 -3.811200 -4.862910 0
M  V30 79 H 1.570079 -4.984003 -3.554672 0
M  V30 80 H 5.103853 -3.463607 -3.881266 0
M  V30 81 H 4.622411 -2.012952 -3.001039 0
M  V30 82 H 3.863212 -2.388851 -4.601562 0
M  V30 END ATOM
M  V30 BEGIN BOND
M  V30 1 1 1 2
M  V30 2 1 2 3
M  V30 3 1 3 4
M  V30 4 1 4 5
M  V30 5 1 5 6
M  V30 6 2 6 7
M  V30 7 1 7 8
M  V30 8 1 8 9
M  V30 9 2 9 10
M  V30 10 1 10 11
M  V30 11 1 11 12
M  V30 12 1 12 13
M  V30 13 1 13 14
M  V30 14 1 14 15
M  V30 15 1 15 16
M  V30 16 1 16 17
M  V30 17 1 17 18
M  V30 18 2 18 19
M  V30 19 1 18 20
M  V30 20 1 20 21
M  V30 21 1 21 22
M  V30 22 1 22 23
M  V30 23 1 23 24
M  V30 24 1 22 25
M  V30 25 1 25 26
M  V30 26 2 26 27
M  V30 27 1 27 28
M  V30 28 1 28 29
M  V30 29 1 29 30
M  V30 30 1 29 31
M  V30 31 1 26 32
M  V30 32 2 32 33
M  V30 33 1 32 34
M  V30 34 1 34 22
M  V30 35 1 1 35
M  V30 36 1 1 36
M  V30 37 1 1 37
M  V30 38 1 2 38
M  V30 39 1 2 39
M  V30 40 1 3 40
M  V30 41 1 3 41
M  V30 42 1 4 42
M  V30 43 1 4 43
M  V30 44 1 5 44
M  V30 45 1 5 45
M  V30 46 1 6 46
M  V30 47 1 7 47
M  V30 48 1 8 48
M  V30 49 1 8 49
M  V30 50 1 9 50
M  V30 51 1 10 51
M  V30 52 1 11 52
M  V30 53 1 11 53
M  V30 54 1 12 54
M  V30 55 1 12 55
M  V30 56 1 13 56
M  V30 57 1 13 57
M  V30 58 1 14 58
M  V30 59 1 14 59
M  V30 60 1 15 60
M  V30 61 1 15 61
M  V30 62 1 16 62
M  V30 63 1 16 63
M  V30 64 1 17 64
M  V30 65 1 17 65
M  V30 66 1 21 66
M  V30 67 1 21 67
M  V30 68 1 23 68
M  V30 69 1 23 69
M  V30 70 1 24 70
M  V30 71 1 25 71
M  V30 72 1 25 72
M  V30 73 1 27 73
M  V30 74 1 28 74
M  V30 75 1 28 75
M  V30 76 1 29 76
M  V30 77 1 30 77
M  V30 78 1 30 78
M  V30 79 1 30 79
M  V30 80 1 31 80
M  V30 81 1 31 81
M  V30 82 1 31 82
M  V30 END BOND
M  V30 END CTAB
M  END
>  <Dataset>  (602) 
ChEMBL_Kinases

>  <Ligand_Instance>  (602) 
nan

>  <PDB_ID>  (602) 
nan

>  <Standardized_SMILES>  (602) 
CCCCC/C=C/C/C=C/CCCCCCCC(=O)OCC1(CO)C/C(=C/CC(C)C)C(=O)O1

>  <Name>  (602) 
nan

>  <Pocket>  (602) 
nan

>  <ATP_Site>  (602) 
nan

>  <Peripheral>  (602) 
nan

>  <Num_H_Atoms_ProtBoundConf>  (602) 
nan

>  <Num_Resolved_Atoms>  (602) 
nan

>  <Num_Not_Resolved_Atoms>  (602) 
nan

$$$$
CHEMBL3670469
     RDKit          3D

  0  0  0  0  0  0  0  0  0  0999 V3000
M  V30 BEGIN CTAB
M  V30 COUNTS 53 56 0 0 0
M  V30 BEGIN ATOM
M  V30 1 N -8.724441 -0.475833 -2.784932 0
M  V30 2 C -7.623159 -1.064371 -2.119096 0
M  V30 3 O -7.560215 -2.319711 -2.337464 0
M  V30 4 C -6.672754 -0.331690 -1.284087 0
M  V30 5 C -6.800788 1.028246 -1.090436 0
M  V30 6 C -5.864597 1.649074 -0.289424 0
M  V30 7 C -4.859158 0.891669 0.272011 0
M  V30 8 C -4.704918 -0.463825 0.098102 0
M  V30 9 C -3.677963 -1.167778 0.686134 0
M  V30 10 N -2.716097 -0.538232 1.509864 0
M  V30 11 C -1.606855 -1.202514 2.163315 0
M  V30 12 C -0.655671 -1.839671 1.230252 0
M  V30 13 C -0.626579 -3.145591 0.787837 0
M  V30 14 C 0.331328 -3.581147 -0.103815 0
M  V30 15 C 1.314964 -2.739491 -0.604804 0
M  V30 16 C 1.297790 -1.431547 -0.170581 0
M  V30 17 N 2.309701 -0.577405 -0.690522 0
M  V30 18 C 3.607945 -0.295667 -0.201802 0
M  V30 19 O 4.068662 -0.813037 0.847894 0
M  V30 20 C 4.471471 0.630368 -0.925174 0
M  V30 21 C 5.732163 0.869253 -0.409432 0
M  V30 22 C 6.623223 1.742312 -1.038830 0
M  V30 23 C 6.249078 2.385981 -2.200395 0
M  V30 24 O 7.052122 3.272755 -2.908648 0
M  V30 25 C 7.908135 2.791400 -3.930344 0
M  V30 26 F 7.157263 2.160932 -4.922768 0
M  V30 27 F 8.504810 3.888701 -4.502040 0
M  V30 28 F 8.833710 1.925626 -3.400783 0
M  V30 29 C 4.988766 2.156925 -2.729748 0
M  V30 30 C 4.146612 1.287627 -2.072601 0
M  V30 31 C 0.334232 -1.017332 0.718426 0
M  V30 32 N -3.667213 -2.474889 0.419600 0
M  V30 33 C -4.565892 -3.099386 -0.355286 0
M  V30 34 N -5.565661 -2.384532 -0.921589 0
M  V30 35 C -5.657808 -1.045756 -0.706721 0
M  V30 36 H -8.154296 0.053321 -3.508262 0
M  V30 37 H -9.720552 -0.638439 -2.497097 0
M  V30 38 H -7.625593 1.531912 -1.575844 0
M  V30 39 H -5.970747 2.715912 -0.141456 0
M  V30 40 H -4.180920 1.468583 0.878940 0
M  V30 41 H -2.723240 0.478948 1.721242 0
M  V30 42 H -1.009099 -0.535853 2.814470 0
M  V30 43 H -2.015013 -1.974761 2.890775 0
M  V30 44 H -1.373344 -3.791964 1.176330 0
M  V30 45 H 0.294533 -4.611034 -0.406264 0
M  V30 46 H 2.012263 -3.190152 -1.296886 0
M  V30 47 H 1.905346 -0.161847 -1.557272 0
M  V30 48 H 6.116588 0.411416 0.496798 0
M  V30 49 H 7.607792 1.935338 -0.645314 0
M  V30 50 H 4.641997 2.640261 -3.646486 0
M  V30 51 H 3.177961 1.123176 -2.495793 0
M  V30 52 H 0.425214 0.030575 0.984302 0
M  V30 53 H -4.448324 -4.161395 -0.493887 0
M  V30 END ATOM
M  V30 BEGIN BOND
M  V30 1 1 1 2
M  V30 2 2 2 3
M  V30 3 1 2 4
M  V30 4 2 4 5
M  V30 5 1 5 6
M  V30 6 2 6 7
M  V30 7 1 7 8
M  V30 8 2 8 9
M  V30 9 1 9 10
M  V30 10 1 10 11
M  V30 11 1 11 12
M  V30 12 2 12 13
M  V30 13 1 13 14
M  V30 14 2 14 15
M  V30 15 1 15 16
M  V30 16 1 16 17
M  V30 17 1 17 18
M  V30 18 2 18 19
M  V30 19 1 18 20
M  V30 20 2 20 21
M  V30 21 1 21 22
M  V30 22 2 22 23
M  V30 23 1 23 24
M  V30 24 1 24 25
M  V30 25 1 25 26
M  V30 26 1 25 27
M  V30 27 1 25 28
M  V30 28 1 23 29
M  V30 29 2 29 30
M  V30 30 2 16 31
M  V30 31 1 9 32
M  V30 32 2 32 33
M  V30 33 1 33 34
M  V30 34 2 34 35
M  V30 35 1 35 4
M  V30 36 1 35 8
M  V30 37 1 31 12
M  V30 38 1 30 20
M  V30 39 1 1 36
M  V30 40 1 1 37
M  V30 41 1 5 38
M  V30 42 1 6 39
M  V30 43 1 7 40
M  V30 44 1 10 41
M  V30 45 1 11 42
M  V30 46 1 11 43
M  V30 47 1 13 44
M  V30 48 1 14 45
M  V30 49 1 15 46
M  V30 50 1 17 47
M  V30 51 1 21 48
M  V30 52 1 22 49
M  V30 53 1 29 50
M  V30 54 1 30 51
M  V30 55 1 31 52
M  V30 56 1 33 53
M  V30 END BOND
M  V30 END CTAB
M  END
>  <Dataset>  (603) 
ChEMBL_Kinases

>  <Ligand_Instance>  (603) 
nan

>  <PDB_ID>  (603) 
nan

>  <Standardized_SMILES>  (603) 
NC(=O)c1cccc2c(NCc3cccc(NC(=O)c4ccc(OC(F)(F)F)cc4)c3)ncnc12

>  <Name>  (603) 
nan

>  <Pocket>  (603) 
nan

>  <ATP_Site>  (603) 
nan

>  <Peripheral>  (603) 
nan

>  <Num_H_Atoms_ProtBoundConf>  (603) 
nan

>  <Num_Resolved_Atoms>  (603) 
nan

>  <Num_Not_Resolved_Atoms>  (603) 
nan

$$$$
CHEMBL3670463
     RDKit          3D

  0  0  0  0  0  0  0  0  0  0999 V3000
M  V30 BEGIN CTAB
M  V30 COUNTS 60 63 0 0 0
M  V30 BEGIN ATOM
M  V30 1 N 4.219862 -3.824818 3.655058 0
M  V30 2 C 5.246925 -2.908816 4.013438 0
M  V30 3 O 6.096440 -3.299325 4.875569 0
M  V30 4 C 5.357858 -1.580027 3.446228 0
M  V30 5 C 6.395579 -0.777761 3.867553 0
M  V30 6 C 6.482254 0.488354 3.312018 0
M  V30 7 C 5.551891 0.894722 2.379805 0
M  V30 8 C 4.510125 0.111953 1.945720 0
M  V30 9 C 3.606793 0.566962 1.011244 0
M  V30 10 N 3.691817 1.858961 0.436781 0
M  V30 11 C 2.763296 2.379318 -0.546841 0
M  V30 12 C 1.377067 2.492335 -0.076359 0
M  V30 13 C 1.161901 3.711007 0.572553 0
M  V30 14 C -0.065115 4.073916 1.105511 0
M  V30 15 C -1.139199 3.207586 1.002624 0
M  V30 16 C -0.928969 2.003642 0.362080 0
M  V30 17 N -1.931282 1.012260 0.179283 0
M  V30 18 C -2.886692 0.740534 -0.822452 0
M  V30 19 O -3.059975 1.400532 -1.876392 0
M  V30 20 N -3.730971 -0.385368 -0.618343 0
M  V30 21 C -4.706235 -0.633217 -1.678593 0
M  V30 22 C -5.520310 -1.846596 -1.324609 0
M  V30 23 N -4.819451 -3.055233 -1.154926 0
M  V30 24 C -5.563015 -4.216460 -0.819952 0
M  V30 25 C -5.373747 -5.202048 -1.955367 0
M  V30 26 O -4.045250 -5.582254 -1.924329 0
M  V30 27 C -3.158611 -4.568488 -2.215932 0
M  V30 28 C -3.548950 -3.214301 -1.729663 0
M  V30 29 C 0.292985 1.648144 -0.166006 0
M  V30 30 N 2.666304 -0.309025 0.703217 0
M  V30 31 C 2.581156 -1.535425 1.240347 0
M  V30 32 N 3.476219 -1.983861 2.165079 0
M  V30 33 C 4.460153 -1.139270 2.522784 0
M  V30 34 H 3.286105 -3.693724 4.110659 0
M  V30 35 H 3.212518 -3.997490 3.891869 0
M  V30 36 H 7.091716 -1.141015 4.594022 0
M  V30 37 H 7.306826 1.090553 3.664020 0
M  V30 38 H 5.716521 1.879559 2.024410 0
M  V30 39 H 4.444546 2.523548 0.697022 0
M  V30 40 H 3.146008 3.323894 -0.971201 0
M  V30 41 H 2.741692 1.594883 -1.361934 0
M  V30 42 H 1.910793 4.502700 0.734589 0
M  V30 43 H -0.267335 4.994580 1.607392 0
M  V30 44 H -2.139674 3.354820 1.365594 0
M  V30 45 H -1.816702 0.441446 1.041304 0
M  V30 46 H -3.628790 -0.976585 0.252178 0
M  V30 47 H -5.394653 0.238656 -1.632960 0
M  V30 48 H -4.271012 -0.641327 -2.682527 0
M  V30 49 H -6.338322 -1.991805 -2.060181 0
M  V30 50 H -6.042614 -1.611936 -0.362898 0
M  V30 51 H -6.622258 -3.935659 -0.662339 0
M  V30 52 H -5.096740 -4.688412 0.075006 0
M  V30 53 H -5.990510 -6.073793 -1.707057 0
M  V30 54 H -5.678507 -4.720600 -2.903765 0
M  V30 55 H -3.006116 -4.587284 -3.317415 0
M  V30 56 H -2.188166 -4.884416 -1.774338 0
M  V30 57 H -3.402709 -2.481834 -2.565777 0
M  V30 58 H -2.795257 -2.870072 -0.964138 0
M  V30 59 H 0.528701 0.730578 -0.684885 0
M  V30 60 H 1.789762 -2.252159 0.971093 0
M  V30 END ATOM
M  V30 BEGIN BOND
M  V30 1 1 1 2
M  V30 2 2 2 3
M  V30 3 1 2 4
M  V30 4 2 4 5
M  V30 5 1 5 6
M  V30 6 2 6 7
M  V30 7 1 7 8
M  V30 8 2 8 9
M  V30 9 1 9 10
M  V30 10 1 10 11
M  V30 11 1 11 12
M  V30 12 2 12 13
M  V30 13 1 13 14
M  V30 14 2 14 15
M  V30 15 1 15 16
M  V30 16 1 16 17
M  V30 17 1 17 18
M  V30 18 2 18 19
M  V30 19 1 18 20
M  V30 20 1 20 21
M  V30 21 1 21 22
M  V30 22 1 22 23
M  V30 23 1 23 24
M  V30 24 1 24 25
M  V30 25 1 25 26
M  V30 26 1 26 27
M  V30 27 1 27 28
M  V30 28 2 16 29
M  V30 29 1 9 30
M  V30 30 2 30 31
M  V30 31 1 31 32
M  V30 32 2 32 33
M  V30 33 1 33 4
M  V30 34 1 33 8
M  V30 35 1 29 12
M  V30 36 1 28 23
M  V30 37 1 1 34
M  V30 38 1 1 35
M  V30 39 1 5 36
M  V30 40 1 6 37
M  V30 41 1 7 38
M  V30 42 1 10 39
M  V30 43 1 11 40
M  V30 44 1 11 41
M  V30 45 1 13 42
M  V30 46 1 14 43
M  V30 47 1 15 44
M  V30 48 1 17 45
M  V30 49 1 20 46
M  V30 50 1 21 47
M  V30 51 1 21 48
M  V30 52 1 22 49
M  V30 53 1 22 50
M  V30 54 1 24 51
M  V30 55 1 24 52
M  V30 56 1 25 53
M  V30 57 1 25 54
M  V30 58 1 27 55
M  V30 59 1 27 56
M  V30 60 1 28 57
M  V30 61 1 28 58
M  V30 62 1 29 59
M  V30 63 1 31 60
M  V30 END BOND
M  V30 END CTAB
M  END
>  <Dataset>  (604) 
ChEMBL_Kinases

>  <Ligand_Instance>  (604) 
nan

>  <PDB_ID>  (604) 
nan

>  <Standardized_SMILES>  (604) 
NC(=O)c1cccc2c(NCc3cccc(NC(=O)NCCN4CCOCC4)c3)ncnc12

>  <Name>  (604) 
nan

>  <Pocket>  (604) 
nan

>  <ATP_Site>  (604) 
nan

>  <Peripheral>  (604) 
nan

>  <Num_H_Atoms_ProtBoundConf>  (604) 
nan

>  <Num_Resolved_Atoms>  (604) 
nan

>  <Num_Not_Resolved_Atoms>  (604) 
nan

$$$$
CHEMBL3670462
     RDKit          3D

  0  0  0  0  0  0  0  0  0  0999 V3000
M  V30 BEGIN CTAB
M  V30 COUNTS 54 56 0 0 0
M  V30 BEGIN ATOM
M  V30 1 C 3.460809 -3.830553 4.284817 0
M  V30 2 O 2.975809 -2.783820 5.015277 0
M  V30 3 C 3.125425 -1.521716 4.414053 0
M  V30 4 C 4.561747 -1.203414 4.175739 0
M  V30 5 C 4.874435 0.119153 3.617917 0
M  V30 6 N 4.381497 0.568425 2.388743 0
M  V30 7 C 3.166506 0.902599 1.798662 0
M  V30 8 O 2.173458 0.834169 2.522721 0
M  V30 9 N 2.963511 1.304414 0.477423 0
M  V30 10 C 1.790397 1.650339 -0.176006 0
M  V30 11 C 1.856777 2.021965 -1.526568 0
M  V30 12 C 0.760111 2.381755 -2.266879 0
M  V30 13 C -0.486487 2.388609 -1.682094 0
M  V30 14 C -0.654401 2.039364 -0.362835 0
M  V30 15 C -1.971156 2.010517 0.338729 0
M  V30 16 N -2.550794 0.697240 0.316984 0
M  V30 17 C -2.934729 -0.047872 -0.810651 0
M  V30 18 N -2.813127 0.381159 -2.073455 0
M  V30 19 C -3.175076 -0.311466 -3.160972 0
M  V30 20 N -3.715568 -1.556304 -3.038405 0
M  V30 21 C -3.869228 -2.057118 -1.785754 0
M  V30 22 C -4.415405 -3.312809 -1.683429 0
M  V30 23 C -4.815036 -4.079866 -2.857672 0
M  V30 24 N -4.624832 -3.486898 -4.128637 0
M  V30 25 O -5.313827 -5.229037 -2.782516 0
M  V30 26 C -4.606391 -3.896457 -0.450464 0
M  V30 27 C -4.228428 -3.173414 0.686508 0
M  V30 28 C -3.687419 -1.919396 0.500441 0
M  V30 29 C -3.481961 -1.306732 -0.699569 0
M  V30 30 C 0.501502 1.692521 0.303326 0
M  V30 31 H 3.000696 -3.949767 3.281661 0
M  V30 32 H 3.180003 -4.759933 4.875572 0
M  V30 33 H 4.564842 -3.874109 4.254614 0
M  V30 34 H 2.692731 -0.783162 5.101329 0
M  V30 35 H 2.513550 -1.502395 3.478429 0
M  V30 36 H 5.104577 -2.043027 3.662672 0
M  V30 37 H 5.034848 -1.238026 5.214305 0
M  V30 38 H 5.992869 0.324379 3.699961 0
M  V30 39 H 4.500351 0.888846 4.406381 0
M  V30 40 H 5.184534 0.687957 1.684052 0
M  V30 41 H 3.861886 1.343482 -0.096861 0
M  V30 42 H 2.812366 2.044737 -2.074200 0
M  V30 43 H 0.850921 2.663826 -3.311689 0
M  V30 44 H -1.322332 2.680454 -2.275681 0
M  V30 45 H -1.894258 2.433589 1.340289 0
M  V30 46 H -2.633045 2.725168 -0.244778 0
M  V30 47 H -2.668530 0.321144 1.262593 0
M  V30 48 H -3.072030 0.044864 -4.171066 0
M  V30 49 H -4.041283 -3.214034 -4.938915 0
M  V30 50 H -4.526443 -3.043909 -5.058265 0
M  V30 51 H -5.035165 -4.872560 -0.447503 0
M  V30 52 H -4.384881 -3.644964 1.642087 0
M  V30 53 H -3.432590 -1.451871 1.430507 0
M  V30 54 H 0.359226 1.420502 1.337773 0
M  V30 END ATOM
M  V30 BEGIN BOND
M  V30 1 1 1 2
M  V30 2 1 2 3
M  V30 3 1 3 4
M  V30 4 1 4 5
M  V30 5 1 5 6
M  V30 6 1 6 7
M  V30 7 2 7 8
M  V30 8 1 7 9
M  V30 9 1 9 10
M  V30 10 2 10 11
M  V30 11 1 11 12
M  V30 12 2 12 13
M  V30 13 1 13 14
M  V30 14 1 14 15
M  V30 15 1 15 16
M  V30 16 1 16 17
M  V30 17 2 17 18
M  V30 18 1 18 19
M  V30 19 2 19 20
M  V30 20 1 20 21
M  V30 21 2 21 22
M  V30 22 1 22 23
M  V30 23 1 23 24
M  V30 24 2 23 25
M  V30 25 1 22 26
M  V30 26 2 26 27
M  V30 27 1 27 28
M  V30 28 2 28 29
M  V30 29 2 14 30
M  V30 30 1 30 10
M  V30 31 1 29 17
M  V30 32 1 29 21
M  V30 33 1 1 31
M  V30 34 1 1 32
M  V30 35 1 1 33
M  V30 36 1 3 34
M  V30 37 1 3 35
M  V30 38 1 4 36
M  V30 39 1 4 37
M  V30 40 1 5 38
M  V30 41 1 5 39
M  V30 42 1 6 40
M  V30 43 1 9 41
M  V30 44 1 11 42
M  V30 45 1 12 43
M  V30 46 1 13 44
M  V30 47 1 15 45
M  V30 48 1 15 46
M  V30 49 1 16 47
M  V30 50 1 19 48
M  V30 51 1 24 49
M  V30 52 1 24 50
M  V30 53 1 26 51
M  V30 54 1 27 52
M  V30 55 1 28 53
M  V30 56 1 30 54
M  V30 END BOND
M  V30 END CTAB
M  END
>  <Dataset>  (605) 
ChEMBL_Kinases

>  <Ligand_Instance>  (605) 
nan

>  <PDB_ID>  (605) 
nan

>  <Standardized_SMILES>  (605) 
COCCCNC(=O)Nc1cccc(CNc2ncnc3c(C(N)=O)cccc23)c1

>  <Name>  (605) 
nan

>  <Pocket>  (605) 
nan

>  <ATP_Site>  (605) 
nan

>  <Peripheral>  (605) 
nan

>  <Num_H_Atoms_ProtBoundConf>  (605) 
nan

>  <Num_Resolved_Atoms>  (605) 
nan

>  <Num_Not_Resolved_Atoms>  (605) 
nan

$$$$
CHEMBL3670461
     RDKit          3D

  0  0  0  0  0  0  0  0  0  0999 V3000
M  V30 BEGIN CTAB
M  V30 COUNTS 52 55 0 0 0
M  V30 BEGIN ATOM
M  V30 1 N 3.764708 -5.427432 4.352271 0
M  V30 2 C 4.071917 -4.982550 3.039554 0
M  V30 3 O 4.873135 -5.819660 2.605434 0
M  V30 4 C 3.474334 -3.784499 2.504811 0
M  V30 5 C 2.590329 -3.061464 3.281131 0
M  V30 6 C 2.028973 -1.928384 2.767236 0
M  V30 7 C 2.364130 -1.547185 1.493908 0
M  V30 8 C 3.216423 -2.182447 0.653180 0
M  V30 9 C 3.577726 -1.832445 -0.628838 0
M  V30 10 N 2.989057 -0.646110 -1.163875 0
M  V30 11 C 2.433190 0.513097 -1.727412 0
M  V30 12 C 1.500100 1.197914 -0.741965 0
M  V30 13 C 2.020066 2.160744 0.124454 0
M  V30 14 C 1.254943 2.837756 1.054435 0
M  V30 15 C -0.094934 2.516955 1.099562 0
M  V30 16 C -0.632112 1.581751 0.267140 0
M  V30 17 N -1.999702 1.186535 0.239128 0
M  V30 18 C -3.161572 1.606379 -0.445681 0
M  V30 19 O -3.286026 2.524168 -1.282449 0
M  V30 20 N -4.367228 0.891117 -0.149658 0
M  V30 21 C -5.402519 1.520696 -0.982826 0
M  V30 22 C -6.670145 0.721540 -0.728880 0
M  V30 23 O -6.294724 -0.602625 -0.679392 0
M  V30 24 C -5.708430 -0.969501 0.523838 0
M  V30 25 C -4.423591 -0.223635 0.808969 0
M  V30 26 C 0.139385 0.909122 -0.660044 0
M  V30 27 N 4.450740 -2.666441 -1.216887 0
M  V30 28 C 4.979451 -3.760467 -0.692957 0
M  V30 29 N 4.607114 -4.059802 0.536764 0
M  V30 30 C 3.748122 -3.314388 1.227580 0
M  V30 31 H 3.489675 -5.117864 5.310304 0
M  V30 32 H 3.491746 -5.002245 5.265406 0
M  V30 33 H 2.361976 -3.406935 4.277169 0
M  V30 34 H 1.332266 -1.347842 3.363123 0
M  V30 35 H 1.900887 -0.657882 1.136546 0
M  V30 36 H 3.493356 -0.717553 -2.106889 0
M  V30 37 H 1.702843 0.237991 -2.558667 0
M  V30 38 H 3.149815 1.296990 -2.090624 0
M  V30 39 H 3.081232 2.393539 0.068614 0
M  V30 40 H 1.684067 3.578520 1.712744 0
M  V30 41 H -0.769898 3.005918 1.805957 0
M  V30 42 H -2.011373 0.401845 0.922835 0
M  V30 43 H -5.522492 2.587576 -0.745797 0
M  V30 44 H -5.119124 1.327489 -2.040784 0
M  V30 45 H -7.376253 0.826330 -1.597476 0
M  V30 46 H -7.092838 1.109698 0.215200 0
M  V30 47 H -6.439743 -0.836379 1.372192 0
M  V30 48 H -5.475428 -2.052012 0.460023 0
M  V30 49 H -4.429279 0.144985 1.851701 0
M  V30 50 H -3.568903 -0.861209 0.552443 0
M  V30 51 H -0.225168 0.145339 -1.360975 0
M  V30 52 H 5.664116 -4.311580 -1.307890 0
M  V30 END ATOM
M  V30 BEGIN BOND
M  V30 1 1 1 2
M  V30 2 2 2 3
M  V30 3 1 2 4
M  V30 4 2 4 5
M  V30 5 1 5 6
M  V30 6 2 6 7
M  V30 7 1 7 8
M  V30 8 2 8 9
M  V30 9 1 9 10
M  V30 10 1 10 11
M  V30 11 1 11 12
M  V30 12 2 12 13
M  V30 13 1 13 14
M  V30 14 2 14 15
M  V30 15 1 15 16
M  V30 16 1 16 17
M  V30 17 1 17 18
M  V30 18 2 18 19
M  V30 19 1 18 20
M  V30 20 1 20 21
M  V30 21 1 21 22
M  V30 22 1 22 23
M  V30 23 1 23 24
M  V30 24 1 24 25
M  V30 25 2 16 26
M  V30 26 1 9 27
M  V30 27 2 27 28
M  V30 28 1 28 29
M  V30 29 2 29 30
M  V30 30 1 30 4
M  V30 31 1 30 8
M  V30 32 1 26 12
M  V30 33 1 25 20
M  V30 34 1 1 31
M  V30 35 1 1 32
M  V30 36 1 5 33
M  V30 37 1 6 34
M  V30 38 1 7 35
M  V30 39 1 10 36
M  V30 40 1 11 37
M  V30 41 1 11 38
M  V30 42 1 13 39
M  V30 43 1 14 40
M  V30 44 1 15 41
M  V30 45 1 17 42
M  V30 46 1 21 43
M  V30 47 1 21 44
M  V30 48 1 22 45
M  V30 49 1 22 46
M  V30 50 1 24 47
M  V30 51 1 24 48
M  V30 52 1 25 49
M  V30 53 1 25 50
M  V30 54 1 26 51
M  V30 55 1 28 52
M  V30 END BOND
M  V30 END CTAB
M  END
>  <Dataset>  (606) 
ChEMBL_Kinases

>  <Ligand_Instance>  (606) 
nan

>  <PDB_ID>  (606) 
nan

>  <Standardized_SMILES>  (606) 
NC(=O)c1cccc2c(NCc3cccc(NC(=O)N4CCOCC4)c3)ncnc12

>  <Name>  (606) 
nan

>  <Pocket>  (606) 
nan

>  <ATP_Site>  (606) 
nan

>  <Peripheral>  (606) 
nan

>  <Num_H_Atoms_ProtBoundConf>  (606) 
nan

>  <Num_Resolved_Atoms>  (606) 
nan

>  <Num_Not_Resolved_Atoms>  (606) 
nan

$$$$
CHEMBL3670460
     RDKit          3D

  0  0  0  0  0  0  0  0  0  0999 V3000
M  V30 BEGIN CTAB
M  V30 COUNTS 42 44 0 0 0
M  V30 BEGIN ATOM
M  V30 1 C -1.690518 -2.357954 0.593065 0
M  V30 2 O -0.996575 -2.509593 -0.650602 0
M  V30 3 C 0.083314 -1.739672 -1.014526 0
M  V30 4 C 0.671156 -1.974746 -2.234959 0
M  V30 5 C 1.754593 -1.199775 -2.596276 0
M  V30 6 C 2.361616 -1.463477 -3.891006 0
M  V30 7 N 3.453764 -0.857663 -4.522171 0
M  V30 8 O 1.880033 -2.369796 -4.616644 0
M  V30 9 C 2.195176 -0.230240 -1.720874 0
M  V30 10 N 3.232953 0.474761 -2.122990 0
M  V30 11 C 3.796147 1.449787 -1.414788 0
M  V30 12 N 3.241729 1.690043 -0.235321 0
M  V30 13 C 2.189025 1.048925 0.288315 0
M  V30 14 N 1.558785 1.279618 1.558163 0
M  V30 15 C 0.947006 1.503718 2.791071 0
M  V30 16 C -0.244378 0.640412 3.102330 0
M  V30 17 C -1.502916 1.080205 2.732918 0
M  V30 18 C -2.618386 0.298158 3.015309 0
M  V30 19 C -2.473332 -0.915083 3.662785 0
M  V30 20 C -1.207914 -1.341141 4.025743 0
M  V30 21 C -1.136416 -2.662842 4.722051 0
M  V30 22 F 0.115328 -2.861521 5.273473 0
M  V30 23 F -1.416538 -3.687666 3.810100 0
M  V30 24 F -2.088404 -2.669657 5.717745 0
M  V30 25 C -0.100420 -0.570165 3.748294 0
M  V30 26 C 1.643259 0.044823 -0.490229 0
M  V30 27 C 0.583778 -0.762958 -0.214787 0
M  V30 28 H -0.957868 -2.557920 1.402183 0
M  V30 29 H -2.064033 -1.332913 0.690828 0
M  V30 30 H -2.510810 -3.078816 0.633066 0
M  V30 31 H 0.271955 -2.750840 -2.868299 0
M  V30 32 H 2.967527 -0.018385 -4.890166 0
M  V30 33 H 4.474093 -1.006711 -4.693238 0
M  V30 34 H 4.621141 2.101245 -1.592144 0
M  V30 35 H 2.211889 2.061524 1.826795 0
M  V30 36 H 1.663463 1.294298 3.647076 0
M  V30 37 H 0.578531 2.559299 2.956885 0
M  V30 38 H -1.658372 2.009997 2.231750 0
M  V30 39 H -3.587831 0.666844 2.715166 0
M  V30 40 H -3.347302 -1.520817 3.880449 0
M  V30 41 H 0.880073 -0.936533 4.048378 0
M  V30 42 H 0.090571 -0.619316 0.726797 0
M  V30 END ATOM
M  V30 BEGIN BOND
M  V30 1 1 1 2
M  V30 2 1 2 3
M  V30 3 2 3 4
M  V30 4 1 4 5
M  V30 5 1 5 6
M  V30 6 1 6 7
M  V30 7 2 6 8
M  V30 8 2 5 9
M  V30 9 1 9 10
M  V30 10 2 10 11
M  V30 11 1 11 12
M  V30 12 2 12 13
M  V30 13 1 13 14
M  V30 14 1 14 15
M  V30 15 1 15 16
M  V30 16 2 16 17
M  V30 17 1 17 18
M  V30 18 2 18 19
M  V30 19 1 19 20
M  V30 20 1 20 21
M  V30 21 1 21 22
M  V30 22 1 21 23
M  V30 23 1 21 24
M  V30 24 2 20 25
M  V30 25 1 13 26
M  V30 26 2 26 27
M  V30 27 1 27 3
M  V30 28 1 26 9
M  V30 29 1 25 16
M  V30 30 1 1 28
M  V30 31 1 1 29
M  V30 32 1 1 30
M  V30 33 1 4 31
M  V30 34 1 7 32
M  V30 35 1 7 33
M  V30 36 1 11 34
M  V30 37 1 14 35
M  V30 38 1 15 36
M  V30 39 1 15 37
M  V30 40 1 17 38
M  V30 41 1 18 39
M  V30 42 1 19 40
M  V30 43 1 25 41
M  V30 44 1 27 42
M  V30 END BOND
M  V30 END CTAB
M  END
>  <Dataset>  (607) 
ChEMBL_Kinases

>  <Ligand_Instance>  (607) 
nan

>  <PDB_ID>  (607) 
nan

>  <Standardized_SMILES>  (607) 
COc1cc(C(N)=O)c2ncnc(NCc3cccc(C(F)(F)F)c3)c2c1

>  <Name>  (607) 
nan

>  <Pocket>  (607) 
nan

>  <ATP_Site>  (607) 
nan

>  <Peripheral>  (607) 
nan

>  <Num_H_Atoms_ProtBoundConf>  (607) 
nan

>  <Num_Resolved_Atoms>  (607) 
nan

>  <Num_Not_Resolved_Atoms>  (607) 
nan

$$$$
CHEMBL3670458
     RDKit          3D

  0  0  0  0  0  0  0  0  0  0999 V3000
M  V30 BEGIN CTAB
M  V30 COUNTS 40 42 0 0 0
M  V30 BEGIN ATOM
M  V30 1 N 2.893673 -4.815244 2.089806 0 CHG=-1 VAL=2
M  V30 2 N 2.096415 -4.632134 1.159684 0 CHG=1 VAL=4
M  V30 3 N 1.049254 -4.603813 0.520433 0
M  V30 4 C 0.485627 -3.318886 0.167788 0
M  V30 5 C 0.564699 -2.358966 1.296665 0 CFG=1
M  V30 6 N 0.019678 -1.042984 0.995845 0
M  V30 7 C 0.589385 -0.236497 -0.015975 0
M  V30 8 N 1.652420 -0.664010 -0.718744 0
M  V30 9 C 2.258755 0.034994 -1.692045 0
M  V30 10 N 1.825485 1.258829 -2.042896 0
M  V30 11 C 0.763727 1.753462 -1.382047 0
M  V30 12 C 0.257513 2.998953 -1.680168 0
M  V30 13 C 0.976710 3.680883 -2.745262 0
M  V30 14 N 0.618315 4.964429 -3.201624 0
M  V30 15 O 1.966241 3.221076 -3.360582 0
M  V30 16 C -0.820041 3.595345 -1.066959 0
M  V30 17 C -1.396305 2.805005 -0.065398 0
M  V30 18 C -0.930173 1.551658 0.273770 0
M  V30 19 C 0.156149 1.018327 -0.385672 0
M  V30 20 C 0.046278 -2.862156 2.592668 0
M  V30 21 C 0.185282 -1.832155 3.530313 0
M  V30 22 C -0.224446 -2.006803 4.857722 0
M  V30 23 C -0.774463 -3.204547 5.262347 0
M  V30 24 C -0.903292 -4.205763 4.326192 0
M  V30 25 C -0.504622 -4.046909 3.018292 0
M  V30 26 H -0.578884 -3.447599 -0.188804 0
M  V30 27 H 1.091623 -2.951235 -0.683647 0
M  V30 28 H 1.669017 -2.161658 1.463676 0
M  V30 29 H -0.797980 -0.772512 1.578484 0
M  V30 30 H 3.113807 -0.481331 -2.152566 0
M  V30 31 H 0.363688 5.900918 -3.544352 0
M  V30 32 H -0.058278 5.646496 -2.752723 0
M  V30 33 H -1.181541 4.571474 -1.332502 0
M  V30 34 H -2.261760 3.215176 0.468924 0
M  V30 35 H -1.450538 1.029061 1.062022 0
M  V30 36 H 0.593578 -0.816406 3.410955 0
M  V30 37 H -0.152522 -1.265583 5.640626 0
M  V30 38 H -1.118354 -3.436494 6.254789 0
M  V30 39 H -1.321457 -5.179448 4.543570 0
M  V30 40 H -0.559184 -4.751398 2.203220 0
M  V30 END ATOM
M  V30 BEGIN BOND
M  V30 1 2 1 2
M  V30 2 2 2 3
M  V30 3 1 3 4
M  V30 4 1 4 5
M  V30 5 1 5 6
M  V30 6 1 6 7
M  V30 7 2 7 8
M  V30 8 1 8 9
M  V30 9 2 9 10
M  V30 10 1 10 11
M  V30 11 2 11 12
M  V30 12 1 12 13
M  V30 13 1 13 14
M  V30 14 2 13 15
M  V30 15 1 12 16
M  V30 16 2 16 17
M  V30 17 1 17 18
M  V30 18 2 18 19
M  V30 19 1 5 20
M  V30 20 2 20 21
M  V30 21 1 21 22
M  V30 22 2 22 23
M  V30 23 1 23 24
M  V30 24 2 24 25
M  V30 25 1 19 7
M  V30 26 1 25 20
M  V30 27 1 19 11
M  V30 28 1 4 26
M  V30 29 1 4 27
M  V30 30 1 5 28 CFG=1
M  V30 31 1 6 29
M  V30 32 1 9 30
M  V30 33 1 14 31
M  V30 34 1 14 32
M  V30 35 1 16 33
M  V30 36 1 17 34
M  V30 37 1 18 35
M  V30 38 1 21 36
M  V30 39 1 22 37
M  V30 40 1 23 38
M  V30 41 1 24 39
M  V30 42 1 25 40
M  V30 END BOND
M  V30 END CTAB
M  END
>  <Dataset>  (608) 
ChEMBL_Kinases

>  <Ligand_Instance>  (608) 
nan

>  <PDB_ID>  (608) 
nan

>  <Standardized_SMILES>  (608) 
[N-]=[N+]=NC[C@@H](Nc1ncnc2c(C(N)=O)cccc12)c1ccccc1

>  <Name>  (608) 
nan

>  <Pocket>  (608) 
nan

>  <ATP_Site>  (608) 
nan

>  <Peripheral>  (608) 
nan

>  <Num_H_Atoms_ProtBoundConf>  (608) 
nan

>  <Num_Resolved_Atoms>  (608) 
nan

>  <Num_Not_Resolved_Atoms>  (608) 
nan

$$$$
CHEMBL3670457
     RDKit          3D

  0  0  0  0  0  0  0  0  0  0999 V3000
M  V30 BEGIN CTAB
M  V30 COUNTS 42 44 0 0 0
M  V30 BEGIN ATOM
M  V30 1 C -2.939317 -2.957200 2.497846 0
M  V30 2 O -1.728062 -3.282525 1.877530 0
M  V30 3 C -1.044349 -2.091686 1.626638 0
M  V30 4 C 0.284470 -2.342921 0.953766 0 CFG=1
M  V30 5 N 0.928998 -1.078664 0.729157 0
M  V30 6 C 0.364351 -0.098792 -0.131213 0
M  V30 7 N -0.789720 -0.290768 -0.793470 0
M  V30 8 C -1.354461 0.605898 -1.621012 0
M  V30 9 N -0.787044 1.802437 -1.855560 0
M  V30 10 C 0.364150 2.068485 -1.232839 0
M  V30 11 C 0.952489 3.293589 -1.468057 0
M  V30 12 C 0.319528 4.264819 -2.378428 0
M  V30 13 N -0.907301 3.913878 -3.007875 0
M  V30 14 O 0.865167 5.379646 -2.585730 0
M  V30 15 C 2.146727 3.627485 -0.851393 0
M  V30 16 C 2.728538 2.688597 0.008860 0
M  V30 17 C 2.095711 1.485676 0.203510 0
M  V30 18 C 0.924230 1.135887 -0.390101 0
M  V30 19 C 1.072429 -3.179414 1.897399 0
M  V30 20 C 1.533660 -2.486876 3.017836 0
M  V30 21 C 2.291331 -3.111297 4.011700 0
M  V30 22 C 2.578403 -4.454266 3.856631 0
M  V30 23 C 2.126859 -5.146422 2.752915 0
M  V30 24 C 1.377420 -4.531355 1.768614 0
M  V30 25 H -2.805287 -2.418521 3.457121 0
M  V30 26 H -3.535927 -2.273554 1.838972 0
M  V30 27 H -3.520902 -3.885834 2.716382 0
M  V30 28 H -0.801919 -1.554255 2.588459 0
M  V30 29 H -1.685748 -1.389129 1.073093 0
M  V30 30 H 0.152755 -2.877187 -0.017652 0
M  V30 31 H 1.824967 -0.930624 1.231714 0
M  V30 32 H -2.279440 0.289221 -2.069057 0
M  V30 33 H -0.740498 3.396739 -3.895664 0
M  V30 34 H -1.493468 4.353176 -2.262666 0
M  V30 35 H 2.614469 4.589472 -1.032305 0
M  V30 36 H 3.661140 2.970132 0.479852 0
M  V30 37 H 2.609915 0.840096 0.870307 0
M  V30 38 H 1.333211 -1.426267 3.185160 0
M  V30 39 H 2.634664 -2.537542 4.873733 0
M  V30 40 H 3.165769 -4.953244 4.619960 0
M  V30 41 H 2.343023 -6.215298 2.608461 0
M  V30 42 H 0.983959 -4.984138 0.879119 0
M  V30 END ATOM
M  V30 BEGIN BOND
M  V30 1 1 1 2
M  V30 2 1 2 3
M  V30 3 1 3 4
M  V30 4 1 4 5
M  V30 5 1 5 6
M  V30 6 2 6 7
M  V30 7 1 7 8
M  V30 8 2 8 9
M  V30 9 1 9 10
M  V30 10 2 10 11
M  V30 11 1 11 12
M  V30 12 1 12 13
M  V30 13 2 12 14
M  V30 14 1 11 15
M  V30 15 2 15 16
M  V30 16 1 16 17
M  V30 17 2 17 18
M  V30 18 1 4 19
M  V30 19 2 19 20
M  V30 20 1 20 21
M  V30 21 2 21 22
M  V30 22 1 22 23
M  V30 23 2 23 24
M  V30 24 1 18 6
M  V30 25 1 24 19
M  V30 26 1 18 10
M  V30 27 1 1 25
M  V30 28 1 1 26
M  V30 29 1 1 27
M  V30 30 1 3 28
M  V30 31 1 3 29
M  V30 32 1 4 30 CFG=3
M  V30 33 1 5 31
M  V30 34 1 8 32
M  V30 35 1 13 33
M  V30 36 1 13 34
M  V30 37 1 15 35
M  V30 38 1 16 36
M  V30 39 1 17 37
M  V30 40 1 20 38
M  V30 41 1 21 39
M  V30 42 1 22 40
M  V30 43 1 23 41
M  V30 44 1 24 42
M  V30 END BOND
M  V30 END CTAB
M  END
>  <Dataset>  (609) 
ChEMBL_Kinases

>  <Ligand_Instance>  (609) 
nan

>  <PDB_ID>  (609) 
nan

>  <Standardized_SMILES>  (609) 
COC[C@@H](Nc1ncnc2c(C(N)=O)cccc12)c1ccccc1

>  <Name>  (609) 
nan

>  <Pocket>  (609) 
nan

>  <ATP_Site>  (609) 
nan

>  <Peripheral>  (609) 
nan

>  <Num_H_Atoms_ProtBoundConf>  (609) 
nan

>  <Num_Resolved_Atoms>  (609) 
nan

>  <Num_Not_Resolved_Atoms>  (609) 
nan

$$$$
CHEMBL3670477
     RDKit          3D

  0  0  0  0  0  0  0  0  0  0999 V3000
M  V30 BEGIN CTAB
M  V30 COUNTS 65 69 0 0 0
M  V30 BEGIN ATOM
M  V30 1 N 4.832837 4.890872 6.398296 0
M  V30 2 C 5.341696 3.573737 6.335879 0
M  V30 3 O 5.971815 3.189725 7.331639 0
M  V30 4 C 5.108870 2.762572 5.147821 0
M  V30 5 C 5.676277 1.508231 5.203107 0
M  V30 6 C 5.491611 0.678415 4.097613 0
M  V30 7 C 4.766286 1.150576 3.033634 0
M  V30 8 C 4.204102 2.396789 2.982235 0
M  V30 9 C 3.488603 2.785542 1.869659 0
M  V30 10 N 3.288397 1.968247 0.725636 0
M  V30 11 C 2.541767 2.334170 -0.461123 0
M  V30 12 C 1.098310 2.583858 -0.173050 0
M  V30 13 C 0.414713 3.728714 0.108601 0
M  V30 14 C -0.938425 3.675497 0.353667 0
M  V30 15 C -1.663809 2.503191 0.330788 0
M  V30 16 C -0.989197 1.336788 0.047627 0
M  V30 17 N -1.740845 0.131310 0.027131 0
M  V30 18 C -2.436561 -0.556690 -0.972937 0
M  V30 19 O -2.379836 0.024052 -2.090382 0
M  V30 20 C -3.112281 -1.800668 -0.628264 0
M  V30 21 C -3.135026 -2.386021 0.616203 0
M  V30 22 C -3.820236 -3.569953 0.784617 0
M  V30 23 C -4.489093 -4.188103 -0.271381 0
M  V30 24 C -4.470384 -3.601820 -1.533434 0
M  V30 25 C -5.212678 -4.340754 -2.551611 0
M  V30 26 N -4.493192 -5.355687 -3.255905 0
M  V30 27 C -3.357857 -4.970246 -3.974973 0
M  V30 28 C -2.111489 -5.769026 -3.699079 0
M  V30 29 O -2.223688 -6.445471 -2.460921 0
M  V30 30 C -3.237743 -7.383156 -2.654522 0
M  V30 31 C -4.543897 -6.645761 -2.698790 0
M  V30 32 C -3.779246 -2.415900 -1.683282 0
M  V30 33 C 0.382479 1.392044 -0.200563 0
M  V30 34 N 2.995956 4.030153 1.963163 0
M  V30 35 C 3.151034 4.852375 3.001228 0
M  V30 36 N 3.858624 4.453093 4.088221 0
M  V30 37 C 4.388888 3.213033 4.075809 0
M  V30 38 H 4.166280 5.646194 6.157195 0
M  V30 39 H 4.558037 5.870659 6.521669 0
M  V30 40 H 6.236108 1.197951 6.071732 0
M  V30 41 H 5.945129 -0.323765 4.141425 0
M  V30 42 H 4.688545 0.428807 2.241394 0
M  V30 43 H 3.688870 1.008689 0.676300 0
M  V30 44 H 2.966077 3.323423 -0.771576 0
M  V30 45 H 2.679405 1.605032 -1.259564 0
M  V30 46 H 1.042271 4.603689 0.102873 0
M  V30 47 H -1.431588 4.617459 0.572299 0
M  V30 48 H -2.734834 2.528780 0.534338 0
M  V30 49 H -1.641781 -0.144485 1.026029 0
M  V30 50 H -2.611249 -1.887788 1.408234 0
M  V30 51 H -3.770706 -3.944041 1.814331 0
M  V30 52 H -4.953842 -5.093231 0.080427 0
M  V30 53 H -6.145371 -4.790923 -2.116958 0
M  V30 54 H -5.576285 -3.614124 -3.338206 0
M  V30 55 H -3.102852 -3.914333 -3.837418 0
M  V30 56 H -3.555257 -5.073100 -5.083275 0
M  V30 57 H -2.019243 -6.589260 -4.446032 0
M  V30 58 H -1.219312 -5.133121 -3.653212 0
M  V30 59 H -3.236955 -8.047597 -1.768262 0
M  V30 60 H -3.031679 -7.946588 -3.591123 0
M  V30 61 H -5.000163 -6.676795 -1.701690 0
M  V30 62 H -5.224218 -7.264325 -3.359222 0
M  V30 63 H -3.787772 -1.982577 -2.668155 0
M  V30 64 H 0.783574 0.400320 -0.409271 0
M  V30 65 H 2.740964 5.853521 3.048150 0
M  V30 END ATOM
M  V30 BEGIN BOND
M  V30 1 1 1 2
M  V30 2 2 2 3
M  V30 3 1 2 4
M  V30 4 2 4 5
M  V30 5 1 5 6
M  V30 6 2 6 7
M  V30 7 1 7 8
M  V30 8 2 8 9
M  V30 9 1 9 10
M  V30 10 1 10 11
M  V30 11 1 11 12
M  V30 12 2 12 13
M  V30 13 1 13 14
M  V30 14 2 14 15
M  V30 15 1 15 16
M  V30 16 1 16 17
M  V30 17 1 17 18
M  V30 18 2 18 19
M  V30 19 1 18 20
M  V30 20 2 20 21
M  V30 21 1 21 22
M  V30 22 2 22 23
M  V30 23 1 23 24
M  V30 24 1 24 25
M  V30 25 1 25 26
M  V30 26 1 26 27
M  V30 27 1 27 28
M  V30 28 1 28 29
M  V30 29 1 29 30
M  V30 30 1 30 31
M  V30 31 2 24 32
M  V30 32 2 16 33
M  V30 33 1 9 34
M  V30 34 2 34 35
M  V30 35 1 35 36
M  V30 36 2 36 37
M  V30 37 1 37 4
M  V30 38 1 37 8
M  V30 39 1 33 12
M  V30 40 1 32 20
M  V30 41 1 31 26
M  V30 42 1 1 38
M  V30 43 1 1 39
M  V30 44 1 5 40
M  V30 45 1 6 41
M  V30 46 1 7 42
M  V30 47 1 10 43
M  V30 48 1 11 44
M  V30 49 1 11 45
M  V30 50 1 13 46
M  V30 51 1 14 47
M  V30 52 1 15 48
M  V30 53 1 17 49
M  V30 54 1 21 50
M  V30 55 1 22 51
M  V30 56 1 23 52
M  V30 57 1 25 53
M  V30 58 1 25 54
M  V30 59 1 27 55
M  V30 60 1 27 56
M  V30 61 1 28 57
M  V30 62 1 28 58
M  V30 63 1 30 59
M  V30 64 1 30 60
M  V30 65 1 31 61
M  V30 66 1 31 62
M  V30 67 1 32 63
M  V30 68 1 33 64
M  V30 69 1 35 65
M  V30 END BOND
M  V30 END CTAB
M  END
>  <Dataset>  (610) 
ChEMBL_Kinases

>  <Ligand_Instance>  (610) 
nan

>  <PDB_ID>  (610) 
nan

>  <Standardized_SMILES>  (610) 
NC(=O)c1cccc2c(NCc3cccc(NC(=O)c4cccc(CN5CCOCC5)c4)c3)ncnc12

>  <Name>  (610) 
nan

>  <Pocket>  (610) 
nan

>  <ATP_Site>  (610) 
nan

>  <Peripheral>  (610) 
nan

>  <Num_H_Atoms_ProtBoundConf>  (610) 
nan

>  <Num_Resolved_Atoms>  (610) 
nan

>  <Num_Not_Resolved_Atoms>  (610) 
nan

$$$$
CHEMBL3393757
     RDKit          3D

  0  0  0  0  0  0  0  0  0  0999 V3000
M  V30 BEGIN CTAB
M  V30 COUNTS 86 86 0 0 0
M  V30 BEGIN ATOM
M  V30 1 C 2.585832 -2.400841 5.170489 0
M  V30 2 C 1.727912 -3.243593 4.256645 0
M  V30 3 C 2.537029 -4.308612 3.563174 0
M  V30 4 C 3.645457 -3.653433 2.714574 0
M  V30 5 C 4.441913 -4.705848 2.033786 0
M  V30 6 C 5.591716 -4.330977 1.187491 0
M  V30 7 C 5.481284 -3.572197 -0.052864 0
M  V30 8 C 4.898851 -2.216431 0.019896 0
M  V30 9 C 4.974273 -1.528992 -1.370383 0
M  V30 10 C 4.398499 -0.146314 -1.281004 0
M  V30 11 C 2.972477 -0.061344 -0.866505 0
M  V30 12 C 2.499850 1.398004 -0.826815 0
M  V30 13 C 1.040283 1.366496 -0.400558 0
M  V30 14 C 0.463742 2.761060 -0.321533 0
M  V30 15 C -0.985583 2.657541 0.086099 0
M  V30 16 C -1.196935 2.003655 1.404623 0
M  V30 17 C -2.676750 1.925980 1.813775 0
M  V30 18 C -3.382188 1.153012 0.793482 0
M  V30 19 C -4.048498 0.014014 0.936140 0
M  V30 20 C -4.194030 -0.710425 2.252779 0
M  V30 21 C -4.029238 -2.109487 1.750309 0
M  V30 22 O -3.322707 -3.006709 2.306069 0
M  V30 23 O -4.822167 -2.067153 0.613909 0
M  V30 24 C -4.772116 -0.806497 -0.025082 0
M  V30 25 C -6.202835 -0.349874 -0.209928 0
M  V30 26 O -6.877922 -0.229232 1.006413 0
M  V30 27 C -4.144743 -0.950984 -1.367183 0
M  V30 28 O -4.042177 0.245573 -2.101020 0
M  V30 29 C -3.505281 0.358373 -3.349671 0
M  V30 30 O -3.043536 -0.655995 -3.955375 0
M  V30 31 C -3.425883 1.642006 -4.068657 0
M  V30 32 C -2.788084 1.478570 -5.427458 0
M  V30 33 C -2.626499 2.694838 -3.319486 0
M  V30 34 C -4.831636 2.238623 -4.212926 0
M  V30 35 H 3.088263 -1.585027 4.586698 0
M  V30 36 H 3.389048 -2.995780 5.629523 0
M  V30 37 H 2.002066 -1.918044 5.973354 0
M  V30 38 H 0.999193 -3.785505 4.902538 0
M  V30 39 H 1.177807 -2.635194 3.522559 0
M  V30 40 H 2.943506 -5.009179 4.293811 0
M  V30 41 H 1.875258 -4.851067 2.864475 0
M  V30 42 H 3.174914 -2.927232 2.057888 0
M  V30 43 H 4.295602 -3.141528 3.480227 0
M  V30 44 H 4.762685 -5.477984 2.814883 0
M  V30 45 H 3.764350 -5.352159 1.381624 0
M  V30 46 H 6.349554 -3.807060 1.887834 0
M  V30 47 H 6.168871 -5.316830 0.966314 0
M  V30 48 H 6.547763 -3.508570 -0.480402 0
M  V30 49 H 4.923427 -4.200794 -0.823567 0
M  V30 50 H 3.770937 -2.271689 0.149210 0
M  V30 51 H 5.322809 -1.606902 0.811628 0
M  V30 52 H 4.462738 -2.166140 -2.106715 0
M  V30 53 H 6.052085 -1.517891 -1.613782 0
M  V30 54 H 4.568110 0.344507 -2.274774 0
M  V30 55 H 4.994939 0.458560 -0.545197 0
M  V30 56 H 2.327230 -0.624165 -1.565048 0
M  V30 57 H 2.858258 -0.514262 0.150274 0
M  V30 58 H 2.624305 1.851933 -1.813138 0
M  V30 59 H 3.056325 1.914199 -0.017365 0
M  V30 60 H 1.082855 0.988000 0.665240 0
M  V30 61 H 0.431757 0.746646 -1.061999 0
M  V30 62 H 0.604875 3.332729 -1.248458 0
M  V30 63 H 0.997718 3.256147 0.530879 0
M  V30 64 H -1.494739 3.639010 0.000133 0
M  V30 65 H -1.501650 2.008873 -0.683863 0
M  V30 66 H -0.784040 0.955015 1.377388 0
M  V30 67 H -0.654459 2.517411 2.219774 0
M  V30 68 H -3.050441 2.958812 1.888845 0
M  V30 69 H -2.662289 1.476620 2.808650 0
M  V30 70 H -3.402200 1.502574 -0.223979 0
M  V30 71 H -3.440079 -0.434341 2.985836 0
M  V30 72 H -5.211100 -0.519312 2.639294 0
M  V30 73 H -6.766707 -1.086607 -0.817975 0
M  V30 74 H -6.266268 0.619255 -0.748512 0
M  V30 75 H -7.109737 -1.163693 1.311197 0
M  V30 76 H -3.161886 -1.462468 -1.263837 0
M  V30 77 H -4.777068 -1.641513 -1.962953 0
M  V30 78 H -2.786779 2.475242 -5.912577 0
M  V30 79 H -3.364369 0.712046 -5.977569 0
M  V30 80 H -1.743292 1.140387 -5.246528 0
M  V30 81 H -2.775879 3.650565 -3.889699 0
M  V30 82 H -1.551864 2.509175 -3.299983 0
M  V30 83 H -3.020442 2.907840 -2.309133 0
M  V30 84 H -5.584186 1.438104 -3.998815 0
M  V30 85 H -4.947285 2.649248 -5.234258 0
M  V30 86 H -5.013321 3.057235 -3.485778 0
M  V30 END ATOM
M  V30 BEGIN BOND
M  V30 1 1 1 2
M  V30 2 1 2 3
M  V30 3 1 3 4
M  V30 4 1 4 5
M  V30 5 1 5 6
M  V30 6 1 6 7
M  V30 7 1 7 8
M  V30 8 1 8 9
M  V30 9 1 9 10
M  V30 10 1 10 11
M  V30 11 1 11 12
M  V30 12 1 12 13
M  V30 13 1 13 14
M  V30 14 1 14 15
M  V30 15 1 15 16
M  V30 16 1 16 17
M  V30 17 1 17 18
M  V30 18 2 18 19
M  V30 19 1 19 20
M  V30 20 1 20 21
M  V30 21 2 21 22
M  V30 22 1 21 23
M  V30 23 1 23 24
M  V30 24 1 24 25
M  V30 25 1 25 26
M  V30 26 1 24 27
M  V30 27 1 27 28
M  V30 28 1 28 29
M  V30 29 2 29 30
M  V30 30 1 29 31
M  V30 31 1 31 32
M  V30 32 1 31 33
M  V30 33 1 31 34
M  V30 34 1 24 19
M  V30 35 1 1 35
M  V30 36 1 1 36
M  V30 37 1 1 37
M  V30 38 1 2 38
M  V30 39 1 2 39
M  V30 40 1 3 40
M  V30 41 1 3 41
M  V30 42 1 4 42
M  V30 43 1 4 43
M  V30 44 1 5 44
M  V30 45 1 5 45
M  V30 46 1 6 46
M  V30 47 1 6 47
M  V30 48 1 7 48
M  V30 49 1 7 49
M  V30 50 1 8 50
M  V30 51 1 8 51
M  V30 52 1 9 52
M  V30 53 1 9 53
M  V30 54 1 10 54
M  V30 55 1 10 55
M  V30 56 1 11 56
M  V30 57 1 11 57
M  V30 58 1 12 58
M  V30 59 1 12 59
M  V30 60 1 13 60
M  V30 61 1 13 61
M  V30 62 1 14 62
M  V30 63 1 14 63
M  V30 64 1 15 64
M  V30 65 1 15 65
M  V30 66 1 16 66
M  V30 67 1 16 67
M  V30 68 1 17 68
M  V30 69 1 17 69
M  V30 70 1 18 70
M  V30 71 1 20 71
M  V30 72 1 20 72
M  V30 73 1 25 73
M  V30 74 1 25 74
M  V30 75 1 26 75
M  V30 76 1 27 76
M  V30 77 1 27 77
M  V30 78 1 32 78
M  V30 79 1 32 79
M  V30 80 1 32 80
M  V30 81 1 33 81
M  V30 82 1 33 82
M  V30 83 1 33 83
M  V30 84 1 34 84
M  V30 85 1 34 85
M  V30 86 1 34 86
M  V30 END BOND
M  V30 END CTAB
M  END
>  <Dataset>  (611) 
ChEMBL_Kinases

>  <Ligand_Instance>  (611) 
nan

>  <PDB_ID>  (611) 
nan

>  <Standardized_SMILES>  (611) 
CCCCCCCCCCCCCCCCC/C=C1\CC(=O)OC1(CO)COC(=O)C(C)(C)C

>  <Name>  (611) 
nan

>  <Pocket>  (611) 
nan

>  <ATP_Site>  (611) 
nan

>  <Peripheral>  (611) 
nan

>  <Num_H_Atoms_ProtBoundConf>  (611) 
nan

>  <Num_Resolved_Atoms>  (611) 
nan

>  <Num_Not_Resolved_Atoms>  (611) 
nan

$$$$
CHEMBL3393758
     RDKit          3D

  0  0  0  0  0  0  0  0  0  0999 V3000
M  V30 BEGIN CTAB
M  V30 COUNTS 86 86 0 0 0
M  V30 BEGIN ATOM
M  V30 1 C 5.220848 1.197109 3.600513 0
M  V30 2 C 3.817734 0.753600 3.321114 0
M  V30 3 C 3.524566 -0.665090 3.698388 0
M  V30 4 C 4.426037 -1.639333 2.940434 0
M  V30 5 C 4.147138 -3.050166 3.308318 0
M  V30 6 C 4.878501 -4.131644 2.653214 0
M  V30 7 C 4.706703 -4.644935 1.302460 0
M  V30 8 C 4.664852 -3.787788 0.109626 0
M  V30 9 C 3.399790 -3.025534 -0.108184 0
M  V30 10 C 3.459405 -2.120084 -1.302259 0
M  V30 11 C 2.197103 -1.363186 -1.514744 0
M  V30 12 C 1.797872 -0.455813 -0.373748 0
M  V30 13 C 0.508490 0.207226 -0.814096 0
M  V30 14 C -0.072224 1.157850 0.163239 0
M  V30 15 C -0.437662 0.616473 1.495687 0
M  V30 16 C -1.460982 -0.483306 1.484747 0
M  V30 17 C -2.778526 -0.020522 0.864731 0
M  V30 18 C -3.785175 -1.065865 0.845624 0
M  V30 19 C -4.431589 -1.559913 -0.194371 0
M  V30 20 C -5.414082 -2.656809 0.190306 0
M  V30 21 C -5.532954 -3.346202 -1.119826 0
M  V30 22 O -6.493891 -4.195418 -1.143713 0
M  V30 23 O -4.513964 -2.833866 -1.959175 0
M  V30 24 C -4.525312 -1.430298 -1.613391 0
M  V30 25 C -5.903218 -0.938928 -1.989660 0
M  V30 26 O -6.959259 -1.564055 -1.398579 0
M  V30 27 C -3.608599 -0.650342 -2.455026 0
M  V30 28 O -3.783100 0.721608 -2.204600 0
M  V30 29 C -3.029373 1.658368 -2.888944 0
M  V30 30 O -2.144324 1.387112 -3.767875 0
M  V30 31 C -3.082044 3.118182 -2.759617 0
M  V30 32 C -2.097299 3.809274 -3.682291 0
M  V30 33 C -2.792335 3.621902 -1.364661 0
M  V30 34 C -4.476055 3.654361 -3.108211 0
M  V30 35 H 5.205431 2.229346 4.036326 0
M  V30 36 H 5.867382 1.246502 2.698032 0
M  V30 37 H 5.743784 0.563818 4.345283 0
M  V30 38 H 3.113373 1.397107 3.891111 0
M  V30 39 H 3.586651 0.879146 2.230466 0
M  V30 40 H 3.675973 -0.817557 4.790390 0
M  V30 41 H 2.491622 -0.884030 3.388801 0
M  V30 42 H 4.406570 -1.399515 1.903147 0
M  V30 43 H 5.490463 -1.420082 3.333642 0
M  V30 44 H 4.247278 -3.142165 4.438998 0
M  V30 45 H 3.036146 -3.268885 3.156732 0
M  V30 46 H 5.998004 -3.799597 2.706395 0
M  V30 47 H 4.891509 -5.055573 3.363462 0
M  V30 48 H 5.541790 -5.446366 1.172975 0
M  V30 49 H 3.780016 -5.349391 1.251594 0
M  V30 50 H 5.568505 -3.097918 0.060128 0
M  V30 51 H 4.835268 -4.457495 -0.796618 0
M  V30 52 H 2.984325 -2.570266 0.751441 0
M  V30 53 H 2.613622 -3.835058 -0.450506 0
M  V30 54 H 3.620821 -2.752484 -2.215249 0
M  V30 55 H 4.326900 -1.428848 -1.286788 0
M  V30 56 H 2.203123 -0.754199 -2.445803 0
M  V30 57 H 1.351389 -2.098652 -1.653965 0
M  V30 58 H 2.545264 0.356550 -0.243071 0
M  V30 59 H 1.670638 -1.065123 0.522113 0
M  V30 60 H -0.170614 -0.602664 -1.128712 0
M  V30 61 H 0.741739 0.778067 -1.737290 0
M  V30 62 H -0.918084 1.668249 -0.316405 0
M  V30 63 H 0.688483 1.965442 0.338648 0
M  V30 64 H 0.480701 0.304403 2.013603 0
M  V30 65 H -0.832190 1.476710 2.109024 0
M  V30 66 H -1.014914 -1.350562 0.987119 0
M  V30 67 H -1.690787 -0.741845 2.535540 0
M  V30 68 H -2.626975 0.615733 0.011930 0
M  V30 69 H -3.131748 0.736607 1.642048 0
M  V30 70 H -3.920588 -1.404569 1.898373 0
M  V30 71 H -4.995210 -3.344779 0.963157 0
M  V30 72 H -6.324697 -2.258247 0.614463 0
M  V30 73 H -6.076237 -1.045654 -3.103615 0
M  V30 74 H -5.952061 0.191405 -1.864997 0
M  V30 75 H -7.771162 -1.351051 -1.913124 0
M  V30 76 H -2.561389 -0.977774 -2.496787 0
M  V30 77 H -3.981497 -0.782049 -3.506085 0
M  V30 78 H -2.476175 4.813735 -3.883107 0
M  V30 79 H -2.052039 3.205919 -4.619514 0
M  V30 80 H -1.104113 3.886682 -3.197599 0
M  V30 81 H -3.347680 4.570021 -1.177818 0
M  V30 82 H -1.702335 3.747714 -1.195848 0
M  V30 83 H -3.189849 2.894313 -0.628395 0
M  V30 84 H -4.904198 2.934019 -3.832251 0
M  V30 85 H -4.424984 4.687863 -3.460274 0
M  V30 86 H -5.076836 3.551086 -2.169176 0
M  V30 END ATOM
M  V30 BEGIN BOND
M  V30 1 1 1 2
M  V30 2 1 2 3
M  V30 3 1 3 4
M  V30 4 1 4 5
M  V30 5 1 5 6
M  V30 6 1 6 7
M  V30 7 1 7 8
M  V30 8 1 8 9
M  V30 9 1 9 10
M  V30 10 1 10 11
M  V30 11 1 11 12
M  V30 12 1 12 13
M  V30 13 1 13 14
M  V30 14 1 14 15
M  V30 15 1 15 16
M  V30 16 1 16 17
M  V30 17 1 17 18
M  V30 18 2 18 19
M  V30 19 1 19 20
M  V30 20 1 20 21
M  V30 21 2 21 22
M  V30 22 1 21 23
M  V30 23 1 23 24
M  V30 24 1 24 25
M  V30 25 1 25 26
M  V30 26 1 24 27
M  V30 27 1 27 28
M  V30 28 1 28 29
M  V30 29 2 29 30
M  V30 30 1 29 31
M  V30 31 1 31 32
M  V30 32 1 31 33
M  V30 33 1 31 34
M  V30 34 1 24 19
M  V30 35 1 1 35
M  V30 36 1 1 36
M  V30 37 1 1 37
M  V30 38 1 2 38
M  V30 39 1 2 39
M  V30 40 1 3 40
M  V30 41 1 3 41
M  V30 42 1 4 42
M  V30 43 1 4 43
M  V30 44 1 5 44
M  V30 45 1 5 45
M  V30 46 1 6 46
M  V30 47 1 6 47
M  V30 48 1 7 48
M  V30 49 1 7 49
M  V30 50 1 8 50
M  V30 51 1 8 51
M  V30 52 1 9 52
M  V30 53 1 9 53
M  V30 54 1 10 54
M  V30 55 1 10 55
M  V30 56 1 11 56
M  V30 57 1 11 57
M  V30 58 1 12 58
M  V30 59 1 12 59
M  V30 60 1 13 60
M  V30 61 1 13 61
M  V30 62 1 14 62
M  V30 63 1 14 63
M  V30 64 1 15 64
M  V30 65 1 15 65
M  V30 66 1 16 66
M  V30 67 1 16 67
M  V30 68 1 17 68
M  V30 69 1 17 69
M  V30 70 1 18 70
M  V30 71 1 20 71
M  V30 72 1 20 72
M  V30 73 1 25 73
M  V30 74 1 25 74
M  V30 75 1 26 75
M  V30 76 1 27 76
M  V30 77 1 27 77
M  V30 78 1 32 78
M  V30 79 1 32 79
M  V30 80 1 32 80
M  V30 81 1 33 81
M  V30 82 1 33 82
M  V30 83 1 33 83
M  V30 84 1 34 84
M  V30 85 1 34 85
M  V30 86 1 34 86
M  V30 END BOND
M  V30 END CTAB
M  END
>  <Dataset>  (612) 
ChEMBL_Kinases

>  <Ligand_Instance>  (612) 
nan

>  <PDB_ID>  (612) 
nan

>  <Standardized_SMILES>  (612) 
CCCCCCCCCCCCCCCCC/C=C1/CC(=O)OC1(CO)COC(=O)C(C)(C)C

>  <Name>  (612) 
nan

>  <Pocket>  (612) 
nan

>  <ATP_Site>  (612) 
nan

>  <Peripheral>  (612) 
nan

>  <Num_H_Atoms_ProtBoundConf>  (612) 
nan

>  <Num_Resolved_Atoms>  (612) 
nan

>  <Num_Not_Resolved_Atoms>  (612) 
nan

$$$$
CHEMBL3670436
     RDKit          3D

  0  0  0  0  0  0  0  0  0  0999 V3000
M  V30 BEGIN CTAB
M  V30 COUNTS 54 57 0 0 0
M  V30 BEGIN ATOM
M  V30 1 N 3.715378 -1.443027 4.458554 0
M  V30 2 C 4.400841 -0.210262 4.639666 0
M  V30 3 O 5.171412 -0.081002 5.631066 0
M  V30 4 C 4.225268 0.894419 3.702760 0
M  V30 5 C 4.908960 2.068701 3.918612 0
M  V30 6 C 4.707950 3.097617 2.993856 0
M  V30 7 C 3.857949 2.894365 1.937823 0
M  V30 8 C 3.167925 1.737668 1.702079 0
M  V30 9 C 2.329231 1.576597 0.635438 0
M  V30 10 N 2.116677 2.609120 -0.314169 0
M  V30 11 C 1.259656 2.573154 -1.481681 0
M  V30 12 C -0.147662 2.378583 -1.064748 0
M  V30 13 C -0.788573 3.564813 -0.734504 0
M  V30 14 C -2.111193 3.484028 -0.344678 0
M  V30 15 C -2.753354 2.274279 -0.290434 0
M  V30 16 C -2.147067 1.073868 -0.612095 0
M  V30 17 N -2.896982 -0.112314 -0.522931 0
M  V30 18 C -2.502164 -1.443707 -0.793550 0
M  V30 19 O -1.323798 -1.635253 -1.168344 0
M  V30 20 N -3.356313 -2.549040 -0.664297 0
M  V30 21 C -3.074525 -3.908960 -0.904309 0
M  V30 22 C -1.888868 -4.464320 -1.322599 0
M  V30 23 C -1.672024 -5.806117 -1.541119 0
M  V30 24 C -2.700326 -6.700840 -1.335943 0
M  V30 25 C -3.908792 -6.186170 -0.915484 0
M  V30 26 C -5.040273 -7.121682 -0.684151 0
M  V30 27 F -4.748232 -8.349851 -1.191696 0
M  V30 28 F -6.233652 -6.641780 -1.185348 0
M  V30 29 F -5.178645 -7.245642 0.698384 0
M  V30 30 C -4.071530 -4.843566 -0.713064 0
M  V30 31 C -0.834923 1.212318 -0.992347 0
M  V30 32 N 1.746986 0.383139 0.572910 0
M  V30 33 C 1.899555 -0.634563 1.423187 0
M  V30 34 N 2.745046 -0.436760 2.476247 0
M  V30 35 C 3.382973 0.740046 2.626787 0
M  V30 36 H 2.979484 -2.058258 4.829685 0
M  V30 37 H 3.828842 -2.193984 3.725846 0
M  V30 38 H 5.554631 2.125071 4.782210 0
M  V30 39 H 5.260666 3.997791 3.199162 0
M  V30 40 H 3.782949 3.742418 1.301954 0
M  V30 41 H 2.606184 3.520963 -0.210440 0
M  V30 42 H 1.384648 3.476849 -2.094309 0
M  V30 43 H 1.609782 1.711248 -2.111513 0
M  V30 44 H -0.347766 4.543632 -0.754597 0
M  V30 45 H -2.646254 4.389976 -0.078718 0
M  V30 46 H -3.802796 2.297295 0.029105 0
M  V30 47 H -3.888214 -0.028083 -0.216208 0
M  V30 48 H -4.320260 -2.308442 -0.348131 0
M  V30 49 H -1.050816 -3.839700 -1.501762 0
M  V30 50 H -0.713417 -6.181184 -1.870880 0
M  V30 51 H -2.597772 -7.747086 -1.486432 0
M  V30 52 H -5.070227 -4.522702 -0.377595 0
M  V30 53 H -0.281401 0.347508 -1.271136 0
M  V30 54 H 1.345784 -1.544625 1.222584 0
M  V30 END ATOM
M  V30 BEGIN BOND
M  V30 1 1 1 2
M  V30 2 2 2 3
M  V30 3 1 2 4
M  V30 4 2 4 5
M  V30 5 1 5 6
M  V30 6 2 6 7
M  V30 7 1 7 8
M  V30 8 2 8 9
M  V30 9 1 9 10
M  V30 10 1 10 11
M  V30 11 1 11 12
M  V30 12 2 12 13
M  V30 13 1 13 14
M  V30 14 2 14 15
M  V30 15 1 15 16
M  V30 16 1 16 17
M  V30 17 1 17 18
M  V30 18 2 18 19
M  V30 19 1 18 20
M  V30 20 1 20 21
M  V30 21 2 21 22
M  V30 22 1 22 23
M  V30 23 2 23 24
M  V30 24 1 24 25
M  V30 25 1 25 26
M  V30 26 1 26 27
M  V30 27 1 26 28
M  V30 28 1 26 29
M  V30 29 2 25 30
M  V30 30 2 16 31
M  V30 31 1 9 32
M  V30 32 2 32 33
M  V30 33 1 33 34
M  V30 34 2 34 35
M  V30 35 1 35 4
M  V30 36 1 35 8
M  V30 37 1 31 12
M  V30 38 1 30 21
M  V30 39 1 1 36
M  V30 40 1 1 37
M  V30 41 1 5 38
M  V30 42 1 6 39
M  V30 43 1 7 40
M  V30 44 1 10 41
M  V30 45 1 11 42
M  V30 46 1 11 43
M  V30 47 1 13 44
M  V30 48 1 14 45
M  V30 49 1 15 46
M  V30 50 1 17 47
M  V30 51 1 20 48
M  V30 52 1 22 49
M  V30 53 1 23 50
M  V30 54 1 24 51
M  V30 55 1 30 52
M  V30 56 1 31 53
M  V30 57 1 33 54
M  V30 END BOND
M  V30 END CTAB
M  END
>  <Dataset>  (613) 
ChEMBL_Kinases

>  <Ligand_Instance>  (613) 
nan

>  <PDB_ID>  (613) 
nan

>  <Standardized_SMILES>  (613) 
NC(=O)c1cccc2c(NCc3cccc(NC(=O)Nc4cccc(C(F)(F)F)c4)c3)ncnc12

>  <Name>  (613) 
nan

>  <Pocket>  (613) 
nan

>  <ATP_Site>  (613) 
nan

>  <Peripheral>  (613) 
nan

>  <Num_H_Atoms_ProtBoundConf>  (613) 
nan

>  <Num_Resolved_Atoms>  (613) 
nan

>  <Num_Not_Resolved_Atoms>  (613) 
nan

$$$$
CHEMBL3670435
     RDKit          3D

  0  0  0  0  0  0  0  0  0  0999 V3000
M  V30 BEGIN CTAB
M  V30 COUNTS 47 49 0 0 0
M  V30 BEGIN ATOM
M  V30 1 C 2.232794 -4.518920 4.971707 0
M  V30 2 C 2.007616 -3.782827 3.675909 0
M  V30 3 N 2.875700 -2.596598 3.681678 0
M  V30 4 C 2.829211 -1.735394 2.534709 0
M  V30 5 O 2.032578 -2.072042 1.597028 0
M  V30 6 N 3.594519 -0.537447 2.351093 0
M  V30 7 C 3.351323 0.131679 1.107679 0
M  V30 8 C 4.091331 -0.162793 -0.018048 0
M  V30 9 C 3.785320 0.532306 -1.168590 0
M  V30 10 C 2.767105 1.487634 -1.171103 0
M  V30 11 C 2.035722 1.760651 -0.008459 0
M  V30 12 C 1.032192 2.818751 -0.302091 0
M  V30 13 N -0.174177 2.232932 -0.820785 0
M  V30 14 C -1.031615 1.327336 -0.157106 0
M  V30 15 N -0.839843 0.876480 1.087791 0
M  V30 16 C -1.634208 0.031726 1.723812 0
M  V30 17 N -2.727859 -0.447941 1.140013 0
M  V30 18 C -3.014155 -0.055633 -0.118851 0
M  V30 19 C -4.141915 -0.554708 -0.711388 0
M  V30 20 C -4.998381 -1.488840 0.024126 0
M  V30 21 N -4.680997 -1.884177 1.334805 0
M  V30 22 O -6.038662 -1.982621 -0.450808 0
M  V30 23 C -4.493407 -0.202477 -1.980562 0
M  V30 24 C -3.663875 0.680779 -2.647112 0
M  V30 25 C -2.534385 1.167342 -2.025309 0
M  V30 26 C -2.167292 0.822443 -0.748849 0
M  V30 27 C 2.352208 1.059596 1.132645 0
M  V30 28 H 2.987827 -5.319733 4.797434 0
M  V30 29 H 2.625414 -3.836549 5.727928 0
M  V30 30 H 1.293968 -5.020750 5.307479 0
M  V30 31 H 0.942973 -3.492517 3.579598 0
M  V30 32 H 2.285250 -4.433719 2.820857 0
M  V30 33 H 3.524234 -2.310104 4.429641 0
M  V30 34 H 4.216094 -0.342839 3.167125 0
M  V30 35 H 4.843466 -0.913869 0.111229 0
M  V30 36 H 4.382530 0.279020 -2.032421 0
M  V30 37 H 2.658902 1.941325 -2.163864 0
M  V30 38 H 1.445510 3.646825 -0.877761 0
M  V30 39 H 0.763124 3.267622 0.701929 0
M  V30 40 H -0.348151 2.567620 -1.783249 0
M  V30 41 H -1.291891 -0.205539 2.733920 0
M  V30 42 H -4.162641 -2.531072 1.950369 0
M  V30 43 H -4.845366 -1.678079 2.346481 0
M  V30 44 H -5.393210 -0.622876 -2.405897 0
M  V30 45 H -3.952167 0.957100 -3.661220 0
M  V30 46 H -1.964095 1.836868 -2.616718 0
M  V30 47 H 1.731466 1.359759 1.954804 0
M  V30 END ATOM
M  V30 BEGIN BOND
M  V30 1 1 1 2
M  V30 2 1 2 3
M  V30 3 1 3 4
M  V30 4 2 4 5
M  V30 5 1 4 6
M  V30 6 1 6 7
M  V30 7 2 7 8
M  V30 8 1 8 9
M  V30 9 2 9 10
M  V30 10 1 10 11
M  V30 11 1 11 12
M  V30 12 1 12 13
M  V30 13 1 13 14
M  V30 14 2 14 15
M  V30 15 1 15 16
M  V30 16 2 16 17
M  V30 17 1 17 18
M  V30 18 2 18 19
M  V30 19 1 19 20
M  V30 20 1 20 21
M  V30 21 2 20 22
M  V30 22 1 19 23
M  V30 23 2 23 24
M  V30 24 1 24 25
M  V30 25 2 25 26
M  V30 26 2 11 27
M  V30 27 1 27 7
M  V30 28 1 26 14
M  V30 29 1 26 18
M  V30 30 1 1 28
M  V30 31 1 1 29
M  V30 32 1 1 30
M  V30 33 1 2 31
M  V30 34 1 2 32
M  V30 35 1 3 33
M  V30 36 1 6 34
M  V30 37 1 8 35
M  V30 38 1 9 36
M  V30 39 1 10 37
M  V30 40 1 12 38
M  V30 41 1 12 39
M  V30 42 1 13 40
M  V30 43 1 16 41
M  V30 44 1 21 42
M  V30 45 1 21 43
M  V30 46 1 23 44
M  V30 47 1 24 45
M  V30 48 1 25 46
M  V30 49 1 27 47
M  V30 END BOND
M  V30 END CTAB
M  END
>  <Dataset>  (614) 
ChEMBL_Kinases

>  <Ligand_Instance>  (614) 
nan

>  <PDB_ID>  (614) 
nan

>  <Standardized_SMILES>  (614) 
CCNC(=O)Nc1cccc(CNc2ncnc3c(C(N)=O)cccc23)c1

>  <Name>  (614) 
nan

>  <Pocket>  (614) 
nan

>  <ATP_Site>  (614) 
nan

>  <Peripheral>  (614) 
nan

>  <Num_H_Atoms_ProtBoundConf>  (614) 
nan

>  <Num_Resolved_Atoms>  (614) 
nan

>  <Num_Not_Resolved_Atoms>  (614) 
nan

$$$$
CHEMBL3670432
     RDKit          3D

  0  0  0  0  0  0  0  0  0  0999 V3000
M  V30 BEGIN CTAB
M  V30 COUNTS 50 53 0 0 0
M  V30 BEGIN ATOM
M  V30 1 N 2.384610 -4.199236 4.203958 0
M  V30 2 C 3.030077 -3.082191 3.623469 0
M  V30 3 O 3.729207 -3.449537 4.558039 0
M  V30 4 C 2.560253 -2.321567 2.485778 0
M  V30 5 C 3.319944 -1.253218 2.089995 0
M  V30 6 C 2.863488 -0.520743 0.985794 0
M  V30 7 N 3.611079 0.583680 0.531738 0
M  V30 8 C 3.456825 1.566245 -0.518274 0
M  V30 9 C 2.313001 2.481518 -0.317019 0
M  V30 10 C 1.010166 2.499876 -0.756862 0
M  V30 11 C 0.130936 3.491334 -0.388451 0
M  V30 12 C 0.491391 4.537595 0.447072 0
M  V30 13 C 1.794069 4.525164 0.890702 0
M  V30 14 C 2.684360 3.537335 0.528731 0
M  V30 15 C 1.690064 -0.951799 0.406310 0
M  V30 16 C 0.938717 -2.027997 0.817097 0
M  V30 17 C -0.218776 -2.357543 0.152261 0
M  V30 18 N -0.729050 -1.667421 -0.968583 0
M  V30 19 C -1.934761 -1.991679 -1.673605 0
M  V30 20 C -3.173079 -1.886788 -0.887238 0
M  V30 21 C -3.676618 -0.579176 -0.933279 0
M  V30 22 C -4.855553 -0.233159 -0.265332 0
M  V30 23 C -5.567713 -1.161727 0.463054 0
M  V30 24 C -5.039093 -2.431111 0.482255 0
M  V30 25 C -3.879727 -2.813295 -0.162877 0
M  V30 26 N -0.841021 -3.423813 0.663735 0
M  V30 27 C -0.426879 -4.141254 1.717583 0
M  V30 28 N 0.710614 -3.783518 2.337410 0
M  V30 29 C 1.396651 -2.735250 1.898090 0
M  V30 30 H 1.542527 -4.806614 4.310763 0
M  V30 31 H 1.544828 -4.807296 4.312261 0
M  V30 32 H 4.219239 -1.022202 2.630574 0
M  V30 33 H 4.516316 0.773588 1.068665 0
M  V30 34 H 4.368334 2.123866 -0.726969 0
M  V30 35 H 3.229063 1.040488 -1.506233 0
M  V30 36 H 0.801334 1.666989 -1.408251 0
M  V30 37 H -0.859181 3.367870 -0.816399 0
M  V30 38 H -0.298716 5.243367 0.652745 0
M  V30 39 H 2.047700 5.363050 1.547463 0
M  V30 40 H 3.672494 3.700668 0.982063 0
M  V30 41 H 1.404142 -0.355781 -0.430919 0
M  V30 42 H -0.222031 -0.845456 -1.349518 0
M  V30 43 H -1.815038 -3.064018 -1.990418 0
M  V30 44 H -1.975515 -1.422985 -2.617264 0
M  V30 45 H -3.244801 0.264054 -1.455036 0
M  V30 46 H -5.266752 0.775507 -0.285608 0
M  V30 47 H -6.466653 -0.882268 0.966612 0
M  V30 48 H -5.566393 -3.201542 1.046166 0
M  V30 49 H -3.445693 -3.779321 -0.176256 0
M  V30 50 H -1.056862 -4.984124 2.003272 0
M  V30 END ATOM
M  V30 BEGIN BOND
M  V30 1 1 1 2
M  V30 2 2 2 3
M  V30 3 1 2 4
M  V30 4 2 4 5
M  V30 5 1 5 6
M  V30 6 1 6 7
M  V30 7 1 7 8
M  V30 8 1 8 9
M  V30 9 2 9 10
M  V30 10 1 10 11
M  V30 11 2 11 12
M  V30 12 1 12 13
M  V30 13 2 13 14
M  V30 14 2 6 15
M  V30 15 1 15 16
M  V30 16 2 16 17
M  V30 17 1 17 18
M  V30 18 1 18 19
M  V30 19 1 19 20
M  V30 20 2 20 21
M  V30 21 1 21 22
M  V30 22 2 22 23
M  V30 23 1 23 24
M  V30 24 2 24 25
M  V30 25 1 17 26
M  V30 26 2 26 27
M  V30 27 1 27 28
M  V30 28 2 28 29
M  V30 29 1 29 4
M  V30 30 1 14 9
M  V30 31 1 29 16
M  V30 32 1 25 20
M  V30 33 1 1 30
M  V30 34 1 1 31
M  V30 35 1 5 32
M  V30 36 1 7 33
M  V30 37 1 8 34
M  V30 38 1 8 35
M  V30 39 1 10 36
M  V30 40 1 11 37
M  V30 41 1 12 38
M  V30 42 1 13 39
M  V30 43 1 14 40
M  V30 44 1 15 41
M  V30 45 1 18 42
M  V30 46 1 19 43
M  V30 47 1 19 44
M  V30 48 1 21 45
M  V30 49 1 22 46
M  V30 50 1 23 47
M  V30 51 1 24 48
M  V30 52 1 25 49
M  V30 53 1 27 50
M  V30 END BOND
M  V30 END CTAB
M  END
>  <Dataset>  (615) 
ChEMBL_Kinases

>  <Ligand_Instance>  (615) 
nan

>  <PDB_ID>  (615) 
nan

>  <Standardized_SMILES>  (615) 
NC(=O)c1cc(NCc2ccccc2)cc2c(NCc3ccccc3)ncnc12

>  <Name>  (615) 
nan

>  <Pocket>  (615) 
nan

>  <ATP_Site>  (615) 
nan

>  <Peripheral>  (615) 
nan

>  <Num_H_Atoms_ProtBoundConf>  (615) 
nan

>  <Num_Resolved_Atoms>  (615) 
nan

>  <Num_Not_Resolved_Atoms>  (615) 
nan

$$$$
CHEMBL3670431
     RDKit          3D

  0  0  0  0  0  0  0  0  0  0999 V3000
M  V30 BEGIN CTAB
M  V30 COUNTS 35 37 0 0 0
M  V30 BEGIN ATOM
M  V30 1 N 3.255555 -2.760484 3.732880 0
M  V30 2 C 2.364041 -3.626802 3.065798 0
M  V30 3 O 2.428681 -4.785724 3.573713 0
M  V30 4 C 1.457386 -3.384795 1.965228 0
M  V30 5 C 0.713817 -4.442547 1.537275 0
M  V30 6 C -0.160683 -4.216730 0.477231 0
M  V30 7 C -0.240178 -2.957930 -0.088228 0
M  V30 8 C 0.499375 -1.897994 0.334393 0
M  V30 9 C 0.353275 -0.678705 -0.290500 0
M  V30 10 N -0.532537 -0.427583 -1.375564 0
M  V30 11 C -0.619786 0.898089 -1.974188 0
M  V30 12 C -1.060694 1.923404 -0.989194 0
M  V30 13 C -0.261092 2.880179 -0.400530 0
M  V30 14 C -0.752657 3.800467 0.501347 0
M  V30 15 C -2.088202 3.764949 0.826852 0
M  V30 16 C -2.944856 2.834330 0.275040 0
M  V30 17 C -2.392370 1.924753 -0.633928 0
M  V30 18 Br -3.689046 0.681679 -1.331983 0
M  V30 19 N 1.134277 0.287164 0.213956 0
M  V30 20 C 1.995585 0.133366 1.232263 0
M  V30 21 N 2.105258 -1.086800 1.816792 0
M  V30 22 C 1.363980 -2.135071 1.387712 0
M  V30 23 H 2.836744 -2.291045 4.567214 0
M  V30 24 H 4.234999 -2.579463 3.456356 0
M  V30 25 H 0.766799 -5.436276 1.972374 0
M  V30 26 H -0.754310 -5.060233 0.134953 0
M  V30 27 H -0.936358 -2.896036 -0.887075 0
M  V30 28 H -1.141543 -1.151981 -1.781919 0
M  V30 29 H -1.300334 0.861003 -2.847361 0
M  V30 30 H 0.383756 1.164971 -2.375866 0
M  V30 31 H 0.783927 2.890258 -0.676209 0
M  V30 32 H -0.093065 4.539796 0.945422 0
M  V30 33 H -2.417750 4.514470 1.542602 0
M  V30 34 H -3.977904 2.852289 0.564458 0
M  V30 35 H 2.580072 0.993577 1.557978 0
M  V30 END ATOM
M  V30 BEGIN BOND
M  V30 1 1 1 2
M  V30 2 2 2 3
M  V30 3 1 2 4
M  V30 4 2 4 5
M  V30 5 1 5 6
M  V30 6 2 6 7
M  V30 7 1 7 8
M  V30 8 2 8 9
M  V30 9 1 9 10
M  V30 10 1 10 11
M  V30 11 1 11 12
M  V30 12 2 12 13
M  V30 13 1 13 14
M  V30 14 2 14 15
M  V30 15 1 15 16
M  V30 16 2 16 17
M  V30 17 1 17 18
M  V30 18 1 9 19
M  V30 19 2 19 20
M  V30 20 1 20 21
M  V30 21 2 21 22
M  V30 22 1 22 4
M  V30 23 1 22 8
M  V30 24 1 17 12
M  V30 25 1 1 23
M  V30 26 1 1 24
M  V30 27 1 5 25
M  V30 28 1 6 26
M  V30 29 1 7 27
M  V30 30 1 10 28
M  V30 31 1 11 29
M  V30 32 1 11 30
M  V30 33 1 13 31
M  V30 34 1 14 32
M  V30 35 1 15 33
M  V30 36 1 16 34
M  V30 37 1 20 35
M  V30 END BOND
M  V30 END CTAB
M  END
>  <Dataset>  (616) 
ChEMBL_Kinases

>  <Ligand_Instance>  (616) 
nan

>  <PDB_ID>  (616) 
nan

>  <Standardized_SMILES>  (616) 
NC(=O)c1cccc2c(NCc3ccccc3Br)ncnc12

>  <Name>  (616) 
nan

>  <Pocket>  (616) 
nan

>  <ATP_Site>  (616) 
nan

>  <Peripheral>  (616) 
nan

>  <Num_H_Atoms_ProtBoundConf>  (616) 
nan

>  <Num_Resolved_Atoms>  (616) 
nan

>  <Num_Not_Resolved_Atoms>  (616) 
nan

$$$$
CHEMBL3670429
     RDKit          3D

  0  0  0  0  0  0  0  0  0  0999 V3000
M  V30 BEGIN CTAB
M  V30 COUNTS 41 43 0 0 0
M  V30 BEGIN ATOM
M  V30 1 C -0.320386 -6.925388 -1.060938 0
M  V30 2 S -0.028995 -5.832695 0.329064 0
M  V30 3 O -0.956260 -6.196445 1.442605 0
M  V30 4 O 1.389549 -6.040106 0.762897 0
M  V30 5 C -0.270157 -4.167365 -0.188822 0
M  V30 6 C -1.508647 -3.560182 -0.100873 0
M  V30 7 C -1.634524 -2.247077 -0.524848 0
M  V30 8 C -0.546860 -1.526219 -1.035953 0
M  V30 9 C -1.001827 -0.153993 -1.410276 0
M  V30 10 N -0.951114 0.780799 -0.301902 0
M  V30 11 C 0.220210 1.168876 0.395875 0
M  V30 12 N 1.449486 0.715657 0.110075 0
M  V30 13 C 2.568538 1.075895 0.759620 0
M  V30 14 N 2.519831 1.951389 1.780368 0
M  V30 15 C 1.321780 2.445728 2.120906 0
M  V30 16 C 1.265222 3.343537 3.166706 0
M  V30 17 C 2.475729 3.738792 3.875122 0
M  V30 18 N 3.765479 3.258293 3.568826 0
M  V30 19 O 2.466979 4.554752 4.833492 0
M  V30 20 C 0.071824 3.906150 3.588956 0
M  V30 21 C -1.083021 3.528635 2.911983 0
M  V30 22 C -0.969993 2.628176 1.874355 0
M  V30 23 C 0.185595 2.064018 1.442641 0
M  V30 24 C 0.672896 -2.163833 -1.109219 0
M  V30 25 C 0.776670 -3.452722 -0.688122 0
M  V30 26 H 0.383328 -7.767348 -1.020233 0
M  V30 27 H -0.116218 -6.337097 -1.965388 0
M  V30 28 H -1.360939 -7.280128 -1.049234 0
M  V30 29 H -2.298309 -4.164563 0.298112 0
M  V30 30 H -2.671993 -1.901027 -0.394975 0
M  V30 31 H -1.939986 -0.165329 -1.962110 0
M  V30 32 H -0.212700 0.238268 -2.128147 0
M  V30 33 H -1.882716 1.131815 -0.080533 0
M  V30 34 H 3.497851 0.628487 0.420192 0
M  V30 35 H 4.418955 2.932220 2.823743 0
M  V30 36 H 4.519397 3.100368 4.272503 0
M  V30 37 H 0.074891 4.601040 4.407870 0
M  V30 38 H -1.991270 3.985627 3.267355 0
M  V30 39 H -1.922137 2.404453 1.419217 0
M  V30 40 H 1.418440 -1.507470 -1.522831 0
M  V30 41 H 1.758236 -3.890038 -0.772994 0
M  V30 END ATOM
M  V30 BEGIN BOND
M  V30 1 1 1 2
M  V30 2 2 2 3
M  V30 3 2 2 4
M  V30 4 1 2 5
M  V30 5 2 5 6
M  V30 6 1 6 7
M  V30 7 2 7 8
M  V30 8 1 8 9
M  V30 9 1 9 10
M  V30 10 1 10 11
M  V30 11 2 11 12
M  V30 12 1 12 13
M  V30 13 2 13 14
M  V30 14 1 14 15
M  V30 15 2 15 16
M  V30 16 1 16 17
M  V30 17 1 17 18
M  V30 18 2 17 19
M  V30 19 1 16 20
M  V30 20 2 20 21
M  V30 21 1 21 22
M  V30 22 2 22 23
M  V30 23 1 8 24
M  V30 24 2 24 25
M  V30 25 1 25 5
M  V30 26 1 23 11
M  V30 27 1 23 15
M  V30 28 1 1 26
M  V30 29 1 1 27
M  V30 30 1 1 28
M  V30 31 1 6 29
M  V30 32 1 7 30
M  V30 33 1 9 31
M  V30 34 1 9 32
M  V30 35 1 10 33
M  V30 36 1 13 34
M  V30 37 1 18 35
M  V30 38 1 18 36
M  V30 39 1 20 37
M  V30 40 1 21 38
M  V30 41 1 22 39
M  V30 42 1 24 40
M  V30 43 1 25 41
M  V30 END BOND
M  V30 END CTAB
M  END
>  <Dataset>  (617) 
ChEMBL_Kinases

>  <Ligand_Instance>  (617) 
nan

>  <PDB_ID>  (617) 
nan

>  <Standardized_SMILES>  (617) 
CS(=O)(=O)c1ccc(CNc2ncnc3c(C(N)=O)cccc23)cc1

>  <Name>  (617) 
nan

>  <Pocket>  (617) 
nan

>  <ATP_Site>  (617) 
nan

>  <Peripheral>  (617) 
nan

>  <Num_H_Atoms_ProtBoundConf>  (617) 
nan

>  <Num_Resolved_Atoms>  (617) 
nan

>  <Num_Not_Resolved_Atoms>  (617) 
nan

$$$$
CHEMBL3394063
     RDKit          3D

  0  0  0  0  0  0  0  0  0  0999 V3000
M  V30 BEGIN CTAB
M  V30 COUNTS 40 44 0 0 0
M  V30 BEGIN ATOM
M  V30 1 C 1.224899 -8.132079 0.835789 0
M  V30 2 S 2.588325 -7.006873 0.529462 0
M  V30 3 C 2.072755 -5.390010 0.019390 0
M  V30 4 N 1.853552 -4.526109 0.736638 0
M  V30 5 N 1.475561 -3.313748 0.503454 0
M  V30 6 C 1.295181 -2.933403 -0.658197 0
M  V30 7 C 0.884562 -1.719534 -1.459890 0
M  V30 8 C 0.807810 -1.717974 -2.815660 0
M  V30 9 C 0.412174 -0.514430 -3.403758 0
M  V30 10 C 0.127768 0.581248 -2.592187 0
M  V30 11 N -0.268078 1.840126 -2.892193 0
M  V30 12 C -0.423023 2.566497 -1.759217 0
M  V30 13 C -0.115899 1.750364 -0.666338 0
M  V30 14 C -0.157348 2.147154 0.742784 0
M  V30 15 C 0.428627 3.387038 1.035012 0
M  V30 16 N 0.445821 3.857296 2.319475 0
M  V30 17 C -0.113283 3.107376 3.314281 0
M  V30 18 C -0.075314 3.617471 4.596966 0
M  V30 19 C -0.637367 2.876563 5.635200 0
M  V30 20 C -1.220663 1.650157 5.367293 0
M  V30 21 C -1.253286 1.149603 4.081935 0
M  V30 22 C -0.696910 1.883468 3.055506 0
M  V30 23 C -0.720762 1.395945 1.758307 0
M  V30 24 C 0.223362 0.522653 -1.206329 0
M  V30 25 C 0.617703 -0.674015 -0.605051 0
M  V30 26 S 1.707129 -4.487654 -1.639088 0
M  V30 27 H 1.150560 -8.889122 0.008296 0
M  V30 28 H 1.360911 -8.761869 1.757902 0
M  V30 29 H 0.262982 -7.585696 0.854129 0
M  V30 30 H 1.048130 -2.618172 -3.363851 0
M  V30 31 H 0.339702 -0.475337 -4.483494 0
M  V30 32 H -0.440928 2.233880 -3.858799 0
M  V30 33 H -0.734915 3.610763 -1.714211 0
M  V30 34 H 0.891696 4.028432 0.270795 0
M  V30 35 H 0.364610 4.568228 4.874300 0
M  V30 36 H -0.656836 3.195746 6.685461 0
M  V30 37 H -1.688407 0.982709 6.081423 0
M  V30 38 H -1.697037 0.188318 3.795147 0
M  V30 39 H -1.163553 0.445561 1.493706 0
M  V30 40 H 0.683266 -0.689016 0.471443 0
M  V30 END ATOM
M  V30 BEGIN BOND
M  V30 1 1 1 2
M  V30 2 1 2 3
M  V30 3 2 3 4
M  V30 4 1 4 5
M  V30 5 2 5 6
M  V30 6 1 6 7
M  V30 7 2 7 8
M  V30 8 1 8 9
M  V30 9 2 9 10
M  V30 10 1 10 11
M  V30 11 1 11 12
M  V30 12 2 12 13
M  V30 13 1 13 14
M  V30 14 2 14 15
M  V30 15 1 15 16
M  V30 16 2 16 17
M  V30 17 1 17 18
M  V30 18 2 18 19
M  V30 19 1 19 20
M  V30 20 2 20 21
M  V30 21 1 21 22
M  V30 22 2 22 23
M  V30 23 1 13 24
M  V30 24 2 24 25
M  V30 25 1 6 26
M  V30 26 1 26 3
M  V30 27 1 25 7
M  V30 28 1 24 10
M  V30 29 1 23 14
M  V30 30 1 22 17
M  V30 31 1 1 27
M  V30 32 1 1 28
M  V30 33 1 1 29
M  V30 34 1 8 30
M  V30 35 1 9 31
M  V30 36 1 11 32
M  V30 37 1 12 33
M  V30 38 1 15 34
M  V30 39 1 18 35
M  V30 40 1 19 36
M  V30 41 1 20 37
M  V30 42 1 21 38
M  V30 43 1 23 39
M  V30 44 1 25 40
M  V30 END BOND
M  V30 END CTAB
M  END
>  <Dataset>  (618) 
ChEMBL_Kinases

>  <Ligand_Instance>  (618) 
nan

>  <PDB_ID>  (618) 
nan

>  <Standardized_SMILES>  (618) 
CSc1nnc(-c2ccc3[nH]cc(-c4cnc5ccccc5c4)c3c2)s1

>  <Name>  (618) 
nan

>  <Pocket>  (618) 
nan

>  <ATP_Site>  (618) 
nan

>  <Peripheral>  (618) 
nan

>  <Num_H_Atoms_ProtBoundConf>  (618) 
nan

>  <Num_Resolved_Atoms>  (618) 
nan

>  <Num_Not_Resolved_Atoms>  (618) 
nan

$$$$
CHEMBL3670428
     RDKit          3D

  0  0  0  0  0  0  0  0  0  0999 V3000
M  V30 BEGIN CTAB
M  V30 COUNTS 50 52 0 0 0
M  V30 BEGIN ATOM
M  V30 1 C 2.047683 -5.218145 4.460792 0
M  V30 2 C 1.741729 -4.737692 3.061906 0
M  V30 3 C 1.640890 -5.932224 2.158818 0
M  V30 4 N 2.825293 -3.842585 2.628101 0
M  V30 5 C 2.515281 -2.502699 2.271448 0
M  V30 6 O 1.337886 -2.087558 2.324846 0
M  V30 7 N 3.560400 -1.609202 1.843868 0
M  V30 8 C 3.166890 -0.281495 1.503554 0
M  V30 9 C 3.145798 0.705830 2.463730 0
M  V30 10 C 2.757982 1.974025 2.084018 0
M  V30 11 C 2.395979 2.278092 0.790079 0
M  V30 12 C 2.402071 1.321269 -0.201977 0
M  V30 13 C 2.031813 1.453042 -1.635897 0
M  V30 14 N 0.651649 1.038497 -1.783536 0
M  V30 15 C -0.491626 1.615020 -1.199115 0
M  V30 16 N -0.420781 2.675056 -0.402536 0
M  V30 17 C -1.487275 3.248040 0.164074 0
M  V30 18 N -2.738342 2.776998 -0.039735 0
M  V30 19 C -2.879930 1.688974 -0.848862 0
M  V30 20 C -4.146718 1.201837 -1.062886 0
M  V30 21 C -5.276115 1.867096 -0.418444 0
M  V30 22 N -6.608654 1.397788 -0.610884 0
M  V30 23 O -5.141219 2.869527 0.326455 0
M  V30 24 C -4.367538 0.119977 -1.857486 0
M  V30 25 C -3.248413 -0.474734 -2.447062 0
M  V30 26 C -1.997213 0.048774 -2.203490 0
M  V30 27 C -1.753931 1.131376 -1.411100 0
M  V30 28 C 2.798725 0.055147 0.218123 0
M  V30 29 H 1.209441 -4.849025 5.120048 0
M  V30 30 H 3.016553 -4.772190 4.823592 0
M  V30 31 H 2.083662 -6.320522 4.492802 0
M  V30 32 H 0.806318 -4.130978 3.020698 0
M  V30 33 H 0.801032 -5.752481 1.442981 0
M  V30 34 H 2.576409 -6.174523 1.610205 0
M  V30 35 H 1.357471 -6.876594 2.691812 0
M  V30 36 H 3.815975 -4.220943 2.591983 0
M  V30 37 H 4.549706 -1.990421 1.808737 0
M  V30 38 H 3.418041 0.531890 3.495376 0
M  V30 39 H 2.716342 2.813387 2.794252 0
M  V30 40 H 2.101131 3.267913 0.475089 0
M  V30 41 H 2.170631 2.515538 -1.957778 0
M  V30 42 H 2.671272 0.766092 -2.212499 0
M  V30 43 H 0.521982 0.211167 -2.403676 0
M  V30 44 H -1.465394 4.118446 0.822619 0
M  V30 45 H -7.383503 1.409317 -1.331446 0
M  V30 46 H -7.293689 0.839891 -0.032236 0
M  V30 47 H -5.385132 -0.214905 -1.986547 0
M  V30 48 H -3.451686 -1.337999 -3.077766 0
M  V30 49 H -1.233712 -0.489986 -2.706624 0
M  V30 50 H 2.836355 -0.764540 -0.489157 0
M  V30 END ATOM
M  V30 BEGIN BOND
M  V30 1 1 1 2
M  V30 2 1 2 3
M  V30 3 1 2 4
M  V30 4 1 4 5
M  V30 5 2 5 6
M  V30 6 1 5 7
M  V30 7 1 7 8
M  V30 8 2 8 9
M  V30 9 1 9 10
M  V30 10 2 10 11
M  V30 11 1 11 12
M  V30 12 1 12 13
M  V30 13 1 13 14
M  V30 14 1 14 15
M  V30 15 2 15 16
M  V30 16 1 16 17
M  V30 17 2 17 18
M  V30 18 1 18 19
M  V30 19 2 19 20
M  V30 20 1 20 21
M  V30 21 1 21 22
M  V30 22 2 21 23
M  V30 23 1 20 24
M  V30 24 2 24 25
M  V30 25 1 25 26
M  V30 26 2 26 27
M  V30 27 2 12 28
M  V30 28 1 28 8
M  V30 29 1 27 15
M  V30 30 1 27 19
M  V30 31 1 1 29
M  V30 32 1 1 30
M  V30 33 1 1 31
M  V30 34 1 2 32
M  V30 35 1 3 33
M  V30 36 1 3 34
M  V30 37 1 3 35
M  V30 38 1 4 36
M  V30 39 1 7 37
M  V30 40 1 9 38
M  V30 41 1 10 39
M  V30 42 1 11 40
M  V30 43 1 13 41
M  V30 44 1 13 42
M  V30 45 1 14 43
M  V30 46 1 17 44
M  V30 47 1 22 45
M  V30 48 1 22 46
M  V30 49 1 24 47
M  V30 50 1 25 48
M  V30 51 1 26 49
M  V30 52 1 28 50
M  V30 END BOND
M  V30 END CTAB
M  END
>  <Dataset>  (619) 
ChEMBL_Kinases

>  <Ligand_Instance>  (619) 
nan

>  <PDB_ID>  (619) 
nan

>  <Standardized_SMILES>  (619) 
CC(C)NC(=O)Nc1cccc(CNc2ncnc3c(C(N)=O)cccc23)c1

>  <Name>  (619) 
nan

>  <Pocket>  (619) 
nan

>  <ATP_Site>  (619) 
nan

>  <Peripheral>  (619) 
nan

>  <Num_H_Atoms_ProtBoundConf>  (619) 
nan

>  <Num_Resolved_Atoms>  (619) 
nan

>  <Num_Not_Resolved_Atoms>  (619) 
nan

$$$$
CHEMBL3670447
     RDKit          3D

  0  0  0  0  0  0  0  0  0  0999 V3000
M  V30 BEGIN CTAB
M  V30 COUNTS 38 40 0 0 0
M  V30 BEGIN ATOM
M  V30 1 N -0.726000 -2.258072 5.174285 0
M  V30 2 C 0.689793 -2.310624 5.031982 0
M  V30 3 O 1.351256 -2.882981 5.939120 0
M  V30 4 C 1.384390 -1.732522 3.888876 0
M  V30 5 C 2.759908 -1.845479 3.860675 0
M  V30 6 C 3.381720 -1.281103 2.754087 0
M  V30 7 C 2.668826 -0.664233 1.776369 0
M  V30 8 C 1.296967 -0.549428 1.800679 0
M  V30 9 C 0.648417 0.086870 0.777693 0
M  V30 10 N 1.301915 0.653574 -0.338264 0
M  V30 11 C 0.475589 1.309457 -1.366528 0 CFG=2
M  V30 12 C -0.285496 2.432274 -0.768748 0
M  V30 13 O -1.070229 3.212461 -1.378950 0
M  V30 14 O -0.681023 3.239568 0.270139 0
M  V30 15 C -0.464556 0.329448 -1.959166 0
M  V30 16 C -1.807474 0.362107 -2.261825 0
M  V30 17 C -2.423179 -0.726757 -2.821707 0
M  V30 18 C -1.747906 -1.895011 -3.108896 0
M  V30 19 C -0.402101 -1.961987 -2.818590 0
M  V30 20 C 0.231631 -0.853114 -2.246859 0
M  V30 21 N -0.685655 0.145662 0.895232 0
M  V30 22 C -1.311401 -0.392397 1.955700 0
M  V30 23 N -0.665543 -1.024353 2.971418 0
M  V30 24 C 0.664325 -1.104933 2.893303 0
M  V30 25 H -0.841983 -1.232027 5.341923 0
M  V30 26 H -1.563511 -2.880754 5.158658 0
M  V30 27 H 3.288842 -2.336986 4.646187 0
M  V30 28 H 4.468561 -1.364029 2.720531 0
M  V30 29 H 3.254382 -0.263393 0.966460 0
M  V30 30 H 2.308279 0.670988 -0.536605 0
M  V30 31 H 1.068996 1.712043 -2.198607 0
M  V30 32 H -0.006807 3.820651 0.744097 0
M  V30 33 H -2.232354 1.317396 -1.996146 0
M  V30 34 H -3.487096 -0.567778 -3.010749 0
M  V30 35 H -2.324847 -2.707258 -3.554168 0
M  V30 36 H 0.070427 -2.884304 -3.059531 0
M  V30 37 H 1.286421 -1.067057 -2.080421 0
M  V30 38 H -2.398765 -0.327053 2.020526 0
M  V30 END ATOM
M  V30 BEGIN BOND
M  V30 1 1 1 2
M  V30 2 2 2 3
M  V30 3 1 2 4
M  V30 4 2 4 5
M  V30 5 1 5 6
M  V30 6 2 6 7
M  V30 7 1 7 8
M  V30 8 2 8 9
M  V30 9 1 9 10
M  V30 10 1 10 11
M  V30 11 1 11 12
M  V30 12 2 12 13
M  V30 13 1 12 14
M  V30 14 1 11 15
M  V30 15 2 15 16
M  V30 16 1 16 17
M  V30 17 2 17 18
M  V30 18 1 18 19
M  V30 19 2 19 20
M  V30 20 1 9 21
M  V30 21 2 21 22
M  V30 22 1 22 23
M  V30 23 2 23 24
M  V30 24 1 24 4
M  V30 25 1 24 8
M  V30 26 1 20 15
M  V30 27 1 1 25
M  V30 28 1 1 26
M  V30 29 1 5 27
M  V30 30 1 6 28
M  V30 31 1 7 29
M  V30 32 1 10 30
M  V30 33 1 11 31 CFG=3
M  V30 34 1 14 32
M  V30 35 1 16 33
M  V30 36 1 17 34
M  V30 37 1 18 35
M  V30 38 1 19 36
M  V30 39 1 20 37
M  V30 40 1 22 38
M  V30 END BOND
M  V30 END CTAB
M  END
>  <Dataset>  (620) 
ChEMBL_Kinases

>  <Ligand_Instance>  (620) 
nan

>  <PDB_ID>  (620) 
nan

>  <Standardized_SMILES>  (620) 
NC(=O)c1cccc2c(N[C@H](C(=O)O)c3ccccc3)ncnc12

>  <Name>  (620) 
nan

>  <Pocket>  (620) 
nan

>  <ATP_Site>  (620) 
nan

>  <Peripheral>  (620) 
nan

>  <Num_H_Atoms_ProtBoundConf>  (620) 
nan

>  <Num_Resolved_Atoms>  (620) 
nan

>  <Num_Not_Resolved_Atoms>  (620) 
nan

$$$$
CHEMBL3670423
     RDKit          3D

  0  0  0  0  0  0  0  0  0  0999 V3000
M  V30 BEGIN CTAB
M  V30 COUNTS 51 54 0 0 0
M  V30 BEGIN ATOM
M  V30 1 N 1.344971 -5.085270 2.529084 0
M  V30 2 C 2.237836 -4.624756 3.578639 0
M  V30 3 O 1.881990 -5.773313 3.864297 0
M  V30 4 C 2.756866 -3.289705 3.411224 0
M  V30 5 C 3.526523 -2.889791 4.497639 0
M  V30 6 C 4.092477 -1.608368 4.433067 0
M  V30 7 C 3.829078 -0.886423 3.310131 0
M  V30 8 C 3.062881 -1.307679 2.248630 0
M  V30 9 C 2.852994 -0.504784 1.140142 0
M  V30 10 N 3.407557 0.784127 1.027128 0
M  V30 11 C 3.247364 1.697294 -0.090517 0
M  V30 12 C 1.845547 2.134297 -0.297808 0
M  V30 13 C 1.493779 3.258898 0.459592 0
M  V30 14 C 0.251522 3.843472 0.412023 0
M  V30 15 C -0.709473 3.312116 -0.414776 0
M  V30 16 C -0.387442 2.204171 -1.170589 0
M  V30 17 N -1.331046 1.586478 -2.070700 0
M  V30 18 C -2.197187 0.600916 -1.499811 0
M  V30 19 O -2.095588 0.338659 -0.269139 0
M  V30 20 N -3.197249 -0.144994 -2.181440 0
M  V30 21 C -3.954020 -1.072830 -1.378386 0
M  V30 22 C -5.069686 -0.375475 -0.912368 0
M  V30 23 C -6.021173 -0.994799 -0.091212 0
M  V30 24 C -5.797414 -2.335541 0.234899 0
M  V30 25 C -4.686033 -2.999549 -0.239936 0
M  V30 26 Cl -4.363513 -4.669284 0.140358 0
M  V30 27 C -3.762766 -2.373142 -1.045920 0
M  V30 28 C 0.845671 1.644021 -1.107679 0
M  V30 29 N 2.108693 -0.995113 0.167530 0
M  V30 30 C 1.562070 -2.213547 0.215135 0
M  V30 31 N 1.747225 -3.016724 1.276435 0
M  V30 32 C 2.496981 -2.555369 2.284221 0
M  V30 33 H 0.451391 -4.930287 1.964999 0
M  V30 34 H 0.433264 -4.800859 2.054703 0
M  V30 35 H 3.709686 -3.494911 5.369219 0
M  V30 36 H 4.702219 -1.252467 5.258150 0
M  V30 37 H 4.288142 0.086019 3.317930 0
M  V30 38 H 3.990081 1.207229 1.744629 0
M  V30 39 H 3.883447 2.588583 -0.045046 0
M  V30 40 H 3.606366 1.167065 -1.035380 0
M  V30 41 H 2.192296 3.757466 1.150368 0
M  V30 42 H -0.005222 4.711014 1.001464 0
M  V30 43 H -1.720243 3.732435 -0.496765 0
M  V30 44 H -1.541428 1.699924 -3.107527 0
M  V30 45 H -3.276616 0.067130 -3.220785 0
M  V30 46 H -5.377504 0.662203 -1.079209 0
M  V30 47 H -6.908797 -0.541957 0.314878 0
M  V30 48 H -6.448825 -2.940503 0.859626 0
M  V30 49 H -2.859980 -2.756426 -1.484933 0
M  V30 50 H 1.150987 0.784401 -1.683881 0
M  V30 51 H 0.959001 -2.560756 -0.617673 0
M  V30 END ATOM
M  V30 BEGIN BOND
M  V30 1 1 1 2
M  V30 2 2 2 3
M  V30 3 1 2 4
M  V30 4 2 4 5
M  V30 5 1 5 6
M  V30 6 2 6 7
M  V30 7 1 7 8
M  V30 8 2 8 9
M  V30 9 1 9 10
M  V30 10 1 10 11
M  V30 11 1 11 12
M  V30 12 2 12 13
M  V30 13 1 13 14
M  V30 14 2 14 15
M  V30 15 1 15 16
M  V30 16 1 16 17
M  V30 17 1 17 18
M  V30 18 2 18 19
M  V30 19 1 18 20
M  V30 20 1 20 21
M  V30 21 2 21 22
M  V30 22 1 22 23
M  V30 23 2 23 24
M  V30 24 1 24 25
M  V30 25 1 25 26
M  V30 26 2 25 27
M  V30 27 2 16 28
M  V30 28 1 9 29
M  V30 29 2 29 30
M  V30 30 1 30 31
M  V30 31 2 31 32
M  V30 32 1 32 4
M  V30 33 1 32 8
M  V30 34 1 28 12
M  V30 35 1 27 21
M  V30 36 1 1 33
M  V30 37 1 1 34
M  V30 38 1 5 35
M  V30 39 1 6 36
M  V30 40 1 7 37
M  V30 41 1 10 38
M  V30 42 1 11 39
M  V30 43 1 11 40
M  V30 44 1 13 41
M  V30 45 1 14 42
M  V30 46 1 15 43
M  V30 47 1 17 44
M  V30 48 1 20 45
M  V30 49 1 22 46
M  V30 50 1 23 47
M  V30 51 1 24 48
M  V30 52 1 27 49
M  V30 53 1 28 50
M  V30 54 1 30 51
M  V30 END BOND
M  V30 END CTAB
M  END
>  <Dataset>  (621) 
ChEMBL_Kinases

>  <Ligand_Instance>  (621) 
nan

>  <PDB_ID>  (621) 
nan

>  <Standardized_SMILES>  (621) 
NC(=O)c1cccc2c(NCc3cccc(NC(=O)Nc4cccc(Cl)c4)c3)ncnc12

>  <Name>  (621) 
nan

>  <Pocket>  (621) 
nan

>  <ATP_Site>  (621) 
nan

>  <Peripheral>  (621) 
nan

>  <Num_H_Atoms_ProtBoundConf>  (621) 
nan

>  <Num_Resolved_Atoms>  (621) 
nan

>  <Num_Not_Resolved_Atoms>  (621) 
nan

$$$$
CHEMBL3670420
     RDKit          3D

  0  0  0  0  0  0  0  0  0  0999 V3000
M  V30 BEGIN CTAB
M  V30 COUNTS 46 49 0 0 0
M  V30 BEGIN ATOM
M  V30 1 N 3.830594 -7.313266 -0.182281 0
M  V30 2 C 2.814562 -6.412774 -0.600789 0
M  V30 3 O 1.724868 -6.785927 -1.125315 0
M  V30 4 C 3.019066 -4.979485 -0.425364 0
M  V30 5 C 4.180502 -4.498015 0.141727 0
M  V30 6 C 4.361854 -3.141122 0.300224 0
M  V30 7 C 3.377679 -2.299027 -0.112188 0
M  V30 8 C 2.184733 -2.677217 -0.688272 0
M  V30 9 C 1.158429 -1.828458 -1.120108 0
M  V30 10 N 1.495773 -0.508090 -0.893378 0
M  V30 11 C 1.813539 0.846392 -0.673962 0
M  V30 12 C 0.905971 1.636131 0.185456 0
M  V30 13 C 1.005075 1.794690 1.552007 0
M  V30 14 C 0.109598 2.549371 2.280294 0
M  V30 15 C -0.933185 3.171611 1.593338 0
M  V30 16 O -1.895029 3.961549 2.253334 0
M  V30 17 C -3.058660 3.327613 2.729850 0
M  V30 18 C -3.314077 1.977777 2.591840 0
M  V30 19 C -4.489058 1.432871 3.091720 0
M  V30 20 C -5.396383 2.258880 3.727343 0
M  V30 21 C -5.104189 3.598095 3.844232 0
M  V30 22 C -3.948886 4.174060 3.360863 0
M  V30 23 C -1.038779 3.017338 0.224430 0
M  V30 24 C -0.143178 2.263581 -0.497165 0
M  V30 25 N 0.089733 -2.440747 -1.651245 0
M  V30 26 C -0.016387 -3.766142 -1.772819 0
M  V30 27 N 0.971649 -4.549051 -1.355297 0
M  V30 28 C 2.079833 -4.049088 -0.811928 0
M  V30 29 H 4.036178 -7.731436 0.751585 0
M  V30 30 H 3.991416 -7.706078 0.783735 0
M  V30 31 H 4.940537 -5.199208 0.457368 0
M  V30 32 H 5.272906 -2.766739 0.745131 0
M  V30 33 H 3.560299 -1.254918 0.029362 0
M  V30 34 H 0.578760 -0.111906 -1.295546 0
M  V30 35 H 1.995992 1.428541 -1.599446 0
M  V30 36 H 2.827052 0.953421 -0.136553 0
M  V30 37 H 1.832786 1.290593 2.036019 0
M  V30 38 H 0.194461 2.667783 3.347309 0
M  V30 39 H -2.512250 1.462542 2.072918 0
M  V30 40 H -4.538258 0.353208 2.900887 0
M  V30 41 H -6.266907 1.751029 4.076898 0
M  V30 42 H -5.888643 4.148340 4.361199 0
M  V30 43 H -3.811833 5.238176 3.502871 0
M  V30 44 H -1.847816 3.500310 -0.305761 0
M  V30 45 H -0.284689 2.183259 -1.573156 0
M  V30 46 H -0.977342 -4.014934 -2.233465 0
M  V30 END ATOM
M  V30 BEGIN BOND
M  V30 1 1 1 2
M  V30 2 2 2 3
M  V30 3 1 2 4
M  V30 4 2 4 5
M  V30 5 1 5 6
M  V30 6 2 6 7
M  V30 7 1 7 8
M  V30 8 2 8 9
M  V30 9 1 9 10
M  V30 10 1 10 11
M  V30 11 1 11 12
M  V30 12 2 12 13
M  V30 13 1 13 14
M  V30 14 2 14 15
M  V30 15 1 15 16
M  V30 16 1 16 17
M  V30 17 2 17 18
M  V30 18 1 18 19
M  V30 19 2 19 20
M  V30 20 1 20 21
M  V30 21 2 21 22
M  V30 22 1 15 23
M  V30 23 2 23 24
M  V30 24 1 9 25
M  V30 25 2 25 26
M  V30 26 1 26 27
M  V30 27 2 27 28
M  V30 28 1 28 4
M  V30 29 1 28 8
M  V30 30 1 24 12
M  V30 31 1 22 17
M  V30 32 1 1 29
M  V30 33 1 1 30
M  V30 34 1 5 31
M  V30 35 1 6 32
M  V30 36 1 7 33
M  V30 37 1 10 34
M  V30 38 1 11 35
M  V30 39 1 11 36
M  V30 40 1 13 37
M  V30 41 1 14 38
M  V30 42 1 18 39
M  V30 43 1 19 40
M  V30 44 1 20 41
M  V30 45 1 21 42
M  V30 46 1 22 43
M  V30 47 1 23 44
M  V30 48 1 24 45
M  V30 49 1 26 46
M  V30 END BOND
M  V30 END CTAB
M  END
>  <Dataset>  (622) 
ChEMBL_Kinases

>  <Ligand_Instance>  (622) 
nan

>  <PDB_ID>  (622) 
nan

>  <Standardized_SMILES>  (622) 
NC(=O)c1cccc2c(NCc3ccc(Oc4ccccc4)cc3)ncnc12

>  <Name>  (622) 
nan

>  <Pocket>  (622) 
nan

>  <ATP_Site>  (622) 
nan

>  <Peripheral>  (622) 
nan

>  <Num_H_Atoms_ProtBoundConf>  (622) 
nan

>  <Num_Resolved_Atoms>  (622) 
nan

>  <Num_Not_Resolved_Atoms>  (622) 
nan

$$$$
CHEMBL3670419
     RDKit          3D

  0  0  0  0  0  0  0  0  0  0999 V3000
M  V30 BEGIN CTAB
M  V30 COUNTS 35 37 0 0 0
M  V30 BEGIN ATOM
M  V30 1 N 3.307802 -2.843412 3.453826 0
M  V30 2 C 2.255505 -3.734745 3.130238 0
M  V30 3 O 2.246495 -4.809843 3.771037 0
M  V30 4 C 1.233805 -3.460052 2.128690 0
M  V30 5 C 0.268908 -4.405720 1.909410 0
M  V30 6 C -0.691699 -4.120538 0.951653 0
M  V30 7 C -0.628038 -2.918673 0.279215 0
M  V30 8 C 0.332174 -1.954208 0.483321 0
M  V30 9 C 0.327141 -0.777262 -0.230237 0
M  V30 10 N -0.651464 -0.480673 -1.215145 0
M  V30 11 C -0.716949 0.735717 -1.998965 0
M  V30 12 C -0.915225 1.900940 -1.129658 0
M  V30 13 C -0.014367 2.770494 -0.582664 0
M  V30 14 C -0.399200 3.812773 0.233677 0
M  V30 15 C -1.727835 4.036489 0.545044 0
M  V30 16 C -2.656743 3.189577 0.017378 0
M  V30 17 Br -4.478526 3.499916 0.446599 0
M  V30 18 C -2.248860 2.167311 -0.786348 0
M  V30 19 N 1.336012 0.035736 0.105063 0
M  V30 20 C 2.279294 -0.192747 1.014462 0
M  V30 21 N 2.242083 -1.358666 1.686810 0
M  V30 22 C 1.271156 -2.267251 1.440189 0
M  V30 23 H 4.282879 -3.188037 3.689837 0
M  V30 24 H 3.597043 -1.859410 3.583096 0
M  V30 25 H 0.287537 -5.316433 2.473639 0
M  V30 26 H -1.442325 -4.873322 0.791376 0
M  V30 27 H -1.426088 -2.811938 -0.437854 0
M  V30 28 H -1.395681 -1.150148 -1.426821 0
M  V30 29 H -1.555193 0.684434 -2.722479 0
M  V30 30 H 0.216916 0.812753 -2.605785 0
M  V30 31 H 1.007143 2.591917 -0.838824 0
M  V30 32 H 0.359853 4.469769 0.638812 0
M  V30 33 H -1.991643 4.862362 1.187398 0
M  V30 34 H -3.072362 1.539649 -1.162689 0
M  V30 35 H 3.054615 0.541785 1.205991 0
M  V30 END ATOM
M  V30 BEGIN BOND
M  V30 1 1 1 2
M  V30 2 2 2 3
M  V30 3 1 2 4
M  V30 4 2 4 5
M  V30 5 1 5 6
M  V30 6 2 6 7
M  V30 7 1 7 8
M  V30 8 2 8 9
M  V30 9 1 9 10
M  V30 10 1 10 11
M  V30 11 1 11 12
M  V30 12 2 12 13
M  V30 13 1 13 14
M  V30 14 2 14 15
M  V30 15 1 15 16
M  V30 16 1 16 17
M  V30 17 2 16 18
M  V30 18 1 9 19
M  V30 19 2 19 20
M  V30 20 1 20 21
M  V30 21 2 21 22
M  V30 22 1 22 4
M  V30 23 1 22 8
M  V30 24 1 18 12
M  V30 25 1 1 23
M  V30 26 1 1 24
M  V30 27 1 5 25
M  V30 28 1 6 26
M  V30 29 1 7 27
M  V30 30 1 10 28
M  V30 31 1 11 29
M  V30 32 1 11 30
M  V30 33 1 13 31
M  V30 34 1 14 32
M  V30 35 1 15 33
M  V30 36 1 18 34
M  V30 37 1 20 35
M  V30 END BOND
M  V30 END CTAB
M  END
>  <Dataset>  (623) 
ChEMBL_Kinases

>  <Ligand_Instance>  (623) 
nan

>  <PDB_ID>  (623) 
nan

>  <Standardized_SMILES>  (623) 
NC(=O)c1cccc2c(NCc3cccc(Br)c3)ncnc12

>  <Name>  (623) 
nan

>  <Pocket>  (623) 
nan

>  <ATP_Site>  (623) 
nan

>  <Peripheral>  (623) 
nan

>  <Num_H_Atoms_ProtBoundConf>  (623) 
nan

>  <Num_Resolved_Atoms>  (623) 
nan

>  <Num_Not_Resolved_Atoms>  (623) 
nan

$$$$
CHEMBL3670418
     RDKit          3D

  0  0  0  0  0  0  0  0  0  0999 V3000
M  V30 BEGIN CTAB
M  V30 COUNTS 32 34 0 0 0
M  V30 BEGIN ATOM
M  V30 1 N -2.231859 -2.250189 4.137970 0
M  V30 2 C -1.090400 -3.085829 4.026378 0
M  V30 3 O -0.852793 -3.938583 4.912906 0
M  V30 4 C -0.185063 -2.951986 2.870209 0
M  V30 5 C 0.915527 -3.774402 2.784960 0
M  V30 6 C 1.732182 -3.615495 1.690904 0
M  V30 7 C 1.429341 -2.664055 0.742547 0
M  V30 8 C 0.338629 -1.831015 0.802896 0
M  V30 9 C 0.094107 -0.899690 -0.181345 0
M  V30 10 N 0.934738 -0.740672 -1.310065 0
M  V30 11 C 0.713321 0.229365 -2.366288 0
M  V30 12 C 0.776401 1.567571 -1.823200 0
M  V30 13 C -0.119851 2.525276 -1.315935 0
M  V30 14 C 0.326359 3.725516 -0.864162 0
M  V30 15 C 1.768279 3.909387 -0.956405 0
M  V30 16 S 2.365349 2.384811 -1.666967 0
M  V30 17 N -1.010502 -0.176679 0.041569 0
M  V30 18 C -1.829375 -0.298359 1.088145 0
M  V30 19 N -1.557786 -1.222748 2.033872 0
M  V30 20 C -0.461907 -2.009511 1.905815 0
M  V30 21 H -1.783137 -1.369708 4.459354 0
M  V30 22 H -3.270820 -2.272385 4.003047 0
M  V30 23 H 1.063993 -4.488097 3.581251 0
M  V30 24 H 2.592265 -4.274267 1.645837 0
M  V30 25 H 2.139335 -2.633758 -0.063952 0
M  V30 26 H 1.770287 -1.312113 -1.455606 0
M  V30 27 H 1.458730 0.132369 -3.181179 0
M  V30 28 H -0.270605 0.016130 -2.889090 0
M  V30 29 H -1.148649 2.203650 -1.338116 0
M  V30 30 H -0.363164 4.460309 -0.474395 0
M  V30 31 H 2.150739 4.944963 -0.566370 0
M  V30 32 H -2.695785 0.365897 1.132785 0
M  V30 END ATOM
M  V30 BEGIN BOND
M  V30 1 1 1 2
M  V30 2 2 2 3
M  V30 3 1 2 4
M  V30 4 2 4 5
M  V30 5 1 5 6
M  V30 6 2 6 7
M  V30 7 1 7 8
M  V30 8 2 8 9
M  V30 9 1 9 10
M  V30 10 1 10 11
M  V30 11 1 11 12
M  V30 12 2 12 13
M  V30 13 1 13 14
M  V30 14 2 14 15
M  V30 15 1 15 16
M  V30 16 1 9 17
M  V30 17 2 17 18
M  V30 18 1 18 19
M  V30 19 2 19 20
M  V30 20 1 20 4
M  V30 21 1 20 8
M  V30 22 1 16 12
M  V30 23 1 1 21
M  V30 24 1 1 22
M  V30 25 1 5 23
M  V30 26 1 6 24
M  V30 27 1 7 25
M  V30 28 1 10 26
M  V30 29 1 11 27
M  V30 30 1 11 28
M  V30 31 1 13 29
M  V30 32 1 14 30
M  V30 33 1 15 31
M  V30 34 1 18 32
M  V30 END BOND
M  V30 END CTAB
M  END
>  <Dataset>  (624) 
ChEMBL_Kinases

>  <Ligand_Instance>  (624) 
nan

>  <PDB_ID>  (624) 
nan

>  <Standardized_SMILES>  (624) 
NC(=O)c1cccc2c(NCc3cccs3)ncnc12

>  <Name>  (624) 
nan

>  <Pocket>  (624) 
nan

>  <ATP_Site>  (624) 
nan

>  <Peripheral>  (624) 
nan

>  <Num_H_Atoms_ProtBoundConf>  (624) 
nan

>  <Num_Resolved_Atoms>  (624) 
nan

>  <Num_Not_Resolved_Atoms>  (624) 
nan

$$$$
CHEMBL3670415
     RDKit          3D

  0  0  0  0  0  0  0  0  0  0999 V3000
M  V30 BEGIN CTAB
M  V30 COUNTS 35 37 0 0 0
M  V30 BEGIN ATOM
M  V30 1 N 2.350850 -4.721514 3.911329 0
M  V30 2 C 2.239105 -3.528263 3.153882 0
M  V30 3 O 3.088370 -2.646121 3.507261 0
M  V30 4 C 1.254030 -3.342240 2.087387 0
M  V30 5 C 0.356823 -4.328774 1.743681 0
M  V30 6 C -0.526454 -4.042654 0.722628 0
M  V30 7 C -0.474182 -2.811165 0.105214 0
M  V30 8 C 0.413809 -1.811813 0.432919 0
M  V30 9 C 0.398727 -0.609049 -0.234843 0
M  V30 10 N -0.508096 -0.313746 -1.289150 0
M  V30 11 C -0.566057 0.932148 -2.019505 0
M  V30 12 C -0.888263 2.087398 -1.145373 0
M  V30 13 C -0.041453 2.976569 -0.520189 0
M  V30 14 C -0.506646 3.992205 0.274701 0
M  V30 15 C -1.837614 4.190360 0.499165 0
M  V30 16 Br -2.394937 5.624895 1.616361 0
M  V30 17 C -2.730733 3.334832 -0.098553 0
M  V30 18 C -2.240691 2.326046 -0.889366 0
M  V30 19 N 1.325135 0.251098 0.206199 0
M  V30 20 C 2.203459 0.033215 1.185364 0
M  V30 21 N 2.183167 -1.159533 1.813006 0
M  V30 22 C 1.284603 -2.119790 1.453610 0
M  V30 23 H 3.205566 -5.339783 4.007256 0
M  V30 24 H 3.095217 -5.430459 4.109044 0
M  V30 25 H 0.442324 -5.238470 2.321407 0
M  V30 26 H -1.219391 -4.828908 0.470390 0
M  V30 27 H -1.215741 -2.718443 -0.671823 0
M  V30 28 H -1.193591 -1.019342 -1.584498 0
M  V30 29 H -1.366036 0.874550 -2.774809 0
M  V30 30 H 0.379120 1.113491 -2.593172 0
M  V30 31 H 1.009614 2.817678 -0.711555 0
M  V30 32 H 0.223505 4.653911 0.734783 0
M  V30 33 H -3.784817 3.465698 0.059253 0
M  V30 34 H -2.988553 1.680162 -1.336512 0
M  V30 35 H 2.923992 0.784358 1.483796 0
M  V30 END ATOM
M  V30 BEGIN BOND
M  V30 1 1 1 2
M  V30 2 2 2 3
M  V30 3 1 2 4
M  V30 4 2 4 5
M  V30 5 1 5 6
M  V30 6 2 6 7
M  V30 7 1 7 8
M  V30 8 2 8 9
M  V30 9 1 9 10
M  V30 10 1 10 11
M  V30 11 1 11 12
M  V30 12 2 12 13
M  V30 13 1 13 14
M  V30 14 2 14 15
M  V30 15 1 15 16
M  V30 16 1 15 17
M  V30 17 2 17 18
M  V30 18 1 9 19
M  V30 19 2 19 20
M  V30 20 1 20 21
M  V30 21 2 21 22
M  V30 22 1 22 4
M  V30 23 1 22 8
M  V30 24 1 18 12
M  V30 25 1 1 23
M  V30 26 1 1 24
M  V30 27 1 5 25
M  V30 28 1 6 26
M  V30 29 1 7 27
M  V30 30 1 10 28
M  V30 31 1 11 29
M  V30 32 1 11 30
M  V30 33 1 13 31
M  V30 34 1 14 32
M  V30 35 1 17 33
M  V30 36 1 18 34
M  V30 37 1 20 35
M  V30 END BOND
M  V30 END CTAB
M  END
>  <Dataset>  (625) 
ChEMBL_Kinases

>  <Ligand_Instance>  (625) 
nan

>  <PDB_ID>  (625) 
nan

>  <Standardized_SMILES>  (625) 
NC(=O)c1cccc2c(NCc3ccc(Br)cc3)ncnc12

>  <Name>  (625) 
nan

>  <Pocket>  (625) 
nan

>  <ATP_Site>  (625) 
nan

>  <Peripheral>  (625) 
nan

>  <Num_H_Atoms_ProtBoundConf>  (625) 
nan

>  <Num_Resolved_Atoms>  (625) 
nan

>  <Num_Not_Resolved_Atoms>  (625) 
nan

$$$$
CHEMBL3670414
     RDKit          3D

  0  0  0  0  0  0  0  0  0  0999 V3000
M  V30 BEGIN CTAB
M  V30 COUNTS 39 41 0 0 0
M  V30 BEGIN ATOM
M  V30 1 N 2.404229 -5.136208 -0.440951 0
M  V30 2 C 1.873590 -4.696388 0.504872 0
M  V30 3 C 1.206327 -4.131748 1.664917 0
M  V30 4 C 1.272812 -2.643882 1.585514 0 CFG=1
M  V30 5 N 0.640322 -2.080137 0.406642 0
M  V30 6 C 0.654321 -0.667771 0.239901 0
M  V30 7 N 1.235895 0.125953 1.146206 0
M  V30 8 C 1.282725 1.466655 1.046161 0
M  V30 9 N 0.716979 2.071287 -0.022014 0
M  V30 10 C 0.109973 1.354855 -0.983053 0
M  V30 11 C -0.463302 1.982675 -2.067378 0
M  V30 12 C -0.424826 3.436708 -2.196677 0
M  V30 13 N 0.212672 4.202885 -1.186428 0
M  V30 14 O -0.941624 4.029605 -3.179629 0
M  V30 15 C -1.074219 1.199962 -3.026154 0
M  V30 16 C -1.130311 -0.189490 -2.935484 0
M  V30 17 C -0.535616 -0.746661 -1.823441 0
M  V30 18 C 0.088220 -0.015994 -0.835302 0
M  V30 19 C 0.593418 -2.038363 2.783604 0
M  V30 20 C 1.371454 -1.585020 3.828724 0
M  V30 21 C 0.802448 -1.012314 4.971122 0
M  V30 22 C -0.574791 -0.929064 4.988806 0
M  V30 23 C -1.370460 -1.378093 3.950713 0
M  V30 24 C -0.781576 -1.944000 2.824970 0
M  V30 25 H 0.134829 -4.427125 1.641821 0
M  V30 26 H 1.696865 -4.426126 2.613296 0
M  V30 27 H 2.323297 -2.265274 1.560054 0
M  V30 28 H 0.229953 -2.780430 -0.213978 0
M  V30 29 H 1.795344 1.954784 1.873671 0
M  V30 30 H -0.048736 4.964564 -0.495850 0
M  V30 31 H 0.077988 4.938069 -0.478587 0
M  V30 32 H -1.512940 1.754114 -3.866372 0
M  V30 33 H -1.620978 -0.759036 -3.713085 0
M  V30 34 H -0.592772 -1.824872 -1.777040 0
M  V30 35 H 2.449356 -1.654752 3.805356 0
M  V30 36 H 1.410619 -0.655530 5.793101 0
M  V30 37 H -1.093340 -0.495950 5.842314 0
M  V30 38 H -2.446968 -1.334583 3.919168 0
M  V30 39 H -1.384213 -2.304111 1.996605 0
M  V30 END ATOM
M  V30 BEGIN BOND
M  V30 1 3 1 2
M  V30 2 1 2 3
M  V30 3 1 3 4
M  V30 4 1 4 5
M  V30 5 1 5 6
M  V30 6 2 6 7
M  V30 7 1 7 8
M  V30 8 2 8 9
M  V30 9 1 9 10
M  V30 10 2 10 11
M  V30 11 1 11 12
M  V30 12 1 12 13
M  V30 13 2 12 14
M  V30 14 1 11 15
M  V30 15 2 15 16
M  V30 16 1 16 17
M  V30 17 2 17 18
M  V30 18 1 4 19
M  V30 19 2 19 20
M  V30 20 1 20 21
M  V30 21 2 21 22
M  V30 22 1 22 23
M  V30 23 2 23 24
M  V30 24 1 18 6
M  V30 25 1 24 19
M  V30 26 1 18 10
M  V30 27 1 3 25
M  V30 28 1 3 26
M  V30 29 1 4 27 CFG=1
M  V30 30 1 5 28
M  V30 31 1 8 29
M  V30 32 1 13 30
M  V30 33 1 13 31
M  V30 34 1 15 32
M  V30 35 1 16 33
M  V30 36 1 17 34
M  V30 37 1 20 35
M  V30 38 1 21 36
M  V30 39 1 22 37
M  V30 40 1 23 38
M  V30 41 1 24 39
M  V30 END BOND
M  V30 END CTAB
M  END
>  <Dataset>  (626) 
ChEMBL_Kinases

>  <Ligand_Instance>  (626) 
nan

>  <PDB_ID>  (626) 
nan

>  <Standardized_SMILES>  (626) 
N#CC[C@@H](Nc1ncnc2c(C(N)=O)cccc12)c1ccccc1

>  <Name>  (626) 
nan

>  <Pocket>  (626) 
nan

>  <ATP_Site>  (626) 
nan

>  <Peripheral>  (626) 
nan

>  <Num_H_Atoms_ProtBoundConf>  (626) 
nan

>  <Num_Resolved_Atoms>  (626) 
nan

>  <Num_Not_Resolved_Atoms>  (626) 
nan

$$$$
CHEMBL4592894
     RDKit          3D

  0  0  0  0  0  0  0  0  0  0999 V3000
M  V30 BEGIN CTAB
M  V30 COUNTS 52 55 0 0 0
M  V30 BEGIN ATOM
M  V30 1 C 2.158541 -6.941634 0.290736 0
M  V30 2 C 1.633943 -6.041143 -0.765919 0
M  V30 3 C 1.993672 -4.721258 -0.945598 0
M  V30 4 N 2.918594 -3.929144 -0.192700 0
M  V30 5 C 3.154913 -2.551933 -0.542571 0
M  V30 6 N 4.085267 -2.066975 -1.391208 0
M  V30 7 C 4.120143 -0.719923 -1.566372 0
M  V30 8 C 3.251046 0.117645 -0.912925 0
M  V30 9 C 2.301359 -0.384327 -0.045988 0
M  V30 10 C 1.341600 0.443192 0.684659 0
M  V30 11 C 1.301285 1.815299 0.569891 0
M  V30 12 C 0.325178 2.460190 1.331799 0
M  V30 13 N -0.580150 1.888495 2.165187 0
M  V30 14 C -1.456442 2.786554 2.814848 0 CFG=2
M  V30 15 C -2.056761 2.214392 4.071978 0
M  V30 16 O -1.099200 1.848121 5.023060 0
M  V30 17 C -2.600888 3.228844 1.969222 0
M  V30 18 C -3.751736 2.489490 1.776560 0
M  V30 19 C -4.806984 2.911357 0.997177 0
M  V30 20 C -4.731950 4.134841 0.366784 0
M  V30 21 Cl -6.071029 4.698902 -0.636231 0
M  V30 22 C -3.601035 4.938294 0.514348 0
M  V30 23 F -3.497691 6.151395 -0.094937 0
M  V30 24 C -2.563755 4.448088 1.321107 0
M  V30 25 C -0.472284 0.564185 2.217212 0
M  V30 26 O -1.245149 -0.068974 2.945267 0
M  V30 27 C 0.444762 -0.187209 1.517098 0
M  V30 28 N 2.302265 -1.740982 0.099709 0
M  V30 29 C 1.267080 -4.288041 -2.029297 0
M  V30 30 N 0.505283 -5.318811 -2.472521 0
M  V30 31 N 0.727790 -6.387364 -1.703764 0
M  V30 32 C 0.057696 -7.659626 -1.918206 0
M  V30 33 H 2.904512 -7.638993 -0.182026 0
M  V30 34 H 2.671829 -6.403609 1.093597 0
M  V30 35 H 1.336364 -7.561759 0.697964 0
M  V30 36 H 3.418864 -4.339802 0.601697 0
M  V30 37 H 4.864978 -0.326271 -2.246584 0
M  V30 38 H 3.309504 1.164791 -1.076579 0
M  V30 39 H 1.988782 2.334699 -0.071940 0
M  V30 40 H 0.357620 3.549255 1.184713 0
M  V30 41 H -0.862362 3.720485 3.074691 0
M  V30 42 H -2.735836 3.005878 4.498921 0
M  V30 43 H -2.702975 1.355626 3.886365 0
M  V30 44 H -0.634302 2.662898 5.389496 0
M  V30 45 H -3.854081 1.524447 2.250385 0
M  V30 46 H -5.683134 2.264729 0.894744 0
M  V30 47 H -1.677221 5.085185 1.433279 0
M  V30 48 H 0.481731 -1.250334 1.600745 0
M  V30 49 H 1.251110 -3.303588 -2.507919 0
M  V30 50 H 0.552170 -8.166724 -2.767845 0
M  V30 51 H -0.995806 -7.439154 -2.229851 0
M  V30 52 H 0.017231 -8.266241 -0.998570 0
M  V30 END ATOM
M  V30 BEGIN BOND
M  V30 1 1 1 2
M  V30 2 2 2 3
M  V30 3 1 3 4
M  V30 4 1 4 5
M  V30 5 2 5 6
M  V30 6 1 6 7
M  V30 7 2 7 8
M  V30 8 1 8 9
M  V30 9 1 9 10
M  V30 10 1 10 11
M  V30 11 2 11 12
M  V30 12 1 12 13
M  V30 13 1 13 14
M  V30 14 1 14 15
M  V30 15 1 15 16
M  V30 16 1 14 17
M  V30 17 2 17 18
M  V30 18 1 18 19
M  V30 19 2 19 20
M  V30 20 1 20 21
M  V30 21 1 20 22
M  V30 22 1 22 23
M  V30 23 2 22 24
M  V30 24 1 13 25
M  V30 25 2 25 26
M  V30 26 1 25 27
M  V30 27 2 9 28
M  V30 28 1 3 29
M  V30 29 2 29 30
M  V30 30 1 30 31
M  V30 31 1 31 32
M  V30 32 1 31 2
M  V30 33 1 28 5
M  V30 34 2 27 10
M  V30 35 1 24 17
M  V30 36 1 1 33
M  V30 37 1 1 34
M  V30 38 1 1 35
M  V30 39 1 4 36
M  V30 40 1 7 37
M  V30 41 1 8 38
M  V30 42 1 11 39
M  V30 43 1 12 40
M  V30 44 1 14 41 CFG=1
M  V30 45 1 15 42
M  V30 46 1 15 43
M  V30 47 1 16 44
M  V30 48 1 18 45
M  V30 49 1 19 46
M  V30 50 1 24 47
M  V30 51 1 27 48
M  V30 52 1 29 49
M  V30 53 1 32 50
M  V30 54 1 32 51
M  V30 55 1 32 52
M  V30 END BOND
M  V30 END CTAB
M  END
>  <Dataset>  (627) 
ChEMBL_Kinases

>  <Ligand_Instance>  (627) 
nan

>  <PDB_ID>  (627) 
nan

>  <Standardized_SMILES>  (627) 
Cc1c(Nc2nccc(-c3ccn([C@H](CO)c4ccc(Cl)c(F)c4)c(=O)c3)n2)cnn1C

>  <Name>  (627) 
nan

>  <Pocket>  (627) 
nan

>  <ATP_Site>  (627) 
nan

>  <Peripheral>  (627) 
nan

>  <Num_H_Atoms_ProtBoundConf>  (627) 
nan

>  <Num_Resolved_Atoms>  (627) 
nan

>  <Num_Not_Resolved_Atoms>  (627) 
nan

$$$$
CHEMBL3670413
     RDKit          3D

  0  0  0  0  0  0  0  0  0  0999 V3000
M  V30 BEGIN CTAB
M  V30 COUNTS 43 45 0 0 0
M  V30 BEGIN ATOM
M  V30 1 C -3.334837 -3.191032 1.319460 0
M  V30 2 N -1.890249 -3.242805 1.125085 0
M  V30 3 C -1.309203 -1.907665 1.194494 0
M  V30 4 C 0.176814 -2.093420 0.979777 0
M  V30 5 N 0.920027 -0.852812 1.018728 0
M  V30 6 C 0.641800 0.152394 0.059479 0
M  V30 7 N -0.292199 -0.030022 -0.884687 0
M  V30 8 C -0.584997 0.896439 -1.816072 0
M  V30 9 N 0.033692 2.090173 -1.883703 0
M  V30 10 C 0.974124 2.326941 -0.967326 0
M  V30 11 C 1.663509 3.523767 -0.956503 0
M  V30 12 C 1.375446 4.554447 -1.949929 0
M  V30 13 N 0.390847 4.390524 -2.963925 0
M  V30 14 O 1.976358 5.660794 -1.981117 0
M  V30 15 C 2.643061 3.804540 -0.023989 0
M  V30 16 C 2.951075 2.859961 0.936417 0
M  V30 17 C 2.253453 1.670320 0.911575 0
M  V30 18 C 1.273361 1.375943 -0.012767 0
M  V30 19 C 0.625772 -3.066882 2.008171 0
M  V30 20 C 0.791886 -2.430868 3.240528 0
M  V30 21 C 1.210052 -3.144859 4.362631 0
M  V30 22 C 1.463267 -4.508553 4.245490 0
M  V30 23 C 1.293316 -5.102693 3.033052 0
M  V30 24 C 0.881312 -4.415747 1.913344 0
M  V30 25 H -3.624772 -2.499504 2.140992 0
M  V30 26 H -3.867405 -2.987101 0.375516 0
M  V30 27 H -3.630200 -4.222093 1.616208 0
M  V30 28 H -1.512612 -3.829930 1.914947 0
M  V30 29 H -1.518099 -1.501269 2.214892 0
M  V30 30 H -1.794698 -1.288737 0.428503 0
M  V30 31 H 0.302552 -2.564142 -0.022461 0
M  V30 32 H 1.625990 -0.800593 1.779773 0
M  V30 33 H -1.361820 0.653158 -2.542200 0
M  V30 34 H -0.442736 4.973793 -3.232774 0
M  V30 35 H 0.283004 3.623940 -3.686319 0
M  V30 36 H 3.174297 4.758152 -0.035882 0
M  V30 37 H 3.717949 3.102540 1.651772 0
M  V30 38 H 2.539137 0.973648 1.686488 0
M  V30 39 H 0.626827 -1.368488 3.465236 0
M  V30 40 H 1.350426 -2.684543 5.338038 0
M  V30 41 H 1.789420 -5.092182 5.097810 0
M  V30 42 H 1.474733 -6.161271 2.879356 0
M  V30 43 H 0.715285 -4.783644 0.910681 0
M  V30 END ATOM
M  V30 BEGIN BOND
M  V30 1 1 1 2
M  V30 2 1 2 3
M  V30 3 1 3 4
M  V30 4 1 4 5
M  V30 5 1 5 6
M  V30 6 2 6 7
M  V30 7 1 7 8
M  V30 8 2 8 9
M  V30 9 1 9 10
M  V30 10 2 10 11
M  V30 11 1 11 12
M  V30 12 1 12 13
M  V30 13 2 12 14
M  V30 14 1 11 15
M  V30 15 2 15 16
M  V30 16 1 16 17
M  V30 17 2 17 18
M  V30 18 1 4 19
M  V30 19 2 19 20
M  V30 20 1 20 21
M  V30 21 2 21 22
M  V30 22 1 22 23
M  V30 23 2 23 24
M  V30 24 1 18 6
M  V30 25 1 24 19
M  V30 26 1 18 10
M  V30 27 1 1 25
M  V30 28 1 1 26
M  V30 29 1 1 27
M  V30 30 1 2 28
M  V30 31 1 3 29
M  V30 32 1 3 30
M  V30 33 1 4 31
M  V30 34 1 5 32
M  V30 35 1 8 33
M  V30 36 1 13 34
M  V30 37 1 13 35
M  V30 38 1 15 36
M  V30 39 1 16 37
M  V30 40 1 17 38
M  V30 41 1 20 39
M  V30 42 1 21 40
M  V30 43 1 22 41
M  V30 44 1 23 42
M  V30 45 1 24 43
M  V30 END BOND
M  V30 END CTAB
M  END
>  <Dataset>  (628) 
ChEMBL_Kinases

>  <Ligand_Instance>  (628) 
nan

>  <PDB_ID>  (628) 
nan

>  <Standardized_SMILES>  (628) 
CNCC(Nc1ncnc2c(C(N)=O)cccc12)c1ccccc1

>  <Name>  (628) 
nan

>  <Pocket>  (628) 
nan

>  <ATP_Site>  (628) 
nan

>  <Peripheral>  (628) 
nan

>  <Num_H_Atoms_ProtBoundConf>  (628) 
nan

>  <Num_Resolved_Atoms>  (628) 
nan

>  <Num_Not_Resolved_Atoms>  (628) 
nan

$$$$
CHEMBL3670412
     RDKit          3D

  0  0  0  0  0  0  0  0  0  0999 V3000
M  V30 BEGIN CTAB
M  V30 COUNTS 54 57 0 0 0
M  V30 BEGIN ATOM
M  V30 1 N 0.558961 0.477580 4.332516 0
M  V30 2 C 0.206523 -0.336820 3.158105 0
M  V30 3 C -0.950349 0.353616 2.514011 0
M  V30 4 N -0.589542 1.693788 2.115789 0
M  V30 5 C 0.425590 1.892508 1.138667 0
M  V30 6 N 1.056274 0.854166 0.564236 0
M  V30 7 C 2.016797 0.991322 -0.366824 0
M  V30 8 N 2.424926 2.211248 -0.800429 0
M  V30 9 C 1.835864 3.297984 -0.267729 0
M  V30 10 C 2.225976 4.554946 -0.685128 0
M  V30 11 C 3.273936 4.690567 -1.700479 0
M  V30 12 N 3.884223 3.533157 -2.251162 0
M  V30 13 O 3.642073 5.829297 -2.093003 0
M  V30 14 C 1.645064 5.695878 -0.162014 0
M  V30 15 C 0.672837 5.503527 0.782157 0
M  V30 16 C 0.296207 4.255161 1.186266 0
M  V30 17 C 0.854936 3.120981 0.684323 0
M  V30 18 C -1.487816 -0.426187 1.348125 0
M  V30 19 C -2.409664 0.261297 0.553942 0
M  V30 20 C -2.958376 -0.387550 -0.548646 0
M  V30 21 C -2.594812 -1.691178 -0.850079 0
M  V30 22 C -1.678853 -2.336746 -0.038627 0
M  V30 23 N -1.247381 -3.677767 -0.273697 0
M  V30 24 C -1.893379 -4.819172 0.273404 0
M  V30 25 O -2.890590 -4.540940 0.991494 0
M  V30 26 C -1.404140 -6.168153 -0.003750 0
M  V30 27 C -0.315673 -6.498833 -0.785527 0
M  V30 28 C 0.050558 -7.815476 -0.974036 0
M  V30 29 C -0.690644 -8.820348 -0.365620 0
M  V30 30 F -0.257353 -10.097495 -0.605992 0
M  V30 31 C -1.783787 -8.524533 0.421758 0
M  V30 32 C -2.137391 -7.188414 0.599756 0
M  V30 33 C -1.119196 -1.714454 1.062441 0
M  V30 34 H -0.150315 0.279791 5.072912 0
M  V30 35 H 1.510191 0.266892 4.687219 0
M  V30 36 H 1.111200 -0.414220 2.540045 0
M  V30 37 H -0.059137 -1.326299 3.584969 0
M  V30 38 H -1.767754 0.390416 3.238757 0
M  V30 39 H -1.099543 2.475092 2.571407 0
M  V30 40 H 2.387271 0.020407 -0.692461 0
M  V30 41 H 4.745173 2.955328 -2.239778 0
M  V30 42 H 3.129283 3.175286 -2.907144 0
M  V30 43 H 1.997609 6.647922 -0.533217 0
M  V30 44 H 0.232239 6.427875 1.177000 0
M  V30 45 H -0.478385 4.236394 1.934201 0
M  V30 46 H -2.700009 1.290669 0.787687 0
M  V30 47 H -3.670126 0.084327 -1.196926 0
M  V30 48 H -2.961823 -2.273899 -1.676099 0
M  V30 49 H -0.404421 -3.756883 -0.890406 0
M  V30 50 H 0.218306 -5.671644 -1.230225 0
M  V30 51 H 0.922130 -7.978363 -1.606329 0
M  V30 52 H -2.338955 -9.343371 0.881559 0
M  V30 53 H -3.004521 -6.980400 1.225985 0
M  V30 54 H -0.389252 -2.201733 1.725291 0
M  V30 END ATOM
M  V30 BEGIN BOND
M  V30 1 1 1 2
M  V30 2 1 2 3
M  V30 3 1 3 4
M  V30 4 1 4 5
M  V30 5 2 5 6
M  V30 6 1 6 7
M  V30 7 2 7 8
M  V30 8 1 8 9
M  V30 9 2 9 10
M  V30 10 1 10 11
M  V30 11 1 11 12
M  V30 12 2 11 13
M  V30 13 1 10 14
M  V30 14 2 14 15
M  V30 15 1 15 16
M  V30 16 2 16 17
M  V30 17 1 3 18
M  V30 18 2 18 19
M  V30 19 1 19 20
M  V30 20 2 20 21
M  V30 21 1 21 22
M  V30 22 1 22 23
M  V30 23 1 23 24
M  V30 24 2 24 25
M  V30 25 1 24 26
M  V30 26 2 26 27
M  V30 27 1 27 28
M  V30 28 2 28 29
M  V30 29 1 29 30
M  V30 30 1 29 31
M  V30 31 2 31 32
M  V30 32 2 22 33
M  V30 33 1 17 5
M  V30 34 1 33 18
M  V30 35 1 17 9
M  V30 36 1 32 26
M  V30 37 1 1 34
M  V30 38 1 1 35
M  V30 39 1 2 36
M  V30 40 1 2 37
M  V30 41 1 3 38
M  V30 42 1 4 39
M  V30 43 1 7 40
M  V30 44 1 12 41
M  V30 45 1 12 42
M  V30 46 1 14 43
M  V30 47 1 15 44
M  V30 48 1 16 45
M  V30 49 1 19 46
M  V30 50 1 20 47
M  V30 51 1 21 48
M  V30 52 1 23 49
M  V30 53 1 27 50
M  V30 54 1 28 51
M  V30 55 1 31 52
M  V30 56 1 32 53
M  V30 57 1 33 54
M  V30 END BOND
M  V30 END CTAB
M  END
>  <Dataset>  (629) 
ChEMBL_Kinases

>  <Ligand_Instance>  (629) 
nan

>  <PDB_ID>  (629) 
nan

>  <Standardized_SMILES>  (629) 
NCC(Nc1ncnc2c(C(N)=O)cccc12)c1cccc(NC(=O)c2ccc(F)cc2)c1

>  <Name>  (629) 
nan

>  <Pocket>  (629) 
nan

>  <ATP_Site>  (629) 
nan

>  <Peripheral>  (629) 
nan

>  <Num_H_Atoms_ProtBoundConf>  (629) 
nan

>  <Num_Resolved_Atoms>  (629) 
nan

>  <Num_Not_Resolved_Atoms>  (629) 
nan

$$$$
CHEMBL3670426
     RDKit          3D

  0  0  0  0  0  0  0  0  0  0999 V3000
M  V30 BEGIN CTAB
M  V30 COUNTS 51 54 0 0 0
M  V30 BEGIN ATOM
M  V30 1 N 1.449978 -5.106931 1.987360 0
M  V30 2 C 2.573730 -4.706239 2.737903 0
M  V30 3 O 2.421599 -5.800402 3.275795 0
M  V30 4 C 3.244396 -3.434366 2.550527 0
M  V30 5 C 4.326020 -3.182352 3.355099 0
M  V30 6 C 4.937597 -1.944730 3.135415 0
M  V30 7 C 4.442957 -1.086385 2.167877 0
M  V30 8 C 3.360520 -1.409849 1.406540 0
M  V30 9 C 2.900629 -0.518167 0.449171 0
M  V30 10 N 3.482283 0.727973 0.192367 0
M  V30 11 C 3.059474 1.717559 -0.790398 0
M  V30 12 C 1.685795 2.211279 -0.524536 0
M  V30 13 C 1.573651 3.276071 0.377193 0
M  V30 14 C 0.390763 3.880172 0.746182 0
M  V30 15 C -0.779620 3.407261 0.190415 0
M  V30 16 C -0.696654 2.367713 -0.693602 0
M  V30 17 N -1.909468 1.883275 -1.264117 0
M  V30 18 C -2.612414 0.831810 -0.585983 0
M  V30 19 O -2.318550 0.230990 0.490973 0
M  V30 20 N -3.834252 0.323014 -1.131622 0
M  V30 21 C -4.422132 -0.717053 -0.354021 0
M  V30 22 C -5.321318 -0.354379 0.639042 0
M  V30 23 C -5.903028 -1.359431 1.405472 0
M  V30 24 C -5.624325 -2.695290 1.220045 0
M  V30 25 F -6.251729 -3.593200 2.028203 0
M  V30 26 C -4.734735 -3.048757 0.237087 0
M  V30 27 C -4.150321 -2.062853 -0.530525 0
M  V30 28 C 0.494293 1.774735 -1.052384 0
M  V30 29 N 1.833133 -0.938454 -0.239472 0
M  V30 30 C 1.218214 -2.104021 -0.067304 0
M  V30 31 N 1.660952 -2.966691 0.857201 0
M  V30 32 C 2.728333 -2.609022 1.584309 0
M  V30 33 H 0.503098 -4.910101 1.597001 0
M  V30 34 H 0.633808 -5.399689 1.441462 0
M  V30 35 H 4.603550 -3.929443 4.062009 0
M  V30 36 H 5.799785 -1.727081 3.766409 0
M  V30 37 H 4.983181 -0.168946 2.082017 0
M  V30 38 H 4.300009 1.043443 0.717497 0
M  V30 39 H 3.712143 2.602661 -0.808466 0
M  V30 40 H 3.073853 1.264320 -1.822871 0
M  V30 41 H 2.479229 3.687841 0.846660 0
M  V30 42 H 0.388863 4.699955 1.450827 0
M  V30 43 H -1.721990 3.857201 0.457476 0
M  V30 44 H -2.324147 2.239858 -2.142473 0
M  V30 45 H -4.239483 0.693657 -2.017984 0
M  V30 46 H -5.555879 0.706280 0.801572 0
M  V30 47 H -6.583619 -1.017000 2.150327 0
M  V30 48 H -4.515255 -4.096793 0.090686 0
M  V30 49 H -3.449865 -2.347250 -1.303832 0
M  V30 50 H 0.556194 0.972367 -1.746428 0
M  V30 51 H 0.378456 -2.291268 -0.697443 0
M  V30 END ATOM
M  V30 BEGIN BOND
M  V30 1 1 1 2
M  V30 2 2 2 3
M  V30 3 1 2 4
M  V30 4 2 4 5
M  V30 5 1 5 6
M  V30 6 2 6 7
M  V30 7 1 7 8
M  V30 8 2 8 9
M  V30 9 1 9 10
M  V30 10 1 10 11
M  V30 11 1 11 12
M  V30 12 2 12 13
M  V30 13 1 13 14
M  V30 14 2 14 15
M  V30 15 1 15 16
M  V30 16 1 16 17
M  V30 17 1 17 18
M  V30 18 2 18 19
M  V30 19 1 18 20
M  V30 20 1 20 21
M  V30 21 2 21 22
M  V30 22 1 22 23
M  V30 23 2 23 24
M  V30 24 1 24 25
M  V30 25 1 24 26
M  V30 26 2 26 27
M  V30 27 2 16 28
M  V30 28 1 9 29
M  V30 29 2 29 30
M  V30 30 1 30 31
M  V30 31 2 31 32
M  V30 32 1 32 4
M  V30 33 1 32 8
M  V30 34 1 28 12
M  V30 35 1 27 21
M  V30 36 1 1 33
M  V30 37 1 1 34
M  V30 38 1 5 35
M  V30 39 1 6 36
M  V30 40 1 7 37
M  V30 41 1 10 38
M  V30 42 1 11 39
M  V30 43 1 11 40
M  V30 44 1 13 41
M  V30 45 1 14 42
M  V30 46 1 15 43
M  V30 47 1 17 44
M  V30 48 1 20 45
M  V30 49 1 22 46
M  V30 50 1 23 47
M  V30 51 1 26 48
M  V30 52 1 27 49
M  V30 53 1 28 50
M  V30 54 1 30 51
M  V30 END BOND
M  V30 END CTAB
M  END
>  <Dataset>  (630) 
ChEMBL_Kinases

>  <Ligand_Instance>  (630) 
nan

>  <PDB_ID>  (630) 
nan

>  <Standardized_SMILES>  (630) 
NC(=O)c1cccc2c(NCc3cccc(NC(=O)Nc4ccc(F)cc4)c3)ncnc12

>  <Name>  (630) 
nan

>  <Pocket>  (630) 
nan

>  <ATP_Site>  (630) 
nan

>  <Peripheral>  (630) 
nan

>  <Num_H_Atoms_ProtBoundConf>  (630) 
nan

>  <Num_Resolved_Atoms>  (630) 
nan

>  <Num_Not_Resolved_Atoms>  (630) 
nan

$$$$
CHEMBL3393743
     RDKit          3D

  0  0  0  0  0  0  0  0  0  0999 V3000
M  V30 BEGIN CTAB
M  V30 COUNTS 88 90 0 0 0
M  V30 BEGIN ATOM
M  V30 1 C 2.786017 -1.469917 5.752848 0
M  V30 2 C 1.751508 -2.440596 6.097282 0
M  V30 3 C 0.512855 -2.611909 5.340248 0
M  V30 4 C -0.457542 -1.547263 5.158308 0
M  V30 5 C -0.205234 -0.313670 4.405597 0
M  V30 6 C 0.051472 -0.381173 2.956776 0
M  V30 7 C 1.216937 -1.161791 2.453764 0
M  V30 8 C 1.127710 0.356013 2.253178 0
M  V30 9 C 0.984959 0.839273 0.897115 0
M  V30 10 C 0.031803 1.824225 0.405809 0
M  V30 11 C 0.297626 3.185504 1.171522 0
M  V30 12 C -1.044519 2.658539 0.781544 0
M  V30 13 C -2.107650 2.668504 1.783957 0
M  V30 14 C -3.129292 1.566111 1.748561 0
M  V30 15 C -3.890068 1.536420 0.438519 0
M  V30 16 C -4.912190 0.395418 0.444559 0
M  V30 17 C -4.251829 -0.957145 0.593716 0
M  V30 18 C -3.311222 -1.223238 -0.585176 0
M  V30 19 C -2.672073 -2.585114 -0.347375 0
M  V30 20 C -1.769024 -3.010079 -1.404622 0
M  V30 21 O -2.151583 -3.777364 -2.338518 0
M  V30 22 O -0.474515 -2.880640 -1.842876 0
M  V30 23 C -0.075969 -3.570940 -3.027154 0
M  V30 24 C 1.358922 -3.216376 -3.273324 0
M  V30 25 C 2.274091 -3.518903 -2.114381 0
M  V30 26 O 1.823967 -2.918733 -0.948447 0
M  V30 27 C 1.407362 -1.717527 -3.571441 0
M  V30 28 C 2.348626 -1.703417 -4.713220 0
M  V30 29 C 2.518392 -0.623030 -5.428336 0
M  V30 30 C 2.165266 0.747167 -5.653179 0
M  V30 31 C 1.117461 1.402484 -4.813342 0
M  V30 32 C 1.395903 1.437611 -3.352232 0
M  V30 33 C -0.286832 0.980825 -5.187521 0
M  V30 34 C 2.942669 -3.032728 -4.823966 0
M  V30 35 O 4.148258 -3.170557 -5.234409 0
M  V30 36 O 1.883638 -3.867581 -4.394105 0
M  V30 37 H 3.451442 -1.854563 4.918661 0
M  V30 38 H 2.539546 -0.423276 5.635897 0
M  V30 39 H 3.529796 -1.471605 6.622334 0
M  V30 40 H 2.264272 -3.465506 6.095778 0
M  V30 41 H 1.538311 -2.332449 7.219704 0
M  V30 42 H 0.696033 -3.130623 4.342049 0
M  V30 43 H -0.056054 -3.452228 5.879753 0
M  V30 44 H -1.365025 -2.030414 4.646144 0
M  V30 45 H -0.923467 -1.244108 6.142807 0
M  V30 46 H 0.526227 0.403690 4.845443 0
M  V30 47 H -1.185427 0.282319 4.538194 0
M  V30 48 H -0.911038 -0.479288 2.350778 0
M  V30 49 H 0.986647 -1.803998 1.564993 0
M  V30 50 H 1.980698 -1.582142 3.084495 0
M  V30 51 H 1.927525 0.869780 2.858900 0
M  V30 52 H 0.942058 -0.091875 0.224214 0
M  V30 53 H 2.024867 1.219432 0.587121 0
M  V30 54 H 0.333244 2.000552 -0.713594 0
M  V30 55 H 0.621513 3.088814 2.228604 0
M  V30 56 H 0.819029 3.974085 0.640486 0
M  V30 57 H -1.441605 3.302290 -0.124373 0
M  V30 58 H -2.746238 3.606555 1.691002 0
M  V30 59 H -1.740574 2.811401 2.840874 0
M  V30 60 H -2.809159 0.609596 2.095933 0
M  V30 61 H -3.918835 1.899176 2.512475 0
M  V30 62 H -4.481822 2.464005 0.300266 0
M  V30 63 H -3.268337 1.397423 -0.446764 0
M  V30 64 H -5.367726 0.417408 -0.568447 0
M  V30 65 H -5.721947 0.551777 1.168082 0
M  V30 66 H -3.682413 -1.107304 1.502685 0
M  V30 67 H -5.079295 -1.694585 0.605239 0
M  V30 68 H -2.494640 -0.488096 -0.614994 0
M  V30 69 H -3.820120 -1.178916 -1.556486 0
M  V30 70 H -2.056541 -2.546975 0.601487 0
M  V30 71 H -3.475013 -3.291744 -0.129102 0
M  V30 72 H -0.680560 -3.147907 -3.845356 0
M  V30 73 H -0.253436 -4.641074 -3.001177 0
M  V30 74 H 3.302833 -3.142867 -2.381206 0
M  V30 75 H 2.391646 -4.588795 -1.944560 0
M  V30 76 H 1.321635 -3.557976 -0.364479 0
M  V30 77 H 0.417414 -1.319947 -3.773272 0
M  V30 78 H 1.836971 -1.267233 -2.646212 0
M  V30 79 H 3.271481 -0.811569 -6.234769 0
M  V30 80 H 1.848682 0.950887 -6.731325 0
M  V30 81 H 3.115011 1.385371 -5.593694 0
M  V30 82 H 1.138231 2.517087 -5.130569 0
M  V30 83 H 0.542631 0.931004 -2.836388 0
M  V30 84 H 1.413742 2.478988 -2.915453 0
M  V30 85 H 2.386544 1.019637 -3.073530 0
M  V30 86 H -0.963106 0.904188 -4.306954 0
M  V30 87 H -0.227680 -0.022233 -5.685582 0
M  V30 88 H -0.779333 1.643566 -5.911138 0
M  V30 END ATOM
M  V30 BEGIN BOND
M  V30 1 1 1 2
M  V30 2 1 2 3
M  V30 3 1 3 4
M  V30 4 1 4 5
M  V30 5 1 5 6
M  V30 6 1 6 7
M  V30 7 1 7 8
M  V30 8 1 8 9
M  V30 9 1 9 10
M  V30 10 1 10 11
M  V30 11 1 11 12
M  V30 12 1 12 13
M  V30 13 1 13 14
M  V30 14 1 14 15
M  V30 15 1 15 16
M  V30 16 1 16 17
M  V30 17 1 17 18
M  V30 18 1 18 19
M  V30 19 1 19 20
M  V30 20 2 20 21
M  V30 21 1 20 22
M  V30 22 1 22 23
M  V30 23 1 23 24
M  V30 24 1 24 25
M  V30 25 1 25 26
M  V30 26 1 24 27
M  V30 27 1 27 28
M  V30 28 2 28 29
M  V30 29 1 29 30
M  V30 30 1 30 31
M  V30 31 1 31 32
M  V30 32 1 31 33
M  V30 33 1 28 34
M  V30 34 2 34 35
M  V30 35 1 34 36
M  V30 36 1 8 6
M  V30 37 1 12 10
M  V30 38 1 36 24
M  V30 39 1 1 37
M  V30 40 1 1 38
M  V30 41 1 1 39
M  V30 42 1 2 40
M  V30 43 1 2 41
M  V30 44 1 3 42
M  V30 45 1 3 43
M  V30 46 1 4 44
M  V30 47 1 4 45
M  V30 48 1 5 46
M  V30 49 1 5 47
M  V30 50 1 6 48
M  V30 51 1 7 49
M  V30 52 1 7 50
M  V30 53 1 8 51
M  V30 54 1 9 52
M  V30 55 1 9 53
M  V30 56 1 10 54
M  V30 57 1 11 55
M  V30 58 1 11 56
M  V30 59 1 12 57
M  V30 60 1 13 58
M  V30 61 1 13 59
M  V30 62 1 14 60
M  V30 63 1 14 61
M  V30 64 1 15 62
M  V30 65 1 15 63
M  V30 66 1 16 64
M  V30 67 1 16 65
M  V30 68 1 17 66
M  V30 69 1 17 67
M  V30 70 1 18 68
M  V30 71 1 18 69
M  V30 72 1 19 70
M  V30 73 1 19 71
M  V30 74 1 23 72
M  V30 75 1 23 73
M  V30 76 1 25 74
M  V30 77 1 25 75
M  V30 78 1 26 76
M  V30 79 1 27 77
M  V30 80 1 27 78
M  V30 81 1 29 79
M  V30 82 1 30 80
M  V30 83 1 30 81
M  V30 84 1 31 82
M  V30 85 1 32 83
M  V30 86 1 32 84
M  V30 87 1 32 85
M  V30 88 1 33 86
M  V30 89 1 33 87
M  V30 90 1 33 88
M  V30 END BOND
M  V30 END CTAB
M  END
>  <Dataset>  (631) 
ChEMBL_Kinases

>  <Ligand_Instance>  (631) 
nan

>  <PDB_ID>  (631) 
nan

>  <Standardized_SMILES>  (631) 
CCCCCC1CC1CC1CC1CCCCCCCC(=O)OCC1(CO)C/C(=C\CC(C)C)C(=O)O1

>  <Name>  (631) 
nan

>  <Pocket>  (631) 
nan

>  <ATP_Site>  (631) 
nan

>  <Peripheral>  (631) 
nan

>  <Num_H_Atoms_ProtBoundConf>  (631) 
nan

>  <Num_Resolved_Atoms>  (631) 
nan

>  <Num_Not_Resolved_Atoms>  (631) 
nan

$$$$
CHEMBL3393744
     RDKit          3D

  0  0  0  0  0  0  0  0  0  0999 V3000
M  V30 BEGIN CTAB
M  V30 COUNTS 84 86 0 0 0
M  V30 BEGIN ATOM
M  V30 1 C 2.575913 -1.431453 4.985630 0
M  V30 2 C 3.930260 -0.838476 4.859963 0
M  V30 3 C 4.338134 -0.273535 3.559640 0
M  V30 4 C 3.599305 0.893114 3.010358 0
M  V30 5 C 2.161155 0.631190 2.783309 0
M  V30 6 C 1.469569 1.846053 2.160796 0
M  V30 7 O 0.050685 1.480082 1.978802 0
M  V30 8 C 0.873905 1.636945 0.790123 0
M  V30 9 C 0.515850 2.830507 -0.031940 0
M  V30 10 C -0.056705 2.546363 -1.379707 0
M  V30 11 O -0.323365 3.885947 -2.022358 0
M  V30 12 C -1.334398 2.968354 -1.891523 0
M  V30 13 C -2.488177 3.356510 -1.029584 0
M  V30 14 C -2.922522 2.161295 -0.125850 0
M  V30 15 C -4.057551 2.581131 0.742119 0
M  V30 16 C -4.573576 1.660614 1.759553 0
M  V30 17 C -5.132250 0.353434 1.409660 0
M  V30 18 C -4.271627 -0.691065 0.796095 0
M  V30 19 C -5.156478 -1.946304 0.610057 0
M  V30 20 C -4.401120 -3.051835 -0.015470 0
M  V30 21 O -5.005138 -4.170473 0.011647 0
M  V30 22 O -3.146994 -2.961364 -0.600767 0
M  V30 23 C -2.521937 -4.088157 -1.167645 0
M  V30 24 C -1.205021 -3.819299 -1.782705 0
M  V30 25 C -0.734688 -5.103852 -2.434389 0
M  V30 26 O -1.697783 -5.429714 -3.388855 0
M  V30 27 C -0.155248 -3.258786 -0.841923 0
M  V30 28 C 0.869543 -2.805540 -1.819891 0
M  V30 29 C 2.179840 -2.704887 -1.947114 0
M  V30 30 C 3.023138 -2.214057 -3.029897 0
M  V30 31 C 3.876660 -1.028477 -2.670111 0
M  V30 32 C 4.827872 -1.330383 -1.526402 0
M  V30 33 C 3.089165 0.182253 -2.289500 0
M  V30 34 C 0.008410 -2.349737 -2.933306 0
M  V30 35 O 0.325285 -1.577928 -3.888606 0
M  V30 36 O -1.277648 -2.867556 -2.853670 0
M  V30 37 H 2.120625 -1.730658 4.025706 0
M  V30 38 H 1.870148 -0.840380 5.631044 0
M  V30 39 H 2.652831 -2.425071 5.546028 0
M  V30 40 H 4.016270 -0.031650 5.648937 0
M  V30 41 H 4.683065 -1.609449 5.182516 0
M  V30 42 H 5.451869 -0.019482 3.633798 0
M  V30 43 H 4.337817 -1.096271 2.770303 0
M  V30 44 H 4.096921 1.169416 2.024497 0
M  V30 45 H 3.779039 1.798420 3.649535 0
M  V30 46 H 2.014956 -0.229051 2.116966 0
M  V30 47 H 1.663126 0.516210 3.782636 0
M  V30 48 H 1.515141 2.819435 2.640196 0
M  V30 49 H 1.149073 0.692368 0.300368 0
M  V30 50 H 1.480330 3.388571 -0.201055 0
M  V30 51 H -0.113584 3.551237 0.545793 0
M  V30 52 H 0.651594 2.037201 -2.076320 0
M  V30 53 H -1.647414 2.512505 -2.863656 0
M  V30 54 H -2.258517 4.198966 -0.357743 0
M  V30 55 H -3.362523 3.605416 -1.645102 0
M  V30 56 H -2.079177 1.718963 0.363956 0
M  V30 57 H -3.357659 1.471851 -0.906624 0
M  V30 58 H -4.903819 2.937905 0.070716 0
M  V30 59 H -3.696699 3.510815 1.300037 0
M  V30 60 H -5.309675 2.273782 2.384453 0
M  V30 61 H -3.703259 1.476175 2.480691 0
M  V30 62 H -6.079870 0.511977 0.775329 0
M  V30 63 H -5.610240 -0.083006 2.355491 0
M  V30 64 H -3.784908 -0.443134 -0.130075 0
M  V30 65 H -3.506766 -0.970205 1.578566 0
M  V30 66 H -5.512253 -2.266062 1.610267 0
M  V30 67 H -6.009790 -1.703211 -0.031801 0
M  V30 68 H -3.173130 -4.590394 -1.896621 0
M  V30 69 H -2.368828 -4.816397 -0.346427 0
M  V30 70 H 0.181340 -4.838781 -3.016640 0
M  V30 71 H -0.563352 -5.925762 -1.713836 0
M  V30 72 H -1.447140 -5.229666 -4.310519 0
M  V30 73 H 0.199130 -4.111415 -0.226634 0
M  V30 74 H -0.560655 -2.472919 -0.205216 0
M  V30 75 H 2.672463 -3.072102 -1.039161 0
M  V30 76 H 3.768162 -3.049826 -3.236017 0
M  V30 77 H 2.551655 -2.042424 -3.999480 0
M  V30 78 H 4.532509 -0.763584 -3.529983 0
M  V30 79 H 5.510765 -0.433336 -1.465660 0
M  V30 80 H 4.310946 -1.435861 -0.564484 0
M  V30 81 H 5.485111 -2.175518 -1.800349 0
M  V30 82 H 2.972947 0.268319 -1.184010 0
M  V30 83 H 3.671684 1.080422 -2.581036 0
M  V30 84 H 2.123546 0.281583 -2.825581 0
M  V30 END ATOM
M  V30 BEGIN BOND
M  V30 1 1 1 2
M  V30 2 1 2 3
M  V30 3 1 3 4
M  V30 4 1 4 5
M  V30 5 1 5 6
M  V30 6 1 6 7
M  V30 7 1 7 8
M  V30 8 1 8 9
M  V30 9 1 9 10
M  V30 10 1 10 11
M  V30 11 1 11 12
M  V30 12 1 12 13
M  V30 13 1 13 14
M  V30 14 1 14 15
M  V30 15 1 15 16
M  V30 16 1 16 17
M  V30 17 1 17 18
M  V30 18 1 18 19
M  V30 19 1 19 20
M  V30 20 2 20 21
M  V30 21 1 20 22
M  V30 22 1 22 23
M  V30 23 1 23 24
M  V30 24 1 24 25
M  V30 25 1 25 26
M  V30 26 1 24 27
M  V30 27 1 27 28
M  V30 28 2 28 29
M  V30 29 1 29 30
M  V30 30 1 30 31
M  V30 31 1 31 32
M  V30 32 1 31 33
M  V30 33 1 28 34
M  V30 34 2 34 35
M  V30 35 1 34 36
M  V30 36 1 8 6
M  V30 37 1 12 10
M  V30 38 1 36 24
M  V30 39 1 1 37
M  V30 40 1 1 38
M  V30 41 1 1 39
M  V30 42 1 2 40
M  V30 43 1 2 41
M  V30 44 1 3 42
M  V30 45 1 3 43
M  V30 46 1 4 44
M  V30 47 1 4 45
M  V30 48 1 5 46
M  V30 49 1 5 47
M  V30 50 1 6 48
M  V30 51 1 8 49
M  V30 52 1 9 50
M  V30 53 1 9 51
M  V30 54 1 10 52
M  V30 55 1 12 53
M  V30 56 1 13 54
M  V30 57 1 13 55
M  V30 58 1 14 56
M  V30 59 1 14 57
M  V30 60 1 15 58
M  V30 61 1 15 59
M  V30 62 1 16 60
M  V30 63 1 16 61
M  V30 64 1 17 62
M  V30 65 1 17 63
M  V30 66 1 18 64
M  V30 67 1 18 65
M  V30 68 1 19 66
M  V30 69 1 19 67
M  V30 70 1 23 68
M  V30 71 1 23 69
M  V30 72 1 25 70
M  V30 73 1 25 71
M  V30 74 1 26 72
M  V30 75 1 27 73
M  V30 76 1 27 74
M  V30 77 1 29 75
M  V30 78 1 30 76
M  V30 79 1 30 77
M  V30 80 1 31 78
M  V30 81 1 32 79
M  V30 82 1 32 80
M  V30 83 1 32 81
M  V30 84 1 33 82
M  V30 85 1 33 83
M  V30 86 1 33 84
M  V30 END BOND
M  V30 END CTAB
M  END
>  <Dataset>  (632) 
ChEMBL_Kinases

>  <Ligand_Instance>  (632) 
nan

>  <PDB_ID>  (632) 
nan

>  <Standardized_SMILES>  (632) 
CCCCCC1OC1CC1OC1CCCCCCCC(=O)OCC1(CO)C/C(=C/CC(C)C)C(=O)O1

>  <Name>  (632) 
nan

>  <Pocket>  (632) 
nan

>  <ATP_Site>  (632) 
nan

>  <Peripheral>  (632) 
nan

>  <Num_H_Atoms_ProtBoundConf>  (632) 
nan

>  <Num_Resolved_Atoms>  (632) 
nan

>  <Num_Not_Resolved_Atoms>  (632) 
nan

$$$$
CHEMBL3393745
     RDKit          3D

  0  0  0  0  0  0  0  0  0  0999 V3000
M  V30 BEGIN CTAB
M  V30 COUNTS 84 86 0 0 0
M  V30 BEGIN ATOM
M  V30 1 C 0.762059 -2.517396 7.492803 0
M  V30 2 C 0.958636 -1.595559 6.302965 0
M  V30 3 C 1.678692 -2.289035 5.193429 0
M  V30 4 C 1.906796 -1.421080 3.977169 0
M  V30 5 C 0.606571 -0.928793 3.379842 0
M  V30 6 C 0.913768 -0.071391 2.165815 0
M  V30 7 O 1.719736 1.048597 2.567193 0
M  V30 8 C 0.317765 1.194422 2.037850 0
M  V30 9 C 0.276056 2.115788 0.873388 0
M  V30 10 C -0.369377 1.613209 -0.369484 0
M  V30 11 O -1.647531 1.200338 -0.439879 0
M  V30 12 C -1.394513 2.427412 -1.053346 0
M  V30 13 C -2.138720 3.523695 -0.398328 0
M  V30 14 C -3.055489 3.310852 0.721890 0
M  V30 15 C -4.346326 2.693609 0.652305 0
M  V30 16 C -4.935113 1.414509 0.339930 0
M  V30 17 C -4.743286 0.171631 1.049989 0
M  V30 18 C -3.579256 -0.701237 1.085995 0
M  V30 19 C -3.286722 -1.382350 -0.239396 0
M  V30 20 C -2.100566 -2.236731 -0.099514 0
M  V30 21 O -1.297382 -2.452293 0.837836 0
M  V30 22 O -1.934800 -2.886081 -1.301307 0
M  V30 23 C -0.945741 -3.805937 -1.652058 0
M  V30 24 C 0.458320 -3.356929 -1.637490 0
M  V30 25 C 1.303610 -4.605508 -1.956092 0
M  V30 26 O 0.933921 -5.177808 -3.148763 0
M  V30 27 C 0.794471 -2.265812 -2.640879 0
M  V30 28 C 2.003354 -1.653841 -2.012080 0
M  V30 29 C 2.684917 -0.656631 -2.536942 0
M  V30 30 C 2.335212 -0.012710 -3.825316 0
M  V30 31 C 3.457140 -0.123580 -4.834415 0
M  V30 32 C 4.693862 0.552729 -4.285063 0
M  V30 33 C 3.021813 0.725752 -6.023580 0
M  V30 34 C 2.233478 -2.387221 -0.747066 0
M  V30 35 O 3.428677 -2.392436 -0.286570 0
M  V30 36 O 0.961290 -2.902399 -0.400335 0
M  V30 37 H 0.419060 -3.524619 7.157858 0
M  V30 38 H 0.078702 -2.086982 8.233958 0
M  V30 39 H 1.732081 -2.686607 7.996662 0
M  V30 40 H -0.033877 -1.266816 5.939867 0
M  V30 41 H 1.524350 -0.718495 6.664558 0
M  V30 42 H 2.603712 -2.758089 5.536526 0
M  V30 43 H 1.032088 -3.137897 4.823179 0
M  V30 44 H 2.399643 -2.092821 3.228682 0
M  V30 45 H 2.607807 -0.593670 4.176827 0
M  V30 46 H -0.065057 -1.760597 3.169709 0
M  V30 47 H 0.112503 -0.295534 4.160981 0
M  V30 48 H 1.250585 -0.631359 1.295330 0
M  V30 49 H -0.313004 1.574989 2.903242 0
M  V30 50 H 1.337195 2.427485 0.558285 0
M  V30 51 H -0.170292 3.116609 1.122528 0
M  V30 52 H 0.322503 1.043168 -1.057557 0
M  V30 53 H -1.422974 2.392354 -2.158361 0
M  V30 54 H -1.330442 4.279301 -0.078104 0
M  V30 55 H -2.678875 4.144114 -1.188090 0
M  V30 56 H -3.220665 4.358594 1.192688 0
M  V30 57 H -2.429648 2.841429 1.561526 0
M  V30 58 H -5.056973 3.468699 0.050514 0
M  V30 59 H -4.836487 2.946473 1.717413 0
M  V30 60 H -4.829140 1.295337 -0.799660 0
M  V30 61 H -6.093338 1.589956 0.364761 0
M  V30 62 H -5.652968 -0.533344 0.871436 0
M  V30 63 H -4.962236 0.415957 2.165796 0
M  V30 64 H -2.655412 -0.310583 1.558007 0
M  V30 65 H -3.851182 -1.565380 1.776272 0
M  V30 66 H -4.163753 -2.103196 -0.360346 0
M  V30 67 H -3.338650 -0.753316 -1.116205 0
M  V30 68 H -1.176332 -4.122529 -2.698650 0
M  V30 69 H -1.008189 -4.749904 -1.059938 0
M  V30 70 H 2.363367 -4.378935 -1.835766 0
M  V30 71 H 1.036216 -5.312175 -1.117701 0
M  V30 72 H 0.952262 -6.156200 -3.036122 0
M  V30 73 H 1.165708 -2.787330 -3.547594 0
M  V30 74 H -0.015655 -1.564172 -2.830716 0
M  V30 75 H 3.552305 -0.278015 -2.004257 0
M  V30 76 H 2.247242 1.078013 -3.597508 0
M  V30 77 H 1.419183 -0.438507 -4.246612 0
M  V30 78 H 3.641608 -1.169670 -5.123299 0
M  V30 79 H 5.267168 1.101973 -5.065720 0
M  V30 80 H 4.321264 1.345799 -3.575474 0
M  V30 81 H 5.328585 -0.127101 -3.700583 0
M  V30 82 H 2.990960 1.775393 -5.662622 0
M  V30 83 H 3.653055 0.553501 -6.901946 0
M  V30 84 H 1.936944 0.471752 -6.203939 0
M  V30 END ATOM
M  V30 BEGIN BOND
M  V30 1 1 1 2
M  V30 2 1 2 3
M  V30 3 1 3 4
M  V30 4 1 4 5
M  V30 5 1 5 6
M  V30 6 1 6 7
M  V30 7 1 7 8
M  V30 8 1 8 9
M  V30 9 1 9 10
M  V30 10 1 10 11
M  V30 11 1 11 12
M  V30 12 1 12 13
M  V30 13 1 13 14
M  V30 14 1 14 15
M  V30 15 1 15 16
M  V30 16 1 16 17
M  V30 17 1 17 18
M  V30 18 1 18 19
M  V30 19 1 19 20
M  V30 20 2 20 21
M  V30 21 1 20 22
M  V30 22 1 22 23
M  V30 23 1 23 24
M  V30 24 1 24 25
M  V30 25 1 25 26
M  V30 26 1 24 27
M  V30 27 1 27 28
M  V30 28 2 28 29
M  V30 29 1 29 30
M  V30 30 1 30 31
M  V30 31 1 31 32
M  V30 32 1 31 33
M  V30 33 1 28 34
M  V30 34 2 34 35
M  V30 35 1 34 36
M  V30 36 1 8 6
M  V30 37 1 12 10
M  V30 38 1 36 24
M  V30 39 1 1 37
M  V30 40 1 1 38
M  V30 41 1 1 39
M  V30 42 1 2 40
M  V30 43 1 2 41
M  V30 44 1 3 42
M  V30 45 1 3 43
M  V30 46 1 4 44
M  V30 47 1 4 45
M  V30 48 1 5 46
M  V30 49 1 5 47
M  V30 50 1 6 48
M  V30 51 1 8 49
M  V30 52 1 9 50
M  V30 53 1 9 51
M  V30 54 1 10 52
M  V30 55 1 12 53
M  V30 56 1 13 54
M  V30 57 1 13 55
M  V30 58 1 14 56
M  V30 59 1 14 57
M  V30 60 1 15 58
M  V30 61 1 15 59
M  V30 62 1 16 60
M  V30 63 1 16 61
M  V30 64 1 17 62
M  V30 65 1 17 63
M  V30 66 1 18 64
M  V30 67 1 18 65
M  V30 68 1 19 66
M  V30 69 1 19 67
M  V30 70 1 23 68
M  V30 71 1 23 69
M  V30 72 1 25 70
M  V30 73 1 25 71
M  V30 74 1 26 72
M  V30 75 1 27 73
M  V30 76 1 27 74
M  V30 77 1 29 75
M  V30 78 1 30 76
M  V30 79 1 30 77
M  V30 80 1 31 78
M  V30 81 1 32 79
M  V30 82 1 32 80
M  V30 83 1 32 81
M  V30 84 1 33 82
M  V30 85 1 33 83
M  V30 86 1 33 84
M  V30 END BOND
M  V30 END CTAB
M  END
>  <Dataset>  (633) 
ChEMBL_Kinases

>  <Ligand_Instance>  (633) 
nan

>  <PDB_ID>  (633) 
nan

>  <Standardized_SMILES>  (633) 
CCCCCC1OC1CC1OC1CCCCCCCC(=O)OCC1(CO)C/C(=C\CC(C)C)C(=O)O1

>  <Name>  (633) 
nan

>  <Pocket>  (633) 
nan

>  <ATP_Site>  (633) 
nan

>  <Peripheral>  (633) 
nan

>  <Num_H_Atoms_ProtBoundConf>  (633) 
nan

>  <Num_Resolved_Atoms>  (633) 
nan

>  <Num_Not_Resolved_Atoms>  (633) 
nan

$$$$
CHEMBL3393746
     RDKit          3D

  0  0  0  0  0  0  0  0  0  0999 V3000
M  V30 BEGIN CTAB
M  V30 COUNTS 86 86 0 0 0
M  V30 BEGIN ATOM
M  V30 1 C 5.510982 -1.024338 4.477627 0
M  V30 2 C 4.140054 -0.892311 5.120675 0
M  V30 3 C 3.319660 -2.082232 4.585442 0
M  V30 4 C 1.941921 -2.088585 5.131414 0
M  V30 5 C 1.000271 -3.119725 4.714168 0
M  V30 6 C 0.347717 -3.269361 3.433392 0
M  V30 7 C 0.968643 -3.282821 2.116520 0
M  V30 8 C 1.445854 -1.926340 1.650749 0
M  V30 9 C 2.121017 -1.989661 0.312492 0
M  V30 10 C 2.683551 -0.697927 -0.097587 0
M  V30 11 C 1.912931 0.516491 -0.297799 0
M  V30 12 C 1.179010 1.194764 0.790960 0
M  V30 13 C 0.586635 2.478088 0.179035 0
M  V30 14 C -0.182997 3.292744 1.120195 0
M  V30 15 C -1.405784 2.816005 1.771713 0
M  V30 16 C -2.619689 2.521705 0.991652 0
M  V30 17 C -2.627371 1.471813 -0.045505 0
M  V30 18 C -2.324884 0.101019 0.449603 0
M  V30 19 O -2.059786 -0.359276 1.581716 0
M  V30 20 O -2.361920 -0.797639 -0.604928 0
M  V30 21 C -2.130297 -2.173453 -0.520830 0
M  V30 22 C -2.295888 -2.719809 -1.944289 0
M  V30 23 C -2.052619 -4.226901 -1.943800 0
M  V30 24 O -2.139832 -4.718210 -3.242535 0
M  V30 25 C -1.302036 -2.036621 -2.831028 0
M  V30 26 C -2.169242 -1.261904 -3.771317 0
M  V30 27 C -1.924792 -0.310659 -4.675905 0
M  V30 28 C -2.805618 0.421015 -5.576454 0
M  V30 29 C -2.767212 1.920799 -5.304719 0
M  V30 30 C -1.335696 2.366104 -5.513871 0
M  V30 31 C -3.183252 2.258956 -3.912461 0
M  V30 32 C -3.543713 -1.702713 -3.585404 0
M  V30 33 O -4.556211 -1.473404 -4.248994 0
M  V30 34 O -3.572639 -2.489210 -2.458373 0
M  V30 35 H 6.245991 -0.512054 5.132913 0
M  V30 36 H 5.787048 -2.100983 4.364515 0
M  V30 37 H 5.538251 -0.535458 3.495725 0
M  V30 38 H 4.282215 -0.982884 6.214209 0
M  V30 39 H 3.700303 0.047351 4.784670 0
M  V30 40 H 3.842666 -2.981034 5.084914 0
M  V30 41 H 3.523725 -2.174713 3.549045 0
M  V30 42 H 2.068957 -2.180666 6.264467 0
M  V30 43 H 1.466445 -1.047667 5.072659 0
M  V30 44 H 1.446502 -4.136997 5.074445 0
M  V30 45 H 0.125305 -3.074138 5.489247 0
M  V30 46 H -0.286684 -4.245524 3.534107 0
M  V30 47 H -0.524469 -2.517411 3.389519 0
M  V30 48 H 0.196869 -3.623938 1.368301 0
M  V30 49 H 1.777993 -4.053808 1.992046 0
M  V30 50 H 0.418254 -1.439236 1.370214 0
M  V30 51 H 1.951237 -1.273326 2.302441 0
M  V30 52 H 2.942764 -2.773702 0.322469 0
M  V30 53 H 1.322270 -2.342492 -0.408164 0
M  V30 54 H 3.470747 -0.455413 0.730683 0
M  V30 55 H 3.339469 -0.936536 -1.011326 0
M  V30 56 H 1.204438 0.401676 -1.205002 0
M  V30 57 H 2.622407 1.315390 -0.732132 0
M  V30 58 H 0.457881 0.680786 1.388563 0
M  V30 59 H 1.973367 1.571198 1.515873 0
M  V30 60 H 0.186674 2.243456 -0.791904 0
M  V30 61 H 1.525228 3.099191 -0.062795 0
M  V30 62 H -0.476675 4.238458 0.537330 0
M  V30 63 H 0.537523 3.717758 1.881669 0
M  V30 64 H -1.719852 3.611960 2.532858 0
M  V30 65 H -1.235798 1.928482 2.446783 0
M  V30 66 H -3.117401 3.479306 0.615865 0
M  V30 67 H -3.398226 2.182676 1.766070 0
M  V30 68 H -3.677464 1.444400 -0.485770 0
M  V30 69 H -1.995516 1.688658 -0.895291 0
M  V30 70 H -1.073690 -2.393785 -0.231516 0
M  V30 71 H -2.862746 -2.728171 0.102522 0
M  V30 72 H -2.733122 -4.735782 -1.235689 0
M  V30 73 H -1.016841 -4.439499 -1.577141 0
M  V30 74 H -1.429900 -5.364985 -3.442481 0
M  V30 75 H -0.699635 -2.798007 -3.392333 0
M  V30 76 H -0.622469 -1.362027 -2.294589 0
M  V30 77 H -0.855159 -0.040467 -4.739378 0
M  V30 78 H -3.794751 0.043267 -5.773483 0
M  V30 79 H -2.299508 0.360669 -6.593859 0
M  V30 80 H -3.393461 2.433135 -6.062506 0
M  V30 81 H -0.782772 2.029358 -4.606587 0
M  V30 82 H -1.239118 3.459412 -5.553921 0
M  V30 83 H -0.886651 1.889370 -6.414279 0
M  V30 84 H -2.919164 1.426311 -3.228882 0
M  V30 85 H -2.581826 3.129690 -3.580137 0
M  V30 86 H -4.240920 2.584345 -3.809132 0
M  V30 END ATOM
M  V30 BEGIN BOND
M  V30 1 1 1 2
M  V30 2 1 2 3
M  V30 3 1 3 4
M  V30 4 1 4 5
M  V30 5 1 5 6
M  V30 6 1 6 7
M  V30 7 1 7 8
M  V30 8 1 8 9
M  V30 9 1 9 10
M  V30 10 1 10 11
M  V30 11 1 11 12
M  V30 12 1 12 13
M  V30 13 1 13 14
M  V30 14 1 14 15
M  V30 15 1 15 16
M  V30 16 1 16 17
M  V30 17 1 17 18
M  V30 18 2 18 19
M  V30 19 1 18 20
M  V30 20 1 20 21
M  V30 21 1 21 22
M  V30 22 1 22 23
M  V30 23 1 23 24
M  V30 24 1 22 25
M  V30 25 1 25 26
M  V30 26 2 26 27
M  V30 27 1 27 28
M  V30 28 1 28 29
M  V30 29 1 29 30
M  V30 30 1 29 31
M  V30 31 1 26 32
M  V30 32 2 32 33
M  V30 33 1 32 34
M  V30 34 1 34 22
M  V30 35 1 1 35
M  V30 36 1 1 36
M  V30 37 1 1 37
M  V30 38 1 2 38
M  V30 39 1 2 39
M  V30 40 1 3 40
M  V30 41 1 3 41
M  V30 42 1 4 42
M  V30 43 1 4 43
M  V30 44 1 5 44
M  V30 45 1 5 45
M  V30 46 1 6 46
M  V30 47 1 6 47
M  V30 48 1 7 48
M  V30 49 1 7 49
M  V30 50 1 8 50
M  V30 51 1 8 51
M  V30 52 1 9 52
M  V30 53 1 9 53
M  V30 54 1 10 54
M  V30 55 1 10 55
M  V30 56 1 11 56
M  V30 57 1 11 57
M  V30 58 1 12 58
M  V30 59 1 12 59
M  V30 60 1 13 60
M  V30 61 1 13 61
M  V30 62 1 14 62
M  V30 63 1 14 63
M  V30 64 1 15 64
M  V30 65 1 15 65
M  V30 66 1 16 66
M  V30 67 1 16 67
M  V30 68 1 17 68
M  V30 69 1 17 69
M  V30 70 1 21 70
M  V30 71 1 21 71
M  V30 72 1 23 72
M  V30 73 1 23 73
M  V30 74 1 24 74
M  V30 75 1 25 75
M  V30 76 1 25 76
M  V30 77 1 27 77
M  V30 78 1 28 78
M  V30 79 1 28 79
M  V30 80 1 29 80
M  V30 81 1 30 81
M  V30 82 1 30 82
M  V30 83 1 30 83
M  V30 84 1 31 84
M  V30 85 1 31 85
M  V30 86 1 31 86
M  V30 END BOND
M  V30 END CTAB
M  END
>  <Dataset>  (634) 
ChEMBL_Kinases

>  <Ligand_Instance>  (634) 
nan

>  <PDB_ID>  (634) 
nan

>  <Standardized_SMILES>  (634) 
CCCCCCCCCCCCCCCCCC(=O)OCC1(CO)C/C(=C/CC(C)C)C(=O)O1

>  <Name>  (634) 
nan

>  <Pocket>  (634) 
nan

>  <ATP_Site>  (634) 
nan

>  <Peripheral>  (634) 
nan

>  <Num_H_Atoms_ProtBoundConf>  (634) 
nan

>  <Num_Resolved_Atoms>  (634) 
nan

>  <Num_Not_Resolved_Atoms>  (634) 
nan

$$$$
CHEMBL3393747
     RDKit          3D

  0  0  0  0  0  0  0  0  0  0999 V3000
M  V30 BEGIN CTAB
M  V30 COUNTS 86 86 0 0 0
M  V30 BEGIN ATOM
M  V30 1 C 4.954985 0.834573 6.195791 0
M  V30 2 C 3.654276 0.077255 6.345019 0
M  V30 3 C 3.831558 -1.337653 5.743543 0
M  V30 4 C 2.565859 -2.119453 5.867497 0
M  V30 5 C 2.494741 -3.473672 5.346032 0
M  V30 6 C 2.481198 -3.932227 3.981337 0
M  V30 7 C 3.409675 -3.634425 2.909722 0
M  V30 8 C 3.370385 -2.241202 2.336482 0
M  V30 9 C 4.409911 -2.041991 1.272011 0
M  V30 10 C 4.479107 -0.658406 0.775669 0
M  V30 11 C 3.325583 0.001478 0.178876 0
M  V30 12 C 2.118478 0.337610 0.948995 0
M  V30 13 C 1.161351 1.025061 -0.041910 0
M  V30 14 C -0.122321 1.445427 0.575453 0
M  V30 15 C -0.950382 0.336880 1.161803 0
M  V30 16 C -2.229547 0.831675 1.768480 0
M  V30 17 C -3.107590 1.544721 0.778443 0
M  V30 18 C -3.582922 0.733472 -0.342060 0
M  V30 19 O -3.336375 -0.425302 0.070191 0
M  V30 20 O -4.061338 0.113281 -1.451378 0
M  V30 21 C -4.061058 -1.278230 -1.605483 0
M  V30 22 C -4.671420 -1.604893 -2.952216 0
M  V30 23 C -4.742276 -3.132782 -3.043873 0
M  V30 24 O -3.470308 -3.659283 -2.960459 0
M  V30 25 C -3.909156 -1.033963 -4.106684 0
M  V30 26 C -4.892995 -0.203487 -4.854192 0
M  V30 27 C -4.516609 0.534623 -5.890526 0
M  V30 28 C -3.101908 0.544456 -6.324493 0
M  V30 29 C -2.548832 1.941815 -6.246185 0
M  V30 30 C -1.107007 1.993635 -6.678241 0
M  V30 31 C -2.640159 2.476489 -4.837695 0
M  V30 32 C -6.168047 -0.407202 -4.214952 0
M  V30 33 O -7.207088 0.064965 -4.757862 0
M  V30 34 O -5.982695 -1.134339 -3.047629 0
M  V30 35 H 5.052973 1.538676 7.028640 0
M  V30 36 H 5.830725 0.169821 6.224711 0
M  V30 37 H 4.967218 1.462356 5.269271 0
M  V30 38 H 3.419024 -0.001158 7.404083 0
M  V30 39 H 2.890624 0.630647 5.764997 0
M  V30 40 H 4.549108 -1.834873 6.474407 0
M  V30 41 H 4.314921 -1.192004 4.812442 0
M  V30 42 H 2.403660 -2.196503 6.999353 0
M  V30 43 H 1.666175 -1.480727 5.591080 0
M  V30 44 H 3.263518 -4.090784 5.961590 0
M  V30 45 H 1.531737 -3.935606 5.821470 0
M  V30 46 H 2.461950 -5.098635 4.056168 0
M  V30 47 H 1.428562 -3.784470 3.527520 0
M  V30 48 H 3.180302 -4.334126 2.046101 0
M  V30 49 H 4.482792 -3.933182 3.140556 0
M  V30 50 H 2.396960 -2.339307 1.665802 0
M  V30 51 H 3.278965 -1.395370 2.949841 0
M  V30 52 H 5.417617 -2.375963 1.674503 0
M  V30 53 H 4.188391 -2.737444 0.412638 0
M  V30 54 H 4.910303 -0.036612 1.648179 0
M  V30 55 H 5.354117 -0.650668 0.017584 0
M  V30 56 H 2.980854 -0.507509 -0.784961 0
M  V30 57 H 3.704862 0.999777 -0.245767 0
M  V30 58 H 1.611446 -0.367391 1.566331 0
M  V30 59 H 2.386446 1.203775 1.651550 0
M  V30 60 H 0.961324 0.330168 -0.876305 0
M  V30 61 H 1.657569 1.917701 -0.464453 0
M  V30 62 H -0.732247 1.896384 -0.262865 0
M  V30 63 H -0.007013 2.260215 1.321505 0
M  V30 64 H -0.358520 -0.096859 2.020375 0
M  V30 65 H -1.139919 -0.396709 0.392682 0
M  V30 66 H -2.064111 1.517587 2.623886 0
M  V30 67 H -2.828819 -0.056535 2.116864 0
M  V30 68 H -3.978016 1.955525 1.387136 0
M  V30 69 H -2.537809 2.440041 0.415553 0
M  V30 70 H -3.021168 -1.695227 -1.581903 0
M  V30 71 H -4.643026 -1.836344 -0.852924 0
M  V30 72 H -5.277203 -3.414671 -3.962516 0
M  V30 73 H -5.347103 -3.501100 -2.178125 0
M  V30 74 H -3.508845 -4.637579 -3.074243 0
M  V30 75 H -3.517486 -1.830247 -4.750295 0
M  V30 76 H -3.083906 -0.392649 -3.716144 0
M  V30 77 H -5.278937 1.115737 -6.389106 0
M  V30 78 H -2.488011 -0.088091 -5.681600 0
M  V30 79 H -3.075770 0.249122 -7.396586 0
M  V30 80 H -3.108783 2.638738 -6.909321 0
M  V30 81 H -0.541054 1.381981 -5.927938 0
M  V30 82 H -0.739341 3.025356 -6.626141 0
M  V30 83 H -0.976206 1.570174 -7.700347 0
M  V30 84 H -2.077543 1.841650 -4.130760 0
M  V30 85 H -2.220679 3.491095 -4.813004 0
M  V30 86 H -3.700224 2.554916 -4.513644 0
M  V30 END ATOM
M  V30 BEGIN BOND
M  V30 1 1 1 2
M  V30 2 1 2 3
M  V30 3 1 3 4
M  V30 4 1 4 5
M  V30 5 1 5 6
M  V30 6 1 6 7
M  V30 7 1 7 8
M  V30 8 1 8 9
M  V30 9 1 9 10
M  V30 10 1 10 11
M  V30 11 1 11 12
M  V30 12 1 12 13
M  V30 13 1 13 14
M  V30 14 1 14 15
M  V30 15 1 15 16
M  V30 16 1 16 17
M  V30 17 1 17 18
M  V30 18 2 18 19
M  V30 19 1 18 20
M  V30 20 1 20 21
M  V30 21 1 21 22
M  V30 22 1 22 23
M  V30 23 1 23 24
M  V30 24 1 22 25
M  V30 25 1 25 26
M  V30 26 2 26 27
M  V30 27 1 27 28
M  V30 28 1 28 29
M  V30 29 1 29 30
M  V30 30 1 29 31
M  V30 31 1 26 32
M  V30 32 2 32 33
M  V30 33 1 32 34
M  V30 34 1 34 22
M  V30 35 1 1 35
M  V30 36 1 1 36
M  V30 37 1 1 37
M  V30 38 1 2 38
M  V30 39 1 2 39
M  V30 40 1 3 40
M  V30 41 1 3 41
M  V30 42 1 4 42
M  V30 43 1 4 43
M  V30 44 1 5 44
M  V30 45 1 5 45
M  V30 46 1 6 46
M  V30 47 1 6 47
M  V30 48 1 7 48
M  V30 49 1 7 49
M  V30 50 1 8 50
M  V30 51 1 8 51
M  V30 52 1 9 52
M  V30 53 1 9 53
M  V30 54 1 10 54
M  V30 55 1 10 55
M  V30 56 1 11 56
M  V30 57 1 11 57
M  V30 58 1 12 58
M  V30 59 1 12 59
M  V30 60 1 13 60
M  V30 61 1 13 61
M  V30 62 1 14 62
M  V30 63 1 14 63
M  V30 64 1 15 64
M  V30 65 1 15 65
M  V30 66 1 16 66
M  V30 67 1 16 67
M  V30 68 1 17 68
M  V30 69 1 17 69
M  V30 70 1 21 70
M  V30 71 1 21 71
M  V30 72 1 23 72
M  V30 73 1 23 73
M  V30 74 1 24 74
M  V30 75 1 25 75
M  V30 76 1 25 76
M  V30 77 1 27 77
M  V30 78 1 28 78
M  V30 79 1 28 79
M  V30 80 1 29 80
M  V30 81 1 30 81
M  V30 82 1 30 82
M  V30 83 1 30 83
M  V30 84 1 31 84
M  V30 85 1 31 85
M  V30 86 1 31 86
M  V30 END BOND
M  V30 END CTAB
M  END
>  <Dataset>  (635) 
ChEMBL_Kinases

>  <Ligand_Instance>  (635) 
nan

>  <PDB_ID>  (635) 
nan

>  <Standardized_SMILES>  (635) 
CCCCCCCCCCCCCCCCCC(=O)OCC1(CO)C/C(=C\CC(C)C)C(=O)O1

>  <Name>  (635) 
nan

>  <Pocket>  (635) 
nan

>  <ATP_Site>  (635) 
nan

>  <Peripheral>  (635) 
nan

>  <Num_H_Atoms_ProtBoundConf>  (635) 
nan

>  <Num_Resolved_Atoms>  (635) 
nan

>  <Num_Not_Resolved_Atoms>  (635) 
nan

$$$$
CHEMBL3393748
     RDKit          3D

  0  0  0  0  0  0  0  0  0  0999 V3000
M  V30 BEGIN CTAB
M  V30 COUNTS 65 65 0 0 0
M  V30 BEGIN ATOM
M  V30 1 C 3.494150 -5.429189 4.149724 0
M  V30 2 C 4.351275 -4.652496 3.176100 0
M  V30 3 C 3.880581 -4.976382 1.775853 0
M  V30 4 C 4.149492 -3.151379 3.412804 0
M  V30 5 C 2.696673 -2.926627 3.182669 0
M  V30 6 C 2.240310 -2.107912 2.234326 0
M  V30 7 C 2.988485 -1.299948 1.271478 0
M  V30 8 C 1.914980 -0.762684 0.359378 0
M  V30 9 C 2.344165 -0.829874 -1.080837 0
M  V30 10 O 2.684407 -2.113046 -1.456265 0
M  V30 11 C 1.485400 0.651609 0.735853 0
M  V30 12 O 0.389556 0.947743 -0.071913 0
M  V30 13 C -0.368902 2.074674 -0.123035 0
M  V30 14 O 0.446973 2.359284 0.759180 0
M  V30 15 C -1.460731 1.979042 -1.142879 0
M  V30 16 C -2.519739 1.031617 -0.671662 0
M  V30 17 C -3.637220 0.903945 -1.645995 0
M  V30 18 C -3.206873 0.395744 -3.006726 0
M  V30 19 C -2.569710 -0.973685 -2.923530 0
M  V30 20 C -4.371379 0.379699 -3.980094 0
M  V30 21 C -2.883839 1.106046 0.746657 0
M  V30 22 C -3.428612 2.316905 1.362342 0
M  V30 23 C -4.746679 2.780528 0.732320 0
M  V30 24 C -2.574463 3.510784 1.536876 0
M  V30 25 O 0.786250 -1.585948 0.611532 0
M  V30 26 C 0.819670 -1.862021 1.975682 0
M  V30 27 O -0.104597 -1.912155 2.861208 0
M  V30 28 H 3.503155 -4.979693 5.162092 0
M  V30 29 H 3.868963 -6.467089 4.149982 0
M  V30 30 H 2.456320 -5.488890 3.723889 0
M  V30 31 H 5.391305 -4.936649 3.341112 0
M  V30 32 H 3.868122 -6.083407 1.682292 0
M  V30 33 H 4.526110 -4.552493 0.984613 0
M  V30 34 H 2.825673 -4.658713 1.658317 0
M  V30 35 H 4.765150 -2.556337 2.736196 0
M  V30 36 H 4.457562 -2.954075 4.459983 0
M  V30 37 H 2.025447 -3.485033 3.851285 0
M  V30 38 H 3.691511 -1.905795 0.662527 0
M  V30 39 H 3.574245 -0.483261 1.745310 0
M  V30 40 H 1.567707 -0.468038 -1.765114 0
M  V30 41 H 3.252995 -0.211560 -1.194293 0
M  V30 42 H 1.965234 -2.507668 -1.992832 0
M  V30 43 H 1.239413 0.687035 1.819247 0
M  V30 44 H 2.312520 1.345556 0.478951 0
M  V30 45 H -1.017657 1.572488 -2.067716 0
M  V30 46 H -1.830912 2.981259 -1.404448 0
M  V30 47 H -1.982404 0.027012 -0.762993 0
M  V30 48 H -4.073310 1.906764 -1.840104 0
M  V30 49 H -4.440438 0.216901 -1.322070 0
M  V30 50 H -2.442353 1.088734 -3.416547 0
M  V30 51 H -1.473648 -0.860153 -2.711436 0
M  V30 52 H -2.625051 -1.453766 -3.917122 0
M  V30 53 H -2.986692 -1.597710 -2.130933 0
M  V30 54 H -4.026858 0.551605 -5.019226 0
M  V30 55 H -5.170492 1.083319 -3.701043 0
M  V30 56 H -4.774272 -0.672419 -3.961980 0
M  V30 57 H -3.659355 0.297956 0.916408 0
M  V30 58 H -1.999377 0.748331 1.337829 0
M  V30 59 H -3.743632 2.017211 2.402684 0
M  V30 60 H -4.607238 3.512683 -0.075079 0
M  V30 61 H -5.364168 1.909528 0.460562 0
M  V30 62 H -5.338626 3.320037 1.509434 0
M  V30 63 H -1.707762 3.271657 2.185694 0
M  V30 64 H -2.330141 4.101460 0.655809 0
M  V30 65 H -3.177732 4.221135 2.182462 0
M  V30 END ATOM
M  V30 BEGIN BOND
M  V30 1 1 1 2
M  V30 2 1 2 3
M  V30 3 1 2 4
M  V30 4 1 4 5
M  V30 5 2 5 6
M  V30 6 1 6 7
M  V30 7 1 7 8
M  V30 8 1 8 9
M  V30 9 1 9 10
M  V30 10 1 8 11
M  V30 11 1 11 12
M  V30 12 1 12 13
M  V30 13 2 13 14
M  V30 14 1 13 15
M  V30 15 1 15 16
M  V30 16 1 16 17
M  V30 17 1 17 18
M  V30 18 1 18 19
M  V30 19 1 18 20
M  V30 20 1 16 21
M  V30 21 1 21 22
M  V30 22 1 22 23
M  V30 23 1 22 24
M  V30 24 1 8 25
M  V30 25 1 25 26
M  V30 26 2 26 27
M  V30 27 1 26 6
M  V30 28 1 1 28
M  V30 29 1 1 29
M  V30 30 1 1 30
M  V30 31 1 2 31
M  V30 32 1 3 32
M  V30 33 1 3 33
M  V30 34 1 3 34
M  V30 35 1 4 35
M  V30 36 1 4 36
M  V30 37 1 5 37
M  V30 38 1 7 38
M  V30 39 1 7 39
M  V30 40 1 9 40
M  V30 41 1 9 41
M  V30 42 1 10 42
M  V30 43 1 11 43
M  V30 44 1 11 44
M  V30 45 1 15 45
M  V30 46 1 15 46
M  V30 47 1 16 47
M  V30 48 1 17 48
M  V30 49 1 17 49
M  V30 50 1 18 50
M  V30 51 1 19 51
M  V30 52 1 19 52
M  V30 53 1 19 53
M  V30 54 1 20 54
M  V30 55 1 20 55
M  V30 56 1 20 56
M  V30 57 1 21 57
M  V30 58 1 21 58
M  V30 59 1 22 59
M  V30 60 1 23 60
M  V30 61 1 23 61
M  V30 62 1 23 62
M  V30 63 1 24 63
M  V30 64 1 24 64
M  V30 65 1 24 65
M  V30 END BOND
M  V30 END CTAB
M  END
>  <Dataset>  (636) 
ChEMBL_Kinases

>  <Ligand_Instance>  (636) 
nan

>  <PDB_ID>  (636) 
nan

>  <Standardized_SMILES>  (636) 
CC(C)C/C=C1\CC(CO)(COC(=O)CC(CC(C)C)CC(C)C)OC1=O

>  <Name>  (636) 
nan

>  <Pocket>  (636) 
nan

>  <ATP_Site>  (636) 
nan

>  <Peripheral>  (636) 
nan

>  <Num_H_Atoms_ProtBoundConf>  (636) 
nan

>  <Num_Resolved_Atoms>  (636) 
nan

>  <Num_Not_Resolved_Atoms>  (636) 
nan

$$$$
CHEMBL3670444
     RDKit          3D

  0  0  0  0  0  0  0  0  0  0999 V3000
M  V30 BEGIN CTAB
M  V30 COUNTS 49 52 0 0 0
M  V30 BEGIN ATOM
M  V30 1 N 4.192318 -1.885619 6.477572 0
M  V30 2 C 3.441356 -0.979174 5.622121 0
M  V30 3 O 2.929442 -0.402502 6.588940 0
M  V30 4 C 3.711633 -1.259428 4.237099 0
M  V30 5 C 4.527650 -2.274050 3.719024 0
M  V30 6 C 4.581206 -2.280635 2.364099 0
M  V30 7 C 3.932507 -1.420402 1.531960 0
M  V30 8 C 3.121356 -0.412868 2.061230 0
M  V30 9 C 2.521381 0.409920 1.155590 0
M  V30 10 N 2.572274 0.332409 -0.257251 0
M  V30 11 C 1.930268 1.237697 -1.187973 0
M  V30 12 C 0.505095 1.469372 -0.826503 0
M  V30 13 C 0.226935 2.648800 -0.153154 0
M  V30 14 C -1.031033 2.977472 0.252250 0
M  V30 15 C -2.127756 2.147792 0.017056 0
M  V30 16 C -1.819518 0.974136 -0.659895 0
M  V30 17 C -2.946282 0.085392 -0.919790 0
M  V30 18 O -4.107868 0.368084 -0.545083 0
M  V30 19 N -2.810152 -1.140826 -1.604393 0
M  V30 20 C -3.866635 -2.053836 -1.889616 0
M  V30 21 C -4.143891 -3.102585 -1.007499 0
M  V30 22 C -5.164593 -3.985801 -1.255125 0
M  V30 23 C -5.973783 -3.908609 -2.361743 0
M  V30 24 C -5.736952 -2.886703 -3.262393 0
M  V30 25 C -4.699643 -2.008227 -2.989189 0
M  V30 26 C -0.557734 0.638063 -1.070812 0
M  V30 27 N 1.775710 1.358255 1.720071 0
M  V30 28 C 1.629682 1.489448 3.023329 0
M  V30 29 N 2.240881 0.650949 3.875251 0
M  V30 30 C 3.021349 -0.345534 3.420440 0
M  V30 31 H 3.983356 -2.654575 7.172004 0
M  V30 32 H 3.956613 -2.650017 7.167220 0
M  V30 33 H 4.999820 -2.909957 4.453108 0
M  V30 34 H 5.231245 -3.088720 1.985002 0
M  V30 35 H 4.102862 -1.587279 0.486275 0
M  V30 36 H 3.109231 -0.421078 -0.738069 0
M  V30 37 H 1.963319 0.828492 -2.236905 0
M  V30 38 H 2.492267 2.189066 -1.216582 0
M  V30 39 H 0.937358 3.426601 0.115132 0
M  V30 40 H -1.296353 3.905971 0.795270 0
M  V30 41 H -3.118956 2.417067 0.341010 0
M  V30 42 H -1.869833 -1.481033 -1.958356 0
M  V30 43 H -3.514184 -3.176624 -0.135371 0
M  V30 44 H -5.336769 -4.783834 -0.542170 0
M  V30 45 H -6.793693 -4.570300 -2.599575 0
M  V30 46 H -6.338615 -2.768913 -4.149679 0
M  V30 47 H -4.519866 -1.199283 -3.707667 0
M  V30 48 H -0.295731 -0.267456 -1.590978 0
M  V30 49 H 1.025625 2.243432 3.530318 0
M  V30 END ATOM
M  V30 BEGIN BOND
M  V30 1 1 1 2
M  V30 2 2 2 3
M  V30 3 1 2 4
M  V30 4 2 4 5
M  V30 5 1 5 6
M  V30 6 2 6 7
M  V30 7 1 7 8
M  V30 8 2 8 9
M  V30 9 1 9 10
M  V30 10 1 10 11
M  V30 11 1 11 12
M  V30 12 2 12 13
M  V30 13 1 13 14
M  V30 14 2 14 15
M  V30 15 1 15 16
M  V30 16 1 16 17
M  V30 17 2 17 18
M  V30 18 1 17 19
M  V30 19 1 19 20
M  V30 20 2 20 21
M  V30 21 1 21 22
M  V30 22 2 22 23
M  V30 23 1 23 24
M  V30 24 2 24 25
M  V30 25 2 16 26
M  V30 26 1 9 27
M  V30 27 2 27 28
M  V30 28 1 28 29
M  V30 29 2 29 30
M  V30 30 1 30 4
M  V30 31 1 30 8
M  V30 32 1 26 12
M  V30 33 1 25 20
M  V30 34 1 1 31
M  V30 35 1 1 32
M  V30 36 1 5 33
M  V30 37 1 6 34
M  V30 38 1 7 35
M  V30 39 1 10 36
M  V30 40 1 11 37
M  V30 41 1 11 38
M  V30 42 1 13 39
M  V30 43 1 14 40
M  V30 44 1 15 41
M  V30 45 1 19 42
M  V30 46 1 21 43
M  V30 47 1 22 44
M  V30 48 1 23 45
M  V30 49 1 24 46
M  V30 50 1 25 47
M  V30 51 1 26 48
M  V30 52 1 28 49
M  V30 END BOND
M  V30 END CTAB
M  END
>  <Dataset>  (637) 
ChEMBL_Kinases

>  <Ligand_Instance>  (637) 
nan

>  <PDB_ID>  (637) 
nan

>  <Standardized_SMILES>  (637) 
NC(=O)c1cccc2c(NCc3cccc(C(=O)Nc4ccccc4)c3)ncnc12

>  <Name>  (637) 
nan

>  <Pocket>  (637) 
nan

>  <ATP_Site>  (637) 
nan

>  <Peripheral>  (637) 
nan

>  <Num_H_Atoms_ProtBoundConf>  (637) 
nan

>  <Num_Resolved_Atoms>  (637) 
nan

>  <Num_Not_Resolved_Atoms>  (637) 
nan

$$$$
CHEMBL3393749
     RDKit          3D

  0  0  0  0  0  0  0  0  0  0999 V3000
M  V30 BEGIN CTAB
M  V30 COUNTS 82 82 0 0 0
M  V30 BEGIN ATOM
M  V30 1 C 3.545375 0.228002 6.426841 0
M  V30 2 C 3.491964 -1.174843 6.933075 0
M  V30 3 C 3.786118 -2.230164 5.932533 0
M  V30 4 C 2.884839 -2.388971 4.779925 0
M  V30 5 C 2.698260 -1.245256 3.847293 0
M  V30 6 C 1.769715 -1.643242 2.688699 0
M  V30 7 C 1.568397 -0.514516 1.737499 0
M  V30 8 C 0.954454 0.724782 2.352120 0
M  V30 9 C 0.794114 1.767723 1.331282 0
M  V30 10 C 0.661980 2.600738 0.486637 0
M  V30 11 C 0.531030 3.583792 -0.512514 0
M  V30 12 C -0.752545 4.148570 -0.945404 0
M  V30 13 C -1.636910 4.843501 -0.007300 0
M  V30 14 C -2.416988 4.219835 1.072789 0
M  V30 15 C -3.567044 3.355994 0.745553 0
M  V30 16 C -3.447448 2.064621 0.060092 0
M  V30 17 C -2.710679 1.035430 0.895780 0
M  V30 18 C -2.529493 -0.252455 0.244207 0
M  V30 19 O -1.973176 -1.068799 1.031927 0
M  V30 20 O -2.858258 -0.663534 -1.015565 0
M  V30 21 C -2.616554 -1.968106 -1.506304 0
M  V30 22 C -3.083428 -2.098600 -2.939663 0
M  V30 23 C -4.543200 -1.733978 -3.069432 0
M  V30 24 O -4.949226 -1.756638 -4.401531 0
M  V30 25 C -2.741737 -3.443094 -3.519839 0
M  V30 26 C -1.325728 -3.232721 -3.991439 0
M  V30 27 C -0.221284 -3.938936 -4.126573 0
M  V30 28 C 1.129922 -3.620261 -4.606266 0
M  V30 29 C 2.188371 -3.912869 -3.548046 0
M  V30 30 C 3.532151 -3.549711 -4.142991 0
M  V30 31 C 1.985163 -3.030463 -2.336722 0
M  V30 32 C -1.325811 -1.816696 -4.384727 0
M  V30 33 O -0.561727 -1.265759 -5.211838 0
M  V30 34 O -2.334919 -1.148570 -3.681327 0
M  V30 35 H 2.534664 0.682696 6.387070 0
M  V30 36 H 4.062344 0.336453 5.469170 0
M  V30 37 H 4.147201 0.857191 7.176494 0
M  V30 38 H 4.155173 -1.260704 7.842434 0
M  V30 39 H 2.458186 -1.368856 7.378185 0
M  V30 40 H 4.867088 -2.076809 5.594378 0
M  V30 41 H 3.824693 -3.240343 6.454470 0
M  V30 42 H 1.873784 -2.702508 5.209841 0
M  V30 43 H 3.218610 -3.325547 4.222229 0
M  V30 44 H 3.640595 -0.919122 3.406770 0
M  V30 45 H 2.160932 -0.420941 4.402040 0
M  V30 46 H 2.337225 -2.429650 2.146476 0
M  V30 47 H 0.828248 -2.036910 3.095024 0
M  V30 48 H 2.552669 -0.245956 1.292783 0
M  V30 49 H 0.885767 -0.855842 0.949798 0
M  V30 50 H 1.651669 1.099597 3.115862 0
M  V30 51 H -0.000163 0.442614 2.825620 0
M  V30 52 H 1.229740 4.473834 -0.321788 0
M  V30 53 H 0.994969 3.139384 -1.475704 0
M  V30 54 H -1.348208 3.402229 -1.543908 0
M  V30 55 H -0.449286 4.948781 -1.740432 0
M  V30 56 H -2.385528 5.431430 -0.680700 0
M  V30 57 H -1.055111 5.749090 0.460287 0
M  V30 58 H -1.698090 3.571655 1.654536 0
M  V30 59 H -2.784244 5.030621 1.767525 0
M  V30 60 H -4.347326 3.948028 0.149796 0
M  V30 61 H -4.167182 3.181461 1.715061 0
M  V30 62 H -4.524872 1.659971 -0.005583 0
M  V30 63 H -3.131730 2.132178 -0.973047 0
M  V30 64 H -1.813305 1.379329 1.376136 0
M  V30 65 H -3.430036 0.855623 1.785205 0
M  V30 66 H -1.530377 -2.170680 -1.485009 0
M  V30 67 H -3.120144 -2.729577 -0.849914 0
M  V30 68 H -5.199290 -2.441130 -2.520741 0
M  V30 69 H -4.711738 -0.700667 -2.719937 0
M  V30 70 H -4.352750 -1.097784 -4.876495 0
M  V30 71 H -2.808663 -4.247604 -2.763302 0
M  V30 72 H -3.406912 -3.700973 -4.347250 0
M  V30 73 H -0.383980 -4.976804 -3.803362 0
M  V30 74 H 1.205178 -2.537601 -4.793357 0
M  V30 75 H 1.302407 -4.225056 -5.515953 0
M  V30 76 H 2.202043 -4.979304 -3.266507 0
M  V30 77 H 4.303216 -3.671348 -3.329387 0
M  V30 78 H 3.552178 -2.465738 -4.380044 0
M  V30 79 H 3.805178 -4.177595 -4.997784 0
M  V30 80 H 0.894126 -2.739400 -2.369952 0
M  V30 81 H 2.146021 -3.602390 -1.399509 0
M  V30 82 H 2.582952 -2.109296 -2.362578 0
M  V30 END ATOM
M  V30 BEGIN BOND
M  V30 1 1 1 2
M  V30 2 1 2 3
M  V30 3 1 3 4
M  V30 4 1 4 5
M  V30 5 1 5 6
M  V30 6 1 6 7
M  V30 7 1 7 8
M  V30 8 1 8 9
M  V30 9 3 9 10
M  V30 10 1 10 11
M  V30 11 1 11 12
M  V30 12 1 12 13
M  V30 13 1 13 14
M  V30 14 1 14 15
M  V30 15 1 15 16
M  V30 16 1 16 17
M  V30 17 1 17 18
M  V30 18 2 18 19
M  V30 19 1 18 20
M  V30 20 1 20 21
M  V30 21 1 21 22
M  V30 22 1 22 23
M  V30 23 1 23 24
M  V30 24 1 22 25
M  V30 25 1 25 26
M  V30 26 2 26 27
M  V30 27 1 27 28
M  V30 28 1 28 29
M  V30 29 1 29 30
M  V30 30 1 29 31
M  V30 31 1 26 32
M  V30 32 2 32 33
M  V30 33 1 32 34
M  V30 34 1 34 22
M  V30 35 1 1 35
M  V30 36 1 1 36
M  V30 37 1 1 37
M  V30 38 1 2 38
M  V30 39 1 2 39
M  V30 40 1 3 40
M  V30 41 1 3 41
M  V30 42 1 4 42
M  V30 43 1 4 43
M  V30 44 1 5 44
M  V30 45 1 5 45
M  V30 46 1 6 46
M  V30 47 1 6 47
M  V30 48 1 7 48
M  V30 49 1 7 49
M  V30 50 1 8 50
M  V30 51 1 8 51
M  V30 52 1 11 52
M  V30 53 1 11 53
M  V30 54 1 12 54
M  V30 55 1 12 55
M  V30 56 1 13 56
M  V30 57 1 13 57
M  V30 58 1 14 58
M  V30 59 1 14 59
M  V30 60 1 15 60
M  V30 61 1 15 61
M  V30 62 1 16 62
M  V30 63 1 16 63
M  V30 64 1 17 64
M  V30 65 1 17 65
M  V30 66 1 21 66
M  V30 67 1 21 67
M  V30 68 1 23 68
M  V30 69 1 23 69
M  V30 70 1 24 70
M  V30 71 1 25 71
M  V30 72 1 25 72
M  V30 73 1 27 73
M  V30 74 1 28 74
M  V30 75 1 28 75
M  V30 76 1 29 76
M  V30 77 1 30 77
M  V30 78 1 30 78
M  V30 79 1 30 79
M  V30 80 1 31 80
M  V30 81 1 31 81
M  V30 82 1 31 82
M  V30 END BOND
M  V30 END CTAB
M  END
>  <Dataset>  (638) 
ChEMBL_Kinases

>  <Ligand_Instance>  (638) 
nan

>  <PDB_ID>  (638) 
nan

>  <Standardized_SMILES>  (638) 
CCCCCCCCC#CCCCCCCCC(=O)OCC1(CO)C/C(=C/CC(C)C)C(=O)O1

>  <Name>  (638) 
nan

>  <Pocket>  (638) 
nan

>  <ATP_Site>  (638) 
nan

>  <Peripheral>  (638) 
nan

>  <Num_H_Atoms_ProtBoundConf>  (638) 
nan

>  <Num_Resolved_Atoms>  (638) 
nan

>  <Num_Not_Resolved_Atoms>  (638) 
nan

$$$$
CHEMBL3670443
     RDKit          3D

  0  0  0  0  0  0  0  0  0  0999 V3000
M  V30 BEGIN CTAB
M  V30 COUNTS 51 54 0 0 0
M  V30 BEGIN ATOM
M  V30 1 N 3.263165 -3.692127 3.238709 0
M  V30 2 C 4.328414 -2.793608 3.476129 0
M  V30 3 O 4.713600 -3.545894 4.369217 0
M  V30 4 C 4.508839 -1.569666 2.713429 0
M  V30 5 C 5.576523 -0.774520 3.069697 0
M  V30 6 C 5.737963 0.390010 2.336166 0
M  V30 7 C 4.836886 0.679434 1.311976 0
M  V30 8 C 3.808915 -0.160774 1.025684 0
M  V30 9 C 2.959601 0.192828 -0.000165 0
M  V30 10 N 3.056191 1.348619 -0.795015 0
M  V30 11 C 2.201366 1.781938 -1.882223 0
M  V30 12 C 0.804026 2.031392 -1.451481 0
M  V30 13 C 0.450676 3.245388 -0.918611 0
M  V30 14 C -0.802909 3.646457 -0.489216 0
M  V30 15 C -1.786236 2.666099 -0.636484 0
M  V30 16 C -1.524515 1.404464 -1.166653 0
M  V30 17 N -2.620839 0.517527 -1.265016 0
M  V30 18 C -3.039459 -0.385031 -0.262714 0
M  V30 19 O -2.392793 -0.413012 0.810419 0
M  V30 20 N -4.147622 -1.248549 -0.420501 0
M  V30 21 C -4.676271 -2.186255 0.471710 0
M  V30 22 C -5.767538 -2.925173 0.105150 0
M  V30 23 C -6.367735 -3.871168 0.898123 0
M  V30 24 C -5.872993 -4.130576 2.160393 0
M  V30 25 Cl -6.687640 -5.350268 3.113384 0
M  V30 26 C -4.764242 -3.414324 2.595296 0
M  V30 27 C -4.221594 -2.481804 1.736072 0
M  V30 28 C -0.230993 1.132463 -1.556771 0
M  V30 29 N 1.957775 -0.661935 -0.253415 0
M  V30 30 C 1.770461 -1.796141 0.433110 0
M  V30 31 N 2.591547 -2.148997 1.434495 0
M  V30 32 C 3.594242 -1.331864 1.716255 0
M  V30 33 H 2.238366 -3.918317 3.265386 0
M  V30 34 H 2.895334 -4.623328 2.911933 0
M  V30 35 H 6.213128 -1.083809 3.870926 0
M  V30 36 H 6.583811 1.013617 2.622755 0
M  V30 37 H 5.072641 1.601207 0.830469 0
M  V30 38 H 3.841678 1.983902 -0.583911 0
M  V30 39 H 2.592193 2.737918 -2.271999 0
M  V30 40 H 2.173714 1.010038 -2.695436 0
M  V30 41 H 1.210279 4.031203 -0.793941 0
M  V30 42 H -1.011381 4.621012 -0.076083 0
M  V30 43 H -2.794072 2.932850 -0.311019 0
M  V30 44 H -3.126312 0.576245 -2.171461 0
M  V30 45 H -4.607670 -1.133735 -1.358428 0
M  V30 46 H -6.208454 -2.772234 -0.875729 0
M  V30 47 H -7.220529 -4.408170 0.539098 0
M  V30 48 H -4.385979 -3.617742 3.569720 0
M  V30 49 H -3.377320 -1.969902 2.129916 0
M  V30 50 H -0.048637 0.162147 -1.967320 0
M  V30 51 H 0.950100 -2.424544 0.172635 0
M  V30 END ATOM
M  V30 BEGIN BOND
M  V30 1 1 1 2
M  V30 2 2 2 3
M  V30 3 1 2 4
M  V30 4 2 4 5
M  V30 5 1 5 6
M  V30 6 2 6 7
M  V30 7 1 7 8
M  V30 8 2 8 9
M  V30 9 1 9 10
M  V30 10 1 10 11
M  V30 11 1 11 12
M  V30 12 2 12 13
M  V30 13 1 13 14
M  V30 14 2 14 15
M  V30 15 1 15 16
M  V30 16 1 16 17
M  V30 17 1 17 18
M  V30 18 2 18 19
M  V30 19 1 18 20
M  V30 20 1 20 21
M  V30 21 2 21 22
M  V30 22 1 22 23
M  V30 23 2 23 24
M  V30 24 1 24 25
M  V30 25 1 24 26
M  V30 26 2 26 27
M  V30 27 2 16 28
M  V30 28 1 9 29
M  V30 29 2 29 30
M  V30 30 1 30 31
M  V30 31 2 31 32
M  V30 32 1 32 4
M  V30 33 1 32 8
M  V30 34 1 28 12
M  V30 35 1 27 21
M  V30 36 1 1 33
M  V30 37 1 1 34
M  V30 38 1 5 35
M  V30 39 1 6 36
M  V30 40 1 7 37
M  V30 41 1 10 38
M  V30 42 1 11 39
M  V30 43 1 11 40
M  V30 44 1 13 41
M  V30 45 1 14 42
M  V30 46 1 15 43
M  V30 47 1 17 44
M  V30 48 1 20 45
M  V30 49 1 22 46
M  V30 50 1 23 47
M  V30 51 1 26 48
M  V30 52 1 27 49
M  V30 53 1 28 50
M  V30 54 1 30 51
M  V30 END BOND
M  V30 END CTAB
M  END
>  <Dataset>  (639) 
ChEMBL_Kinases

>  <Ligand_Instance>  (639) 
nan

>  <PDB_ID>  (639) 
nan

>  <Standardized_SMILES>  (639) 
NC(=O)c1cccc2c(NCc3cccc(NC(=O)Nc4ccc(Cl)cc4)c3)ncnc12

>  <Name>  (639) 
nan

>  <Pocket>  (639) 
nan

>  <ATP_Site>  (639) 
nan

>  <Peripheral>  (639) 
nan

>  <Num_H_Atoms_ProtBoundConf>  (639) 
nan

>  <Num_Resolved_Atoms>  (639) 
nan

>  <Num_Not_Resolved_Atoms>  (639) 
nan

$$$$
CHEMBL3670437
     RDKit          3D

  0  0  0  0  0  0  0  0  0  0999 V3000
M  V30 BEGIN CTAB
M  V30 COUNTS 42 45 0 0 0
M  V30 BEGIN ATOM
M  V30 1 N -0.502970 -5.857373 2.265327 0
M  V30 2 C 0.822401 -5.703793 1.810115 0
M  V30 3 O 1.570051 -6.689084 2.004098 0
M  V30 4 C 1.348602 -4.512734 1.154159 0
M  V30 5 C 2.681047 -4.550841 0.777453 0
M  V30 6 C 3.195258 -3.430322 0.154682 0
M  V30 7 C 2.368516 -2.348248 -0.056686 0
M  V30 8 C 1.045237 -2.321774 0.322208 0
M  V30 9 C 0.304706 -1.189842 0.064472 0
M  V30 10 N 0.797592 -0.019867 -0.573300 0
M  V30 11 C -0.062460 1.122084 -0.799674 0 CFG=2
M  V30 12 C 0.636989 2.267978 -1.484936 0
M  V30 13 C 1.775747 2.816420 -0.655689 0
M  V30 14 C 1.679600 2.397944 0.790185 0
M  V30 15 C 0.279257 2.258329 1.254621 0
M  V30 16 C -0.120013 2.781304 2.490421 0
M  V30 17 C -1.410330 2.680501 2.963429 0
M  V30 18 C -2.300509 2.029953 2.147388 0
M  V30 19 C -1.953898 1.500504 0.926280 0
M  V30 20 C -0.661757 1.607250 0.464515 0
M  V30 21 N -0.971250 -1.253859 0.467483 0
M  V30 22 C -1.530269 -2.312633 1.077498 0
M  V30 23 N -0.764869 -3.399593 1.308991 0
M  V30 24 C 0.519421 -3.434083 0.944949 0
M  V30 25 H -1.063350 -5.719980 3.136573 0
M  V30 26 H -1.265139 -6.215965 1.620380 0
M  V30 27 H 3.312584 -5.420867 0.957183 0
M  V30 28 H 4.233979 -3.434274 -0.149811 0
M  V30 29 H 2.847099 -1.514073 -0.548529 0
M  V30 30 H 1.764819 0.115882 -0.917167 0
M  V30 31 H -0.892272 0.789877 -1.455838 0
M  V30 32 H 0.925860 1.990096 -2.514317 0
M  V30 33 H -0.118963 3.076125 -1.569747 0
M  V30 34 H 1.827048 3.922696 -0.721660 0
M  V30 35 H 2.714737 2.423284 -1.093146 0
M  V30 36 H 2.301530 1.517249 0.948932 0
M  V30 37 H 2.138149 3.227101 1.396148 0
M  V30 38 H 0.599820 3.295728 3.127302 0
M  V30 39 H -1.686255 3.095550 3.923033 0
M  V30 40 H -3.332073 1.908831 2.445694 0
M  V30 41 H -2.605184 0.990043 0.255264 0
M  V30 42 H -2.583594 -2.278069 1.373432 0
M  V30 END ATOM
M  V30 BEGIN BOND
M  V30 1 1 1 2
M  V30 2 2 2 3
M  V30 3 1 2 4
M  V30 4 2 4 5
M  V30 5 1 5 6
M  V30 6 2 6 7
M  V30 7 1 7 8
M  V30 8 2 8 9
M  V30 9 1 9 10
M  V30 10 1 10 11
M  V30 11 1 11 12
M  V30 12 1 12 13
M  V30 13 1 13 14
M  V30 14 1 14 15
M  V30 15 2 15 16
M  V30 16 1 16 17
M  V30 17 2 17 18
M  V30 18 1 18 19
M  V30 19 2 19 20
M  V30 20 1 9 21
M  V30 21 2 21 22
M  V30 22 1 22 23
M  V30 23 2 23 24
M  V30 24 1 24 4
M  V30 25 1 24 8
M  V30 26 1 20 11
M  V30 27 1 20 15
M  V30 28 1 1 25
M  V30 29 1 1 26
M  V30 30 1 5 27
M  V30 31 1 6 28
M  V30 32 1 7 29
M  V30 33 1 10 30
M  V30 34 1 11 31 CFG=3
M  V30 35 1 12 32
M  V30 36 1 12 33
M  V30 37 1 13 34
M  V30 38 1 13 35
M  V30 39 1 14 36
M  V30 40 1 14 37
M  V30 41 1 16 38
M  V30 42 1 17 39
M  V30 43 1 18 40
M  V30 44 1 19 41
M  V30 45 1 22 42
M  V30 END BOND
M  V30 END CTAB
M  END
>  <Dataset>  (640) 
ChEMBL_Kinases

>  <Ligand_Instance>  (640) 
nan

>  <PDB_ID>  (640) 
nan

>  <Standardized_SMILES>  (640) 
NC(=O)c1cccc2c(N[C@@H]3CCCc4ccccc43)ncnc12

>  <Name>  (640) 
nan

>  <Pocket>  (640) 
nan

>  <ATP_Site>  (640) 
nan

>  <Peripheral>  (640) 
nan

>  <Num_H_Atoms_ProtBoundConf>  (640) 
nan

>  <Num_Resolved_Atoms>  (640) 
nan

>  <Num_Not_Resolved_Atoms>  (640) 
nan

$$$$
CHEMBL3393751
     RDKit          3D

  0  0  0  0  0  0  0  0  0  0999 V3000
M  V30 BEGIN CTAB
M  V30 COUNTS 78 78 0 0 0
M  V30 BEGIN ATOM
M  V30 1 C 5.143470 -1.625175 5.900705 0
M  V30 2 C 3.666242 -1.401327 5.777168 0
M  V30 3 C 3.245622 -0.866668 4.438971 0
M  V30 4 C 3.881025 0.453806 4.127850 0
M  V30 5 C 3.524954 1.516101 5.146380 0
M  V30 6 C 4.200686 2.816186 4.765363 0
M  V30 7 C 3.695369 3.169916 3.435016 0
M  V30 8 C 3.262122 3.451949 2.334134 0
M  V30 9 C 2.741988 3.761052 1.039762 0
M  V30 10 C 2.299147 4.011858 -0.057914 0
M  V30 11 C 1.791660 4.313913 -1.383283 0
M  V30 12 C 0.785363 3.360390 -1.942621 0
M  V30 13 C -0.493566 3.227687 -1.221496 0
M  V30 14 C -0.489014 2.750866 0.175260 0
M  V30 15 C 0.103754 1.380031 0.357690 0
M  V30 16 C 0.124386 0.897791 1.765454 0
M  V30 17 C -1.202621 0.784021 2.435967 0
M  V30 18 C -2.152505 -0.136671 1.798294 0
M  V30 19 O -3.260900 -0.493273 2.271077 0
M  V30 20 O -2.259801 -0.883283 0.636765 0
M  V30 21 C -3.452191 -1.671981 0.472078 0
M  V30 22 C -3.321573 -2.365877 -0.838004 0
M  V30 23 C -3.237300 -1.437157 -2.031152 0
M  V30 24 O -2.203504 -0.541661 -1.965773 0
M  V30 25 C -2.188195 -3.365128 -0.869123 0
M  V30 26 C -2.571201 -4.170390 -2.065151 0
M  V30 27 C -1.971520 -4.758135 -3.070835 0
M  V30 28 C -2.493270 -5.540700 -4.210479 0
M  V30 29 C -2.037596 -4.794531 -5.476978 0
M  V30 30 C -2.608330 -3.399353 -5.459396 0
M  V30 31 C -2.579108 -5.510567 -6.710765 0
M  V30 32 C -4.020818 -4.231584 -1.931598 0
M  V30 33 O -4.801686 -5.083099 -2.476254 0
M  V30 34 O -4.451179 -3.206269 -1.105470 0
M  V30 35 H 5.604496 -0.744221 6.403840 0
M  V30 36 H 5.607324 -1.862035 4.929166 0
M  V30 37 H 5.387465 -2.487726 6.589478 0
M  V30 38 H 3.154456 -2.388389 5.894886 0
M  V30 39 H 3.291453 -0.767375 6.620020 0
M  V30 40 H 2.141152 -0.776427 4.456574 0
M  V30 41 H 3.527676 -1.589129 3.664767 0
M  V30 42 H 4.983552 0.309364 4.187991 0
M  V30 43 H 3.657997 0.761905 3.104556 0
M  V30 44 H 2.449323 1.723295 5.221059 0
M  V30 45 H 3.906643 1.235504 6.148059 0
M  V30 46 H 4.009088 3.606211 5.509126 0
M  V30 47 H 5.311635 2.660125 4.665817 0
M  V30 48 H 2.672213 4.412870 -2.064343 0
M  V30 49 H 1.316444 5.343990 -1.309567 0
M  V30 50 H 1.325585 2.383870 -2.069726 0
M  V30 51 H 0.633301 3.683763 -3.023243 0
M  V30 52 H -1.163838 2.579288 -1.857884 0
M  V30 53 H -1.023579 4.234333 -1.229802 0
M  V30 54 H -0.014385 3.472227 0.851600 0
M  V30 55 H -1.574979 2.753725 0.512956 0
M  V30 56 H -0.425824 0.614852 -0.258198 0
M  V30 57 H 1.149704 1.403193 0.002040 0
M  V30 58 H 0.567985 -0.138366 1.732892 0
M  V30 59 H 0.853431 1.484765 2.357176 0
M  V30 60 H -1.005254 0.354339 3.463042 0
M  V30 61 H -1.668721 1.769549 2.654037 0
M  V30 62 H -4.301292 -0.973602 0.451783 0
M  V30 63 H -3.540325 -2.443604 1.253509 0
M  V30 64 H -3.159674 -2.101403 -2.935596 0
M  V30 65 H -4.183592 -0.879880 -2.186119 0
M  V30 66 H -2.472059 0.345128 -1.635631 0
M  V30 67 H -1.211411 -2.882862 -0.947583 0
M  V30 68 H -2.232416 -3.974232 0.058740 0
M  V30 69 H -0.878770 -4.633389 -3.040193 0
M  V30 70 H -3.573478 -5.614561 -4.293669 0
M  V30 71 H -2.059608 -6.577551 -4.222432 0
M  V30 72 H -0.947972 -4.740580 -5.456994 0
M  V30 73 H -2.761581 -2.979719 -6.482545 0
M  V30 74 H -3.615833 -3.376294 -4.955204 0
M  V30 75 H -1.908263 -2.680612 -4.964675 0
M  V30 76 H -1.720297 -6.097297 -7.120383 0
M  V30 77 H -2.870679 -4.765635 -7.475711 0
M  V30 78 H -3.372152 -6.220614 -6.443339 0
M  V30 END ATOM
M  V30 BEGIN BOND
M  V30 1 1 1 2
M  V30 2 1 2 3
M  V30 3 1 3 4
M  V30 4 1 4 5
M  V30 5 1 5 6
M  V30 6 1 6 7
M  V30 7 3 7 8
M  V30 8 1 8 9
M  V30 9 3 9 10
M  V30 10 1 10 11
M  V30 11 1 11 12
M  V30 12 1 12 13
M  V30 13 1 13 14
M  V30 14 1 14 15
M  V30 15 1 15 16
M  V30 16 1 16 17
M  V30 17 1 17 18
M  V30 18 2 18 19
M  V30 19 1 18 20
M  V30 20 1 20 21
M  V30 21 1 21 22
M  V30 22 1 22 23
M  V30 23 1 23 24
M  V30 24 1 22 25
M  V30 25 1 25 26
M  V30 26 2 26 27
M  V30 27 1 27 28
M  V30 28 1 28 29
M  V30 29 1 29 30
M  V30 30 1 29 31
M  V30 31 1 26 32
M  V30 32 2 32 33
M  V30 33 1 32 34
M  V30 34 1 34 22
M  V30 35 1 1 35
M  V30 36 1 1 36
M  V30 37 1 1 37
M  V30 38 1 2 38
M  V30 39 1 2 39
M  V30 40 1 3 40
M  V30 41 1 3 41
M  V30 42 1 4 42
M  V30 43 1 4 43
M  V30 44 1 5 44
M  V30 45 1 5 45
M  V30 46 1 6 46
M  V30 47 1 6 47
M  V30 48 1 11 48
M  V30 49 1 11 49
M  V30 50 1 12 50
M  V30 51 1 12 51
M  V30 52 1 13 52
M  V30 53 1 13 53
M  V30 54 1 14 54
M  V30 55 1 14 55
M  V30 56 1 15 56
M  V30 57 1 15 57
M  V30 58 1 16 58
M  V30 59 1 16 59
M  V30 60 1 17 60
M  V30 61 1 17 61
M  V30 62 1 21 62
M  V30 63 1 21 63
M  V30 64 1 23 64
M  V30 65 1 23 65
M  V30 66 1 24 66
M  V30 67 1 25 67
M  V30 68 1 25 68
M  V30 69 1 27 69
M  V30 70 1 28 70
M  V30 71 1 28 71
M  V30 72 1 29 72
M  V30 73 1 30 73
M  V30 74 1 30 74
M  V30 75 1 30 75
M  V30 76 1 31 76
M  V30 77 1 31 77
M  V30 78 1 31 78
M  V30 END BOND
M  V30 END CTAB
M  END
>  <Dataset>  (641) 
ChEMBL_Kinases

>  <Ligand_Instance>  (641) 
nan

>  <PDB_ID>  (641) 
nan

>  <Standardized_SMILES>  (641) 
CCCCCCC#CC#CCCCCCCCC(=O)OCC1(CO)C/C(=C/CC(C)C)C(=O)O1

>  <Name>  (641) 
nan

>  <Pocket>  (641) 
nan

>  <ATP_Site>  (641) 
nan

>  <Peripheral>  (641) 
nan

>  <Num_H_Atoms_ProtBoundConf>  (641) 
nan

>  <Num_Resolved_Atoms>  (641) 
nan

>  <Num_Not_Resolved_Atoms>  (641) 
nan

$$$$
CHEMBL3393752
     RDKit          3D

  0  0  0  0  0  0  0  0  0  0999 V3000
M  V30 BEGIN CTAB
M  V30 COUNTS 78 78 0 0 0
M  V30 BEGIN ATOM
M  V30 1 C 4.658590 -2.265364 6.381648 0
M  V30 2 C 3.544777 -1.257350 6.225731 0
M  V30 3 C 3.355314 -0.831786 4.792175 0
M  V30 4 C 4.557454 -0.197761 4.192627 0
M  V30 5 C 5.041339 1.048874 4.876518 0
M  V30 6 C 3.990479 2.137429 4.881935 0
M  V30 7 C 3.696457 2.411505 3.453501 0
M  V30 8 C 3.472182 2.620186 2.285094 0
M  V30 9 C 3.219684 2.877074 0.914739 0
M  V30 10 C 3.003444 3.077103 -0.268166 0
M  V30 11 C 2.770719 3.317098 -1.683858 0
M  V30 12 C 1.433110 3.874194 -2.044884 0
M  V30 13 C 0.236064 3.048038 -1.744170 0
M  V30 14 C -0.017179 2.683269 -0.325205 0
M  V30 15 C -1.308753 1.868288 -0.171642 0
M  V30 16 C -1.552481 1.528837 1.276346 0
M  V30 17 C -2.806149 0.735732 1.417942 0
M  V30 18 C -2.824633 -0.558105 0.729242 0
M  V30 19 O -1.862781 -1.007454 0.085133 0
M  V30 20 O -4.002467 -1.185733 0.884957 0
M  V30 21 C -4.538343 -2.377495 0.459322 0
M  V30 22 C -4.717012 -2.472186 -1.008924 0
M  V30 23 C -5.552343 -1.345799 -1.560171 0
M  V30 24 O -5.660388 -1.395308 -2.940924 0
M  V30 25 C -3.412204 -2.618542 -1.704559 0
M  V30 26 C -3.798863 -3.485960 -2.890518 0
M  V30 27 C -2.857263 -3.764653 -3.809745 0
M  V30 28 C -1.455425 -3.319778 -3.809213 0
M  V30 29 C -0.439229 -4.411364 -3.784597 0
M  V30 30 C 0.925181 -3.714653 -3.787478 0
M  V30 31 C -0.503605 -5.151525 -5.108263 0
M  V30 32 C -5.187099 -3.837409 -2.754206 0
M  V30 33 O -5.865916 -4.145799 -3.766908 0
M  V30 34 O -5.346149 -3.706015 -1.382698 0
M  V30 35 H 5.589451 -1.786180 6.745371 0
M  V30 36 H 4.864950 -2.795035 5.422651 0
M  V30 37 H 4.394580 -3.052836 7.117192 0
M  V30 38 H 2.596597 -1.768853 6.530008 0
M  V30 39 H 3.719785 -0.451864 6.933991 0
M  V30 40 H 2.433072 -0.236741 4.734174 0
M  V30 41 H 3.166503 -1.770989 4.226021 0
M  V30 42 H 5.347588 -0.952703 4.060582 0
M  V30 43 H 4.271786 0.118797 3.153830 0
M  V30 44 H 5.354456 0.921674 5.916328 0
M  V30 45 H 5.917663 1.406724 4.291511 0
M  V30 46 H 3.112695 1.724371 5.408202 0
M  V30 47 H 4.329981 3.025661 5.407410 0
M  V30 48 H 2.967355 2.393476 -2.286488 0
M  V30 49 H 3.546540 4.040773 -2.032838 0
M  V30 50 H 1.443793 4.025000 -3.155919 0
M  V30 51 H 1.357100 4.911389 -1.619701 0
M  V30 52 H 0.274452 2.135909 -2.409310 0
M  V30 53 H -0.658656 3.638259 -2.105758 0
M  V30 54 H 0.775480 1.950039 -0.002822 0
M  V30 55 H -0.056121 3.592286 0.291806 0
M  V30 56 H -1.287934 1.014015 -0.838858 0
M  V30 57 H -2.153439 2.547284 -0.464774 0
M  V30 58 H -0.675178 1.062608 1.758360 0
M  V30 59 H -1.669281 2.512175 1.821289 0
M  V30 60 H -3.686014 1.346140 1.083128 0
M  V30 61 H -2.991683 0.560995 2.519790 0
M  V30 62 H -5.495192 -2.551830 1.011036 0
M  V30 63 H -3.833843 -3.222545 0.752915 0
M  V30 64 H -6.583560 -1.463323 -1.150099 0
M  V30 65 H -5.192955 -0.356608 -1.225362 0
M  V30 66 H -5.128238 -0.678359 -3.346724 0
M  V30 67 H -3.026727 -1.692493 -2.179490 0
M  V30 68 H -2.697332 -3.223803 -1.156057 0
M  V30 69 H -3.198187 -4.391832 -4.637762 0
M  V30 70 H -1.220025 -2.584796 -4.599297 0
M  V30 71 H -1.311701 -2.740713 -2.848970 0
M  V30 72 H -0.530366 -5.057651 -2.914898 0
M  V30 73 H 1.749284 -4.423251 -4.010914 0
M  V30 74 H 0.866983 -2.955655 -4.604343 0
M  V30 75 H 1.081692 -3.135856 -2.855990 0
M  V30 76 H 0.282870 -5.942717 -5.105842 0
M  V30 77 H -0.219799 -4.422019 -5.903594 0
M  V30 78 H -1.490088 -5.596973 -5.218646 0
M  V30 END ATOM
M  V30 BEGIN BOND
M  V30 1 1 1 2
M  V30 2 1 2 3
M  V30 3 1 3 4
M  V30 4 1 4 5
M  V30 5 1 5 6
M  V30 6 1 6 7
M  V30 7 3 7 8
M  V30 8 1 8 9
M  V30 9 3 9 10
M  V30 10 1 10 11
M  V30 11 1 11 12
M  V30 12 1 12 13
M  V30 13 1 13 14
M  V30 14 1 14 15
M  V30 15 1 15 16
M  V30 16 1 16 17
M  V30 17 1 17 18
M  V30 18 2 18 19
M  V30 19 1 18 20
M  V30 20 1 20 21
M  V30 21 1 21 22
M  V30 22 1 22 23
M  V30 23 1 23 24
M  V30 24 1 22 25
M  V30 25 1 25 26
M  V30 26 2 26 27
M  V30 27 1 27 28
M  V30 28 1 28 29
M  V30 29 1 29 30
M  V30 30 1 29 31
M  V30 31 1 26 32
M  V30 32 2 32 33
M  V30 33 1 32 34
M  V30 34 1 34 22
M  V30 35 1 1 35
M  V30 36 1 1 36
M  V30 37 1 1 37
M  V30 38 1 2 38
M  V30 39 1 2 39
M  V30 40 1 3 40
M  V30 41 1 3 41
M  V30 42 1 4 42
M  V30 43 1 4 43
M  V30 44 1 5 44
M  V30 45 1 5 45
M  V30 46 1 6 46
M  V30 47 1 6 47
M  V30 48 1 11 48
M  V30 49 1 11 49
M  V30 50 1 12 50
M  V30 51 1 12 51
M  V30 52 1 13 52
M  V30 53 1 13 53
M  V30 54 1 14 54
M  V30 55 1 14 55
M  V30 56 1 15 56
M  V30 57 1 15 57
M  V30 58 1 16 58
M  V30 59 1 16 59
M  V30 60 1 17 60
M  V30 61 1 17 61
M  V30 62 1 21 62
M  V30 63 1 21 63
M  V30 64 1 23 64
M  V30 65 1 23 65
M  V30 66 1 24 66
M  V30 67 1 25 67
M  V30 68 1 25 68
M  V30 69 1 27 69
M  V30 70 1 28 70
M  V30 71 1 28 71
M  V30 72 1 29 72
M  V30 73 1 30 73
M  V30 74 1 30 74
M  V30 75 1 30 75
M  V30 76 1 31 76
M  V30 77 1 31 77
M  V30 78 1 31 78
M  V30 END BOND
M  V30 END CTAB
M  END
>  <Dataset>  (642) 
ChEMBL_Kinases

>  <Ligand_Instance>  (642) 
nan

>  <PDB_ID>  (642) 
nan

>  <Standardized_SMILES>  (642) 
CCCCCCC#CC#CCCCCCCCC(=O)OCC1(CO)C/C(=C\CC(C)C)C(=O)O1

>  <Name>  (642) 
nan

>  <Pocket>  (642) 
nan

>  <ATP_Site>  (642) 
nan

>  <Peripheral>  (642) 
nan

>  <Num_H_Atoms_ProtBoundConf>  (642) 
nan

>  <Num_Resolved_Atoms>  (642) 
nan

>  <Num_Not_Resolved_Atoms>  (642) 
nan

$$$$
CHEMBL3393753
     RDKit          3D

  0  0  0  0  0  0  0  0  0  0999 V3000
M  V30 BEGIN CTAB
M  V30 COUNTS 82 82 0 0 0
M  V30 BEGIN ATOM
M  V30 1 C 1.928204 -4.157009 3.796394 0
M  V30 2 C 2.252314 -2.853236 3.044614 0
M  V30 3 C 3.561040 -2.931416 2.356350 0
M  V30 4 C 4.067960 -1.735771 1.634042 0
M  V30 5 C 3.272152 -1.164790 0.522785 0
M  V30 6 C 1.981824 -0.654611 0.947370 0
M  V30 7 C 1.892758 0.666616 0.733621 0
M  V30 8 C 2.837161 1.703390 0.158159 0
M  V30 9 C 3.013699 2.661651 1.294720 0
M  V30 10 C 2.630061 3.886046 1.021683 0
M  V30 11 C 2.065499 4.601402 -0.106787 0
M  V30 12 C 0.698661 5.167701 0.328183 0
M  V30 13 C -0.249003 4.020629 0.659735 0
M  V30 14 C -1.569642 4.543718 1.140610 0
M  V30 15 C -2.549507 3.433173 1.415666 0
M  V30 16 C -2.845804 2.735272 0.114662 0
M  V30 17 C -3.845936 1.611893 0.233220 0
M  V30 18 C -3.400478 0.482428 1.074729 0
M  V30 19 C -3.333654 -0.750620 0.524589 0
M  V30 20 C -2.916105 -2.057534 1.156352 0
M  V30 21 C -3.320770 -3.078857 0.124706 0
M  V30 22 C -4.013838 -4.251607 0.757183 0
M  V30 23 O -4.507448 -5.054050 -0.299214 0
M  V30 24 C -2.200880 -3.577780 -0.740322 0
M  V30 25 O -1.502759 -2.483121 -1.338919 0
M  V30 26 C -0.499544 -2.817411 -2.241919 0
M  V30 27 O -0.593434 -4.093440 -2.218900 0
M  V30 28 C 0.581143 -2.870282 -3.195943 0
M  V30 29 C 0.885846 -4.329726 -3.502482 0
M  V30 30 C 0.183505 -2.270131 -4.557166 0
M  V30 31 C 1.860760 -2.221030 -2.779061 0
M  V30 32 O -4.293123 -2.381730 -0.660631 0
M  V30 33 C -3.658156 -1.128666 -0.874702 0
M  V30 34 O -3.346962 -0.364631 -1.866810 0
M  V30 35 H 1.035261 -3.933372 4.413264 0
M  V30 36 H 2.743399 -4.442583 4.484232 0
M  V30 37 H 1.665687 -4.930683 3.072353 0
M  V30 38 H 1.447857 -2.848389 2.254098 0
M  V30 39 H 2.214541 -2.046067 3.758940 0
M  V30 40 H 4.337687 -3.178678 3.143099 0
M  V30 41 H 3.599188 -3.850806 1.692084 0
M  V30 42 H 4.335317 -0.960373 2.410389 0
M  V30 43 H 5.107853 -2.041824 1.256921 0
M  V30 44 H 3.840862 -0.578667 -0.197519 0
M  V30 45 H 2.996466 -2.099065 -0.124436 0
M  V30 46 H 1.021964 -0.874237 1.368895 0
M  V30 47 H 1.001047 1.270533 0.967146 0
M  V30 48 H 2.357370 2.097682 -0.722752 0
M  V30 49 H 3.856065 1.308178 -0.012425 0
M  V30 50 H 3.424141 2.335162 2.233714 0
M  V30 51 H 2.772039 4.568398 1.882895 0
M  V30 52 H 2.686728 5.499819 -0.315025 0
M  V30 53 H 1.977887 4.067177 -1.062141 0
M  V30 54 H 0.892618 5.701996 1.279834 0
M  V30 55 H 0.284908 5.866792 -0.396822 0
M  V30 56 H -0.318067 3.348472 -0.191121 0
M  V30 57 H 0.208205 3.451043 1.522479 0
M  V30 58 H -2.040771 5.209080 0.355650 0
M  V30 59 H -1.473184 5.138441 2.076210 0
M  V30 60 H -3.492828 3.857910 1.824815 0
M  V30 61 H -2.069091 2.735678 2.139735 0
M  V30 62 H -3.172143 3.517906 -0.591821 0
M  V30 63 H -1.905178 2.223570 -0.246315 0
M  V30 64 H -4.716310 2.085767 0.807033 0
M  V30 65 H -4.242058 1.330874 -0.753791 0
M  V30 66 H -3.132288 0.626180 2.111605 0
M  V30 67 H -1.866725 -2.063925 1.437385 0
M  V30 68 H -3.559106 -2.196788 2.059479 0
M  V30 69 H -3.259304 -4.799139 1.348224 0
M  V30 70 H -4.874409 -3.916840 1.344813 0
M  V30 71 H -5.493488 -4.962138 -0.369185 0
M  V30 72 H -2.661481 -4.155094 -1.556014 0
M  V30 73 H -1.558492 -4.230061 -0.153168 0
M  V30 74 H 1.756135 -4.407098 -4.162606 0
M  V30 75 H -0.013276 -4.823789 -3.928571 0
M  V30 76 H 1.180701 -4.824552 -2.528909 0
M  V30 77 H 1.058600 -2.331778 -5.206720 0
M  V30 78 H -0.223713 -1.269898 -4.378873 0
M  V30 79 H -0.656481 -2.909206 -4.906823 0
M  V30 80 H 2.356566 -1.800223 -3.673532 0
M  V30 81 H 2.585939 -2.936519 -2.339628 0
M  V30 82 H 1.611434 -1.374497 -2.109884 0
M  V30 END ATOM
M  V30 BEGIN BOND
M  V30 1 1 1 2
M  V30 2 1 2 3
M  V30 3 1 3 4
M  V30 4 1 4 5
M  V30 5 1 5 6
M  V30 6 2 6 7
M  V30 7 1 7 8
M  V30 8 1 8 9
M  V30 9 2 9 10
M  V30 10 1 10 11
M  V30 11 1 11 12
M  V30 12 1 12 13
M  V30 13 1 13 14
M  V30 14 1 14 15
M  V30 15 1 15 16
M  V30 16 1 16 17
M  V30 17 1 17 18
M  V30 18 2 18 19
M  V30 19 1 19 20
M  V30 20 1 20 21
M  V30 21 1 21 22
M  V30 22 1 22 23
M  V30 23 1 21 24
M  V30 24 1 24 25
M  V30 25 1 25 26
M  V30 26 2 26 27
M  V30 27 1 26 28
M  V30 28 1 28 29
M  V30 29 1 28 30
M  V30 30 1 28 31
M  V30 31 1 21 32
M  V30 32 1 32 33
M  V30 33 2 33 34
M  V30 34 1 33 19
M  V30 35 1 1 35
M  V30 36 1 1 36
M  V30 37 1 1 37
M  V30 38 1 2 38
M  V30 39 1 2 39
M  V30 40 1 3 40
M  V30 41 1 3 41
M  V30 42 1 4 42
M  V30 43 1 4 43
M  V30 44 1 5 44
M  V30 45 1 5 45
M  V30 46 1 6 46
M  V30 47 1 7 47
M  V30 48 1 8 48
M  V30 49 1 8 49
M  V30 50 1 9 50
M  V30 51 1 10 51
M  V30 52 1 11 52
M  V30 53 1 11 53
M  V30 54 1 12 54
M  V30 55 1 12 55
M  V30 56 1 13 56
M  V30 57 1 13 57
M  V30 58 1 14 58
M  V30 59 1 14 59
M  V30 60 1 15 60
M  V30 61 1 15 61
M  V30 62 1 16 62
M  V30 63 1 16 63
M  V30 64 1 17 64
M  V30 65 1 17 65
M  V30 66 1 18 66
M  V30 67 1 20 67
M  V30 68 1 20 68
M  V30 69 1 22 69
M  V30 70 1 22 70
M  V30 71 1 23 71
M  V30 72 1 24 72
M  V30 73 1 24 73
M  V30 74 1 29 74
M  V30 75 1 29 75
M  V30 76 1 29 76
M  V30 77 1 30 77
M  V30 78 1 30 78
M  V30 79 1 30 79
M  V30 80 1 31 80
M  V30 81 1 31 81
M  V30 82 1 31 82
M  V30 END BOND
M  V30 END CTAB
M  END
>  <Dataset>  (643) 
ChEMBL_Kinases

>  <Ligand_Instance>  (643) 
nan

>  <PDB_ID>  (643) 
nan

>  <Standardized_SMILES>  (643) 
CCCCC/C=C\C/C=C\CCCCCCC/C=C1/CC(CO)(COC(=O)C(C)(C)C)OC1=O

>  <Name>  (643) 
nan

>  <Pocket>  (643) 
nan

>  <ATP_Site>  (643) 
nan

>  <Peripheral>  (643) 
nan

>  <Num_H_Atoms_ProtBoundConf>  (643) 
nan

>  <Num_Resolved_Atoms>  (643) 
nan

>  <Num_Not_Resolved_Atoms>  (643) 
nan

$$$$
CHEMBL3393754
     RDKit          3D

  0  0  0  0  0  0  0  0  0  0999 V3000
M  V30 BEGIN CTAB
M  V30 COUNTS 82 82 0 0 0
M  V30 BEGIN ATOM
M  V30 1 C 3.324859 -0.992561 4.713149 0
M  V30 2 C 2.309186 -0.925745 3.577465 0
M  V30 3 C 2.806943 -1.722074 2.413616 0
M  V30 4 C 4.108708 -1.270706 1.844374 0
M  V30 5 C 4.073838 0.168055 1.307841 0
M  V30 6 C 3.068102 0.198736 0.257634 0
M  V30 7 C 1.971538 0.877685 0.074505 0
M  V30 8 C 1.602271 1.854054 1.122002 0
M  V30 9 C 1.511679 3.229792 0.559309 0
M  V30 10 C 0.491165 4.052965 0.514439 0
M  V30 11 C -0.822635 3.593058 1.106908 0
M  V30 12 C -1.259063 4.478841 2.215683 0
M  V30 13 C -2.490618 4.172743 2.951924 0
M  V30 14 C -3.801652 4.124136 2.299776 0
M  V30 15 C -4.073258 3.143628 1.228275 0
M  V30 16 C -3.877448 1.703812 1.653272 0
M  V30 17 C -4.175236 0.771152 0.494082 0
M  V30 18 C -3.305780 1.010653 -0.664652 0
M  V30 19 C -2.494613 0.092987 -1.155799 0
M  V30 20 C -2.297796 -1.278931 -0.680594 0
M  V30 21 C -1.633813 -1.987256 -1.834876 0
M  V30 22 C -2.702088 -2.568803 -2.727723 0
M  V30 23 O -2.150088 -3.128310 -3.884451 0
M  V30 24 C -0.742845 -3.059067 -1.248280 0
M  V30 25 O 0.028498 -3.707280 -2.222749 0
M  V30 26 C 0.895110 -4.712249 -1.815694 0
M  V30 27 O 1.022339 -5.069980 -0.615325 0
M  V30 28 C 1.678457 -5.353265 -2.898583 0
M  V30 29 C 2.564618 -6.407555 -2.271082 0
M  V30 30 C 0.763149 -6.028268 -3.908225 0
M  V30 31 C 2.544209 -4.378594 -3.632245 0
M  V30 32 O -0.921943 -0.985123 -2.489900 0
M  V30 33 C -1.593203 0.207617 -2.287341 0
M  V30 34 O -1.418255 1.236766 -3.011028 0
M  V30 35 H 2.896852 -0.408494 5.560473 0
M  V30 36 H 4.263270 -0.505505 4.404243 0
M  V30 37 H 3.524875 -2.033357 4.996470 0
M  V30 38 H 1.359336 -1.348688 3.980468 0
M  V30 39 H 2.117478 0.124917 3.385743 0
M  V30 40 H 2.000422 -1.801766 1.631437 0
M  V30 41 H 2.954922 -2.782866 2.741080 0
M  V30 42 H 4.901422 -1.365149 2.591446 0
M  V30 43 H 4.331749 -1.948735 0.978547 0
M  V30 44 H 3.945929 0.796737 2.179312 0
M  V30 45 H 5.090398 0.346976 0.845772 0
M  V30 46 H 3.328577 -0.524019 -0.535489 0
M  V30 47 H 1.311997 0.785648 -0.776849 0
M  V30 48 H 2.417438 1.953016 1.907294 0
M  V30 49 H 0.726384 1.533610 1.710459 0
M  V30 50 H 2.441079 3.595278 0.121885 0
M  V30 51 H 0.535760 5.040385 0.078670 0
M  V30 52 H -1.531330 3.820275 0.240025 0
M  V30 53 H -0.860193 2.559185 1.393274 0
M  V30 54 H -0.408503 4.459411 2.974523 0
M  V30 55 H -1.301154 5.558494 1.912438 0
M  V30 56 H -2.388317 3.253516 3.606690 0
M  V30 57 H -2.581301 4.987011 3.755194 0
M  V30 58 H -4.126442 5.127702 1.909105 0
M  V30 59 H -4.564967 3.928040 3.115125 0
M  V30 60 H -3.713006 3.347476 0.231919 0
M  V30 61 H -5.223656 3.200127 1.086880 0
M  V30 62 H -4.625574 1.483314 2.455950 0
M  V30 63 H -2.891462 1.474631 2.053422 0
M  V30 64 H -4.121457 -0.290313 0.804230 0
M  V30 65 H -5.227841 0.948945 0.124961 0
M  V30 66 H -3.280135 1.956990 -1.185673 0
M  V30 67 H -3.270403 -1.779227 -0.499749 0
M  V30 68 H -1.613983 -1.327031 0.191400 0
M  V30 69 H -3.396122 -1.743485 -2.984598 0
M  V30 70 H -3.240964 -3.364038 -2.177370 0
M  V30 71 H -2.916660 -3.326787 -4.498096 0
M  V30 72 H -1.435861 -3.822167 -0.819819 0
M  V30 73 H -0.149552 -2.665033 -0.407303 0
M  V30 74 H 3.444431 -6.539023 -2.935702 0
M  V30 75 H 1.996226 -7.351153 -2.120252 0
M  V30 76 H 2.905991 -6.049956 -1.274074 0
M  V30 77 H 1.323102 -6.126622 -4.851541 0
M  V30 78 H -0.085445 -5.340332 -4.070055 0
M  V30 79 H 0.412295 -6.989993 -3.488651 0
M  V30 80 H 3.072069 -4.903934 -4.443467 0
M  V30 81 H 3.358790 -4.054000 -2.920373 0
M  V30 82 H 1.982822 -3.490085 -3.991363 0
M  V30 END ATOM
M  V30 BEGIN BOND
M  V30 1 1 1 2
M  V30 2 1 2 3
M  V30 3 1 3 4
M  V30 4 1 4 5
M  V30 5 1 5 6
M  V30 6 2 6 7
M  V30 7 1 7 8
M  V30 8 1 8 9
M  V30 9 2 9 10
M  V30 10 1 10 11
M  V30 11 1 11 12
M  V30 12 1 12 13
M  V30 13 1 13 14
M  V30 14 1 14 15
M  V30 15 1 15 16
M  V30 16 1 16 17
M  V30 17 1 17 18
M  V30 18 2 18 19
M  V30 19 1 19 20
M  V30 20 1 20 21
M  V30 21 1 21 22
M  V30 22 1 22 23
M  V30 23 1 21 24
M  V30 24 1 24 25
M  V30 25 1 25 26
M  V30 26 2 26 27
M  V30 27 1 26 28
M  V30 28 1 28 29
M  V30 29 1 28 30
M  V30 30 1 28 31
M  V30 31 1 21 32
M  V30 32 1 32 33
M  V30 33 2 33 34
M  V30 34 1 33 19
M  V30 35 1 1 35
M  V30 36 1 1 36
M  V30 37 1 1 37
M  V30 38 1 2 38
M  V30 39 1 2 39
M  V30 40 1 3 40
M  V30 41 1 3 41
M  V30 42 1 4 42
M  V30 43 1 4 43
M  V30 44 1 5 44
M  V30 45 1 5 45
M  V30 46 1 6 46
M  V30 47 1 7 47
M  V30 48 1 8 48
M  V30 49 1 8 49
M  V30 50 1 9 50
M  V30 51 1 10 51
M  V30 52 1 11 52
M  V30 53 1 11 53
M  V30 54 1 12 54
M  V30 55 1 12 55
M  V30 56 1 13 56
M  V30 57 1 13 57
M  V30 58 1 14 58
M  V30 59 1 14 59
M  V30 60 1 15 60
M  V30 61 1 15 61
M  V30 62 1 16 62
M  V30 63 1 16 63
M  V30 64 1 17 64
M  V30 65 1 17 65
M  V30 66 1 18 66
M  V30 67 1 20 67
M  V30 68 1 20 68
M  V30 69 1 22 69
M  V30 70 1 22 70
M  V30 71 1 23 71
M  V30 72 1 24 72
M  V30 73 1 24 73
M  V30 74 1 29 74
M  V30 75 1 29 75
M  V30 76 1 29 76
M  V30 77 1 30 77
M  V30 78 1 30 78
M  V30 79 1 30 79
M  V30 80 1 31 80
M  V30 81 1 31 81
M  V30 82 1 31 82
M  V30 END BOND
M  V30 END CTAB
M  END
>  <Dataset>  (644) 
ChEMBL_Kinases

>  <Ligand_Instance>  (644) 
nan

>  <PDB_ID>  (644) 
nan

>  <Standardized_SMILES>  (644) 
CCCCC/C=C\C/C=C\CCCCCCC/C=C1\CC(CO)(COC(=O)C(C)(C)C)OC1=O

>  <Name>  (644) 
nan

>  <Pocket>  (644) 
nan

>  <ATP_Site>  (644) 
nan

>  <Peripheral>  (644) 
nan

>  <Num_H_Atoms_ProtBoundConf>  (644) 
nan

>  <Num_Resolved_Atoms>  (644) 
nan

>  <Num_Not_Resolved_Atoms>  (644) 
nan

$$$$
CHEMBL3670442
     RDKit          3D

  0  0  0  0  0  0  0  0  0  0999 V3000
M  V30 BEGIN CTAB
M  V30 COUNTS 47 50 0 0 0
M  V30 BEGIN ATOM
M  V30 1 N 1.723236 -1.081998 6.316973 0
M  V30 2 C 2.568869 -1.138223 5.183182 0
M  V30 3 O 3.801092 -1.452669 5.125583 0
M  V30 4 C 1.956407 -0.789430 3.896374 0
M  V30 5 C 2.726209 -0.796550 2.745784 0
M  V30 6 C 2.159434 -0.468716 1.508507 0
M  V30 7 N 2.940739 -0.473601 0.340347 0
M  V30 8 C 2.557160 -0.160707 -0.995709 0
M  V30 9 C 3.685766 -0.269965 -1.988003 0
M  V30 10 N 4.483607 0.821522 -2.194883 0
M  V30 11 C 5.425818 0.531375 -3.112040 0
M  V30 12 C 5.217421 -0.755560 -3.485758 0
M  V30 13 N 4.164425 -1.228517 -2.799545 0
M  V30 14 C 0.831140 -0.145750 1.480228 0
M  V30 15 C 0.002627 -0.115992 2.568773 0
M  V30 16 C -1.347247 0.202536 2.616826 0
M  V30 17 N -1.828200 0.488044 1.320563 0
M  V30 18 C -2.309025 0.773266 0.026289 0
M  V30 19 C -3.451597 -0.106267 -0.415914 0
M  V30 20 C -4.709340 0.393608 -0.084264 0
M  V30 21 C -5.802593 -0.360873 -0.442567 0
M  V30 22 C -5.722939 -1.563164 -1.100384 0
M  V30 23 C -4.463657 -2.080412 -1.442241 0
M  V30 24 C -3.381440 -1.311524 -1.075082 0
M  V30 25 N -1.972496 0.172108 3.802799 0
M  V30 26 C -1.370534 -0.149335 4.949427 0
M  V30 27 N -0.076473 -0.451816 4.879327 0
M  V30 28 C 0.632261 -0.449916 3.752840 0
M  V30 29 H 1.104455 -1.662015 6.916813 0
M  V30 30 H 1.112153 -1.701728 6.891975 0
M  V30 31 H 3.769907 -1.058678 2.801762 0
M  V30 32 H 3.962650 -0.747616 0.439073 0
M  V30 33 H 2.094053 0.845624 -1.059045 0
M  V30 34 H 1.762800 -0.854400 -1.394352 0
M  V30 35 H 6.220274 1.170868 -3.508055 0
M  V30 36 H 5.751021 -1.395996 -4.209302 0
M  V30 37 H 3.663781 -2.149913 -2.768978 0
M  V30 38 H 0.396287 0.106670 0.530091 0
M  V30 39 H -2.822066 0.717088 1.625423 0
M  V30 40 H -2.613239 1.829818 -0.180625 0
M  V30 41 H -1.519149 0.538323 -0.756919 0
M  V30 42 H -4.845755 1.336307 0.434225 0
M  V30 43 H -6.798075 -0.016992 -0.206828 0
M  V30 44 H -6.532486 -2.207842 -1.413070 0
M  V30 45 H -4.232677 -3.009136 -1.958805 0
M  V30 46 H -2.339348 -1.578074 -1.269951 0
M  V30 47 H -1.985171 -0.138050 5.830730 0
M  V30 END ATOM
M  V30 BEGIN BOND
M  V30 1 1 1 2
M  V30 2 2 2 3
M  V30 3 1 2 4
M  V30 4 2 4 5
M  V30 5 1 5 6
M  V30 6 1 6 7
M  V30 7 1 7 8
M  V30 8 1 8 9
M  V30 9 2 9 10
M  V30 10 1 10 11
M  V30 11 2 11 12
M  V30 12 1 12 13
M  V30 13 2 6 14
M  V30 14 1 14 15
M  V30 15 2 15 16
M  V30 16 1 16 17
M  V30 17 1 17 18
M  V30 18 1 18 19
M  V30 19 2 19 20
M  V30 20 1 20 21
M  V30 21 2 21 22
M  V30 22 1 22 23
M  V30 23 2 23 24
M  V30 24 1 16 25
M  V30 25 2 25 26
M  V30 26 1 26 27
M  V30 27 2 27 28
M  V30 28 1 28 4
M  V30 29 1 13 9
M  V30 30 1 28 15
M  V30 31 1 24 19
M  V30 32 1 1 29
M  V30 33 1 1 30
M  V30 34 1 5 31
M  V30 35 1 7 32
M  V30 36 1 8 33
M  V30 37 1 8 34
M  V30 38 1 11 35
M  V30 39 1 12 36
M  V30 40 1 13 37
M  V30 41 1 14 38
M  V30 42 1 17 39
M  V30 43 1 18 40
M  V30 44 1 18 41
M  V30 45 1 20 42
M  V30 46 1 21 43
M  V30 47 1 22 44
M  V30 48 1 23 45
M  V30 49 1 24 46
M  V30 50 1 26 47
M  V30 END BOND
M  V30 END CTAB
M  END
>  <Dataset>  (645) 
ChEMBL_Kinases

>  <Ligand_Instance>  (645) 
nan

>  <PDB_ID>  (645) 
nan

>  <Standardized_SMILES>  (645) 
NC(=O)c1cc(NCc2ncc[nH]2)cc2c(NCc3ccccc3)ncnc12

>  <Name>  (645) 
nan

>  <Pocket>  (645) 
nan

>  <ATP_Site>  (645) 
nan

>  <Peripheral>  (645) 
nan

>  <Num_H_Atoms_ProtBoundConf>  (645) 
nan

>  <Num_Resolved_Atoms>  (645) 
nan

>  <Num_Not_Resolved_Atoms>  (645) 
nan

$$$$
CHEMBL3670440
     RDKit          3D

  0  0  0  0  0  0  0  0  0  0999 V3000
M  V30 BEGIN CTAB
M  V30 COUNTS 49 52 0 0 0
M  V30 BEGIN ATOM
M  V30 1 N 2.038322 -4.277652 4.910462 0
M  V30 2 C 2.683932 -3.051066 4.528292 0
M  V30 3 O 3.591825 -2.652547 5.294128 0
M  V30 4 C 2.243649 -2.384102 3.312163 0
M  V30 5 C 2.839019 -1.206268 2.941045 0
M  V30 6 C 2.428158 -0.551784 1.774738 0
M  V30 7 N 3.068178 0.653941 1.399231 0
M  V30 8 C 2.887357 1.605402 0.343054 0
M  V30 9 C 1.637881 2.405414 0.522546 0
M  V30 10 C 0.342744 2.275532 0.075370 0
M  V30 11 C -0.595782 3.206952 0.448053 0
M  V30 12 C -0.365735 4.293049 1.249630 0
M  V30 13 N 0.905724 4.398493 1.673053 0
M  V30 14 C 1.861408 3.524952 1.344498 0
M  V30 15 C 1.431398 -1.158892 1.071257 0
M  V30 16 C 0.792036 -2.326704 1.374532 0
M  V30 17 C -0.216896 -2.968897 0.685467 0
M  V30 18 N -0.559289 -2.245093 -0.501818 0
M  V30 19 C -0.893226 -1.541397 -1.657520 0
M  V30 20 C -2.300063 -1.026623 -1.768843 0
M  V30 21 C -2.812676 0.184761 -1.353448 0
M  V30 22 C -4.146679 0.467379 -1.553373 0
M  V30 23 C -4.996033 -0.434637 -2.163602 0
M  V30 24 C -4.486466 -1.650428 -2.581642 0
M  V30 25 C -3.159178 -1.941716 -2.387215 0
M  V30 26 N -0.717553 -4.117065 1.150548 0
M  V30 27 C -0.280037 -4.686400 2.272591 0
M  V30 28 N 0.695480 -4.060055 2.931144 0
M  V30 29 C 1.246799 -2.915501 2.535723 0
M  V30 30 H 2.356205 -5.202011 4.545027 0
M  V30 31 H 1.223406 -4.506179 5.546558 0
M  V30 32 H 3.623787 -0.807690 3.570900 0
M  V30 33 H 3.874559 0.948006 2.030951 0
M  V30 34 H 3.735430 2.289609 0.232534 0
M  V30 35 H 2.790462 1.093393 -0.653762 0
M  V30 36 H 0.245697 1.417344 -0.540891 0
M  V30 37 H -1.590905 2.992738 0.027431 0
M  V30 38 H -1.170327 4.972442 1.488635 0
M  V30 39 H 2.809946 3.794651 1.790082 0
M  V30 40 H 1.116787 -0.659151 0.169485 0
M  V30 41 H -1.328657 -2.912489 -0.845652 0
M  V30 42 H -0.621556 -2.038418 -2.646772 0
M  V30 43 H -0.284618 -0.567916 -1.714301 0
M  V30 44 H -2.063363 0.810250 -0.890690 0
M  V30 45 H -4.458522 1.458097 -1.187006 0
M  V30 46 H -6.026300 -0.140360 -2.283900 0
M  V30 47 H -5.176696 -2.349488 -3.062587 0
M  V30 48 H -2.858998 -2.902823 -2.743110 0
M  V30 49 H -0.767733 -5.616503 2.542606 0
M  V30 END ATOM
M  V30 BEGIN BOND
M  V30 1 1 1 2
M  V30 2 2 2 3
M  V30 3 1 2 4
M  V30 4 2 4 5
M  V30 5 1 5 6
M  V30 6 1 6 7
M  V30 7 1 7 8
M  V30 8 1 8 9
M  V30 9 2 9 10
M  V30 10 1 10 11
M  V30 11 2 11 12
M  V30 12 1 12 13
M  V30 13 2 13 14
M  V30 14 2 6 15
M  V30 15 1 15 16
M  V30 16 2 16 17
M  V30 17 1 17 18
M  V30 18 1 18 19
M  V30 19 1 19 20
M  V30 20 2 20 21
M  V30 21 1 21 22
M  V30 22 2 22 23
M  V30 23 1 23 24
M  V30 24 2 24 25
M  V30 25 1 17 26
M  V30 26 2 26 27
M  V30 27 1 27 28
M  V30 28 2 28 29
M  V30 29 1 29 4
M  V30 30 1 14 9
M  V30 31 1 29 16
M  V30 32 1 25 20
M  V30 33 1 1 30
M  V30 34 1 1 31
M  V30 35 1 5 32
M  V30 36 1 7 33
M  V30 37 1 8 34
M  V30 38 1 8 35
M  V30 39 1 10 36
M  V30 40 1 11 37
M  V30 41 1 12 38
M  V30 42 1 14 39
M  V30 43 1 15 40
M  V30 44 1 18 41
M  V30 45 1 19 42
M  V30 46 1 19 43
M  V30 47 1 21 44
M  V30 48 1 22 45
M  V30 49 1 23 46
M  V30 50 1 24 47
M  V30 51 1 25 48
M  V30 52 1 27 49
M  V30 END BOND
M  V30 END CTAB
M  END
>  <Dataset>  (646) 
ChEMBL_Kinases

>  <Ligand_Instance>  (646) 
nan

>  <PDB_ID>  (646) 
nan

>  <Standardized_SMILES>  (646) 
NC(=O)c1cc(NCc2cccnc2)cc2c(NCc3ccccc3)ncnc12

>  <Name>  (646) 
nan

>  <Pocket>  (646) 
nan

>  <ATP_Site>  (646) 
nan

>  <Peripheral>  (646) 
nan

>  <Num_H_Atoms_ProtBoundConf>  (646) 
nan

>  <Num_Resolved_Atoms>  (646) 
nan

>  <Num_Not_Resolved_Atoms>  (646) 
nan

$$$$
CHEMBL3670438
     RDKit          3D

  0  0  0  0  0  0  0  0  0  0999 V3000
M  V30 BEGIN CTAB
M  V30 COUNTS 40 43 0 0 0
M  V30 BEGIN ATOM
M  V30 1 N -0.420633 -6.253959 0.399570 0
M  V30 2 C 0.200020 -5.977703 1.649450 0
M  V30 3 O 0.549566 -6.899467 2.429244 0
M  V30 4 C 0.439600 -4.579972 2.040992 0
M  V30 5 C 1.042306 -4.322458 3.255535 0
M  V30 6 C 1.240061 -2.992724 3.566350 0
M  V30 7 C 0.867636 -1.960481 2.731956 0
M  V30 8 C 0.271874 -2.231834 1.532586 0
M  V30 9 C -0.098354 -1.197314 0.702500 0
M  V30 10 N 0.097988 0.176174 1.008109 0
M  V30 11 C -0.330901 1.181733 0.059522 0 CFG=1
M  V30 12 C -0.087367 2.563208 0.469696 0
M  V30 13 C -0.236510 3.151985 1.712588 0
M  V30 14 C 0.054934 4.493397 1.879282 0
M  V30 15 C 0.488251 5.224121 0.810946 0
M  V30 16 C 0.630696 4.632883 -0.406252 0
M  V30 17 C 0.350025 3.292265 -0.617607 0
M  V30 18 C 0.408358 2.393376 -1.800610 0
M  V30 19 C 0.573409 1.039031 -1.171774 0 CFG=1
M  V30 20 O 1.889231 0.800517 -0.790603 0
M  V30 21 N -0.673484 -1.559793 -0.448273 0
M  V30 22 C -0.893055 -2.828991 -0.807959 0
M  V30 23 N -0.518786 -3.820436 0.027349 0
M  V30 24 C 0.067603 -3.555390 1.208007 0
M  V30 25 H -1.468716 -6.168816 0.552092 0
M  V30 26 H -0.222299 -6.505020 -0.593207 0
M  V30 27 H 1.315607 -5.158840 3.873406 0
M  V30 28 H 1.719332 -2.813698 4.533992 0
M  V30 29 H 1.053432 -0.960703 3.041540 0
M  V30 30 H 0.526358 0.577165 1.856953 0
M  V30 31 H -1.360874 0.953134 -0.240138 0
M  V30 32 H -0.582363 2.594279 2.591830 0
M  V30 33 H -0.051582 4.983999 2.839982 0
M  V30 34 H 0.721739 6.287259 0.932499 0
M  V30 35 H 0.970732 5.175995 -1.276186 0
M  V30 36 H -0.596935 2.390317 -2.292543 0
M  V30 37 H 1.207673 2.657815 -2.511362 0
M  V30 38 H 0.146258 0.228147 -1.784872 0
M  V30 39 H 2.276619 0.230221 -1.505872 0
M  V30 40 H -1.363970 -3.087866 -1.752890 0
M  V30 END ATOM
M  V30 BEGIN BOND
M  V30 1 1 1 2
M  V30 2 2 2 3
M  V30 3 1 2 4
M  V30 4 2 4 5
M  V30 5 1 5 6
M  V30 6 2 6 7
M  V30 7 1 7 8
M  V30 8 2 8 9
M  V30 9 1 9 10
M  V30 10 1 10 11
M  V30 11 1 11 12
M  V30 12 2 12 13
M  V30 13 1 13 14
M  V30 14 2 14 15
M  V30 15 1 15 16
M  V30 16 2 16 17
M  V30 17 1 17 18
M  V30 18 1 18 19
M  V30 19 1 19 20
M  V30 20 1 9 21
M  V30 21 2 21 22
M  V30 22 1 22 23
M  V30 23 2 23 24
M  V30 24 1 24 4
M  V30 25 1 24 8
M  V30 26 1 19 11
M  V30 27 1 17 12
M  V30 28 1 1 25
M  V30 29 1 1 26
M  V30 30 1 5 27
M  V30 31 1 6 28
M  V30 32 1 7 29
M  V30 33 1 10 30
M  V30 34 1 11 31 CFG=3
M  V30 35 1 13 32
M  V30 36 1 14 33
M  V30 37 1 15 34
M  V30 38 1 16 35
M  V30 39 1 18 36
M  V30 40 1 18 37
M  V30 41 1 19 38 CFG=3
M  V30 42 1 20 39
M  V30 43 1 22 40
M  V30 END BOND
M  V30 END CTAB
M  END
>  <Dataset>  (647) 
ChEMBL_Kinases

>  <Ligand_Instance>  (647) 
nan

>  <PDB_ID>  (647) 
nan

>  <Standardized_SMILES>  (647) 
NC(=O)c1cccc2c(N[C@H]3c4ccccc4C[C@H]3O)ncnc12

>  <Name>  (647) 
nan

>  <Pocket>  (647) 
nan

>  <ATP_Site>  (647) 
nan

>  <Peripheral>  (647) 
nan

>  <Num_H_Atoms_ProtBoundConf>  (647) 
nan

>  <Num_Resolved_Atoms>  (647) 
nan

>  <Num_Not_Resolved_Atoms>  (647) 
nan

$$$$
CHEMBL3393755
     RDKit          3D

  0  0  0  0  0  0  0  0  0  0999 V3000
M  V30 BEGIN CTAB
M  V30 COUNTS 88 90 0 0 0
M  V30 BEGIN ATOM
M  V30 1 C 5.070613 -4.104009 5.320457 0
M  V30 2 C 6.055912 -3.208428 4.630570 0
M  V30 3 C 5.897546 -3.207054 3.135595 0
M  V30 4 C 4.558088 -2.750191 2.668604 0
M  V30 5 C 4.178452 -1.356978 3.072826 0
M  V30 6 C 5.118509 -0.306299 2.564160 0
M  V30 7 C 4.899151 1.122554 2.868343 0
M  V30 8 C 4.684393 0.584517 1.418721 0
M  V30 9 C 3.250768 0.438055 0.961286 0
M  V30 10 C 2.916825 1.360329 -0.181268 0
M  V30 11 C 1.545673 1.280976 -0.684260 0
M  V30 12 C 2.050982 2.546957 0.006809 0
M  V30 13 C 1.420819 2.934198 1.302289 0
M  V30 14 C 0.639894 4.156960 1.381597 0
M  V30 15 C -0.568502 4.503185 0.669498 0
M  V30 16 C -1.822574 3.751774 0.805499 0
M  V30 17 C -1.900607 2.346010 0.299398 0
M  V30 18 C -1.725816 2.273211 -1.200413 0
M  V30 19 C -1.829011 0.913919 -1.787837 0
M  V30 20 C -3.153274 0.269306 -1.527731 0
M  V30 21 C -3.442696 -0.833640 -0.870999 0
M  V30 22 C -4.669057 -1.631313 -0.506034 0
M  V30 23 C -4.172311 -3.011798 -0.393342 0
M  V30 24 C -4.579847 -3.647831 0.955871 0
M  V30 25 O -5.935896 -3.788578 1.086242 0
M  V30 26 C -4.477195 -3.956136 -1.510508 0
M  V30 27 O -3.938248 -3.689177 -2.729479 0
M  V30 28 C -4.059665 -2.726198 -3.641145 0
M  V30 29 O -4.762789 -1.710038 -3.645861 0
M  V30 30 C -3.612996 -2.233504 -4.956252 0
M  V30 31 C -4.323539 -0.929398 -5.310875 0
M  V30 32 C -3.957869 -3.234802 -6.058796 0
M  V30 33 C -2.125918 -1.991196 -4.991284 0
M  V30 34 O -2.737043 -2.978112 -0.290341 0
M  V30 35 C -2.370020 -1.637409 -0.239798 0
M  V30 36 O -1.304083 -1.133663 0.254458 0
M  V30 37 H 4.722903 -4.958539 4.701247 0
M  V30 38 H 5.465099 -4.550805 6.271410 0
M  V30 39 H 4.158495 -3.533816 5.652772 0
M  V30 40 H 6.017644 -2.209980 5.103352 0
M  V30 41 H 7.070188 -3.611084 4.856335 0
M  V30 42 H 6.007176 -4.264409 2.814204 0
M  V30 43 H 6.711069 -2.659186 2.634640 0
M  V30 44 H 4.600023 -2.772915 1.540589 0
M  V30 45 H 3.736287 -3.425056 2.957493 0
M  V30 46 H 3.178635 -1.166699 2.632770 0
M  V30 47 H 4.022989 -1.312593 4.170450 0
M  V30 48 H 6.177519 -0.697485 2.493716 0
M  V30 49 H 5.783186 1.741116 3.029883 0
M  V30 50 H 3.972190 1.345174 3.433270 0
M  V30 51 H 5.454132 0.918681 0.691389 0
M  V30 52 H 3.108153 -0.608953 0.646757 0
M  V30 53 H 2.615984 0.616210 1.850308 0
M  V30 54 H 3.738404 1.440573 -0.925722 0
M  V30 55 H 0.743064 0.780632 -0.098290 0
M  V30 56 H 1.336938 1.283636 -1.763523 0
M  V30 57 H 2.169682 3.373892 -0.723594 0
M  V30 58 H 2.295397 3.062332 2.022734 0
M  V30 59 H 0.886122 2.065311 1.763602 0
M  V30 60 H 1.393696 5.015170 1.146414 0
M  V30 61 H 0.448693 4.442716 2.499591 0
M  V30 62 H -0.827282 5.580401 0.973652 0
M  V30 63 H -0.290350 4.672686 -0.421736 0
M  V30 64 H -2.226670 3.747870 1.857210 0
M  V30 65 H -2.677803 4.283801 0.260135 0
M  V30 66 H -1.263079 1.629089 0.804290 0
M  V30 67 H -2.975372 2.029865 0.481005 0
M  V30 68 H -0.756344 2.721000 -1.457475 0
M  V30 69 H -2.478159 2.949971 -1.712563 0
M  V30 70 H -1.050147 0.262966 -1.463372 0
M  V30 71 H -1.698529 0.987570 -2.921927 0
M  V30 72 H -4.049164 0.748516 -1.921721 0
M  V30 73 H -5.519147 -1.434382 -1.150559 0
M  V30 74 H -4.881868 -1.269363 0.555574 0
M  V30 75 H -4.028032 -4.588905 1.001694 0
M  V30 76 H -4.151189 -2.972146 1.727523 0
M  V30 77 H -6.159539 -4.750633 0.942215 0
M  V30 78 H -4.083426 -4.963898 -1.202564 0
M  V30 79 H -5.607109 -4.029566 -1.596716 0
M  V30 80 H -3.904125 -0.544366 -6.264727 0
M  V30 81 H -4.121771 -0.137322 -4.557164 0
M  V30 82 H -5.408535 -1.090708 -5.486973 0
M  V30 83 H -4.862582 -3.780864 -5.712563 0
M  V30 84 H -4.154478 -2.675147 -6.976308 0
M  V30 85 H -3.091465 -3.937168 -6.181429 0
M  V30 86 H -1.691617 -2.182239 -3.975021 0
M  V30 87 H -1.909600 -0.925061 -5.276646 0
M  V30 88 H -1.640423 -2.603949 -5.756979 0
M  V30 END ATOM
M  V30 BEGIN BOND
M  V30 1 1 1 2
M  V30 2 1 2 3
M  V30 3 1 3 4
M  V30 4 1 4 5
M  V30 5 1 5 6
M  V30 6 1 6 7
M  V30 7 1 7 8
M  V30 8 1 8 9
M  V30 9 1 9 10
M  V30 10 1 10 11
M  V30 11 1 11 12
M  V30 12 1 12 13
M  V30 13 1 13 14
M  V30 14 1 14 15
M  V30 15 1 15 16
M  V30 16 1 16 17
M  V30 17 1 17 18
M  V30 18 1 18 19
M  V30 19 1 19 20
M  V30 20 2 20 21
M  V30 21 1 21 22
M  V30 22 1 22 23
M  V30 23 1 23 24
M  V30 24 1 24 25
M  V30 25 1 23 26
M  V30 26 1 26 27
M  V30 27 1 27 28
M  V30 28 2 28 29
M  V30 29 1 28 30
M  V30 30 1 30 31
M  V30 31 1 30 32
M  V30 32 1 30 33
M  V30 33 1 23 34
M  V30 34 1 34 35
M  V30 35 2 35 36
M  V30 36 1 8 6
M  V30 37 1 12 10
M  V30 38 1 35 21
M  V30 39 1 1 37
M  V30 40 1 1 38
M  V30 41 1 1 39
M  V30 42 1 2 40
M  V30 43 1 2 41
M  V30 44 1 3 42
M  V30 45 1 3 43
M  V30 46 1 4 44
M  V30 47 1 4 45
M  V30 48 1 5 46
M  V30 49 1 5 47
M  V30 50 1 6 48
M  V30 51 1 7 49
M  V30 52 1 7 50
M  V30 53 1 8 51
M  V30 54 1 9 52
M  V30 55 1 9 53
M  V30 56 1 10 54
M  V30 57 1 11 55
M  V30 58 1 11 56
M  V30 59 1 12 57
M  V30 60 1 13 58
M  V30 61 1 13 59
M  V30 62 1 14 60
M  V30 63 1 14 61
M  V30 64 1 15 62
M  V30 65 1 15 63
M  V30 66 1 16 64
M  V30 67 1 16 65
M  V30 68 1 17 66
M  V30 69 1 17 67
M  V30 70 1 18 68
M  V30 71 1 18 69
M  V30 72 1 19 70
M  V30 73 1 19 71
M  V30 74 1 20 72
M  V30 75 1 22 73
M  V30 76 1 22 74
M  V30 77 1 24 75
M  V30 78 1 24 76
M  V30 79 1 25 77
M  V30 80 1 26 78
M  V30 81 1 26 79
M  V30 82 1 31 80
M  V30 83 1 31 81
M  V30 84 1 31 82
M  V30 85 1 32 83
M  V30 86 1 32 84
M  V30 87 1 32 85
M  V30 88 1 33 86
M  V30 89 1 33 87
M  V30 90 1 33 88
M  V30 END BOND
M  V30 END CTAB
M  END
>  <Dataset>  (648) 
ChEMBL_Kinases

>  <Ligand_Instance>  (648) 
nan

>  <PDB_ID>  (648) 
nan

>  <Standardized_SMILES>  (648) 
CCCCCC1CC1CC1CC1CCCCCCC/C=C1/CC(CO)(COC(=O)C(C)(C)C)OC1=O

>  <Name>  (648) 
nan

>  <Pocket>  (648) 
nan

>  <ATP_Site>  (648) 
nan

>  <Peripheral>  (648) 
nan

>  <Num_H_Atoms_ProtBoundConf>  (648) 
nan

>  <Num_Resolved_Atoms>  (648) 
nan

>  <Num_Not_Resolved_Atoms>  (648) 
nan

$$$$
CHEMBL3393756
     RDKit          3D

  0  0  0  0  0  0  0  0  0  0999 V3000
M  V30 BEGIN CTAB
M  V30 COUNTS 88 90 0 0 0
M  V30 BEGIN ATOM
M  V30 1 C 1.309418 -4.670581 3.954984 0
M  V30 2 C 2.612238 -3.919701 3.975129 0
M  V30 3 C 3.211026 -3.683251 2.643913 0
M  V30 4 C 2.430682 -2.903640 1.659313 0
M  V30 5 C 2.070737 -1.512245 2.086113 0
M  V30 6 C 3.236051 -0.646246 2.401356 0
M  V30 7 C 2.992320 0.791304 2.843932 0
M  V30 8 C 3.785344 0.428623 1.603232 0
M  V30 9 C 3.195106 0.971941 0.320032 0
M  V30 10 C 4.105480 2.084528 -0.132808 0
M  V30 11 C 3.943310 2.909459 -1.337927 0
M  V30 12 C 3.747503 3.483819 0.055078 0
M  V30 13 C 2.403015 4.077946 0.328908 0
M  V30 14 C 1.408479 3.870538 -0.755410 0
M  V30 15 C 0.093478 4.518888 -0.391184 0
M  V30 16 C -0.600182 3.946685 0.788886 0
M  V30 17 C -1.030347 2.500510 0.572648 0
M  V30 18 C -1.976076 2.385180 -0.575333 0
M  V30 19 C -2.463319 1.002551 -0.868883 0
M  V30 20 C -1.389143 0.070284 -1.208783 0
M  V30 21 C -1.246684 -1.033469 -0.536495 0
M  V30 22 C -1.968136 -1.656746 0.606205 0
M  V30 23 C -1.876558 -3.138897 0.283760 0
M  V30 24 C -1.815551 -3.939480 1.558333 0
M  V30 25 O -3.006057 -3.822114 2.273403 0
M  V30 26 C -2.989106 -3.602812 -0.597454 0
M  V30 27 O -2.989915 -2.803198 -1.788066 0
M  V30 28 C -3.943360 -3.063281 -2.758876 0
M  V30 29 O -4.681344 -4.021277 -2.387982 0
M  V30 30 C -4.137526 -2.383764 -4.043031 0
M  V30 31 C -4.443569 -0.910612 -3.857030 0
M  V30 32 C -5.262088 -3.031221 -4.799884 0
M  V30 33 C -2.847107 -2.480558 -4.859425 0
M  V30 34 O -0.646054 -3.293367 -0.403906 0
M  V30 35 C -0.199119 -2.035006 -0.828693 0
M  V30 36 O 0.938245 -1.835261 -1.375284 0
M  V30 37 H 1.237080 -5.365409 3.107411 0
M  V30 38 H 1.192239 -5.314442 4.878105 0
M  V30 39 H 0.467221 -3.947580 4.032088 0
M  V30 40 H 2.496729 -3.020895 4.605460 0
M  V30 41 H 3.324700 -4.576764 4.555532 0
M  V30 42 H 3.350962 -4.711192 2.183603 0
M  V30 43 H 4.250865 -3.304321 2.731747 0
M  V30 44 H 3.044383 -2.821551 0.736695 0
M  V30 45 H 1.487961 -3.418154 1.348221 0
M  V30 46 H 1.544246 -1.033416 1.228287 0
M  V30 47 H 1.290954 -1.509120 2.896844 0
M  V30 48 H 3.981114 -1.171568 3.073396 0
M  V30 49 H 3.496640 1.171449 3.738235 0
M  V30 50 H 1.930323 1.093773 2.719200 0
M  V30 51 H 4.885863 0.648041 1.697756 0
M  V30 52 H 3.281199 0.172290 -0.471867 0
M  V30 53 H 2.144307 1.224798 0.408630 0
M  V30 54 H 5.213287 1.818014 0.043866 0
M  V30 55 H 3.098268 2.691176 -1.989980 0
M  V30 56 H 4.827594 3.276158 -1.914958 0
M  V30 57 H 4.601147 4.164226 0.367083 0
M  V30 58 H 2.485317 5.198388 0.467441 0
M  V30 59 H 2.026088 3.730741 1.323589 0
M  V30 60 H 1.789888 4.444680 -1.651210 0
M  V30 61 H 1.314580 2.842227 -1.070905 0
M  V30 62 H 0.347431 5.573996 -0.122276 0
M  V30 63 H -0.573903 4.591143 -1.272615 0
M  V30 64 H 0.036472 3.965739 1.681682 0
M  V30 65 H -1.496763 4.550114 0.980426 0
M  V30 66 H -0.160632 1.828639 0.482558 0
M  V30 67 H -1.572499 2.205366 1.495623 0
M  V30 68 H -1.581697 2.808649 -1.520812 0
M  V30 69 H -2.891763 3.004337 -0.358200 0
M  V30 70 H -3.177735 0.985770 -1.736439 0
M  V30 71 H -3.061977 0.622620 0.003263 0
M  V30 72 H -0.730512 0.327785 -2.023899 0
M  V30 73 H -3.002217 -1.302661 0.617707 0
M  V30 74 H -1.430970 -1.387167 1.536896 0
M  V30 75 H -1.707196 -5.001272 1.275998 0
M  V30 76 H -0.976029 -3.581553 2.165635 0
M  V30 77 H -3.095411 -4.646136 2.806379 0
M  V30 78 H -2.721877 -4.642171 -0.936647 0
M  V30 79 H -3.964171 -3.662831 -0.117626 0
M  V30 80 H -3.553707 -0.301385 -4.033167 0
M  V30 81 H -5.199616 -0.568924 -4.607395 0
M  V30 82 H -4.899376 -0.796776 -2.858725 0
M  V30 83 H -5.944792 -3.470123 -4.029454 0
M  V30 84 H -4.808184 -3.826281 -5.443428 0
M  V30 85 H -5.831255 -2.301708 -5.391523 0
M  V30 86 H -2.036702 -2.808251 -4.204490 0
M  V30 87 H -2.589408 -1.484211 -5.297039 0
M  V30 88 H -2.985121 -3.161648 -5.740822 0
M  V30 END ATOM
M  V30 BEGIN BOND
M  V30 1 1 1 2
M  V30 2 1 2 3
M  V30 3 1 3 4
M  V30 4 1 4 5
M  V30 5 1 5 6
M  V30 6 1 6 7
M  V30 7 1 7 8
M  V30 8 1 8 9
M  V30 9 1 9 10
M  V30 10 1 10 11
M  V30 11 1 11 12
M  V30 12 1 12 13
M  V30 13 1 13 14
M  V30 14 1 14 15
M  V30 15 1 15 16
M  V30 16 1 16 17
M  V30 17 1 17 18
M  V30 18 1 18 19
M  V30 19 1 19 20
M  V30 20 2 20 21
M  V30 21 1 21 22
M  V30 22 1 22 23
M  V30 23 1 23 24
M  V30 24 1 24 25
M  V30 25 1 23 26
M  V30 26 1 26 27
M  V30 27 1 27 28
M  V30 28 2 28 29
M  V30 29 1 28 30
M  V30 30 1 30 31
M  V30 31 1 30 32
M  V30 32 1 30 33
M  V30 33 1 23 34
M  V30 34 1 34 35
M  V30 35 2 35 36
M  V30 36 1 8 6
M  V30 37 1 12 10
M  V30 38 1 35 21
M  V30 39 1 1 37
M  V30 40 1 1 38
M  V30 41 1 1 39
M  V30 42 1 2 40
M  V30 43 1 2 41
M  V30 44 1 3 42
M  V30 45 1 3 43
M  V30 46 1 4 44
M  V30 47 1 4 45
M  V30 48 1 5 46
M  V30 49 1 5 47
M  V30 50 1 6 48
M  V30 51 1 7 49
M  V30 52 1 7 50
M  V30 53 1 8 51
M  V30 54 1 9 52
M  V30 55 1 9 53
M  V30 56 1 10 54
M  V30 57 1 11 55
M  V30 58 1 11 56
M  V30 59 1 12 57
M  V30 60 1 13 58
M  V30 61 1 13 59
M  V30 62 1 14 60
M  V30 63 1 14 61
M  V30 64 1 15 62
M  V30 65 1 15 63
M  V30 66 1 16 64
M  V30 67 1 16 65
M  V30 68 1 17 66
M  V30 69 1 17 67
M  V30 70 1 18 68
M  V30 71 1 18 69
M  V30 72 1 19 70
M  V30 73 1 19 71
M  V30 74 1 20 72
M  V30 75 1 22 73
M  V30 76 1 22 74
M  V30 77 1 24 75
M  V30 78 1 24 76
M  V30 79 1 25 77
M  V30 80 1 26 78
M  V30 81 1 26 79
M  V30 82 1 31 80
M  V30 83 1 31 81
M  V30 84 1 31 82
M  V30 85 1 32 83
M  V30 86 1 32 84
M  V30 87 1 32 85
M  V30 88 1 33 86
M  V30 89 1 33 87
M  V30 90 1 33 88
M  V30 END BOND
M  V30 END CTAB
M  END
>  <Dataset>  (649) 
ChEMBL_Kinases

>  <Ligand_Instance>  (649) 
nan

>  <PDB_ID>  (649) 
nan

>  <Standardized_SMILES>  (649) 
CCCCCC1CC1CC1CC1CCCCCCC/C=C1\CC(CO)(COC(=O)C(C)(C)C)OC1=O

>  <Name>  (649) 
nan

>  <Pocket>  (649) 
nan

>  <ATP_Site>  (649) 
nan

>  <Peripheral>  (649) 
nan

>  <Num_H_Atoms_ProtBoundConf>  (649) 
nan

>  <Num_Resolved_Atoms>  (649) 
nan

>  <Num_Not_Resolved_Atoms>  (649) 
nan

$$$$
CHEMBL3393750
     RDKit          3D

  0  0  0  0  0  0  0  0  0  0999 V3000
M  V30 BEGIN CTAB
M  V30 COUNTS 82 82 0 0 0
M  V30 BEGIN ATOM
M  V30 1 C 3.491187 0.267783 5.480009 0
M  V30 2 C 3.030385 -1.017842 6.058593 0
M  V30 3 C 2.430027 -2.027824 5.157329 0
M  V30 4 C 1.237940 -1.773994 4.392650 0
M  V30 5 C 0.987234 -0.859356 3.284512 0
M  V30 6 C 1.698923 -1.077624 2.006136 0
M  V30 7 C 3.153174 -0.805352 1.902060 0
M  V30 8 C 3.409473 0.692486 2.000366 0
M  V30 9 C 2.688096 1.237781 0.802347 0
M  V30 10 C 2.096447 1.690714 -0.150342 0
M  V30 11 C 1.362615 2.221817 -1.297697 0
M  V30 12 C -0.119625 2.408011 -0.984000 0
M  V30 13 C -0.360340 3.337416 0.128123 0
M  V30 14 C -1.734871 3.626810 0.560763 0
M  V30 15 C -2.561153 2.573398 1.181279 0
M  V30 16 C -2.848958 1.316822 0.440000 0
M  V30 17 C -3.827734 0.504843 1.341006 0
M  V30 18 C -4.142819 -0.757977 0.641475 0
M  V30 19 O -4.937790 -1.515649 1.258584 0
M  V30 20 O -3.648709 -1.152615 -0.591127 0
M  V30 21 C -4.017137 -2.398461 -1.183542 0
M  V30 22 C -3.281571 -2.456713 -2.496403 0
M  V30 23 C -3.574691 -1.257457 -3.335358 0
M  V30 24 O -4.915303 -1.311822 -3.704967 0
M  V30 25 C -1.793938 -2.603589 -2.199780 0
M  V30 26 C -1.327587 -3.299160 -3.428310 0
M  V30 27 C -0.047775 -3.499782 -3.711682 0
M  V30 28 C 1.063835 -3.066306 -2.859222 0
M  V30 29 C 2.021232 -2.104030 -3.522948 0
M  V30 30 C 1.364171 -0.842201 -3.968091 0
M  V30 31 C 3.127478 -1.818968 -2.526984 0
M  V30 32 C -2.522134 -3.688952 -4.206357 0
M  V30 33 O -2.422420 -3.970633 -5.447317 0
M  V30 34 O -3.527883 -3.622565 -3.221202 0
M  V30 35 H 2.663330 0.946179 5.222466 0
M  V30 36 H 4.200667 0.076763 4.651605 0
M  V30 37 H 4.103262 0.859687 6.223170 0
M  V30 38 H 3.938216 -1.450702 6.604936 0
M  V30 39 H 2.339468 -0.810843 6.950668 0
M  V30 40 H 3.253360 -2.524142 4.548254 0
M  V30 41 H 2.164582 -2.906517 5.874835 0
M  V30 42 H 0.361448 -1.658461 5.180401 0
M  V30 43 H 0.902050 -2.821967 3.998698 0
M  V30 44 H -0.141448 -0.905776 3.081080 0
M  V30 45 H 1.096680 0.232317 3.572002 0
M  V30 46 H 1.473744 -2.146833 1.648088 0
M  V30 47 H 1.155660 -0.461503 1.197486 0
M  V30 48 H 3.730839 -1.253420 2.721131 0
M  V30 49 H 3.512633 -1.195414 0.913247 0
M  V30 50 H 4.463551 0.966469 2.004939 0
M  V30 51 H 2.924000 1.084710 2.906068 0
M  V30 52 H 1.842892 3.165262 -1.600764 0
M  V30 53 H 1.411432 1.524866 -2.171546 0
M  V30 54 H -0.622719 1.452042 -0.993391 0
M  V30 55 H -0.512794 2.936067 -1.923086 0
M  V30 56 H 0.206247 3.033736 1.063659 0
M  V30 57 H 0.185196 4.313158 -0.132349 0
M  V30 58 H -1.645058 4.441885 1.373767 0
M  V30 59 H -2.319752 4.191742 -0.242305 0
M  V30 60 H -1.986571 2.241247 2.110199 0
M  V30 61 H -3.536092 3.029561 1.538778 0
M  V30 62 H -3.271852 1.494191 -0.536746 0
M  V30 63 H -1.940771 0.651128 0.466791 0
M  V30 64 H -3.253783 0.301822 2.266748 0
M  V30 65 H -4.718710 1.108256 1.564270 0
M  V30 66 H -3.665256 -3.174006 -0.478715 0
M  V30 67 H -5.101258 -2.364732 -1.294386 0
M  V30 68 H -2.986082 -1.386368 -4.283488 0
M  V30 69 H -3.323026 -0.314239 -2.829054 0
M  V30 70 H -5.489504 -0.790377 -3.117752 0
M  V30 71 H -1.287111 -1.665570 -1.984658 0
M  V30 72 H -1.726548 -3.343232 -1.373992 0
M  V30 73 H 0.168294 -4.020477 -4.639304 0
M  V30 74 H 0.620669 -2.611814 -1.937780 0
M  V30 75 H 1.594253 -3.981680 -2.529833 0
M  V30 76 H 2.474425 -2.597009 -4.392618 0
M  V30 77 H 2.114138 -0.022243 -3.898401 0
M  V30 78 H 0.511832 -0.558799 -3.333590 0
M  V30 79 H 1.095636 -0.932066 -5.044404 0
M  V30 80 H 2.801073 -1.066002 -1.769766 0
M  V30 81 H 3.309888 -2.761475 -1.961461 0
M  V30 82 H 4.052718 -1.533591 -3.040083 0
M  V30 END ATOM
M  V30 BEGIN BOND
M  V30 1 1 1 2
M  V30 2 1 2 3
M  V30 3 1 3 4
M  V30 4 1 4 5
M  V30 5 1 5 6
M  V30 6 1 6 7
M  V30 7 1 7 8
M  V30 8 1 8 9
M  V30 9 3 9 10
M  V30 10 1 10 11
M  V30 11 1 11 12
M  V30 12 1 12 13
M  V30 13 1 13 14
M  V30 14 1 14 15
M  V30 15 1 15 16
M  V30 16 1 16 17
M  V30 17 1 17 18
M  V30 18 2 18 19
M  V30 19 1 18 20
M  V30 20 1 20 21
M  V30 21 1 21 22
M  V30 22 1 22 23
M  V30 23 1 23 24
M  V30 24 1 22 25
M  V30 25 1 25 26
M  V30 26 2 26 27
M  V30 27 1 27 28
M  V30 28 1 28 29
M  V30 29 1 29 30
M  V30 30 1 29 31
M  V30 31 1 26 32
M  V30 32 2 32 33
M  V30 33 1 32 34
M  V30 34 1 34 22
M  V30 35 1 1 35
M  V30 36 1 1 36
M  V30 37 1 1 37
M  V30 38 1 2 38
M  V30 39 1 2 39
M  V30 40 1 3 40
M  V30 41 1 3 41
M  V30 42 1 4 42
M  V30 43 1 4 43
M  V30 44 1 5 44
M  V30 45 1 5 45
M  V30 46 1 6 46
M  V30 47 1 6 47
M  V30 48 1 7 48
M  V30 49 1 7 49
M  V30 50 1 8 50
M  V30 51 1 8 51
M  V30 52 1 11 52
M  V30 53 1 11 53
M  V30 54 1 12 54
M  V30 55 1 12 55
M  V30 56 1 13 56
M  V30 57 1 13 57
M  V30 58 1 14 58
M  V30 59 1 14 59
M  V30 60 1 15 60
M  V30 61 1 15 61
M  V30 62 1 16 62
M  V30 63 1 16 63
M  V30 64 1 17 64
M  V30 65 1 17 65
M  V30 66 1 21 66
M  V30 67 1 21 67
M  V30 68 1 23 68
M  V30 69 1 23 69
M  V30 70 1 24 70
M  V30 71 1 25 71
M  V30 72 1 25 72
M  V30 73 1 27 73
M  V30 74 1 28 74
M  V30 75 1 28 75
M  V30 76 1 29 76
M  V30 77 1 30 77
M  V30 78 1 30 78
M  V30 79 1 30 79
M  V30 80 1 31 80
M  V30 81 1 31 81
M  V30 82 1 31 82
M  V30 END BOND
M  V30 END CTAB
M  END
>  <Dataset>  (650) 
ChEMBL_Kinases

>  <Ligand_Instance>  (650) 
nan

>  <PDB_ID>  (650) 
nan

>  <Standardized_SMILES>  (650) 
CCCCCCCCC#CCCCCCCCC(=O)OCC1(CO)C/C(=C\CC(C)C)C(=O)O1

>  <Name>  (650) 
nan

>  <Pocket>  (650) 
nan

>  <ATP_Site>  (650) 
nan

>  <Peripheral>  (650) 
nan

>  <Num_H_Atoms_ProtBoundConf>  (650) 
nan

>  <Num_Resolved_Atoms>  (650) 
nan

>  <Num_Not_Resolved_Atoms>  (650) 
nan

$$$$
CHEMBL3782019
     RDKit          3D

  0  0  0  0  0  0  0  0  0  0999 V3000
M  V30 BEGIN CTAB
M  V30 COUNTS 49 52 0 0 0
M  V30 BEGIN ATOM
M  V30 1 C -0.735166 -5.876468 3.317310 0
M  V30 2 O 0.581222 -5.646193 2.899375 0
M  V30 3 C 1.060880 -4.460046 2.392713 0
M  V30 4 C 0.196386 -3.371242 2.268491 0
M  V30 5 C 0.735335 -2.189143 1.747647 0
M  V30 6 C 2.063204 -2.115941 1.377229 0
M  V30 7 C 2.531390 -0.839538 0.844609 0
M  V30 8 C 3.821919 -0.593888 0.428619 0
M  V30 9 N 4.193881 0.601117 -0.052588 0
M  V30 10 C 3.285719 1.590259 -0.133309 0
M  V30 11 C 3.659827 2.821562 -0.625027 0
M  V30 12 N 2.743221 3.798369 -0.697983 0
M  V30 13 C 1.468852 3.618268 -0.307356 0
M  V30 14 C 0.999073 2.404931 0.203515 0
M  V30 15 N -0.338223 2.182474 0.627142 0
M  V30 16 C -1.353127 1.282394 0.203944 0
M  V30 17 C -1.083430 0.414228 -0.823320 0
M  V30 18 C -2.103543 -0.425642 -1.178548 0
M  V30 19 O -2.015134 -1.373901 -2.197716 0
M  V30 20 C -0.819683 -1.527630 -2.951621 0
M  V30 21 C -3.330378 -0.408669 -0.549648 0
M  V30 22 C -3.544804 0.498687 0.490272 0
M  V30 23 C -2.537463 1.380169 0.894709 0
M  V30 24 O -2.731723 2.287822 1.924885 0
M  V30 25 C -3.987227 2.303020 2.566191 0
M  V30 26 C 1.977937 1.406603 0.267198 0
M  V30 27 N 1.648904 0.172100 0.749918 0
M  V30 28 C 2.891993 -3.210111 1.512501 0
M  V30 29 C 2.394661 -4.411658 2.028726 0
M  V30 30 H -0.932455 -5.460616 4.338186 0
M  V30 31 H -1.474500 -5.485724 2.608439 0
M  V30 32 H -0.887562 -6.968690 3.418138 0
M  V30 33 H -0.840685 -3.474014 2.572450 0
M  V30 34 H -0.003127 -1.399851 1.686798 0
M  V30 35 H 4.539028 -1.373059 0.491761 0
M  V30 36 H 4.672800 3.021650 -0.953797 0
M  V30 37 H 0.690277 4.392859 -0.351668 0
M  V30 38 H -0.428445 2.886534 1.388609 0
M  V30 39 H -0.169257 0.338956 -1.358558 0
M  V30 40 H -0.721619 -0.627550 -3.601010 0
M  V30 41 H 0.079578 -1.631600 -2.323131 0
M  V30 42 H -0.932507 -2.425843 -3.592735 0
M  V30 43 H -4.163167 -1.073282 -0.818020 0
M  V30 44 H -4.517597 0.512290 0.989061 0
M  V30 45 H -4.756798 2.381433 1.771825 0
M  V30 46 H -4.062533 3.102313 3.325597 0
M  V30 47 H -4.130835 1.304575 3.058124 0
M  V30 48 H 3.913654 -3.164675 1.231002 0
M  V30 49 H 3.044147 -5.275092 2.136654 0
M  V30 END ATOM
M  V30 BEGIN BOND
M  V30 1 1 1 2
M  V30 2 1 2 3
M  V30 3 2 3 4
M  V30 4 1 4 5
M  V30 5 2 5 6
M  V30 6 1 6 7
M  V30 7 2 7 8
M  V30 8 1 8 9
M  V30 9 2 9 10
M  V30 10 1 10 11
M  V30 11 2 11 12
M  V30 12 1 12 13
M  V30 13 2 13 14
M  V30 14 1 14 15
M  V30 15 1 15 16
M  V30 16 2 16 17
M  V30 17 1 17 18
M  V30 18 1 18 19
M  V30 19 1 19 20
M  V30 20 2 18 21
M  V30 21 1 21 22
M  V30 22 2 22 23
M  V30 23 1 23 24
M  V30 24 1 24 25
M  V30 25 1 14 26
M  V30 26 2 26 27
M  V30 27 1 6 28
M  V30 28 2 28 29
M  V30 29 1 29 3
M  V30 30 1 27 7
M  V30 31 1 26 10
M  V30 32 1 23 16
M  V30 33 1 1 30
M  V30 34 1 1 31
M  V30 35 1 1 32
M  V30 36 1 4 33
M  V30 37 1 5 34
M  V30 38 1 8 35
M  V30 39 1 11 36
M  V30 40 1 13 37
M  V30 41 1 15 38
M  V30 42 1 17 39
M  V30 43 1 20 40
M  V30 44 1 20 41
M  V30 45 1 20 42
M  V30 46 1 21 43
M  V30 47 1 22 44
M  V30 48 1 25 45
M  V30 49 1 25 46
M  V30 50 1 25 47
M  V30 51 1 28 48
M  V30 52 1 29 49
M  V30 END BOND
M  V30 END CTAB
M  END
>  <Dataset>  (651) 
ChEMBL_Kinases

>  <Ligand_Instance>  (651) 
nan

>  <PDB_ID>  (651) 
nan

>  <Standardized_SMILES>  (651) 
COc1ccc(-c2cnc3cncc(Nc4cc(OC)ccc4OC)c3n2)cc1

>  <Name>  (651) 
nan

>  <Pocket>  (651) 
nan

>  <ATP_Site>  (651) 
nan

>  <Peripheral>  (651) 
nan

>  <Num_H_Atoms_ProtBoundConf>  (651) 
nan

>  <Num_Resolved_Atoms>  (651) 
nan

>  <Num_Not_Resolved_Atoms>  (651) 
nan

$$$$
CHEMBL4104512
     RDKit          3D

  0  0  0  0  0  0  0  0  0  0999 V3000
M  V30 BEGIN CTAB
M  V30 COUNTS 51 54 0 0 0
M  V30 BEGIN ATOM
M  V30 1 O 0.799290 -1.592399 1.365502 0
M  V30 2 C 0.721445 -1.074571 2.507127 0
M  V30 3 N 0.901300 -1.890670 3.624616 0
M  V30 4 C 1.175694 -3.308961 3.685299 0
M  V30 5 C 2.599175 -3.550094 3.339467 0
M  V30 6 C 3.583177 -3.515250 4.304694 0
M  V30 7 C 4.936172 -3.745628 4.033975 0
M  V30 8 C 5.259505 -4.021635 2.700622 0
M  V30 9 C 4.299854 -4.067091 1.692585 0
M  V30 10 C 2.992188 -3.828103 2.046170 0
M  V30 11 C 0.446465 0.351501 2.592995 0
M  V30 12 C 0.283757 1.002213 3.818145 0
M  V30 13 C 0.027171 2.353369 3.844403 0
M  V30 14 C -0.078916 3.110957 2.705685 0
M  V30 15 C 0.077180 2.501880 1.453214 0
M  V30 16 N -0.013373 3.254928 0.261807 0
M  V30 17 C 0.084729 2.929064 -1.121962 0
M  V30 18 C -0.977836 2.049458 -1.647775 0
M  V30 19 C -1.165579 0.707728 -1.832025 0
M  V30 20 C -2.396087 0.433776 -2.380153 0
M  V30 21 C -2.981433 -0.850469 -2.733100 0
M  V30 22 C -2.682083 -1.985329 -2.009825 0
M  V30 23 C -3.310181 -3.122134 -2.466152 0
M  V30 24 N -4.150898 -3.202453 -3.511797 0
M  V30 25 C -4.451548 -2.094237 -4.228245 0
M  V30 26 C -3.852114 -0.943633 -3.812407 0
M  V30 27 C -2.978270 1.667840 -2.533779 0
M  V30 28 N -2.134669 2.624187 -2.098393 0
M  V30 29 C 0.333917 1.140476 1.471040 0
M  V30 30 H 0.837833 -1.451262 4.569054 0
M  V30 31 H 0.577592 -3.813702 2.867978 0
M  V30 32 H 0.908693 -3.760413 4.656585 0
M  V30 33 H 3.334842 -3.299843 5.349756 0
M  V30 34 H 5.700588 -3.715470 4.798831 0
M  V30 35 H 6.294653 -4.204702 2.452305 0
M  V30 36 H 4.616726 -4.287728 0.674508 0
M  V30 37 H 2.290396 -3.878470 1.228698 0
M  V30 38 H 0.350983 0.486297 4.753288 0
M  V30 39 H -0.101925 2.870962 4.794634 0
M  V30 40 H -0.280898 4.170565 2.774190 0
M  V30 41 H -0.197686 4.295335 0.426054 0
M  V30 42 H 1.098792 2.422546 -1.280750 0
M  V30 43 H 0.152931 3.820904 -1.759295 0
M  V30 44 H -0.407878 0.010353 -1.564694 0
M  V30 45 H -2.015973 -1.983116 -1.164639 0
M  V30 46 H -3.150032 -4.081151 -1.974238 0
M  V30 47 H -5.121215 -2.152148 -5.063254 0
M  V30 48 H -4.054240 -0.019613 -4.347962 0
M  V30 49 H -3.983000 1.838453 -2.950089 0
M  V30 50 H -2.417934 3.648004 -2.139130 0
M  V30 51 H 0.466426 0.622774 0.551100 0
M  V30 END ATOM
M  V30 BEGIN BOND
M  V30 1 2 1 2
M  V30 2 1 2 3
M  V30 3 1 3 4
M  V30 4 1 4 5
M  V30 5 2 5 6
M  V30 6 1 6 7
M  V30 7 2 7 8
M  V30 8 1 8 9
M  V30 9 2 9 10
M  V30 10 1 2 11
M  V30 11 2 11 12
M  V30 12 1 12 13
M  V30 13 2 13 14
M  V30 14 1 14 15
M  V30 15 1 15 16
M  V30 16 1 16 17
M  V30 17 1 17 18
M  V30 18 2 18 19
M  V30 19 1 19 20
M  V30 20 1 20 21
M  V30 21 2 21 22
M  V30 22 1 22 23
M  V30 23 2 23 24
M  V30 24 1 24 25
M  V30 25 2 25 26
M  V30 26 2 20 27
M  V30 27 1 27 28
M  V30 28 2 15 29
M  V30 29 1 10 5
M  V30 30 1 29 11
M  V30 31 1 28 18
M  V30 32 1 26 21
M  V30 33 1 3 30
M  V30 34 1 4 31
M  V30 35 1 4 32
M  V30 36 1 6 33
M  V30 37 1 7 34
M  V30 38 1 8 35
M  V30 39 1 9 36
M  V30 40 1 10 37
M  V30 41 1 12 38
M  V30 42 1 13 39
M  V30 43 1 14 40
M  V30 44 1 16 41
M  V30 45 1 17 42
M  V30 46 1 17 43
M  V30 47 1 19 44
M  V30 48 1 22 45
M  V30 49 1 23 46
M  V30 50 1 25 47
M  V30 51 1 26 48
M  V30 52 1 27 49
M  V30 53 1 28 50
M  V30 54 1 29 51
M  V30 END BOND
M  V30 END CTAB
M  END
>  <Dataset>  (652) 
ChEMBL_Kinases

>  <Ligand_Instance>  (652) 
nan

>  <PDB_ID>  (652) 
nan

>  <Standardized_SMILES>  (652) 
O=C(NCc1ccccc1)c1cccc(NCc2cc(-c3ccncc3)c[nH]2)c1

>  <Name>  (652) 
nan

>  <Pocket>  (652) 
nan

>  <ATP_Site>  (652) 
nan

>  <Peripheral>  (652) 
nan

>  <Num_H_Atoms_ProtBoundConf>  (652) 
nan

>  <Num_Resolved_Atoms>  (652) 
nan

>  <Num_Not_Resolved_Atoms>  (652) 
nan

$$$$
CHEMBL336961
     RDKit          3D

  0  0  0  0  0  0  0  0  0  0999 V3000
M  V30 BEGIN CTAB
M  V30 COUNTS 30 33 0 0 0
M  V30 BEGIN ATOM
M  V30 1 O -2.985106 -2.206215 2.201086 0
M  V30 2 C -1.837530 -1.651019 2.108433 0
M  V30 3 C -1.791504 -0.451129 1.266489 0
M  V30 4 C -0.554466 -0.270022 0.498837 0
M  V30 5 C 0.722605 -0.684987 0.801172 0
M  V30 6 N 1.557275 -0.300760 -0.193399 0
M  V30 7 C 0.804785 0.346172 -1.103504 0
M  V30 8 C 1.150850 0.942860 -2.311408 0
M  V30 9 C 0.204581 1.561244 -3.100930 0
M  V30 10 C -1.138307 1.615163 -2.723246 0
M  V30 11 Br -2.417902 2.473395 -3.830973 0
M  V30 12 C -1.466469 1.017395 -1.519719 0
M  V30 13 C -0.538766 0.392511 -0.711801 0
M  V30 14 C 1.259324 -1.417279 1.942969 0
M  V30 15 N 2.614583 -1.307528 2.055358 0
M  V30 16 C 3.262365 -1.938789 3.076192 0
M  V30 17 C 2.555606 -2.697835 4.010281 0
M  V30 18 C 1.179722 -2.801388 3.885051 0
M  V30 19 C 0.527620 -2.159279 2.848021 0
M  V30 20 N -0.878942 -2.376538 2.877565 0
M  V30 21 H -1.934384 0.433735 1.937420 0
M  V30 22 H -2.671422 -0.469182 0.569329 0
M  V30 23 H 2.585274 -0.465397 -0.258160 0
M  V30 24 H 2.193271 0.921187 -2.641308 0
M  V30 25 H 0.458050 2.037953 -4.057798 0
M  V30 26 H -2.499076 1.047293 -1.208253 0
M  V30 27 H 4.349906 -1.863156 3.183972 0
M  V30 28 H 3.061636 -3.208809 4.832971 0
M  V30 29 H 0.636765 -3.396568 4.619710 0
M  V30 30 H -1.207465 -3.140170 3.528547 0
M  V30 END ATOM
M  V30 BEGIN BOND
M  V30 1 2 1 2
M  V30 2 1 2 3
M  V30 3 1 3 4
M  V30 4 2 4 5
M  V30 5 1 5 6
M  V30 6 1 6 7
M  V30 7 2 7 8
M  V30 8 1 8 9
M  V30 9 2 9 10
M  V30 10 1 10 11
M  V30 11 1 10 12
M  V30 12 2 12 13
M  V30 13 1 5 14
M  V30 14 2 14 15
M  V30 15 1 15 16
M  V30 16 2 16 17
M  V30 17 1 17 18
M  V30 18 2 18 19
M  V30 19 1 19 20
M  V30 20 1 20 2
M  V30 21 1 13 4
M  V30 22 1 19 14
M  V30 23 1 13 7
M  V30 24 1 3 21
M  V30 25 1 3 22
M  V30 26 1 6 23
M  V30 27 1 8 24
M  V30 28 1 9 25
M  V30 29 1 12 26
M  V30 30 1 16 27
M  V30 31 1 17 28
M  V30 32 1 18 29
M  V30 33 1 20 30
M  V30 END BOND
M  V30 END CTAB
M  END
>  <Dataset>  (653) 
ChEMBL_Kinases

>  <Ligand_Instance>  (653) 
nan

>  <PDB_ID>  (653) 
nan

>  <Standardized_SMILES>  (653) 
O=C1Cc2c([nH]c3ccc(Br)cc23)-c2ncccc2N1

>  <Name>  (653) 
AZAKENPAULLONE

>  <Pocket>  (653) 
nan

>  <ATP_Site>  (653) 
nan

>  <Peripheral>  (653) 
nan

>  <Num_H_Atoms_ProtBoundConf>  (653) 
nan

>  <Num_Resolved_Atoms>  (653) 
nan

>  <Num_Not_Resolved_Atoms>  (653) 
nan

$$$$
CHEMBL3782036
     RDKit          3D

  0  0  0  0  0  0  0  0  0  0999 V3000
M  V30 BEGIN CTAB
M  V30 COUNTS 83 87 0 0 0
M  V30 BEGIN ATOM
M  V30 1 C -0.332244 -4.617269 3.943402 0
M  V30 2 O -0.234919 -3.309300 4.246782 0
M  V30 3 C 0.737201 -2.912086 5.074072 0
M  V30 4 C 2.125976 -3.035287 4.698162 0
M  V30 5 O 2.895798 -2.596140 5.628016 0
M  V30 6 N 2.871274 -3.489773 3.613764 0
M  V30 7 C 4.133689 -3.693454 3.043351 0
M  V30 8 C 4.829519 -4.830376 3.461507 0
M  V30 9 N 6.034446 -5.016058 2.903464 0
M  V30 10 C 6.611864 -4.230809 2.007833 0
M  V30 11 C 5.879441 -3.137093 1.639905 0
M  V30 12 C 4.644345 -2.791323 2.100718 0
M  V30 13 C 3.885239 -1.593823 1.656495 0
M  V30 14 C 3.964601 -0.513303 2.692359 0
M  V30 15 O 3.238360 0.647980 2.412557 0
M  V30 16 C 1.893579 0.781123 2.295103 0
M  V30 17 C 0.982475 -0.218533 2.471492 0
M  V30 18 C -0.372739 -0.019918 2.342588 0
M  V30 19 C -0.693378 1.292653 2.015595 0
M  V30 20 N -2.048084 1.658237 1.887318 0
M  V30 21 C -2.222337 1.121472 0.522893 0
M  V30 22 O -1.181276 0.550529 0.011450 0
M  V30 23 N -3.189975 0.974576 -0.548450 0
M  V30 24 C -3.092996 0.323018 -1.807515 0
M  V30 25 C -3.586693 -0.992231 -1.724745 0
M  V30 26 C -3.443627 -1.574009 -2.996260 0
M  V30 27 C -3.825272 -2.962560 -3.406317 0
M  V30 28 C -2.720025 -3.962674 -3.066294 0
M  V30 29 C -5.123804 -3.362321 -2.780246 0
M  V30 30 C -3.931432 -2.986858 -4.918534 0
M  V30 31 N -2.894014 -0.584018 -3.701580 0
M  V30 32 N -2.683251 0.512147 -3.049614 0
M  V30 33 C -2.134791 1.762949 -3.365921 0
M  V30 34 C -2.661018 2.872793 -3.958539 0
M  V30 35 C -2.050540 4.071229 -4.241696 0
M  V30 36 C -0.714290 4.054237 -3.830818 0
M  V30 37 C 0.091536 5.288616 -4.074485 0
M  V30 38 C -0.104552 2.991367 -3.230214 0
M  V30 39 C -0.780350 1.787647 -2.965415 0
M  V30 40 C 0.157090 2.339690 1.824809 0
M  V30 41 C -0.265082 3.641888 1.504099 0
M  V30 42 C 0.756724 4.525033 1.370203 0
M  V30 43 C 2.119438 4.426591 1.477647 0
M  V30 44 C 2.464516 3.095201 1.800292 0
M  V30 45 C 1.531044 2.103681 1.965100 0
M  V30 46 H -0.464446 -5.320424 4.814472 0
M  V30 47 H -1.343481 -4.780788 3.385773 0
M  V30 48 H 0.446058 -5.043247 3.297749 0
M  V30 49 H 0.642285 -3.537840 6.049780 0
M  V30 50 H 0.574408 -1.824703 5.426194 0
M  V30 51 H 2.266021 -3.841470 2.829808 0
M  V30 52 H 4.447835 -5.520613 4.183148 0
M  V30 53 H 7.573232 -4.567402 1.689309 0
M  V30 54 H 6.350441 -2.484845 0.894178 0
M  V30 55 H 2.870793 -1.823835 1.320189 0
M  V30 56 H 4.416468 -1.264046 0.698624 0
M  V30 57 H 5.058971 -0.163633 2.732638 0
M  V30 58 H 3.751758 -0.856199 3.702561 0
M  V30 59 H 1.220546 -1.225763 2.731013 0
M  V30 60 H -1.135624 -0.742502 2.462967 0
M  V30 61 H -3.070797 1.933966 1.789847 0
M  V30 62 H -4.041402 1.437297 -0.178434 0
M  V30 63 H -4.027138 -1.618649 -0.927683 0
M  V30 64 H -1.755527 -3.481044 -3.259227 0
M  V30 65 H -2.837596 -4.341194 -2.028987 0
M  V30 66 H -2.811691 -4.795874 -3.772922 0
M  V30 67 H -5.120016 -4.434145 -2.485299 0
M  V30 68 H -5.911726 -3.265708 -3.554120 0
M  V30 69 H -5.344602 -2.777946 -1.890921 0
M  V30 70 H -5.011551 -2.909894 -5.173084 0
M  V30 71 H -3.463650 -3.893826 -5.371349 0
M  V30 72 H -3.377595 -2.110754 -5.310992 0
M  V30 73 H -3.701544 2.675515 -4.190753 0
M  V30 74 H -2.556267 4.864705 -4.705661 0
M  V30 75 H -0.381821 6.206604 -3.719551 0
M  V30 76 H 1.120337 5.167214 -3.630764 0
M  V30 77 H 0.292516 5.356046 -5.183031 0
M  V30 78 H 0.950079 3.093007 -2.951643 0
M  V30 79 H -0.185304 1.035648 -2.496227 0
M  V30 80 H -1.299624 3.821126 1.400793 0
M  V30 81 H 0.403280 5.542945 1.124163 0
M  V30 82 H 2.831455 5.194777 1.348791 0
M  V30 83 H 3.539911 2.885388 1.913724 0
M  V30 END ATOM
M  V30 BEGIN BOND
M  V30 1 1 1 2
M  V30 2 1 2 3
M  V30 3 1 3 4
M  V30 4 2 4 5
M  V30 5 1 4 6
M  V30 6 1 6 7
M  V30 7 2 7 8
M  V30 8 1 8 9
M  V30 9 2 9 10
M  V30 10 1 10 11
M  V30 11 2 11 12
M  V30 12 1 12 13
M  V30 13 1 13 14
M  V30 14 1 14 15
M  V30 15 1 15 16
M  V30 16 2 16 17
M  V30 17 1 17 18
M  V30 18 2 18 19
M  V30 19 1 19 20
M  V30 20 1 20 21
M  V30 21 2 21 22
M  V30 22 1 21 23
M  V30 23 1 23 24
M  V30 24 2 24 25
M  V30 25 1 25 26
M  V30 26 1 26 27
M  V30 27 1 27 28
M  V30 28 1 27 29
M  V30 29 1 27 30
M  V30 30 2 26 31
M  V30 31 1 31 32
M  V30 32 1 32 33
M  V30 33 2 33 34
M  V30 34 1 34 35
M  V30 35 2 35 36
M  V30 36 1 36 37
M  V30 37 1 36 38
M  V30 38 2 38 39
M  V30 39 1 19 40
M  V30 40 2 40 41
M  V30 41 1 41 42
M  V30 42 2 42 43
M  V30 43 1 43 44
M  V30 44 2 44 45
M  V30 45 1 12 7
M  V30 46 1 45 16
M  V30 47 1 32 24
M  V30 48 1 39 33
M  V30 49 1 45 40
M  V30 50 1 1 46
M  V30 51 1 1 47
M  V30 52 1 1 48
M  V30 53 1 3 49
M  V30 54 1 3 50
M  V30 55 1 6 51
M  V30 56 1 8 52
M  V30 57 1 10 53
M  V30 58 1 11 54
M  V30 59 1 13 55
M  V30 60 1 13 56
M  V30 61 1 14 57
M  V30 62 1 14 58
M  V30 63 1 17 59
M  V30 64 1 18 60
M  V30 65 1 20 61
M  V30 66 1 23 62
M  V30 67 1 25 63
M  V30 68 1 28 64
M  V30 69 1 28 65
M  V30 70 1 28 66
M  V30 71 1 29 67
M  V30 72 1 29 68
M  V30 73 1 29 69
M  V30 74 1 30 70
M  V30 75 1 30 71
M  V30 76 1 30 72
M  V30 77 1 34 73
M  V30 78 1 35 74
M  V30 79 1 37 75
M  V30 80 1 37 76
M  V30 81 1 37 77
M  V30 82 1 38 78
M  V30 83 1 39 79
M  V30 84 1 41 80
M  V30 85 1 42 81
M  V30 86 1 43 82
M  V30 87 1 44 83
M  V30 END BOND
M  V30 END CTAB
M  END
>  <Dataset>  (654) 
ChEMBL_Kinases

>  <Ligand_Instance>  (654) 
nan

>  <PDB_ID>  (654) 
nan

>  <Standardized_SMILES>  (654) 
COCC(=O)Nc1cnccc1CCOc1ccc(NC(=O)Nc2cc(C(C)(C)C)nn2-c2ccc(C)cc2)c2ccccc12

>  <Name>  (654) 
nan

>  <Pocket>  (654) 
nan

>  <ATP_Site>  (654) 
nan

>  <Peripheral>  (654) 
nan

>  <Num_H_Atoms_ProtBoundConf>  (654) 
nan

>  <Num_Resolved_Atoms>  (654) 
nan

>  <Num_Not_Resolved_Atoms>  (654) 
nan

$$$$
CHEMBL378248
     RDKit          3D

  0  0  0  0  0  0  0  0  0  0999 V3000
M  V30 BEGIN CTAB
M  V30 COUNTS 46 48 0 0 0
M  V30 BEGIN ATOM
M  V30 1 N 5.951310 -3.240244 1.148696 0
M  V30 2 C 6.415578 -1.887481 1.038805 0
M  V30 3 C 5.632051 -1.142172 -0.008453 0
M  V30 4 O 4.792686 -1.963695 -0.483764 0
M  V30 5 N 5.755407 0.198894 -0.426577 0
M  V30 6 S 4.632676 0.658474 -1.683218 0
M  V30 7 O 5.259458 1.782093 -2.505576 0
M  V30 8 O 4.456510 -0.500618 -2.585974 0
M  V30 9 C 3.147017 1.264168 -1.047076 0
M  V30 10 C 2.801696 2.597770 -0.937903 0
M  V30 11 C 1.589162 2.982737 -0.404762 0
M  V30 12 C 0.670071 2.068265 0.041181 0
M  V30 13 N -0.613316 2.401547 0.581087 0
M  V30 14 C -1.486938 1.478001 1.218677 0
M  V30 15 N -1.509521 1.713066 2.536651 0
M  V30 16 C -2.316887 0.860347 3.193293 0
M  V30 17 N -2.616768 0.777694 4.586777 0
M  V30 18 N -2.822811 0.060352 2.269226 0
M  V30 19 C -3.691945 -1.016561 2.234233 0
M  V30 20 O -4.008941 -1.137137 3.481068 0
M  V30 21 C -4.409117 -2.045034 1.565315 0
M  V30 22 C -5.215658 -2.950119 2.189916 0
M  V30 23 F -5.432362 -2.956258 3.516288 0
M  V30 24 C -5.830741 -3.901658 1.365482 0
M  V30 25 C -5.627749 -3.915021 0.011401 0
M  V30 26 C -4.815432 -3.003830 -0.621207 0
M  V30 27 C -4.197183 -2.051114 0.187242 0
M  V30 28 F -3.430490 -1.216603 -0.538254 0
M  V30 29 N -2.317570 0.443785 1.102110 0
M  V30 30 C 0.974679 0.711878 -0.048095 0
M  V30 31 C 2.196517 0.335779 -0.585924 0
M  V30 32 H 5.261160 -3.541421 0.435281 0
M  V30 33 H 5.589075 -3.473930 2.119370 0
M  V30 34 H 7.501212 -1.888998 0.785976 0
M  V30 35 H 6.285444 -1.405733 2.019157 0
M  V30 36 H 6.496799 0.725270 0.073279 0
M  V30 37 H 3.509216 3.334433 -1.283998 0
M  V30 38 H 1.271924 3.992304 -0.296688 0
M  V30 39 H -0.867190 3.410147 0.469568 0
M  V30 40 H -2.343149 -0.173248 4.972880 0
M  V30 41 H -3.030850 1.701919 4.836442 0
M  V30 42 H -6.465312 -4.611829 1.876892 0
M  V30 43 H -6.157503 -4.697138 -0.498875 0
M  V30 44 H -4.697823 -3.075735 -1.694805 0
M  V30 45 H 0.254564 -0.017824 0.300122 0
M  V30 46 H 2.349341 -0.731989 -0.617366 0
M  V30 END ATOM
M  V30 BEGIN BOND
M  V30 1 1 1 2
M  V30 2 1 2 3
M  V30 3 2 3 4
M  V30 4 1 3 5
M  V30 5 1 5 6
M  V30 6 2 6 7
M  V30 7 2 6 8
M  V30 8 1 6 9
M  V30 9 2 9 10
M  V30 10 1 10 11
M  V30 11 2 11 12
M  V30 12 1 12 13
M  V30 13 1 13 14
M  V30 14 1 14 15
M  V30 15 2 15 16
M  V30 16 1 16 17
M  V30 17 1 16 18
M  V30 18 1 18 19
M  V30 19 2 19 20
M  V30 20 1 19 21
M  V30 21 2 21 22
M  V30 22 1 22 23
M  V30 23 1 22 24
M  V30 24 2 24 25
M  V30 25 1 25 26
M  V30 26 2 26 27
M  V30 27 1 27 28
M  V30 28 1 18 29
M  V30 29 1 12 30
M  V30 30 2 30 31
M  V30 31 1 31 9
M  V30 32 2 29 14
M  V30 33 1 27 21
M  V30 34 1 1 32
M  V30 35 1 1 33
M  V30 36 1 2 34
M  V30 37 1 2 35
M  V30 38 1 5 36
M  V30 39 1 10 37
M  V30 40 1 11 38
M  V30 41 1 13 39
M  V30 42 1 17 40
M  V30 43 1 17 41
M  V30 44 1 24 42
M  V30 45 1 25 43
M  V30 46 1 26 44
M  V30 47 1 30 45
M  V30 48 1 31 46
M  V30 END BOND
M  V30 END CTAB
M  END
>  <Dataset>  (655) 
ChEMBL_Kinases

>  <Ligand_Instance>  (655) 
nan

>  <PDB_ID>  (655) 
nan

>  <Standardized_SMILES>  (655) 
NCC(=O)NS(=O)(=O)c1ccc(Nc2nc(N)n(C(=O)c3c(F)cccc3F)n2)cc1

>  <Name>  (655) 
nan

>  <Pocket>  (655) 
nan

>  <ATP_Site>  (655) 
nan

>  <Peripheral>  (655) 
nan

>  <Num_H_Atoms_ProtBoundConf>  (655) 
nan

>  <Num_Resolved_Atoms>  (655) 
nan

>  <Num_Not_Resolved_Atoms>  (655) 
nan

$$$$
CHEMBL3393065
     RDKit          3D

  0  0  0  0  0  0  0  0  0  0999 V3000
M  V30 BEGIN CTAB
M  V30 COUNTS 56 61 0 0 0
M  V30 BEGIN ATOM
M  V30 1 C 4.727257 -2.301967 4.130526 0
M  V30 2 C 4.294259 -0.872968 4.386916 0
M  V30 3 O 3.711530 -0.353512 3.213681 0
M  V30 4 C 4.405096 -0.258838 2.018329 0
M  V30 5 O 5.584290 -0.637660 1.948319 0
M  V30 6 C 3.743004 0.289244 0.838401 0
M  V30 7 N 4.292015 0.439193 -0.380689 0
M  V30 8 C 3.404286 0.974129 -1.235963 0
M  V30 9 C 2.214631 1.189524 -0.558821 0
M  V30 10 C 2.449017 0.756241 0.728832 0
M  V30 11 N 1.384224 0.857802 1.666709 0
M  V30 12 C 0.109464 1.384860 1.315259 0
M  V30 13 C -0.040121 1.781229 0.057681 0
M  V30 14 C -1.375719 2.311577 -0.231056 0
M  V30 15 O -1.886646 2.315163 -1.383845 0
M  V30 16 C -2.296305 2.912122 0.798941 0
M  V30 17 C -1.766239 2.746808 2.188842 0
M  V30 18 C -0.966358 1.471324 2.321761 0
M  V30 19 C 0.924816 1.758011 -1.042544 0
M  V30 20 C 0.386044 0.988293 -2.160827 0
M  V30 21 C -0.440803 -0.055356 -2.024955 0
M  V30 22 C -0.939029 -0.767814 -3.067980 0
M  V30 23 S -1.967533 -2.116270 -3.575069 0
M  V30 24 C -2.697028 -2.944677 -2.210373 0
M  V30 25 N -3.477209 -3.970914 -2.637432 0
M  V30 26 C -4.011671 -4.570413 -1.537100 0
M  V30 27 C -4.864804 -5.639366 -1.287553 0
M  V30 28 C -5.221951 -5.999309 -0.005067 0
M  V30 29 C -4.739669 -5.302673 1.096539 0
M  V30 30 C -3.896007 -4.241839 0.900361 0
M  V30 31 C -3.571806 -3.925343 -0.401734 0
M  V30 32 N -2.778818 -2.949524 -0.872727 0
M  V30 33 C -0.523569 -0.333834 -4.352988 0
M  V30 34 S 0.585635 1.114188 -3.889588 0
M  V30 35 H 5.810363 -2.287713 3.922910 0
M  V30 36 H 4.126703 -2.711273 3.277507 0
M  V30 37 H 4.474730 -2.955803 4.992869 0
M  V30 38 H 3.516021 -0.903491 5.171769 0
M  V30 39 H 5.126301 -0.243151 4.762244 0
M  V30 40 H 5.280744 0.172356 -0.624162 0
M  V30 41 H 3.607940 1.193094 -2.282061 0
M  V30 42 H 1.576464 0.524985 2.640821 0
M  V30 43 H -2.346608 4.018805 0.607750 0
M  V30 44 H -3.336294 2.544752 0.656332 0
M  V30 45 H -2.604210 2.682529 2.901715 0
M  V30 46 H -1.088164 3.589300 2.474948 0
M  V30 47 H -1.657259 0.620697 2.136574 0
M  V30 48 H -0.559603 1.355168 3.324886 0
M  V30 49 H 1.066966 2.806883 -1.418298 0
M  V30 50 H -0.816973 -0.466328 -1.104268 0
M  V30 51 H -5.246504 -6.189168 -2.138627 0
M  V30 52 H -5.900315 -6.853539 0.135801 0
M  V30 53 H -5.008212 -5.570439 2.099397 0
M  V30 54 H -3.477092 -3.646808 1.721735 0
M  V30 55 H -2.221838 -2.205082 -0.408839 0
M  V30 56 H -0.453937 -0.329068 -5.482947 0
M  V30 END ATOM
M  V30 BEGIN BOND
M  V30 1 1 1 2
M  V30 2 1 2 3
M  V30 3 1 3 4
M  V30 4 2 4 5
M  V30 5 1 4 6
M  V30 6 1 6 7
M  V30 7 1 7 8
M  V30 8 2 8 9
M  V30 9 1 9 10
M  V30 10 1 10 11
M  V30 11 1 11 12
M  V30 12 2 12 13
M  V30 13 1 13 14
M  V30 14 2 14 15
M  V30 15 1 14 16
M  V30 16 1 16 17
M  V30 17 1 17 18
M  V30 18 1 13 19
M  V30 19 1 19 20
M  V30 20 2 20 21
M  V30 21 1 21 22
M  V30 22 1 22 23
M  V30 23 1 23 24
M  V30 24 2 24 25
M  V30 25 1 25 26
M  V30 26 2 26 27
M  V30 27 1 27 28
M  V30 28 2 28 29
M  V30 29 1 29 30
M  V30 30 2 30 31
M  V30 31 1 31 32
M  V30 32 2 22 33
M  V30 33 1 33 34
M  V30 34 2 10 6
M  V30 35 1 18 12
M  V30 36 1 34 20
M  V30 37 1 19 9
M  V30 38 1 32 24
M  V30 39 1 31 26
M  V30 40 1 1 35
M  V30 41 1 1 36
M  V30 42 1 1 37
M  V30 43 1 2 38
M  V30 44 1 2 39
M  V30 45 1 7 40
M  V30 46 1 8 41
M  V30 47 1 11 42
M  V30 48 1 16 43
M  V30 49 1 16 44
M  V30 50 1 17 45
M  V30 51 1 17 46
M  V30 52 1 18 47
M  V30 53 1 18 48
M  V30 54 1 19 49
M  V30 55 1 21 50
M  V30 56 1 27 51
M  V30 57 1 28 52
M  V30 58 1 29 53
M  V30 59 1 30 54
M  V30 60 1 32 55
M  V30 61 1 33 56
M  V30 END BOND
M  V30 END CTAB
M  END
>  <Dataset>  (656) 
ChEMBL_Kinases

>  <Ligand_Instance>  (656) 
nan

>  <PDB_ID>  (656) 
nan

>  <Standardized_SMILES>  (656) 
CCOC(=O)c1[nH]cc2c1NC1=C(C(=O)CCC1)C2c1cc(Sc2nc3ccccc3[nH]2)cs1

>  <Name>  (656) 
nan

>  <Pocket>  (656) 
nan

>  <ATP_Site>  (656) 
nan

>  <Peripheral>  (656) 
nan

>  <Num_H_Atoms_ProtBoundConf>  (656) 
nan

>  <Num_Resolved_Atoms>  (656) 
nan

>  <Num_Not_Resolved_Atoms>  (656) 
nan

$$$$
CHEMBL4104355
     RDKit          3D

  0  0  0  0  0  0  0  0  0  0999 V3000
M  V30 BEGIN CTAB
M  V30 COUNTS 41 44 0 0 0
M  V30 BEGIN ATOM
M  V30 1 N -0.471705 -4.646904 2.371714 0
M  V30 2 C 0.368563 -4.822217 1.238970 0
M  V30 3 O 0.601188 -6.028554 0.909115 0
M  V30 4 C 0.935589 -3.691012 0.492134 0
M  V30 5 C 1.735334 -3.977883 -0.587471 0
M  V30 6 C 2.224620 -2.861674 -1.229917 0
M  V30 7 Cl 3.266554 -3.114745 -2.634796 0
M  V30 8 C 1.905676 -1.579069 -0.783034 0
M  V30 9 C 2.274961 -0.345719 -1.262835 0
M  V30 10 Cl 3.323952 -0.118906 -2.670522 0
M  V30 11 C 1.690396 0.648485 -0.463078 0
M  V30 12 C 1.921688 2.056851 -0.751813 0
M  V30 13 C 0.921252 2.605711 -1.788653 0
M  V30 14 C 1.104958 3.168375 -0.367500 0
M  V30 15 N 0.991505 -0.031005 0.467867 0
M  V30 16 C 0.238878 0.630787 1.494776 0 CFG=1
M  V30 17 C -1.221884 0.831280 1.151694 0
M  V30 18 C -2.146907 -0.073333 1.930585 0
M  V30 19 C -2.037602 0.194559 3.395300 0
M  V30 20 N -0.674114 0.606370 3.671639 0
M  V30 21 C 0.206394 -0.183273 2.799232 0
M  V30 22 C 1.094021 -1.368154 0.311537 0
M  V30 23 N 0.624049 -2.458092 0.928368 0
M  V30 24 H -1.462734 -4.585578 2.662739 0
M  V30 25 H -0.017422 -4.526503 3.305324 0
M  V30 26 H 1.929881 -5.002744 -0.863447 0
M  V30 27 H 2.984440 2.314215 -1.037734 0
M  V30 28 H 1.295202 3.276257 -2.585432 0
M  V30 29 H 0.030036 2.029544 -2.035482 0
M  V30 30 H 0.143903 3.187749 0.160754 0
M  V30 31 H 1.581225 4.191872 -0.291932 0
M  V30 32 H 0.739809 1.588480 1.826387 0
M  V30 33 H -1.343494 0.568933 0.076074 0
M  V30 34 H -1.552027 1.888682 1.240613 0
M  V30 35 H -2.013181 -1.105631 1.610828 0
M  V30 36 H -3.176887 0.232560 1.595631 0
M  V30 37 H -2.245388 -0.696310 4.031072 0
M  V30 38 H -2.743835 1.017379 3.668458 0
M  V30 39 H -0.401837 0.544444 4.663884 0
M  V30 40 H 1.211563 -0.308864 3.218913 0
M  V30 41 H -0.283783 -1.152412 2.685122 0
M  V30 END ATOM
M  V30 BEGIN BOND
M  V30 1 1 1 2
M  V30 2 2 2 3
M  V30 3 1 2 4
M  V30 4 2 4 5
M  V30 5 1 5 6
M  V30 6 1 6 7
M  V30 7 2 6 8
M  V30 8 1 8 9
M  V30 9 1 9 10
M  V30 10 2 9 11
M  V30 11 1 11 12
M  V30 12 1 12 13
M  V30 13 1 13 14
M  V30 14 1 11 15
M  V30 15 1 15 16
M  V30 16 1 16 17
M  V30 17 1 17 18
M  V30 18 1 18 19
M  V30 19 1 19 20
M  V30 20 1 20 21
M  V30 21 1 15 22
M  V30 22 2 22 23
M  V30 23 1 23 4
M  V30 24 1 22 8
M  V30 25 1 14 12
M  V30 26 1 21 16
M  V30 27 1 1 24
M  V30 28 1 1 25
M  V30 29 1 5 26
M  V30 30 1 12 27
M  V30 31 1 13 28
M  V30 32 1 13 29
M  V30 33 1 14 30
M  V30 34 1 14 31
M  V30 35 1 16 32 CFG=1
M  V30 36 1 17 33
M  V30 37 1 17 34
M  V30 38 1 18 35
M  V30 39 1 18 36
M  V30 40 1 19 37
M  V30 41 1 19 38
M  V30 42 1 20 39
M  V30 43 1 21 40
M  V30 44 1 21 41
M  V30 END BOND
M  V30 END CTAB
M  END
>  <Dataset>  (657) 
ChEMBL_Kinases

>  <Ligand_Instance>  (657) 
nan

>  <PDB_ID>  (657) 
nan

>  <Standardized_SMILES>  (657) 
NC(=O)c1cc(Cl)c2c(Cl)c(C3CC3)n([C@H]3CCCNC3)c2n1

>  <Name>  (657) 
nan

>  <Pocket>  (657) 
nan

>  <ATP_Site>  (657) 
nan

>  <Peripheral>  (657) 
nan

>  <Num_H_Atoms_ProtBoundConf>  (657) 
nan

>  <Num_Resolved_Atoms>  (657) 
nan

>  <Num_Not_Resolved_Atoms>  (657) 
nan

$$$$
CHEMBL4104351
     RDKit          3D

  0  0  0  0  0  0  0  0  0  0999 V3000
M  V30 BEGIN CTAB
M  V30 COUNTS 63 67 0 0 0
M  V30 BEGIN ATOM
M  V30 1 C 2.721161 -0.443634 7.634695 0
M  V30 2 S 1.980187 1.228584 7.494194 0
M  V30 3 C 2.007358 1.650575 5.746997 0
M  V30 4 N 3.012794 2.277427 5.096573 0
M  V30 5 C 2.675432 2.423933 3.795615 0
M  V30 6 C 3.525840 3.064509 2.767708 0
M  V30 7 C 4.746451 2.426888 2.515776 0
M  V30 8 C 5.619955 2.927543 1.579654 0
M  V30 9 C 5.303642 4.068566 0.874307 0
M  V30 10 F 6.083237 4.651459 -0.073921 0
M  V30 11 C 4.081597 4.700604 1.131736 0
M  V30 12 C 3.173359 4.214360 2.077634 0
M  V30 13 C 1.412682 1.853036 3.695434 0
M  V30 14 C 0.771570 1.860541 2.375346 0
M  V30 15 C -0.210491 2.811446 2.222305 0
M  V30 16 C -0.822675 2.833629 0.964208 0
M  V30 17 N -0.453541 1.974691 -0.000442 0
M  V30 18 C 0.506080 1.051714 0.164460 0
M  V30 19 N 1.004422 0.096926 -0.759749 0
M  V30 20 C 0.156564 -1.022680 -1.046310 0
M  V30 21 C -1.162738 -0.948759 -0.648273 0
M  V30 22 C -1.971238 -2.047606 -0.939486 0
M  V30 23 C -1.504664 -3.182654 -1.598896 0
M  V30 24 N -2.496797 -4.191658 -1.818408 0
M  V30 25 C -3.068647 -4.026340 -3.092285 0
M  V30 26 O -2.565958 -3.035766 -3.725060 0
M  V30 27 C -4.114512 -4.853401 -3.684809 0
M  V30 28 C -4.756794 -5.832130 -2.942081 0
M  V30 29 C -5.732256 -6.627118 -3.507969 0
M  V30 30 C -5.998272 -6.363944 -4.840573 0
M  V30 31 C -5.397214 -5.415621 -5.617325 0
M  V30 32 N -5.707702 -5.189813 -6.986079 0
M  V30 33 C -4.418622 -4.624115 -5.031872 0
M  V30 34 C -0.159002 -3.220098 -1.986597 0
M  V30 35 C 0.640118 -2.133308 -1.698278 0
M  V30 36 C 1.160585 0.965545 1.383833 0
M  V30 37 N 1.024214 1.390479 4.884120 0
M  V30 38 C -0.256783 0.730060 5.091687 0
M  V30 39 H 3.793118 -0.323075 7.875328 0
M  V30 40 H 2.567550 -1.000652 6.672215 0
M  V30 41 H 2.274996 -1.034514 8.438246 0
M  V30 42 H 5.040628 1.519704 3.049441 0
M  V30 43 H 6.574744 2.477522 1.345152 0
M  V30 44 H 3.745195 5.609558 0.621271 0
M  V30 45 H 2.223313 4.676552 2.303844 0
M  V30 46 H -0.496553 3.502021 3.028751 0
M  V30 47 H -1.608571 3.550469 0.759540 0
M  V30 48 H 1.947501 0.242779 -1.185837 0
M  V30 49 H -1.576855 -0.108775 -0.141434 0
M  V30 50 H -3.000824 -1.965002 -0.619717 0
M  V30 51 H -2.862460 -5.002692 -1.230090 0
M  V30 52 H -4.510360 -6.000104 -1.891080 0
M  V30 53 H -6.282294 -7.409089 -3.000600 0
M  V30 54 H -6.752239 -6.947439 -5.355153 0
M  V30 55 H -5.915595 -6.092283 -7.507355 0
M  V30 56 H -5.744190 -4.272686 -7.478254 0
M  V30 57 H -3.903421 -3.853455 -5.598300 0
M  V30 58 H 0.126514 -4.126684 -2.491705 0
M  V30 59 H 1.674586 -2.200315 -2.013471 0
M  V30 60 H 1.939455 0.282430 1.654862 0
M  V30 61 H -0.151100 -0.051695 5.895753 0
M  V30 62 H -1.099555 1.403065 5.226940 0
M  V30 63 H -0.468391 0.147919 4.164075 0
M  V30 END ATOM
M  V30 BEGIN BOND
M  V30 1 1 1 2
M  V30 2 1 2 3
M  V30 3 2 3 4
M  V30 4 1 4 5
M  V30 5 1 5 6
M  V30 6 2 6 7
M  V30 7 1 7 8
M  V30 8 2 8 9
M  V30 9 1 9 10
M  V30 10 1 9 11
M  V30 11 2 11 12
M  V30 12 2 5 13
M  V30 13 1 13 14
M  V30 14 2 14 15
M  V30 15 1 15 16
M  V30 16 2 16 17
M  V30 17 1 17 18
M  V30 18 1 18 19
M  V30 19 1 19 20
M  V30 20 2 20 21
M  V30 21 1 21 22
M  V30 22 2 22 23
M  V30 23 1 23 24
M  V30 24 1 24 25
M  V30 25 2 25 26
M  V30 26 1 25 27
M  V30 27 2 27 28
M  V30 28 1 28 29
M  V30 29 2 29 30
M  V30 30 1 30 31
M  V30 31 1 31 32
M  V30 32 2 31 33
M  V30 33 1 23 34
M  V30 34 2 34 35
M  V30 35 2 18 36
M  V30 36 1 13 37
M  V30 37 1 37 38
M  V30 38 1 37 3
M  V30 39 1 12 6
M  V30 40 1 36 14
M  V30 41 1 35 20
M  V30 42 1 33 27
M  V30 43 1 1 39
M  V30 44 1 1 40
M  V30 45 1 1 41
M  V30 46 1 7 42
M  V30 47 1 8 43
M  V30 48 1 11 44
M  V30 49 1 12 45
M  V30 50 1 15 46
M  V30 51 1 16 47
M  V30 52 1 19 48
M  V30 53 1 21 49
M  V30 54 1 22 50
M  V30 55 1 24 51
M  V30 56 1 28 52
M  V30 57 1 29 53
M  V30 58 1 30 54
M  V30 59 1 32 55
M  V30 60 1 32 56
M  V30 61 1 33 57
M  V30 62 1 34 58
M  V30 63 1 35 59
M  V30 64 1 36 60
M  V30 65 1 38 61
M  V30 66 1 38 62
M  V30 67 1 38 63
M  V30 END BOND
M  V30 END CTAB
M  END
>  <Dataset>  (658) 
ChEMBL_Kinases

>  <Ligand_Instance>  (658) 
nan

>  <PDB_ID>  (658) 
nan

>  <Standardized_SMILES>  (658) 
CSc1nc(-c2ccc(F)cc2)c(-c2ccnc(Nc3ccc(NC(=O)c4cccc(N)c4)cc3)c2)n1C

>  <Name>  (658) 
nan

>  <Pocket>  (658) 
nan

>  <ATP_Site>  (658) 
nan

>  <Peripheral>  (658) 
nan

>  <Num_H_Atoms_ProtBoundConf>  (658) 
nan

>  <Num_Resolved_Atoms>  (658) 
nan

>  <Num_Not_Resolved_Atoms>  (658) 
nan

$$$$
CHEMBL378347
     RDKit          3D

  0  0  0  0  0  0  0  0  0  0999 V3000
M  V30 BEGIN CTAB
M  V30 COUNTS 36 40 0 0 0
M  V30 BEGIN ATOM
M  V30 1 O 3.094698 -1.233117 3.202711 0
M  V30 2 C 2.437139 -1.599486 2.189065 0
M  V30 3 N 2.592354 -2.829055 1.482900 0
M  V30 4 C 1.664103 -2.845218 0.414187 0
M  V30 5 O 1.660174 -3.847489 -0.309926 0
M  V30 6 C 0.901152 -1.627622 0.419608 0
M  V30 7 C 1.384067 -0.908042 1.485592 0
M  V30 8 C 0.856821 0.334057 1.784994 0
M  V30 9 C 1.242103 1.254297 2.845966 0
M  V30 10 C 2.489169 1.734457 3.189383 0
M  V30 11 C 2.619830 2.597399 4.256402 0
M  V30 12 N 1.590635 3.018780 5.009719 0
M  V30 13 C 0.353818 2.581386 4.717623 0
M  V30 14 C 0.194340 1.716418 3.654506 0
M  V30 15 C -0.175840 0.853730 0.992535 0
M  V30 16 C -0.654108 0.123317 -0.075562 0
M  V30 17 N -1.634840 0.400706 -0.984489 0
M  V30 18 C -1.661766 -0.675202 -1.791808 0
M  V30 19 C -2.519393 -0.838962 -2.880129 0
M  V30 20 C -2.468611 -1.978225 -3.645405 0
M  V30 21 C -1.536646 -2.954779 -3.296485 0
M  V30 22 O -1.502451 -4.088491 -4.076520 0
M  V30 23 C -0.723354 -2.725662 -2.211115 0
M  V30 24 C -0.731081 -1.618226 -1.420103 0
M  V30 25 C -0.097665 -1.107207 -0.334680 0
M  V30 26 H 3.310968 -3.538305 1.791965 0
M  V30 27 H 3.287369 1.382282 2.558833 0
M  V30 28 H 3.669152 2.887680 4.401679 0
M  V30 29 H -0.501654 2.896989 5.299528 0
M  V30 30 H -0.840403 1.390707 3.461126 0
M  V30 31 H -0.651527 1.826713 1.157142 0
M  V30 32 H -2.217102 1.265521 -1.018597 0
M  V30 33 H -3.245949 -0.096740 -3.165932 0
M  V30 34 H -3.126299 -2.102939 -4.479367 0
M  V30 35 H -0.795535 -4.251562 -4.803336 0
M  V30 36 H -0.050003 -3.524981 -2.027028 0
M  V30 END ATOM
M  V30 BEGIN BOND
M  V30 1 2 1 2
M  V30 2 1 2 3
M  V30 3 1 3 4
M  V30 4 2 4 5
M  V30 5 1 4 6
M  V30 6 2 6 7
M  V30 7 1 7 8
M  V30 8 1 8 9
M  V30 9 2 9 10
M  V30 10 1 10 11
M  V30 11 2 11 12
M  V30 12 1 12 13
M  V30 13 2 13 14
M  V30 14 2 8 15
M  V30 15 1 15 16
M  V30 16 1 16 17
M  V30 17 1 17 18
M  V30 18 2 18 19
M  V30 19 1 19 20
M  V30 20 2 20 21
M  V30 21 1 21 22
M  V30 22 1 21 23
M  V30 23 2 23 24
M  V30 24 1 24 25
M  V30 25 1 7 2
M  V30 26 1 14 9
M  V30 27 2 25 16
M  V30 28 1 25 6
M  V30 29 1 24 18
M  V30 30 1 3 26
M  V30 31 1 10 27
M  V30 32 1 11 28
M  V30 33 1 13 29
M  V30 34 1 14 30
M  V30 35 1 15 31
M  V30 36 1 17 32
M  V30 37 1 19 33
M  V30 38 1 20 34
M  V30 39 1 22 35
M  V30 40 1 23 36
M  V30 END BOND
M  V30 END CTAB
M  END
>  <Dataset>  (659) 
ChEMBL_Kinases

>  <Ligand_Instance>  (659) 
nan

>  <PDB_ID>  (659) 
nan

>  <Standardized_SMILES>  (659) 
O=C1NC(=O)c2c1c(-c1ccncc1)cc1[nH]c3ccc(O)cc3c21

>  <Name>  (659) 
nan

>  <Pocket>  (659) 
nan

>  <ATP_Site>  (659) 
nan

>  <Peripheral>  (659) 
nan

>  <Num_H_Atoms_ProtBoundConf>  (659) 
nan

>  <Num_Resolved_Atoms>  (659) 
nan

>  <Num_Not_Resolved_Atoms>  (659) 
nan

$$$$
CHEMBL3670490
     RDKit          3D

  0  0  0  0  0  0  0  0  0  0999 V3000
M  V30 BEGIN CTAB
M  V30 COUNTS 50 52 0 0 0
M  V30 BEGIN ATOM
M  V30 1 C 4.529309 -2.967449 4.541653 0
M  V30 2 N 3.961389 -3.616731 3.396932 0
M  V30 3 C 2.931080 -4.538952 3.863567 0
M  V30 4 C 3.254535 -2.669162 2.532054 0
M  V30 5 C 4.180923 -1.714289 1.869939 0
M  V30 6 O 3.505914 -0.820568 1.055834 0
M  V30 7 C 2.571781 0.127093 1.353191 0
M  V30 8 C 1.956689 0.581924 2.487258 0
M  V30 9 C 1.015746 1.585327 2.490545 0
M  V30 10 C 0.643861 2.192609 1.311227 0
M  V30 11 C 1.230809 1.775475 0.135785 0
M  V30 12 C 0.773506 2.465952 -1.097966 0
M  V30 13 N -0.237477 1.665410 -1.725750 0
M  V30 14 C -1.474036 1.219508 -1.189420 0
M  V30 15 N -1.888021 1.491953 0.052319 0
M  V30 16 C -3.036687 1.091685 0.604227 0
M  V30 17 N -3.887049 0.343335 -0.118535 0
M  V30 18 C -3.555053 0.014759 -1.390380 0
M  V30 19 C -4.423240 -0.748722 -2.137566 0
M  V30 20 C -5.701961 -1.225575 -1.578864 0
M  V30 21 N -6.151215 -0.990224 -0.250386 0
M  V30 22 O -6.515274 -1.887502 -2.231304 0
M  V30 23 C -4.153036 -1.117075 -3.436680 0
M  V30 24 C -2.962566 -0.686511 -3.969879 0
M  V30 25 C -2.108685 0.076599 -3.203770 0
M  V30 26 C -2.363731 0.452078 -1.907348 0
M  V30 27 C 2.181528 0.753964 0.174799 0
M  V30 28 H 5.631046 -2.839901 4.477669 0
M  V30 29 H 4.020699 -2.006168 4.745063 0
M  V30 30 H 4.369066 -3.615476 5.437445 0
M  V30 31 H 2.666820 -5.195410 3.008882 0
M  V30 32 H 2.020973 -3.917940 4.059704 0
M  V30 33 H 3.222464 -5.081463 4.773656 0
M  V30 34 H 2.449117 -2.184701 3.081805 0
M  V30 35 H 2.814422 -3.306161 1.723762 0
M  V30 36 H 4.837727 -1.178102 2.596255 0
M  V30 37 H 4.890811 -2.279107 1.206216 0
M  V30 38 H 2.289319 0.088170 3.381327 0
M  V30 39 H 0.629446 1.820661 3.482198 0
M  V30 40 H -0.091237 2.962756 1.488734 0
M  V30 41 H 1.649927 2.544419 -1.780658 0
M  V30 42 H 0.419229 3.499941 -0.872936 0
M  V30 43 H -0.006924 1.390897 -2.702953 0
M  V30 44 H -3.343364 1.324416 1.601919 0
M  V30 45 H -5.804722 -0.861689 0.718796 0
M  V30 46 H -5.757458 -0.866497 0.707306 0
M  V30 47 H -4.848758 -1.718166 -4.008628 0
M  V30 48 H -2.759234 -0.984123 -4.999242 0
M  V30 49 H -1.213013 0.348361 -3.737185 0
M  V30 50 H 2.536127 0.558936 -0.851347 0
M  V30 END ATOM
M  V30 BEGIN BOND
M  V30 1 1 1 2
M  V30 2 1 2 3
M  V30 3 1 2 4
M  V30 4 1 4 5
M  V30 5 1 5 6
M  V30 6 1 6 7
M  V30 7 2 7 8
M  V30 8 1 8 9
M  V30 9 2 9 10
M  V30 10 1 10 11
M  V30 11 1 11 12
M  V30 12 1 12 13
M  V30 13 1 13 14
M  V30 14 2 14 15
M  V30 15 1 15 16
M  V30 16 2 16 17
M  V30 17 1 17 18
M  V30 18 2 18 19
M  V30 19 1 19 20
M  V30 20 1 20 21
M  V30 21 2 20 22
M  V30 22 1 19 23
M  V30 23 2 23 24
M  V30 24 1 24 25
M  V30 25 2 25 26
M  V30 26 2 11 27
M  V30 27 1 27 7
M  V30 28 1 26 14
M  V30 29 1 26 18
M  V30 30 1 1 28
M  V30 31 1 1 29
M  V30 32 1 1 30
M  V30 33 1 3 31
M  V30 34 1 3 32
M  V30 35 1 3 33
M  V30 36 1 4 34
M  V30 37 1 4 35
M  V30 38 1 5 36
M  V30 39 1 5 37
M  V30 40 1 8 38
M  V30 41 1 9 39
M  V30 42 1 10 40
M  V30 43 1 12 41
M  V30 44 1 12 42
M  V30 45 1 13 43
M  V30 46 1 16 44
M  V30 47 1 21 45
M  V30 48 1 21 46
M  V30 49 1 23 47
M  V30 50 1 24 48
M  V30 51 1 25 49
M  V30 52 1 27 50
M  V30 END BOND
M  V30 END CTAB
M  END
>  <Dataset>  (660) 
ChEMBL_Kinases

>  <Ligand_Instance>  (660) 
nan

>  <PDB_ID>  (660) 
nan

>  <Standardized_SMILES>  (660) 
CN(C)CCOc1cccc(CNc2ncnc3c(C(N)=O)cccc23)c1

>  <Name>  (660) 
nan

>  <Pocket>  (660) 
nan

>  <ATP_Site>  (660) 
nan

>  <Peripheral>  (660) 
nan

>  <Num_H_Atoms_ProtBoundConf>  (660) 
nan

>  <Num_Resolved_Atoms>  (660) 
nan

>  <Num_Not_Resolved_Atoms>  (660) 
nan

$$$$
CHEMBL4103972
     RDKit          3D

  0  0  0  0  0  0  0  0  0  0999 V3000
M  V30 BEGIN CTAB
M  V30 COUNTS 51 54 0 0 0
M  V30 BEGIN ATOM
M  V30 1 C -0.470663 -3.152846 0.767084 0
M  V30 2 N 0.643147 -3.870745 0.238858 0
M  V30 3 C 1.797808 -3.980324 0.913031 0
M  V30 4 C 2.403900 -3.508029 2.185029 0
M  V30 5 N 3.252876 -2.378548 2.025084 0
M  V30 6 C 3.209864 -1.007021 1.687491 0
M  V30 7 C 4.338181 -0.179013 1.601483 0
M  V30 8 C 4.205924 1.147188 1.279834 0
M  V30 9 C 2.967100 1.691731 1.035512 0
M  V30 10 C 1.816188 0.936966 1.102394 0
M  V30 11 C 0.484763 1.472822 0.852276 0
M  V30 12 O -0.496635 0.671615 0.939370 0
M  V30 13 N 0.189606 2.798202 0.523127 0
M  V30 14 C -1.086166 3.387967 0.265897 0
M  V30 15 C -2.050900 3.310479 1.371566 0
M  V30 16 C -1.894364 4.149025 2.458186 0
M  V30 17 F -0.895435 5.049596 2.580890 0
M  V30 18 C -2.774139 4.117351 3.517085 0
M  V30 19 C -3.856391 3.240433 3.537072 0
M  V30 20 C -4.032172 2.384471 2.447814 0
M  V30 21 C -3.126952 2.436501 1.387932 0
M  V30 22 F -3.329369 1.595282 0.347308 0
M  V30 23 C 2.017406 -0.374540 1.427253 0
M  V30 24 N 2.596249 -4.744724 0.107983 0
M  V30 25 N 1.914804 -5.052362 -0.978984 0
M  V30 26 C 0.681358 -4.520423 -0.933842 0
M  V30 27 C -0.434069 -4.570456 -1.873445 0
M  V30 28 C -0.310993 -4.075837 -3.171642 0
M  V30 29 C -1.427996 -4.162823 -4.009970 0
M  V30 30 N -2.568332 -4.708433 -3.556214 0
M  V30 31 C -2.673578 -5.179200 -2.309221 0
M  V30 32 N -1.617278 -5.110932 -1.476372 0
M  V30 33 H -1.421706 -3.763813 0.752197 0
M  V30 34 H -0.361200 -2.858318 1.827684 0
M  V30 35 H -0.736409 -2.234891 0.201869 0
M  V30 36 H 2.957477 -4.343780 2.650499 0
M  V30 37 H 1.578344 -3.298500 2.930583 0
M  V30 38 H 4.270157 -2.649245 2.223047 0
M  V30 39 H 5.318007 -0.621510 1.797486 0
M  V30 40 H 5.137763 1.692847 1.240868 0
M  V30 41 H 2.927887 2.739736 0.787240 0
M  V30 42 H 1.059117 3.407613 0.469117 0
M  V30 43 H -0.947927 4.467342 0.022346 0
M  V30 44 H -1.559906 2.956889 -0.664546 0
M  V30 45 H -2.752910 4.722308 4.416726 0
M  V30 46 H -4.584207 3.168831 4.344221 0
M  V30 47 H -4.875702 1.693687 2.451878 0
M  V30 48 H 1.134306 -0.970317 1.491381 0
M  V30 49 H 0.628874 -3.636207 -3.517328 0
M  V30 50 H -1.383999 -3.792517 -5.028951 0
M  V30 51 H -3.614001 -5.620235 -1.961526 0
M  V30 END ATOM
M  V30 BEGIN BOND
M  V30 1 1 1 2
M  V30 2 1 2 3
M  V30 3 1 3 4
M  V30 4 1 4 5
M  V30 5 1 5 6
M  V30 6 2 6 7
M  V30 7 1 7 8
M  V30 8 2 8 9
M  V30 9 1 9 10
M  V30 10 1 10 11
M  V30 11 2 11 12
M  V30 12 1 11 13
M  V30 13 1 13 14
M  V30 14 1 14 15
M  V30 15 2 15 16
M  V30 16 1 16 17
M  V30 17 1 16 18
M  V30 18 2 18 19
M  V30 19 1 19 20
M  V30 20 2 20 21
M  V30 21 1 21 22
M  V30 22 2 10 23
M  V30 23 2 3 24
M  V30 24 1 24 25
M  V30 25 2 25 26
M  V30 26 1 26 27
M  V30 27 2 27 28
M  V30 28 1 28 29
M  V30 29 2 29 30
M  V30 30 1 30 31
M  V30 31 2 31 32
M  V30 32 1 26 2
M  V30 33 1 32 27
M  V30 34 1 23 6
M  V30 35 1 21 15
M  V30 36 1 1 33
M  V30 37 1 1 34
M  V30 38 1 1 35
M  V30 39 1 4 36
M  V30 40 1 4 37
M  V30 41 1 5 38
M  V30 42 1 7 39
M  V30 43 1 8 40
M  V30 44 1 9 41
M  V30 45 1 13 42
M  V30 46 1 14 43
M  V30 47 1 14 44
M  V30 48 1 18 45
M  V30 49 1 19 46
M  V30 50 1 20 47
M  V30 51 1 23 48
M  V30 52 1 28 49
M  V30 53 1 29 50
M  V30 54 1 31 51
M  V30 END BOND
M  V30 END CTAB
M  END
>  <Dataset>  (661) 
ChEMBL_Kinases

>  <Ligand_Instance>  (661) 
nan

>  <PDB_ID>  (661) 
nan

>  <Standardized_SMILES>  (661) 
Cn1c(CNc2cccc(C(=O)NCc3c(F)cccc3F)c2)nnc1-c1ccncn1

>  <Name>  (661) 
nan

>  <Pocket>  (661) 
nan

>  <ATP_Site>  (661) 
nan

>  <Peripheral>  (661) 
nan

>  <Num_H_Atoms_ProtBoundConf>  (661) 
nan

>  <Num_Resolved_Atoms>  (661) 
nan

>  <Num_Not_Resolved_Atoms>  (661) 
nan

$$$$
CHEMBL378420
     RDKit          3D

  0  0  0  0  0  0  0  0  0  0999 V3000
M  V30 BEGIN CTAB
M  V30 COUNTS 60 63 0 0 0
M  V30 BEGIN ATOM
M  V30 1 N 3.062562 -2.436207 4.998235 0
M  V30 2 C 2.201159 -2.436531 3.886085 0
M  V30 3 N 2.662628 -3.097870 2.812149 0
M  V30 4 C 1.699049 -3.011253 1.878226 0
M  V30 5 N 1.477260 -3.452094 0.519302 0
M  V30 6 C 1.832636 -2.554325 -0.518725 0
M  V30 7 C 2.373473 -1.321894 -0.218745 0
M  V30 8 C 2.720455 -0.422341 -1.217125 0
M  V30 9 C 2.515205 -0.779372 -2.539508 0
M  V30 10 S 2.867117 0.201087 -3.952761 0
M  V30 11 O 3.256977 -0.677241 -5.099177 0
M  V30 12 O 4.017282 1.097240 -3.649910 0
M  V30 13 N 1.475549 1.177053 -4.349990 0
M  V30 14 C 0.339083 1.051989 -3.515667 0
M  V30 15 O 0.211293 0.297716 -2.491501 0
M  V30 16 C -1.000815 1.716418 -3.552140 0
M  V30 17 C -1.863430 1.247514 -2.411198 0
M  V30 18 N -2.100537 -0.187731 -2.432604 0
M  V30 19 C -2.922417 -0.597344 -1.302180 0
M  V30 20 C -3.069249 -2.100054 -1.404941 0
M  V30 21 O -3.915731 -2.369671 -2.460618 0
M  V30 22 C -4.091073 -1.318658 -3.332553 0
M  V30 23 C -2.827443 -0.571493 -3.628547 0
M  V30 24 C 1.972680 -2.019919 -2.807546 0
M  V30 25 C 1.618775 -2.934233 -1.827383 0
M  V30 26 N 0.683377 -2.293611 2.428949 0
M  V30 27 N 0.981573 -1.939438 3.650596 0
M  V30 28 C 0.102620 -1.221251 4.469511 0
M  V30 29 O -0.981188 -1.120113 3.789840 0
M  V30 30 C -0.074305 -0.570553 5.730578 0
M  V30 31 C -1.377382 -0.529136 6.208720 0
M  V30 32 F -2.480703 -1.072935 5.585099 0
M  V30 33 C -1.698676 0.089988 7.413835 0
M  V30 34 C -0.643054 0.650048 8.085723 0
M  V30 35 C 0.676350 0.668904 7.707731 0
M  V30 36 C 0.888118 0.032667 6.504600 0
M  V30 37 F 2.176896 0.084642 6.099661 0
M  V30 38 H 3.878909 -1.820160 5.231493 0
M  V30 39 H 3.172811 -2.991177 5.880516 0
M  V30 40 H 1.079123 -4.378041 0.342656 0
M  V30 41 H 2.555629 -0.989850 0.798715 0
M  V30 42 H 3.147891 0.561640 -1.093734 0
M  V30 43 H 1.304065 1.862159 -5.108777 0
M  V30 44 H -0.840864 2.807399 -3.385677 0
M  V30 45 H -1.529147 1.600965 -4.498795 0
M  V30 46 H -2.780033 1.847792 -2.370936 0
M  V30 47 H -1.284059 1.434592 -1.480748 0
M  V30 48 H -2.364253 -0.362481 -0.350215 0
M  V30 49 H -3.886823 -0.075513 -1.272448 0
M  V30 50 H -2.058629 -2.533663 -1.598006 0
M  V30 51 H -3.417507 -2.507847 -0.431934 0
M  V30 52 H -4.440303 -1.730589 -4.323039 0
M  V30 53 H -4.894793 -0.641380 -2.946140 0
M  V30 54 H -3.108862 0.358013 -4.179149 0
M  V30 55 H -2.173369 -1.208409 -4.256194 0
M  V30 56 H 1.783991 -2.368717 -3.821636 0
M  V30 57 H 1.199005 -3.891649 -2.062756 0
M  V30 58 H -2.704255 0.136244 7.808668 0
M  V30 59 H -0.901310 1.132544 9.031684 0
M  V30 60 H 1.453344 1.133164 8.295302 0
M  V30 END ATOM
M  V30 BEGIN BOND
M  V30 1 1 1 2
M  V30 2 2 2 3
M  V30 3 1 3 4
M  V30 4 1 4 5
M  V30 5 1 5 6
M  V30 6 2 6 7
M  V30 7 1 7 8
M  V30 8 2 8 9
M  V30 9 1 9 10
M  V30 10 2 10 11
M  V30 11 2 10 12
M  V30 12 1 10 13
M  V30 13 1 13 14
M  V30 14 2 14 15
M  V30 15 1 14 16
M  V30 16 1 16 17
M  V30 17 1 17 18
M  V30 18 1 18 19
M  V30 19 1 19 20
M  V30 20 1 20 21
M  V30 21 1 21 22
M  V30 22 1 22 23
M  V30 23 1 9 24
M  V30 24 2 24 25
M  V30 25 2 4 26
M  V30 26 1 26 27
M  V30 27 1 27 28
M  V30 28 2 28 29
M  V30 29 1 28 30
M  V30 30 2 30 31
M  V30 31 1 31 32
M  V30 32 1 31 33
M  V30 33 2 33 34
M  V30 34 1 34 35
M  V30 35 2 35 36
M  V30 36 1 36 37
M  V30 37 1 27 2
M  V30 38 1 36 30
M  V30 39 1 25 6
M  V30 40 1 23 18
M  V30 41 1 1 38
M  V30 42 1 1 39
M  V30 43 1 5 40
M  V30 44 1 7 41
M  V30 45 1 8 42
M  V30 46 1 13 43
M  V30 47 1 16 44
M  V30 48 1 16 45
M  V30 49 1 17 46
M  V30 50 1 17 47
M  V30 51 1 19 48
M  V30 52 1 19 49
M  V30 53 1 20 50
M  V30 54 1 20 51
M  V30 55 1 22 52
M  V30 56 1 22 53
M  V30 57 1 23 54
M  V30 58 1 23 55
M  V30 59 1 24 56
M  V30 60 1 25 57
M  V30 61 1 33 58
M  V30 62 1 34 59
M  V30 63 1 35 60
M  V30 END BOND
M  V30 END CTAB
M  END
>  <Dataset>  (662) 
ChEMBL_Kinases

>  <Ligand_Instance>  (662) 
nan

>  <PDB_ID>  (662) 
nan

>  <Standardized_SMILES>  (662) 
Nc1nc(Nc2ccc(S(=O)(=O)NC(=O)CCN3CCOCC3)cc2)nn1C(=O)c1c(F)cccc1F

>  <Name>  (662) 
nan

>  <Pocket>  (662) 
nan

>  <ATP_Site>  (662) 
nan

>  <Peripheral>  (662) 
nan

>  <Num_H_Atoms_ProtBoundConf>  (662) 
nan

>  <Num_Resolved_Atoms>  (662) 
nan

>  <Num_Not_Resolved_Atoms>  (662) 
nan

$$$$
CHEMBL378472
     RDKit          3D

  0  0  0  0  0  0  0  0  0  0999 V3000
M  V30 BEGIN CTAB
M  V30 COUNTS 39 43 0 0 0
M  V30 BEGIN ATOM
M  V30 1 N 2.957749 -2.471255 1.331872 0
M  V30 2 C 2.642072 -2.896498 -0.006625 0
M  V30 3 C 3.498850 -3.870080 -0.478035 0
M  V30 4 C 3.319395 -4.378812 -1.753948 0
M  V30 5 C 2.278661 -3.884401 -2.508821 0
M  V30 6 C 1.420665 -2.911489 -2.040702 0
M  V30 7 C 1.594532 -2.401294 -0.771141 0
M  V30 8 C 0.811438 -1.379397 -0.085588 0
M  V30 9 C 1.191746 -0.059916 -0.223667 0
M  V30 10 C 0.463992 0.921465 0.416817 0
M  V30 11 N 0.619916 2.258031 0.445576 0
M  V30 12 C -0.381972 2.743916 1.234481 0
M  V30 13 C -0.610586 4.085681 1.546587 0
M  V30 14 C -1.676913 4.445802 2.369390 0
M  V30 15 C -2.493557 3.420551 2.859913 0
M  V30 16 O -3.558457 3.767011 3.680200 0
M  V30 17 C -2.197026 2.125176 2.502843 0
M  V30 18 C -1.171583 1.719272 1.705193 0
M  V30 19 C -0.628161 0.585391 1.183899 0
M  V30 20 C -1.010818 -0.710756 1.326212 0
M  V30 21 C -0.295820 -1.698980 0.694374 0
M  V30 22 C -0.823957 -3.033159 0.939589 0
M  V30 23 O -0.395551 -4.132666 0.506565 0
M  V30 24 N -1.954738 -2.778819 1.798437 0
M  V30 25 C -2.064735 -1.385786 2.028808 0
M  V30 26 O -2.986798 -1.031488 2.744895 0
M  V30 27 H 2.559502 -2.771270 2.246740 0
M  V30 28 H 3.681629 -1.749848 1.607725 0
M  V30 29 H 4.324689 -4.281382 0.084365 0
M  V30 30 H 3.961273 -5.134472 -2.157799 0
M  V30 31 H 2.083300 -4.242389 -3.520062 0
M  V30 32 H 0.585925 -2.477406 -2.573775 0
M  V30 33 H 2.056875 0.230773 -0.828674 0
M  V30 34 H 1.376252 2.778203 -0.054800 0
M  V30 35 H 0.020045 4.853218 1.165198 0
M  V30 36 H -1.814617 5.478314 2.581454 0
M  V30 37 H -3.399218 3.821240 4.696805 0
M  V30 38 H -2.867481 1.416479 2.919834 0
M  V30 39 H -2.529553 -3.609767 2.131981 0
M  V30 END ATOM
M  V30 BEGIN BOND
M  V30 1 1 1 2
M  V30 2 2 2 3
M  V30 3 1 3 4
M  V30 4 2 4 5
M  V30 5 1 5 6
M  V30 6 2 6 7
M  V30 7 1 7 8
M  V30 8 2 8 9
M  V30 9 1 9 10
M  V30 10 1 10 11
M  V30 11 1 11 12
M  V30 12 2 12 13
M  V30 13 1 13 14
M  V30 14 2 14 15
M  V30 15 1 15 16
M  V30 16 1 15 17
M  V30 17 2 17 18
M  V30 18 1 18 19
M  V30 19 1 19 20
M  V30 20 2 20 21
M  V30 21 1 21 22
M  V30 22 2 22 23
M  V30 23 1 22 24
M  V30 24 1 24 25
M  V30 25 2 25 26
M  V30 26 1 7 2
M  V30 27 1 21 8
M  V30 28 2 19 10
M  V30 29 1 25 20
M  V30 30 1 18 12
M  V30 31 1 1 27
M  V30 32 1 1 28
M  V30 33 1 3 29
M  V30 34 1 4 30
M  V30 35 1 5 31
M  V30 36 1 6 32
M  V30 37 1 9 33
M  V30 38 1 11 34
M  V30 39 1 13 35
M  V30 40 1 14 36
M  V30 41 1 16 37
M  V30 42 1 17 38
M  V30 43 1 24 39
M  V30 END BOND
M  V30 END CTAB
M  END
>  <Dataset>  (663) 
ChEMBL_Kinases

>  <Ligand_Instance>  (663) 
nan

>  <PDB_ID>  (663) 
nan

>  <Standardized_SMILES>  (663) 
Nc1ccccc1-c1cc2[nH]c3ccc(O)cc3c2c2c1C(=O)NC2=O

>  <Name>  (663) 
nan

>  <Pocket>  (663) 
nan

>  <ATP_Site>  (663) 
nan

>  <Peripheral>  (663) 
nan

>  <Num_H_Atoms_ProtBoundConf>  (663) 
nan

>  <Num_Resolved_Atoms>  (663) 
nan

>  <Num_Not_Resolved_Atoms>  (663) 
nan

$$$$
CHEMBL378499
     RDKit          3D

  0  0  0  0  0  0  0  0  0  0999 V3000
M  V30 BEGIN CTAB
M  V30 COUNTS 37 37 0 0 0
M  V30 BEGIN ATOM
M  V30 1 C -3.013369 -3.983250 2.737801 0
M  V30 2 C -2.286874 -4.442919 1.548958 0
M  V30 3 C -0.825090 -4.578129 1.597168 0
M  V30 4 C 0.024900 -3.418343 1.889268 0
M  V30 5 C -0.089560 -2.296472 0.930512 0
M  V30 6 O -0.877142 -2.437405 -0.037933 0
M  V30 7 N 0.641653 -1.094747 1.062816 0
M  V30 8 C 0.611528 0.034038 0.213624 0
M  V30 9 C -0.110488 0.237438 -0.912166 0
M  V30 10 C -0.095526 1.361938 -1.697164 0
M  V30 11 N -0.889456 1.482542 -2.861290 0
M  V30 12 C 0.734532 2.414639 -1.324255 0
M  V30 13 C 0.775600 3.598798 -2.116518 0
M  V30 14 N 0.820115 4.546291 -2.752483 0
M  V30 15 C 1.471370 2.198629 -0.169310 0
M  V30 16 O 2.297143 3.248613 0.199715 0
M  V30 17 C 3.077410 3.093903 1.369719 0
M  V30 18 C 3.983856 1.896405 1.171771 0
M  V30 19 N 1.398682 1.073545 0.537740 0
M  V30 20 H -2.433418 -3.446723 3.504753 0
M  V30 21 H -3.844145 -3.262464 2.476444 0
M  V30 22 H -3.550368 -4.797886 3.299849 0
M  V30 23 H -2.586717 -3.832742 0.671515 0
M  V30 24 H -2.738030 -5.450324 1.289200 0
M  V30 25 H -0.591187 -5.370342 2.353454 0
M  V30 26 H -0.448591 -5.023945 0.649932 0
M  V30 27 H 1.085082 -3.752601 1.786813 0
M  V30 28 H 0.010085 -3.072021 2.952036 0
M  V30 29 H 1.252928 -1.100477 1.896889 0
M  V30 30 H -0.770267 -0.536715 -1.253413 0
M  V30 31 H -1.904536 1.432128 -3.103058 0
M  V30 32 H -0.268213 1.671533 -3.676757 0
M  V30 33 H 2.385343 2.850567 2.192434 0
M  V30 34 H 3.662498 4.012244 1.597460 0
M  V30 35 H 4.964372 2.064646 1.676819 0
M  V30 36 H 4.177918 1.742493 0.090451 0
M  V30 37 H 3.545610 0.980693 1.650179 0
M  V30 END ATOM
M  V30 BEGIN BOND
M  V30 1 1 1 2
M  V30 2 1 2 3
M  V30 3 1 3 4
M  V30 4 1 4 5
M  V30 5 2 5 6
M  V30 6 1 5 7
M  V30 7 1 7 8
M  V30 8 2 8 9
M  V30 9 1 9 10
M  V30 10 1 10 11
M  V30 11 2 10 12
M  V30 12 1 12 13
M  V30 13 3 13 14
M  V30 14 1 12 15
M  V30 15 1 15 16
M  V30 16 1 16 17
M  V30 17 1 17 18
M  V30 18 2 15 19
M  V30 19 1 19 8
M  V30 20 1 1 20
M  V30 21 1 1 21
M  V30 22 1 1 22
M  V30 23 1 2 23
M  V30 24 1 2 24
M  V30 25 1 3 25
M  V30 26 1 3 26
M  V30 27 1 4 27
M  V30 28 1 4 28
M  V30 29 1 7 29
M  V30 30 1 9 30
M  V30 31 1 11 31
M  V30 32 1 11 32
M  V30 33 1 17 33
M  V30 34 1 17 34
M  V30 35 1 18 35
M  V30 36 1 18 36
M  V30 37 1 18 37
M  V30 END BOND
M  V30 END CTAB
M  END
>  <Dataset>  (664) 
ChEMBL_Kinases

>  <Ligand_Instance>  (664) 
nan

>  <PDB_ID>  (664) 
nan

>  <Standardized_SMILES>  (664) 
CCCCC(=O)Nc1cc(N)c(C#N)c(OCC)n1

>  <Name>  (664) 
nan

>  <Pocket>  (664) 
nan

>  <ATP_Site>  (664) 
nan

>  <Peripheral>  (664) 
nan

>  <Num_H_Atoms_ProtBoundConf>  (664) 
nan

>  <Num_Resolved_Atoms>  (664) 
nan

>  <Num_Not_Resolved_Atoms>  (664) 
nan

$$$$
CHEMBL3786167
     RDKit          3D

  0  0  0  0  0  0  0  0  0  0999 V3000
M  V30 BEGIN CTAB
M  V30 COUNTS 70 75 0 0 0
M  V30 BEGIN ATOM
M  V30 1 C 3.719810 -1.751008 4.063799 0
M  V30 2 C 3.551876 -2.405062 2.743667 0
M  V30 3 O 2.701722 -3.344057 2.724629 0
M  V30 4 N 4.260358 -2.045471 1.572930 0
M  V30 5 C 5.241386 -1.024583 1.419438 0
M  V30 6 C 5.482857 -0.603447 0.013376 0
M  V30 7 N 4.361512 -0.681338 -0.834721 0
M  V30 8 C 3.892929 0.486318 -1.442151 0 CFG=1
M  V30 9 C 2.691459 0.412823 -2.359616 0
M  V30 10 C 2.317677 1.793950 -1.844485 0 CFG=1
M  V30 11 N 0.903327 1.971482 -1.603005 0
M  V30 12 C 0.197041 1.191784 -0.764892 0
M  V30 13 C -1.129158 1.640039 -0.771874 0
M  V30 14 C -2.138122 0.982225 0.048390 0
M  V30 15 C -2.250599 1.532490 1.311147 0
M  V30 16 C -3.167113 1.011157 2.199147 0
M  V30 17 C -3.949317 -0.047424 1.804426 0
M  V30 18 C -3.881956 -0.635987 0.563775 0
M  V30 19 O -4.502116 -1.658702 -0.095566 0
M  V30 20 C -5.495836 -2.472428 0.442172 0
M  V30 21 C -5.120154 -3.307791 1.614535 0 CFG=2
M  V30 22 C -4.209319 -4.447783 1.117708 0
M  V30 23 C -4.314887 -5.437638 2.248423 0
M  V30 24 C -5.638049 -5.060510 2.874372 0
M  V30 25 O -6.203548 -4.075533 2.066542 0
M  V30 26 C -2.948204 -0.097033 -0.327266 0
M  V30 27 F -2.652185 -0.454184 -1.601520 0
M  V30 28 C -1.237736 2.696417 -1.615384 0
M  V30 29 C -2.284868 3.484469 -1.979892 0
M  V30 30 N -3.569003 3.229190 -1.417116 0
M  V30 31 N -2.041176 4.472338 -2.863678 0
M  V30 32 C -0.810586 4.671292 -3.365437 0
M  V30 33 N 0.239236 3.879810 -2.998619 0
M  V30 34 C 0.037196 2.868807 -2.107272 0
M  V30 35 C 3.130389 1.474862 -0.606852 0
M  V30 36 C 3.540518 -1.821697 -0.756462 0
M  V30 37 C 4.027642 -2.735793 0.342852 0
M  V30 38 H 2.839024 -1.059081 4.197333 0
M  V30 39 H 3.648267 -2.488414 4.891474 0
M  V30 40 H 4.635082 -1.153191 4.129684 0
M  V30 41 H 4.978105 -0.128608 2.045612 0
M  V30 42 H 6.186119 -1.423573 1.890344 0
M  V30 43 H 5.890933 0.434854 -0.065516 0
M  V30 44 H 6.270745 -1.293828 -0.397097 0
M  V30 45 H 4.708187 1.047232 -1.982298 0
M  V30 46 H 2.941667 0.390104 -3.441359 0
M  V30 47 H 1.920050 -0.303754 -2.041999 0
M  V30 48 H 2.780944 2.559943 -2.497707 0
M  V30 49 H 0.605365 0.351314 -0.182199 0
M  V30 50 H -1.667804 2.359226 1.677602 0
M  V30 51 H -3.358950 1.341654 3.210685 0
M  V30 52 H -4.702149 -0.518002 2.414127 0
M  V30 53 H -6.400679 -1.839471 0.652865 0
M  V30 54 H -5.875955 -3.197495 -0.343063 0
M  V30 55 H -4.619101 -2.820463 2.437613 0
M  V30 56 H -4.668744 -4.823676 0.185903 0
M  V30 57 H -3.193653 -4.082216 0.919001 0
M  V30 58 H -4.329852 -6.481396 1.842687 0
M  V30 59 H -3.445313 -5.271508 2.911550 0
M  V30 60 H -6.295093 -5.937699 2.897365 0
M  V30 61 H -5.415129 -4.686598 3.887419 0
M  V30 62 H -3.523485 3.913216 -0.620617 0
M  V30 63 H -4.198820 2.516992 -1.851276 0
M  V30 64 H -0.730153 5.490912 -4.065791 0
M  V30 65 H 2.480786 1.060191 0.184285 0
M  V30 66 H 3.707630 2.379454 -0.303362 0
M  V30 67 H 3.539546 -2.374176 -1.715830 0
M  V30 68 H 2.499641 -1.517282 -0.518122 0
M  V30 69 H 4.991373 -3.177705 0.004675 0
M  V30 70 H 3.330186 -3.593264 0.448999 0
M  V30 END ATOM
M  V30 BEGIN BOND
M  V30 1 1 1 2
M  V30 2 2 2 3
M  V30 3 1 2 4
M  V30 4 1 4 5
M  V30 5 1 5 6
M  V30 6 1 6 7
M  V30 7 1 7 8
M  V30 8 1 8 9
M  V30 9 1 9 10
M  V30 10 1 10 11
M  V30 11 1 11 12
M  V30 12 2 12 13
M  V30 13 1 13 14
M  V30 14 2 14 15
M  V30 15 1 15 16
M  V30 16 2 16 17
M  V30 17 1 17 18
M  V30 18 1 18 19
M  V30 19 1 19 20
M  V30 20 1 20 21
M  V30 21 1 21 22
M  V30 22 1 22 23
M  V30 23 1 23 24
M  V30 24 1 24 25
M  V30 25 2 18 26
M  V30 26 1 26 27
M  V30 27 1 13 28
M  V30 28 2 28 29
M  V30 29 1 29 30
M  V30 30 1 29 31
M  V30 31 2 31 32
M  V30 32 1 32 33
M  V30 33 2 33 34
M  V30 34 1 10 35
M  V30 35 1 7 36
M  V30 36 1 36 37
M  V30 37 1 37 4
M  V30 38 1 35 8
M  V30 39 1 34 11
M  V30 40 1 26 14
M  V30 41 1 34 28
M  V30 42 1 25 21
M  V30 43 1 1 38
M  V30 44 1 1 39
M  V30 45 1 1 40
M  V30 46 1 5 41
M  V30 47 1 5 42
M  V30 48 1 6 43
M  V30 49 1 6 44
M  V30 50 1 8 45 CFG=3
M  V30 51 1 9 46
M  V30 52 1 9 47
M  V30 53 1 10 48 CFG=3
M  V30 54 1 12 49
M  V30 55 1 15 50
M  V30 56 1 16 51
M  V30 57 1 17 52
M  V30 58 1 20 53
M  V30 59 1 20 54
M  V30 60 1 21 55 CFG=1
M  V30 61 1 22 56
M  V30 62 1 22 57
M  V30 63 1 23 58
M  V30 64 1 23 59
M  V30 65 1 24 60
M  V30 66 1 24 61
M  V30 67 1 30 62
M  V30 68 1 30 63
M  V30 69 1 32 64
M  V30 70 1 35 65
M  V30 71 1 35 66
M  V30 72 1 36 67
M  V30 73 1 36 68
M  V30 74 1 37 69
M  V30 75 1 37 70
M  V30 END BOND
M  V30 END CTAB
M  END
>  <Dataset>  (665) 
ChEMBL_Kinases

>  <Ligand_Instance>  (665) 
nan

>  <PDB_ID>  (665) 
nan

>  <Standardized_SMILES>  (665) 
CC(=O)N1CCN([C@H]2C[C@@H](n3cc(-c4cccc(OC[C@@H]5CCCO5)c4F)c4c(N)ncnc43)C2)CC1

>  <Name>  (665) 
nan

>  <Pocket>  (665) 
nan

>  <ATP_Site>  (665) 
nan

>  <Peripheral>  (665) 
nan

>  <Num_H_Atoms_ProtBoundConf>  (665) 
nan

>  <Num_Resolved_Atoms>  (665) 
nan

>  <Num_Not_Resolved_Atoms>  (665) 
nan

$$$$
CHEMBL3393446
     RDKit          3D

  0  0  0  0  0  0  0  0  0  0999 V3000
M  V30 BEGIN CTAB
M  V30 COUNTS 42 45 0 0 0
M  V30 BEGIN ATOM
M  V30 1 N -2.135618 -3.700001 2.658266 0
M  V30 2 C -1.041496 -3.905157 2.316513 0
M  V30 3 C 0.340652 -4.141316 1.896926 0
M  V30 4 C 0.617803 -3.413707 0.597414 0
M  V30 5 C 0.421182 -1.921644 0.728798 0
M  V30 6 N 1.418620 -1.183971 -0.054153 0
M  V30 7 C 1.085598 -0.338757 -1.147354 0
M  V30 8 N 1.502858 -0.881198 -2.331758 0
M  V30 9 C 1.234711 -0.227019 -3.501017 0
M  V30 10 N 0.571521 0.941344 -3.552508 0
M  V30 11 C 0.158778 1.483614 -2.407243 0
M  V30 12 N -0.515718 2.603426 -2.028803 0
M  V30 13 C -0.670333 2.664753 -0.681197 0
M  V30 14 C -0.066923 1.526118 -0.132674 0
M  V30 15 C -0.018128 1.302496 1.302997 0
M  V30 16 C 1.057718 1.054537 2.140578 0
M  V30 17 C 0.838611 0.868960 3.489054 0
M  V30 18 C -0.414410 0.917380 4.061086 0
M  V30 19 C -1.495356 1.163414 3.240381 0
M  V30 20 C -2.791119 1.211386 3.845980 0
M  V30 21 N -3.846670 1.239820 4.321625 0
M  V30 22 C -1.289669 1.350649 1.890262 0
M  V30 23 C 0.409772 0.856309 -1.208908 0
M  V30 24 C 2.693630 -1.553425 0.558379 0
M  V30 25 C 2.904748 -3.003090 0.305085 0
M  V30 26 O 1.819923 -3.767226 0.044116 0
M  V30 27 H 0.989223 -3.812947 2.733885 0
M  V30 28 H 0.438114 -5.224233 1.687524 0
M  V30 29 H -0.159108 -3.772847 -0.111592 0
M  V30 30 H 0.501595 -1.734719 1.816949 0
M  V30 31 H -0.617742 -1.652689 0.453612 0
M  V30 32 H 1.557534 -0.642175 -4.446133 0
M  V30 33 H -0.850811 3.301790 -2.757508 0
M  V30 34 H -1.172101 3.458440 -0.148311 0
M  V30 35 H 1.983725 1.038293 1.608845 0
M  V30 36 H 1.774348 0.682986 4.025740 0
M  V30 37 H -0.470306 0.757289 5.130486 0
M  V30 38 H -2.222649 1.539105 1.335769 0
M  V30 39 H 2.721033 -1.275109 1.630802 0
M  V30 40 H 3.534212 -0.988060 0.104144 0
M  V30 41 H 3.452007 -3.491899 1.164808 0
M  V30 42 H 3.615132 -3.123461 -0.549150 0
M  V30 END ATOM
M  V30 BEGIN BOND
M  V30 1 3 1 2
M  V30 2 1 2 3
M  V30 3 1 3 4
M  V30 4 1 4 5
M  V30 5 1 5 6
M  V30 6 1 6 7
M  V30 7 2 7 8
M  V30 8 1 8 9
M  V30 9 2 9 10
M  V30 10 1 10 11
M  V30 11 1 11 12
M  V30 12 1 12 13
M  V30 13 2 13 14
M  V30 14 1 14 15
M  V30 15 2 15 16
M  V30 16 1 16 17
M  V30 17 2 17 18
M  V30 18 1 18 19
M  V30 19 1 19 20
M  V30 20 3 20 21
M  V30 21 2 19 22
M  V30 22 1 14 23
M  V30 23 1 6 24
M  V30 24 1 24 25
M  V30 25 1 25 26
M  V30 26 1 26 4
M  V30 27 1 23 7
M  V30 28 2 23 11
M  V30 29 1 22 15
M  V30 30 1 3 27
M  V30 31 1 3 28
M  V30 32 1 4 29
M  V30 33 1 5 30
M  V30 34 1 5 31
M  V30 35 1 9 32
M  V30 36 1 12 33
M  V30 37 1 13 34
M  V30 38 1 16 35
M  V30 39 1 17 36
M  V30 40 1 18 37
M  V30 41 1 22 38
M  V30 42 1 24 39
M  V30 43 1 24 40
M  V30 44 1 25 41
M  V30 45 1 25 42
M  V30 END BOND
M  V30 END CTAB
M  END
>  <Dataset>  (666) 
ChEMBL_Kinases

>  <Ligand_Instance>  (666) 
nan

>  <PDB_ID>  (666) 
nan

>  <Standardized_SMILES>  (666) 
N#CCC1CN(c2ncnc3[nH]cc(-c4cccc(C#N)c4)c23)CCO1

>  <Name>  (666) 
nan

>  <Pocket>  (666) 
nan

>  <ATP_Site>  (666) 
nan

>  <Peripheral>  (666) 
nan

>  <Num_H_Atoms_ProtBoundConf>  (666) 
nan

>  <Num_Resolved_Atoms>  (666) 
nan

>  <Num_Not_Resolved_Atoms>  (666) 
nan

$$$$
CHEMBL3393447
     RDKit          3D

  0  0  0  0  0  0  0  0  0  0999 V3000
M  V30 BEGIN CTAB
M  V30 COUNTS 44 48 0 0 0
M  V30 BEGIN ATOM
M  V30 1 N 6.232444 -1.655467 2.086319 0
M  V30 2 C 5.224314 -1.669290 1.522687 0
M  V30 3 C 3.966848 -1.693402 0.833541 0
M  V30 4 C 3.243430 -2.866518 0.873519 0
M  V30 5 C 2.034591 -2.896858 0.213669 0
M  V30 6 C 1.533507 -1.816967 -0.471179 0
M  V30 7 C 2.247208 -0.619240 -0.525688 0
M  V30 8 C 1.928788 0.630112 -1.168386 0
M  V30 9 C 2.808884 1.225404 -2.073327 0
M  V30 10 N 2.224274 2.360823 -2.544358 0
M  V30 11 C 0.994793 2.541709 -1.988450 0
M  V30 12 N -0.001451 3.434876 -2.063194 0
M  V30 13 C -1.121359 3.241875 -1.305981 0
M  V30 14 N -1.264814 2.169394 -0.471727 0
M  V30 15 C -0.266329 1.261980 -0.387805 0
M  V30 16 N -0.607943 0.264711 0.564028 0
M  V30 17 C 0.128837 0.192569 1.838407 0
M  V30 18 C -0.876856 0.651524 2.869040 0
M  V30 19 O -2.174118 0.384890 2.611500 0
M  V30 20 C -2.521851 -0.622456 1.775677 0
M  V30 21 C -2.794486 -1.933115 2.443601 0
M  V30 22 C -2.045067 -2.530152 3.424076 0
M  V30 23 C -2.637517 -3.730440 3.770427 0
M  V30 24 N -3.720015 -3.811053 2.986577 0
M  V30 25 O -3.799216 -2.781886 2.235091 0
M  V30 26 C -1.638504 -0.788532 0.548803 0
M  V30 27 C 0.840840 1.469079 -1.150389 0
M  V30 28 C 3.473343 -0.604226 0.149468 0
M  V30 29 H 3.608408 -3.735738 1.403469 0
M  V30 30 H 1.415198 -3.776490 0.200910 0
M  V30 31 H 0.603874 -1.751207 -1.014691 0
M  V30 32 H 3.786978 0.872946 -2.368837 0
M  V30 33 H 2.610752 3.053217 -3.244137 0
M  V30 34 H -1.872496 4.017251 -1.434787 0
M  V30 35 H 0.445093 -0.835940 1.973857 0
M  V30 36 H 0.996866 0.864957 1.819989 0
M  V30 37 H -0.610866 0.286996 3.893013 0
M  V30 38 H -0.757193 1.768196 2.930740 0
M  V30 39 H -3.525855 -0.321368 1.354810 0
M  V30 40 H -1.136691 -2.175737 3.889534 0
M  V30 41 H -2.388354 -4.504943 4.482689 0
M  V30 42 H -1.149597 -1.782467 0.609042 0
M  V30 43 H -2.169089 -0.725377 -0.399626 0
M  V30 44 H 4.128282 0.265538 0.185666 0
M  V30 END ATOM
M  V30 BEGIN BOND
M  V30 1 3 1 2
M  V30 2 1 2 3
M  V30 3 2 3 4
M  V30 4 1 4 5
M  V30 5 2 5 6
M  V30 6 1 6 7
M  V30 7 1 7 8
M  V30 8 2 8 9
M  V30 9 1 9 10
M  V30 10 1 10 11
M  V30 11 2 11 12
M  V30 12 1 12 13
M  V30 13 2 13 14
M  V30 14 1 14 15
M  V30 15 1 15 16
M  V30 16 1 16 17
M  V30 17 1 17 18
M  V30 18 1 18 19
M  V30 19 1 19 20
M  V30 20 1 20 21
M  V30 21 2 21 22
M  V30 22 1 22 23
M  V30 23 2 23 24
M  V30 24 1 24 25
M  V30 25 1 20 26
M  V30 26 2 15 27
M  V30 27 2 7 28
M  V30 28 1 28 3
M  V30 29 1 27 8
M  V30 30 1 27 11
M  V30 31 1 26 16
M  V30 32 1 25 21
M  V30 33 1 4 29
M  V30 34 1 5 30
M  V30 35 1 6 31
M  V30 36 1 9 32
M  V30 37 1 10 33
M  V30 38 1 13 34
M  V30 39 1 17 35
M  V30 40 1 17 36
M  V30 41 1 18 37
M  V30 42 1 18 38
M  V30 43 1 20 39
M  V30 44 1 22 40
M  V30 45 1 23 41
M  V30 46 1 26 42
M  V30 47 1 26 43
M  V30 48 1 28 44
M  V30 END BOND
M  V30 END CTAB
M  END
>  <Dataset>  (667) 
ChEMBL_Kinases

>  <Ligand_Instance>  (667) 
nan

>  <PDB_ID>  (667) 
nan

>  <Standardized_SMILES>  (667) 
N#Cc1cccc(-c2c[nH]c3ncnc(N4CCOC(c5ccno5)C4)c23)c1

>  <Name>  (667) 
nan

>  <Pocket>  (667) 
nan

>  <ATP_Site>  (667) 
nan

>  <Peripheral>  (667) 
nan

>  <Num_H_Atoms_ProtBoundConf>  (667) 
nan

>  <Num_Resolved_Atoms>  (667) 
nan

>  <Num_Not_Resolved_Atoms>  (667) 
nan

$$$$
CHEMBL3393448
     RDKit          3D

  0  0  0  0  0  0  0  0  0  0999 V3000
M  V30 BEGIN CTAB
M  V30 COUNTS 46 50 0 0 0
M  V30 BEGIN ATOM
M  V30 1 C -0.701671 -5.265506 3.818940 0
M  V30 2 C -0.183127 -4.798990 2.502748 0
M  V30 3 N 0.691742 -5.305547 1.597979 0
M  V30 4 O 0.790409 -4.477761 0.595863 0
M  V30 5 C 0.007995 -3.427370 0.797417 0
M  V30 6 C -0.109251 -2.301558 -0.157372 0
M  V30 7 C 1.053837 -1.363042 -0.106528 0
M  V30 8 N 0.746533 -0.265955 -1.015800 0
M  V30 9 C 1.393968 0.992712 -1.143846 0
M  V30 10 N 2.024371 1.092360 -2.355971 0
M  V30 11 C 2.736728 2.205668 -2.693470 0
M  V30 12 N 2.861219 3.260080 -1.865549 0
M  V30 13 C 2.253195 3.191955 -0.668618 0
M  V30 14 N 2.142114 3.998286 0.401829 0
M  V30 15 C 1.390540 3.421963 1.376085 0
M  V30 16 C 0.978494 2.160643 0.926978 0
M  V30 17 C 0.131496 1.320151 1.747250 0
M  V30 18 C 0.658591 1.106270 3.029970 0
M  V30 19 C 0.029190 0.356218 3.998873 0
M  V30 20 C -1.185997 -0.224527 3.712330 0
M  V30 21 C -1.726700 -0.030479 2.459976 0
M  V30 22 C -2.983870 -0.598039 2.080925 0
M  V30 23 N -3.997095 -1.069067 1.788855 0
M  V30 24 C -1.083660 0.722777 1.502898 0
M  V30 25 C 1.531174 2.078004 -0.312843 0
M  V30 26 C -0.326354 -0.377266 -1.978240 0
M  V30 27 C -0.922651 -1.726897 -2.139948 0
M  V30 28 O -0.238163 -2.734498 -1.473306 0
M  V30 29 N -0.602307 -3.626944 1.990993 0
M  V30 30 H -0.529165 -4.495278 4.608596 0
M  V30 31 H -1.806026 -5.367316 3.695053 0
M  V30 32 H -0.216632 -6.212536 4.085546 0
M  V30 33 H -1.035394 -1.748617 0.080746 0
M  V30 34 H 1.365715 -1.070247 0.888526 0
M  V30 35 H 1.911459 -1.909220 -0.606403 0
M  V30 36 H 3.230498 2.269634 -3.657401 0
M  V30 37 H 2.580730 4.954025 0.476933 0
M  V30 38 H 1.161625 3.877065 2.328836 0
M  V30 39 H 1.611526 1.515714 3.368973 0
M  V30 40 H 0.437787 0.193564 4.985389 0
M  V30 41 H -1.774523 -0.831992 4.384556 0
M  V30 42 H -1.442102 0.919673 0.518709 0
M  V30 43 H 0.075374 -0.062483 -2.988728 0
M  V30 44 H -1.091110 0.382800 -1.747583 0
M  V30 45 H -1.961765 -1.747782 -1.747184 0
M  V30 46 H -0.990452 -2.027115 -3.205081 0
M  V30 END ATOM
M  V30 BEGIN BOND
M  V30 1 1 1 2
M  V30 2 2 2 3
M  V30 3 1 3 4
M  V30 4 1 4 5
M  V30 5 1 5 6
M  V30 6 1 6 7
M  V30 7 1 7 8
M  V30 8 1 8 9
M  V30 9 2 9 10
M  V30 10 1 10 11
M  V30 11 2 11 12
M  V30 12 1 12 13
M  V30 13 1 13 14
M  V30 14 1 14 15
M  V30 15 2 15 16
M  V30 16 1 16 17
M  V30 17 2 17 18
M  V30 18 1 18 19
M  V30 19 2 19 20
M  V30 20 1 20 21
M  V30 21 1 21 22
M  V30 22 3 22 23
M  V30 23 2 21 24
M  V30 24 1 16 25
M  V30 25 1 8 26
M  V30 26 1 26 27
M  V30 27 1 27 28
M  V30 28 2 5 29
M  V30 29 1 29 2
M  V30 30 1 28 6
M  V30 31 1 25 9
M  V30 32 2 25 13
M  V30 33 1 24 17
M  V30 34 1 1 30
M  V30 35 1 1 31
M  V30 36 1 1 32
M  V30 37 1 6 33
M  V30 38 1 7 34
M  V30 39 1 7 35
M  V30 40 1 11 36
M  V30 41 1 14 37
M  V30 42 1 15 38
M  V30 43 1 18 39
M  V30 44 1 19 40
M  V30 45 1 20 41
M  V30 46 1 24 42
M  V30 47 1 26 43
M  V30 48 1 26 44
M  V30 49 1 27 45
M  V30 50 1 27 46
M  V30 END BOND
M  V30 END CTAB
M  END
>  <Dataset>  (668) 
ChEMBL_Kinases

>  <Ligand_Instance>  (668) 
nan

>  <PDB_ID>  (668) 
nan

>  <Standardized_SMILES>  (668) 
Cc1noc(C2CN(c3ncnc4[nH]cc(-c5cccc(C#N)c5)c34)CCO2)n1

>  <Name>  (668) 
nan

>  <Pocket>  (668) 
nan

>  <ATP_Site>  (668) 
nan

>  <Peripheral>  (668) 
nan

>  <Num_H_Atoms_ProtBoundConf>  (668) 
nan

>  <Num_Resolved_Atoms>  (668) 
nan

>  <Num_Not_Resolved_Atoms>  (668) 
nan

$$$$
CHEMBL3393449
     RDKit          3D

  0  0  0  0  0  0  0  0  0  0999 V3000
M  V30 BEGIN CTAB
M  V30 COUNTS 46 50 0 0 0
M  V30 BEGIN ATOM
M  V30 1 C -1.507329 -5.508878 3.641529 0
M  V30 2 C -0.603856 -5.002969 2.549646 0
M  V30 3 N -0.966467 -4.027568 1.697808 0
M  V30 4 C 0.079793 -3.824149 0.851936 0
M  V30 5 C 0.045659 -2.813651 -0.233798 0 CFG=2
M  V30 6 C 0.342302 -1.422357 0.298850 0
M  V30 7 N 0.201848 -0.423652 -0.753682 0
M  V30 8 C 0.991667 0.552148 -1.413391 0
M  V30 9 N 1.146056 0.193121 -2.723933 0
M  V30 10 C 1.901759 0.974995 -3.547834 0
M  V30 11 N 2.496333 2.087390 -3.101133 0
M  V30 12 C 2.372697 2.473834 -1.835608 0
M  V30 13 N 2.788648 3.470521 -1.031404 0
M  V30 14 C 2.324526 3.334617 0.232112 0
M  V30 15 C 1.545488 2.169300 0.276773 0
M  V30 16 C 0.876481 1.766226 1.480539 0
M  V30 17 C 1.732983 1.650067 2.582722 0
M  V30 18 C 1.288400 1.294887 3.856396 0
M  V30 19 C -0.053596 1.044989 4.048172 0
M  V30 20 C -0.915279 1.152659 2.980727 0
M  V30 21 C -2.345921 0.910097 3.079036 0
M  V30 22 N -3.469284 0.705038 3.156122 0
M  V30 23 C -0.452153 1.505084 1.732211 0
M  V30 24 C 1.614020 1.698886 -0.989301 0
M  V30 25 C -1.172166 -0.509667 -1.244168 0
M  V30 26 C -1.916491 -1.701342 -0.709726 0
M  V30 27 O -1.147159 -2.835480 -0.950712 0
M  V30 28 N 1.023151 -4.700719 1.249719 0
M  V30 29 O 0.604155 -5.396439 2.260928 0
M  V30 30 H -1.334713 -6.600741 3.739385 0
M  V30 31 H -2.553294 -5.282207 3.430637 0
M  V30 32 H -1.192713 -5.068173 4.632007 0
M  V30 33 H 0.849636 -3.076003 -0.949193 0
M  V30 34 H -0.370073 -1.281915 1.134184 0
M  V30 35 H 1.359317 -1.382526 0.731741 0
M  V30 36 H 2.075376 0.768174 -4.588519 0
M  V30 37 H 3.401233 4.255723 -1.358051 0
M  V30 38 H 2.529892 4.016208 1.049899 0
M  V30 39 H 2.817059 1.829516 2.527906 0
M  V30 40 H 1.970128 1.212759 4.686394 0
M  V30 41 H -0.453146 0.764730 5.020552 0
M  V30 42 H -1.070537 1.609561 0.854390 0
M  V30 43 H -1.747896 0.416969 -1.096245 0
M  V30 44 H -1.146632 -0.640344 -2.368807 0
M  V30 45 H -2.242178 -1.582152 0.329430 0
M  V30 46 H -2.829430 -1.823037 -1.328347 0
M  V30 END ATOM
M  V30 BEGIN BOND
M  V30 1 1 1 2
M  V30 2 2 2 3
M  V30 3 1 3 4
M  V30 4 1 4 5
M  V30 5 1 5 6
M  V30 6 1 6 7
M  V30 7 1 7 8
M  V30 8 2 8 9
M  V30 9 1 9 10
M  V30 10 2 10 11
M  V30 11 1 11 12
M  V30 12 1 12 13
M  V30 13 1 13 14
M  V30 14 2 14 15
M  V30 15 1 15 16
M  V30 16 2 16 17
M  V30 17 1 17 18
M  V30 18 2 18 19
M  V30 19 1 19 20
M  V30 20 1 20 21
M  V30 21 3 21 22
M  V30 22 2 20 23
M  V30 23 1 15 24
M  V30 24 1 7 25
M  V30 25 1 25 26
M  V30 26 1 26 27
M  V30 27 2 4 28
M  V30 28 1 28 29
M  V30 29 1 29 2
M  V30 30 1 27 5
M  V30 31 1 24 8
M  V30 32 2 24 12
M  V30 33 1 23 16
M  V30 34 1 1 30
M  V30 35 1 1 31
M  V30 36 1 1 32
M  V30 37 1 5 33 CFG=3
M  V30 38 1 6 34
M  V30 39 1 6 35
M  V30 40 1 10 36
M  V30 41 1 13 37
M  V30 42 1 14 38
M  V30 43 1 17 39
M  V30 44 1 18 40
M  V30 45 1 19 41
M  V30 46 1 23 42
M  V30 47 1 25 43
M  V30 48 1 25 44
M  V30 49 1 26 45
M  V30 50 1 26 46
M  V30 END BOND
M  V30 END CTAB
M  END
>  <Dataset>  (669) 
ChEMBL_Kinases

>  <Ligand_Instance>  (669) 
nan

>  <PDB_ID>  (669) 
nan

>  <Standardized_SMILES>  (669) 
Cc1nc([C@@H]2CN(c3ncnc4[nH]cc(-c5cccc(C#N)c5)c34)CCO2)no1

>  <Name>  (669) 
nan

>  <Pocket>  (669) 
nan

>  <ATP_Site>  (669) 
nan

>  <Peripheral>  (669) 
nan

>  <Num_H_Atoms_ProtBoundConf>  (669) 
nan

>  <Num_Resolved_Atoms>  (669) 
nan

>  <Num_Not_Resolved_Atoms>  (669) 
nan

$$$$
CHEMBL4104122
     RDKit          3D

  0  0  0  0  0  0  0  0  0  0999 V3000
M  V30 BEGIN CTAB
M  V30 COUNTS 37 40 0 0 0
M  V30 BEGIN ATOM
M  V30 1 C -2.148935 -2.206496 2.954763 0
M  V30 2 C -1.354460 -3.179256 2.114071 0
M  V30 3 N -0.008849 -3.387952 2.591925 0
M  V30 4 N 0.350640 -4.367469 3.411196 0
M  V30 5 N 1.638429 -4.369008 3.685112 0
M  V30 6 C 2.180760 -3.354462 3.030963 0
M  V30 7 C 3.490679 -2.933297 2.988172 0
M  V30 8 N 3.779908 -1.856957 2.234792 0
M  V30 9 C 2.796983 -1.237914 1.560245 0
M  V30 10 C 3.137785 -0.140411 0.813507 0
M  V30 11 C 2.144846 0.519104 0.118550 0
M  V30 12 C 0.810151 0.095991 0.159293 0
M  V30 13 C -0.132026 0.889634 -0.624652 0
M  V30 14 C -1.455368 1.007219 -0.182908 0
M  V30 15 C -2.275759 1.772529 -0.981553 0
M  V30 16 N -1.882224 2.384489 -2.115171 0
M  V30 17 C -0.594176 2.276987 -2.556106 0
M  V30 18 C -0.171198 2.957805 -3.810903 0
M  V30 19 C 0.267989 1.517206 -1.785524 0
M  V30 20 C 0.506730 -1.013522 0.922417 0
M  V30 21 C 1.490650 -1.672856 1.614148 0
M  V30 22 C 1.138678 -2.752581 2.354820 0
M  V30 23 H -3.054082 -1.952646 2.378045 0
M  V30 24 H -2.444258 -2.649435 3.902899 0
M  V30 25 H -1.589263 -1.256618 3.069079 0
M  V30 26 H -1.878742 -4.183868 2.353294 0
M  V30 27 H -1.498133 -3.125212 1.042123 0
M  V30 28 H 4.282612 -3.441903 3.540000 0
M  V30 29 H 4.158646 0.192199 0.775917 0
M  V30 30 H 2.446043 1.367952 -0.452044 0
M  V30 31 H -1.802123 0.527854 0.724140 0
M  V30 32 H -3.300876 1.898697 -0.693165 0
M  V30 33 H -0.419034 2.379023 -4.721836 0
M  V30 34 H 0.913773 3.154915 -3.787719 0
M  V30 35 H -0.674112 3.942752 -3.895310 0
M  V30 36 H 1.283463 1.446237 -2.154950 0
M  V30 37 H -0.537500 -1.205151 0.865342 0
M  V30 END ATOM
M  V30 BEGIN BOND
M  V30 1 1 1 2
M  V30 2 1 2 3
M  V30 3 1 3 4
M  V30 4 2 4 5
M  V30 5 1 5 6
M  V30 6 2 6 7
M  V30 7 1 7 8
M  V30 8 2 8 9
M  V30 9 1 9 10
M  V30 10 2 10 11
M  V30 11 1 11 12
M  V30 12 1 12 13
M  V30 13 2 13 14
M  V30 14 1 14 15
M  V30 15 2 15 16
M  V30 16 1 16 17
M  V30 17 1 17 18
M  V30 18 2 17 19
M  V30 19 2 12 20
M  V30 20 1 20 21
M  V30 21 2 21 22
M  V30 22 1 22 3
M  V30 23 1 22 6
M  V30 24 1 21 9
M  V30 25 1 19 13
M  V30 26 1 1 23
M  V30 27 1 1 24
M  V30 28 1 1 25
M  V30 29 1 2 26
M  V30 30 1 2 27
M  V30 31 1 7 28
M  V30 32 1 10 29
M  V30 33 1 11 30
M  V30 34 1 14 31
M  V30 35 1 15 32
M  V30 36 1 18 33
M  V30 37 1 18 34
M  V30 38 1 18 35
M  V30 39 1 19 36
M  V30 40 1 20 37
M  V30 END BOND
M  V30 END CTAB
M  END
>  <Dataset>  (670) 
ChEMBL_Kinases

>  <Ligand_Instance>  (670) 
nan

>  <PDB_ID>  (670) 
nan

>  <Standardized_SMILES>  (670) 
CCn1nnc2cnc3ccc(-c4ccnc(C)c4)cc3c21

>  <Name>  (670) 
nan

>  <Pocket>  (670) 
nan

>  <ATP_Site>  (670) 
nan

>  <Peripheral>  (670) 
nan

>  <Num_H_Atoms_ProtBoundConf>  (670) 
nan

>  <Num_Resolved_Atoms>  (670) 
nan

>  <Num_Not_Resolved_Atoms>  (670) 
nan

$$$$
CHEMBL3781430
     RDKit          3D

  0  0  0  0  0  0  0  0  0  0999 V3000
M  V30 BEGIN CTAB
M  V30 COUNTS 79 83 0 0 0
M  V30 BEGIN ATOM
M  V30 1 C 8.413516 -7.605884 4.069093 0
M  V30 2 C 7.573250 -7.105805 2.946916 0
M  V30 3 O 7.478903 -7.875256 1.955442 0
M  V30 4 N 6.941120 -5.844546 3.031428 0
M  V30 5 C 6.137254 -5.376415 1.948974 0
M  V30 6 C 5.495157 -4.163073 1.970814 0
M  V30 7 C 4.716086 -3.706281 0.928718 0
M  V30 8 C 4.018022 -2.364005 0.972416 0
M  V30 9 C 4.864667 -1.281220 0.419745 0
M  V30 10 O 4.228012 -0.054784 0.461507 0
M  V30 11 C 3.114052 0.314297 -0.194923 0
M  V30 12 C 2.245374 -0.253058 -1.083819 0
M  V30 13 C 1.139738 0.347862 -1.634616 0
M  V30 14 C 0.859782 1.639560 -1.275118 0
M  V30 15 N -0.316984 2.171136 -1.909708 0
M  V30 16 C -1.581521 1.993838 -1.239483 0
M  V30 17 O -1.447313 1.369061 -0.134601 0
M  V30 18 N -2.845081 2.463881 -1.752791 0
M  V30 19 C -3.958487 2.174255 -0.916431 0
M  V30 20 C -4.655843 2.771934 0.111919 0
M  V30 21 C -5.663579 1.915416 0.497166 0
M  V30 22 C -6.623037 2.233128 1.584876 0
M  V30 23 C -6.069498 1.783853 2.927303 0
M  V30 24 C -6.840523 3.722005 1.653463 0
M  V30 25 C -7.907231 1.473242 1.260293 0
M  V30 26 N -5.556560 0.821538 -0.301721 0
M  V30 27 N -4.549644 0.969579 -1.139777 0
M  V30 28 C -4.309829 -0.100507 -2.045070 0
M  V30 29 C -4.844978 -0.303587 -3.299248 0
M  V30 30 C -4.479560 -1.414505 -4.024375 0
M  V30 31 C -3.581823 -2.303157 -3.475926 0
M  V30 32 C -3.231597 -3.487623 -4.324844 0
M  V30 33 C -3.009876 -2.145180 -2.209554 0
M  V30 34 C -3.401328 -1.010480 -1.503190 0
M  V30 35 C 1.672431 2.296323 -0.389465 0
M  V30 36 C 1.299719 3.588192 -0.099097 0
M  V30 37 C 2.079070 4.299200 0.785616 0
M  V30 38 C 3.197118 3.741697 1.365055 0
M  V30 39 C 3.497610 2.447690 1.020539 0
M  V30 40 C 2.785203 1.634242 0.140323 0
M  V30 41 C 4.577328 -4.519610 -0.197703 0
M  V30 42 C 5.233355 -5.747911 -0.207681 0
M  V30 43 N 5.986441 -6.147946 0.843024 0
M  V30 44 H 9.364316 -7.953652 3.648025 0
M  V30 45 H 8.584605 -6.790416 4.808262 0
M  V30 46 H 7.880985 -8.431406 4.622599 0
M  V30 47 H 7.032470 -5.212144 3.871956 0
M  V30 48 H 5.602083 -3.521087 2.855817 0
M  V30 49 H 3.121716 -2.512503 0.368239 0
M  V30 50 H 3.777251 -2.178119 2.047590 0
M  V30 51 H 5.131951 -1.578017 -0.648516 0
M  V30 52 H 5.872869 -1.231746 0.923417 0
M  V30 53 H 2.485422 -1.249626 -1.371092 0
M  V30 54 H 0.545122 -0.228254 -2.324583 0
M  V30 55 H -0.333791 2.685680 -2.834877 0
M  V30 56 H -2.798140 2.958177 -2.669489 0
M  V30 57 H -4.331969 3.737613 0.429345 0
M  V30 58 H -5.826160 0.703725 2.930969 0
M  V30 59 H -5.151832 2.356754 3.127259 0
M  V30 60 H -6.797497 2.032828 3.716886 0
M  V30 61 H -7.938170 3.871093 1.736453 0
M  V30 62 H -6.353496 4.188266 2.538218 0
M  V30 63 H -6.421491 4.178546 0.739327 0
M  V30 64 H -7.923101 0.493627 1.806275 0
M  V30 65 H -8.809633 2.029340 1.587036 0
M  V30 66 H -8.013902 1.302785 0.168741 0
M  V30 67 H -5.534000 0.463954 -3.611325 0
M  V30 68 H -4.912789 -1.545463 -4.999106 0
M  V30 69 H -3.023948 -3.114783 -5.365291 0
M  V30 70 H -2.363563 -4.033398 -3.936377 0
M  V30 71 H -4.159327 -4.088728 -4.410926 0
M  V30 72 H -2.307045 -2.873057 -1.821740 0
M  V30 73 H -2.923695 -0.945777 -0.529309 0
M  V30 74 H 0.445449 4.052096 -0.525004 0
M  V30 75 H 1.848426 5.317839 1.061658 0
M  V30 76 H 3.833115 4.268558 2.062595 0
M  V30 77 H 4.382357 2.009225 1.481928 0
M  V30 78 H 3.966775 -4.163502 -1.014502 0
M  V30 79 H 5.090169 -6.335808 -1.102143 0
M  V30 END ATOM
M  V30 BEGIN BOND
M  V30 1 1 1 2
M  V30 2 2 2 3
M  V30 3 1 2 4
M  V30 4 1 4 5
M  V30 5 2 5 6
M  V30 6 1 6 7
M  V30 7 1 7 8
M  V30 8 1 8 9
M  V30 9 1 9 10
M  V30 10 1 10 11
M  V30 11 2 11 12
M  V30 12 1 12 13
M  V30 13 2 13 14
M  V30 14 1 14 15
M  V30 15 1 15 16
M  V30 16 2 16 17
M  V30 17 1 16 18
M  V30 18 1 18 19
M  V30 19 2 19 20
M  V30 20 1 20 21
M  V30 21 1 21 22
M  V30 22 1 22 23
M  V30 23 1 22 24
M  V30 24 1 22 25
M  V30 25 2 21 26
M  V30 26 1 26 27
M  V30 27 1 27 28
M  V30 28 2 28 29
M  V30 29 1 29 30
M  V30 30 2 30 31
M  V30 31 1 31 32
M  V30 32 1 31 33
M  V30 33 2 33 34
M  V30 34 1 14 35
M  V30 35 2 35 36
M  V30 36 1 36 37
M  V30 37 2 37 38
M  V30 38 1 38 39
M  V30 39 2 39 40
M  V30 40 2 7 41
M  V30 41 1 41 42
M  V30 42 2 42 43
M  V30 43 1 43 5
M  V30 44 1 40 11
M  V30 45 1 27 19
M  V30 46 1 34 28
M  V30 47 1 40 35
M  V30 48 1 1 44
M  V30 49 1 1 45
M  V30 50 1 1 46
M  V30 51 1 4 47
M  V30 52 1 6 48
M  V30 53 1 8 49
M  V30 54 1 8 50
M  V30 55 1 9 51
M  V30 56 1 9 52
M  V30 57 1 12 53
M  V30 58 1 13 54
M  V30 59 1 15 55
M  V30 60 1 18 56
M  V30 61 1 20 57
M  V30 62 1 23 58
M  V30 63 1 23 59
M  V30 64 1 23 60
M  V30 65 1 24 61
M  V30 66 1 24 62
M  V30 67 1 24 63
M  V30 68 1 25 64
M  V30 69 1 25 65
M  V30 70 1 25 66
M  V30 71 1 29 67
M  V30 72 1 30 68
M  V30 73 1 32 69
M  V30 74 1 32 70
M  V30 75 1 32 71
M  V30 76 1 33 72
M  V30 77 1 34 73
M  V30 78 1 36 74
M  V30 79 1 37 75
M  V30 80 1 38 76
M  V30 81 1 39 77
M  V30 82 1 41 78
M  V30 83 1 42 79
M  V30 END BOND
M  V30 END CTAB
M  END
>  <Dataset>  (671) 
ChEMBL_Kinases

>  <Ligand_Instance>  (671) 
nan

>  <PDB_ID>  (671) 
nan

>  <Standardized_SMILES>  (671) 
CC(=O)Nc1cc(CCOc2ccc(NC(=O)Nc3cc(C(C)(C)C)nn3-c3ccc(C)cc3)c3ccccc23)ccn1

>  <Name>  (671) 
nan

>  <Pocket>  (671) 
nan

>  <ATP_Site>  (671) 
nan

>  <Peripheral>  (671) 
nan

>  <Num_H_Atoms_ProtBoundConf>  (671) 
nan

>  <Num_Resolved_Atoms>  (671) 
nan

>  <Num_Not_Resolved_Atoms>  (671) 
nan

$$$$
CHEMBL3356467
     RDKit          3D

  0  0  0  0  0  0  0  0  0  0999 V3000
M  V30 BEGIN CTAB
M  V30 COUNTS 41 44 0 0 0
M  V30 BEGIN ATOM
M  V30 1 C 1.257264 -3.445574 1.359412 0
M  V30 2 C -0.190305 -2.973481 1.388303 0
M  V30 3 C -1.001564 -4.208345 1.546905 0
M  V30 4 O -1.103295 -4.662526 2.727817 0
M  V30 5 N -1.657253 -4.901072 0.490720 0
M  V30 6 N -1.695194 -4.276255 -0.760405 0
M  V30 7 C -1.146260 -3.117502 -0.912088 0
M  V30 8 C -1.307190 -2.647232 -2.317279 0
M  V30 9 O -1.077084 -1.258752 -2.421737 0
M  V30 10 C -0.430083 -0.517958 -1.447912 0
M  V30 11 C -0.082093 0.778109 -1.738188 0
M  V30 12 C 0.563961 1.580387 -0.822552 0
M  V30 13 C 0.939864 2.970460 -1.127985 0
M  V30 14 F 2.299309 3.210934 -1.045731 0
M  V30 15 F 0.219458 3.843945 -0.330162 0
M  V30 16 F 0.571672 3.237972 -2.432650 0
M  V30 17 C 0.874608 1.059899 0.439612 0
M  V30 18 N 1.541388 1.874408 1.396791 0
M  V30 19 C 1.912265 1.428640 2.745649 0
M  V30 20 C 0.658663 1.027721 3.490388 0
M  V30 21 N 0.855472 2.058909 4.486212 0
M  V30 22 C 1.997729 2.537558 3.756166 0
M  V30 23 C 0.510983 -0.245717 0.698760 0
M  V30 24 C -0.136567 -1.062826 -0.207270 0
M  V30 25 N -0.484296 -2.399150 0.120097 0
M  V30 26 H 1.319350 -4.285672 0.613250 0
M  V30 27 H 1.915931 -2.636125 1.036494 0
M  V30 28 H 1.574225 -3.886963 2.329580 0
M  V30 29 H -0.272796 -2.297368 2.253126 0
M  V30 30 H -2.079346 -5.851697 0.714254 0
M  V30 31 H -0.609789 -3.169150 -2.991329 0
M  V30 32 H -2.333863 -2.823719 -2.706804 0
M  V30 33 H -0.287105 1.256145 -2.693161 0
M  V30 34 H 1.791773 2.836515 1.160250 0
M  V30 35 H 2.661812 0.636402 2.796694 0
M  V30 36 H -0.294644 1.126969 2.946868 0
M  V30 37 H 0.682197 0.028772 3.981105 0
M  V30 38 H 0.068239 2.714471 4.631381 0
M  V30 39 H 2.921103 2.438731 4.366282 0
M  V30 40 H 1.847953 3.559902 3.357999 0
M  V30 41 H 0.756343 -0.635815 1.676219 0
M  V30 END ATOM
M  V30 BEGIN BOND
M  V30 1 1 1 2
M  V30 2 1 2 3
M  V30 3 2 3 4
M  V30 4 1 3 5
M  V30 5 1 5 6
M  V30 6 2 6 7
M  V30 7 1 7 8
M  V30 8 1 8 9
M  V30 9 1 9 10
M  V30 10 2 10 11
M  V30 11 1 11 12
M  V30 12 1 12 13
M  V30 13 1 13 14
M  V30 14 1 13 15
M  V30 15 1 13 16
M  V30 16 2 12 17
M  V30 17 1 17 18
M  V30 18 1 18 19
M  V30 19 1 19 20
M  V30 20 1 20 21
M  V30 21 1 21 22
M  V30 22 1 17 23
M  V30 23 2 23 24
M  V30 24 1 24 25
M  V30 25 1 25 2
M  V30 26 1 25 7
M  V30 27 1 24 10
M  V30 28 1 22 19
M  V30 29 1 1 26
M  V30 30 1 1 27
M  V30 31 1 1 28
M  V30 32 1 2 29
M  V30 33 1 5 30
M  V30 34 1 8 31
M  V30 35 1 8 32
M  V30 36 1 11 33
M  V30 37 1 18 34
M  V30 38 1 19 35
M  V30 39 1 20 36
M  V30 40 1 20 37
M  V30 41 1 21 38
M  V30 42 1 22 39
M  V30 43 1 22 40
M  V30 44 1 23 41
M  V30 END BOND
M  V30 END CTAB
M  END
>  <Dataset>  (672) 
ChEMBL_Kinases

>  <Ligand_Instance>  (672) 
nan

>  <PDB_ID>  (672) 
nan

>  <Standardized_SMILES>  (672) 
CC1C(=O)NN=C2COc3cc(C(F)(F)F)c(NC4CNC4)cc3N21

>  <Name>  (672) 
nan

>  <Pocket>  (672) 
nan

>  <ATP_Site>  (672) 
nan

>  <Peripheral>  (672) 
nan

>  <Num_H_Atoms_ProtBoundConf>  (672) 
nan

>  <Num_Resolved_Atoms>  (672) 
nan

>  <Num_Not_Resolved_Atoms>  (672) 
nan

$$$$
CHEMBL3781473
     RDKit          3D

  0  0  0  0  0  0  0  0  0  0999 V3000
M  V30 BEGIN CTAB
M  V30 COUNTS 86 91 0 0 0
M  V30 BEGIN ATOM
M  V30 1 C -8.374881 -1.142844 3.858468 0
M  V30 2 C -7.620164 -0.162199 3.021945 0
M  V30 3 C -6.784024 -0.526362 2.015447 0
M  V30 4 C -6.080822 0.356947 1.229795 0
M  V30 5 C -6.248016 1.703415 1.496229 0
M  V30 6 N -5.555905 2.642850 0.727538 0
M  V30 7 N -5.923556 3.341092 -0.305971 0
M  V30 8 C -4.937746 4.132474 -0.745916 0
M  V30 9 C -5.012432 5.075026 -1.917045 0
M  V30 10 C -6.384590 4.984805 -2.526655 0
M  V30 11 C -4.011679 4.622202 -2.937565 0
M  V30 12 C -4.785637 6.494990 -1.470566 0
M  V30 13 C -3.874765 3.892359 0.098645 0
M  V30 14 C -4.287597 2.933330 1.040274 0
M  V30 15 N -3.316155 2.563704 1.992154 0
M  V30 16 C -2.449389 1.491236 1.777376 0
M  V30 17 O -2.576680 0.854763 0.702874 0
M  V30 18 N -1.396405 0.986588 2.625822 0
M  V30 19 C -0.682497 -0.139926 2.123224 0
M  V30 20 C 0.385002 0.207499 1.319316 0
M  V30 21 C 1.173297 -0.773631 0.764151 0
M  V30 22 C 0.936814 -2.133353 0.982337 0
M  V30 23 O 1.741655 -3.138961 0.415623 0
M  V30 24 C 2.797869 -2.698833 -0.393487 0
M  V30 25 C 3.624773 -3.784829 -0.966578 0
M  V30 26 C 3.303249 -4.411825 -2.150377 0
M  V30 27 C 3.966824 -5.413948 -2.806631 0
M  V30 28 N 5.105315 -5.842213 -2.190712 0
M  V30 29 C 5.477227 -5.260228 -1.014948 0
M  V30 30 N 6.691274 -5.752778 -0.420915 0
M  V30 31 C 7.688890 -4.929219 -1.000908 0
M  V30 32 O 7.845986 -3.973385 -1.811901 0
M  V30 33 C 9.168042 -4.669130 -1.024201 0
M  V30 34 C 9.377875 -3.545049 -1.989391 0
M  V30 35 C 9.356962 -2.250243 -1.521615 0
M  V30 36 C 9.540823 -1.154730 -2.353389 0
M  V30 37 C 9.754501 -1.376619 -3.711999 0
M  V30 38 C 9.774761 -2.680062 -4.175840 0
M  V30 39 C 9.591078 -3.754462 -3.340496 0
M  V30 40 C 4.787990 -4.246249 -0.368004 0
M  V30 41 C -0.135951 -2.453373 1.789917 0
M  V30 42 C -0.454762 -3.789427 2.069559 0
M  V30 43 C -1.537927 -4.067052 2.884004 0
M  V30 44 C -2.318311 -3.049153 3.432116 0
M  V30 45 C -2.012067 -1.740279 3.162490 0
M  V30 46 C -0.930749 -1.475665 2.349649 0
M  V30 47 C -7.099926 2.123704 2.525039 0
M  V30 48 C -7.771582 1.185708 3.269994 0
M  V30 49 H -9.465931 -0.868040 3.801840 0
M  V30 50 H -7.983363 -1.102545 4.874645 0
M  V30 51 H -8.304429 -2.159035 3.422162 0
M  V30 52 H -6.665269 -1.583126 1.820727 0
M  V30 53 H -5.423911 -0.009025 0.432146 0
M  V30 54 H -6.748942 5.959558 -2.927308 0
M  V30 55 H -6.456361 4.222149 -3.317151 0
M  V30 56 H -7.116943 4.708385 -1.723419 0
M  V30 57 H -3.016203 5.081300 -2.773015 0
M  V30 58 H -4.408671 4.779442 -3.969470 0
M  V30 59 H -3.862195 3.524811 -2.819211 0
M  V30 60 H -4.401698 7.075802 -2.326974 0
M  V30 61 H -4.140081 6.535346 -0.562941 0
M  V30 62 H -5.784397 6.935748 -1.239605 0
M  V30 63 H -2.928146 4.433648 -0.057312 0
M  V30 64 H -3.089087 2.994833 2.933563 0
M  V30 65 H -1.295226 1.538083 3.534748 0
M  V30 66 H 0.687790 1.230842 1.061628 0
M  V30 67 H 2.030005 -0.518204 0.121546 0
M  V30 68 H 3.506116 -2.028507 0.178283 0
M  V30 69 H 2.388019 -2.041013 -1.186729 0
M  V30 70 H 2.391458 -4.065627 -2.639799 0
M  V30 71 H 3.608909 -5.823318 -3.735016 0
M  V30 72 H 7.279170 -6.360808 0.186941 0
M  V30 73 H 9.496303 -4.384486 -0.003119 0
M  V30 74 H 9.748654 -5.528535 -1.392629 0
M  V30 75 H 9.192997 -2.045294 -0.473123 0
M  V30 76 H 9.524519 -0.123771 -1.981411 0
M  V30 77 H 9.904289 -0.566124 -4.415484 0
M  V30 78 H 9.944635 -2.843731 -5.245956 0
M  V30 79 H 9.612077 -4.746752 -3.718596 0
M  V30 80 H 5.121844 -3.824112 0.551782 0
M  V30 81 H 0.179047 -4.549039 1.621086 0
M  V30 82 H -1.773810 -5.115614 3.093645 0
M  V30 83 H -3.154832 -3.306603 4.063556 0
M  V30 84 H -2.628416 -0.939032 3.594175 0
M  V30 85 H -7.191779 3.181694 2.689805 0
M  V30 86 H -8.414652 1.546036 4.044493 0
M  V30 END ATOM
M  V30 BEGIN BOND
M  V30 1 1 1 2
M  V30 2 2 2 3
M  V30 3 1 3 4
M  V30 4 2 4 5
M  V30 5 1 5 6
M  V30 6 1 6 7
M  V30 7 2 7 8
M  V30 8 1 8 9
M  V30 9 1 9 10
M  V30 10 1 9 11
M  V30 11 1 9 12
M  V30 12 1 8 13
M  V30 13 2 13 14
M  V30 14 1 14 15
M  V30 15 1 15 16
M  V30 16 2 16 17
M  V30 17 1 16 18
M  V30 18 1 18 19
M  V30 19 2 19 20
M  V30 20 1 20 21
M  V30 21 2 21 22
M  V30 22 1 22 23
M  V30 23 1 23 24
M  V30 24 1 24 25
M  V30 25 2 25 26
M  V30 26 1 26 27
M  V30 27 2 27 28
M  V30 28 1 28 29
M  V30 29 1 29 30
M  V30 30 1 30 31
M  V30 31 2 31 32
M  V30 32 1 31 33
M  V30 33 1 33 34
M  V30 34 2 34 35
M  V30 35 1 35 36
M  V30 36 2 36 37
M  V30 37 1 37 38
M  V30 38 2 38 39
M  V30 39 2 29 40
M  V30 40 1 22 41
M  V30 41 2 41 42
M  V30 42 1 42 43
M  V30 43 2 43 44
M  V30 44 1 44 45
M  V30 45 2 45 46
M  V30 46 1 5 47
M  V30 47 2 47 48
M  V30 48 1 48 2
M  V30 49 1 14 6
M  V30 50 1 46 19
M  V30 51 1 40 25
M  V30 52 1 46 41
M  V30 53 1 39 34
M  V30 54 1 1 49
M  V30 55 1 1 50
M  V30 56 1 1 51
M  V30 57 1 3 52
M  V30 58 1 4 53
M  V30 59 1 10 54
M  V30 60 1 10 55
M  V30 61 1 10 56
M  V30 62 1 11 57
M  V30 63 1 11 58
M  V30 64 1 11 59
M  V30 65 1 12 60
M  V30 66 1 12 61
M  V30 67 1 12 62
M  V30 68 1 13 63
M  V30 69 1 15 64
M  V30 70 1 18 65
M  V30 71 1 20 66
M  V30 72 1 21 67
M  V30 73 1 24 68
M  V30 74 1 24 69
M  V30 75 1 26 70
M  V30 76 1 27 71
M  V30 77 1 30 72
M  V30 78 1 33 73
M  V30 79 1 33 74
M  V30 80 1 35 75
M  V30 81 1 36 76
M  V30 82 1 37 77
M  V30 83 1 38 78
M  V30 84 1 39 79
M  V30 85 1 40 80
M  V30 86 1 42 81
M  V30 87 1 43 82
M  V30 88 1 44 83
M  V30 89 1 45 84
M  V30 90 1 47 85
M  V30 91 1 48 86
M  V30 END BOND
M  V30 END CTAB
M  END
>  <Dataset>  (673) 
ChEMBL_Kinases

>  <Ligand_Instance>  (673) 
nan

>  <PDB_ID>  (673) 
nan

>  <Standardized_SMILES>  (673) 
Cc1ccc(-n2nc(C(C)(C)C)cc2NC(=O)Nc2ccc(OCc3ccnc(NC(=O)Cc4ccccc4)c3)c3ccccc23)cc1

>  <Name>  (673) 
nan

>  <Pocket>  (673) 
nan

>  <ATP_Site>  (673) 
nan

>  <Peripheral>  (673) 
nan

>  <Num_H_Atoms_ProtBoundConf>  (673) 
nan

>  <Num_Resolved_Atoms>  (673) 
nan

>  <Num_Not_Resolved_Atoms>  (673) 
nan

$$$$
CHEMBL3356468
     RDKit          3D

  0  0  0  0  0  0  0  0  0  0999 V3000
M  V30 BEGIN CTAB
M  V30 COUNTS 40 43 0 0 0
M  V30 BEGIN ATOM
M  V30 1 C 1.214121 -3.246353 0.944829 0
M  V30 2 C -0.309928 -3.153040 1.054027 0
M  V30 3 C -0.800200 -4.556662 0.954034 0
M  V30 4 O -0.505021 -5.237798 1.971180 0
M  V30 5 N -1.520959 -5.108278 -0.140924 0
M  V30 6 N -1.850195 -4.263062 -1.201687 0
M  V30 7 C -1.499165 -3.027399 -1.162496 0
M  V30 8 C -1.941056 -2.286358 -2.385219 0
M  V30 9 O -1.649813 -0.911473 -2.286157 0
M  V30 10 C -0.949560 -0.345176 -1.238401 0
M  V30 11 C -0.735261 0.993433 -1.385708 0
M  V30 12 C -0.046785 1.679538 -0.407506 0
M  V30 13 C 0.233524 3.119455 -0.485101 0
M  V30 14 F -0.348079 3.541810 -1.698719 0
M  V30 15 F -0.369691 3.819250 0.516269 0
M  V30 16 F 1.579133 3.432300 -0.513066 0
M  V30 17 C 0.443960 1.079783 0.727318 0
M  V30 18 O 1.114020 1.403896 1.818093 0
M  V30 19 C 1.695500 2.424973 2.477062 0
M  V30 20 C 1.413833 2.504783 3.984602 0
M  V30 21 N 2.357150 1.393424 4.113878 0
M  V30 22 C 3.092757 2.033725 3.011652 0
M  V30 23 C 0.189814 -0.306425 0.820970 0
M  V30 24 C -0.504755 -1.058969 -0.141833 0
M  V30 25 N -0.778951 -2.441967 -0.085904 0
M  V30 26 H 1.556410 -4.247598 0.620618 0
M  V30 27 H 1.728302 -3.027410 1.885521 0
M  V30 28 H 1.615400 -2.532146 0.177314 0
M  V30 29 H -0.522009 -2.706826 2.038862 0
M  V30 30 H -1.772995 -6.125769 -0.102495 0
M  V30 31 H -1.398771 -2.754385 -3.248004 0
M  V30 32 H -3.017454 -2.399131 -2.568368 0
M  V30 33 H -1.074790 1.578627 -2.239004 0
M  V30 34 H 1.688620 3.465398 2.090017 0
M  V30 35 H 1.836548 3.443310 4.394930 0
M  V30 36 H 0.385698 2.307967 4.286539 0
M  V30 37 H 1.896773 0.525306 3.748739 0
M  V30 38 H 3.700911 2.869147 3.362124 0
M  V30 39 H 3.576331 1.268121 2.371547 0
M  V30 40 H 0.480113 -0.996463 1.626297 0
M  V30 END ATOM
M  V30 BEGIN BOND
M  V30 1 1 1 2
M  V30 2 1 2 3
M  V30 3 2 3 4
M  V30 4 1 3 5
M  V30 5 1 5 6
M  V30 6 2 6 7
M  V30 7 1 7 8
M  V30 8 1 8 9
M  V30 9 1 9 10
M  V30 10 2 10 11
M  V30 11 1 11 12
M  V30 12 1 12 13
M  V30 13 1 13 14
M  V30 14 1 13 15
M  V30 15 1 13 16
M  V30 16 2 12 17
M  V30 17 1 17 18
M  V30 18 1 18 19
M  V30 19 1 19 20
M  V30 20 1 20 21
M  V30 21 1 21 22
M  V30 22 1 17 23
M  V30 23 2 23 24
M  V30 24 1 24 25
M  V30 25 1 25 2
M  V30 26 1 25 7
M  V30 27 1 24 10
M  V30 28 1 22 19
M  V30 29 1 1 26
M  V30 30 1 1 27
M  V30 31 1 1 28
M  V30 32 1 2 29
M  V30 33 1 5 30
M  V30 34 1 8 31
M  V30 35 1 8 32
M  V30 36 1 11 33
M  V30 37 1 19 34
M  V30 38 1 20 35
M  V30 39 1 20 36
M  V30 40 1 21 37
M  V30 41 1 22 38
M  V30 42 1 22 39
M  V30 43 1 23 40
M  V30 END BOND
M  V30 END CTAB
M  END
>  <Dataset>  (674) 
ChEMBL_Kinases

>  <Ligand_Instance>  (674) 
nan

>  <PDB_ID>  (674) 
nan

>  <Standardized_SMILES>  (674) 
CC1C(=O)NN=C2COc3cc(C(F)(F)F)c(OC4CNC4)cc3N21

>  <Name>  (674) 
nan

>  <Pocket>  (674) 
nan

>  <ATP_Site>  (674) 
nan

>  <Peripheral>  (674) 
nan

>  <Num_H_Atoms_ProtBoundConf>  (674) 
nan

>  <Num_Resolved_Atoms>  (674) 
nan

>  <Num_Not_Resolved_Atoms>  (674) 
nan

$$$$
CHEMBL3356469
     RDKit          3D

  0  0  0  0  0  0  0  0  0  0999 V3000
M  V30 BEGIN CTAB
M  V30 COUNTS 42 45 0 0 0
M  V30 BEGIN ATOM
M  V30 1 C 1.145683 -4.239768 0.104195 0
M  V30 2 C 0.264186 -3.408145 1.051629 0
M  V30 3 C -0.648859 -4.421217 1.686416 0
M  V30 4 O -0.381329 -4.856557 2.849687 0
M  V30 5 N -1.826981 -4.961091 1.092011 0
M  V30 6 N -2.351643 -4.226400 0.026484 0
M  V30 7 C -1.737746 -3.148826 -0.318076 0
M  V30 8 C -2.389432 -2.441657 -1.474469 0
M  V30 9 O -2.263515 -1.039895 -1.330130 0
M  V30 10 C -1.117700 -0.458673 -0.797088 0
M  V30 11 C -0.878881 0.864894 -1.077899 0
M  V30 12 C 0.241022 1.468729 -0.568604 0
M  V30 13 C 0.557209 2.854727 -0.915578 0
M  V30 14 F 1.812019 2.954254 -1.548336 0
M  V30 15 F 0.373531 3.818375 -0.000841 0
M  V30 16 F -0.327332 3.205022 -1.983455 0
M  V30 17 C 1.132549 0.783503 0.219918 0
M  V30 18 C 2.329136 1.205751 0.962109 0
M  V30 19 C 2.075021 1.459730 2.386864 0
M  V30 20 C 1.110116 2.483108 2.835888 0
M  V30 21 N 2.002191 2.678563 4.017399 0
M  V30 22 C 3.133254 2.261826 3.151309 0
M  V30 23 C 0.840991 -0.569690 0.475877 0
M  V30 24 C -0.268854 -1.220233 -0.013182 0
M  V30 25 N -0.559828 -2.577525 0.244896 0
M  V30 26 H 0.971269 -3.944201 -0.963536 0
M  V30 27 H 2.229354 -4.062023 0.290942 0
M  V30 28 H 1.008478 -5.328828 0.246888 0
M  V30 29 H 0.919929 -2.953600 1.772695 0
M  V30 30 H -2.235663 -5.858906 1.466497 0
M  V30 31 H -3.440558 -2.714824 -1.620409 0
M  V30 32 H -1.818829 -2.803027 -2.367450 0
M  V30 33 H -1.556839 1.430725 -1.688579 0
M  V30 34 H 2.700317 2.158010 0.494497 0
M  V30 35 H 3.130983 0.446832 0.792651 0
M  V30 36 H 1.901203 0.449169 2.914870 0
M  V30 37 H 0.115140 2.030563 3.131828 0
M  V30 38 H 1.058981 3.463283 2.361663 0
M  V30 39 H 1.764309 1.983126 4.729835 0
M  V30 40 H 3.582284 3.079750 2.588293 0
M  V30 41 H 3.773413 1.570044 3.715358 0
M  V30 42 H 1.496312 -1.207441 1.088644 0
M  V30 END ATOM
M  V30 BEGIN BOND
M  V30 1 1 1 2
M  V30 2 1 2 3
M  V30 3 2 3 4
M  V30 4 1 3 5
M  V30 5 1 5 6
M  V30 6 2 6 7
M  V30 7 1 7 8
M  V30 8 1 8 9
M  V30 9 1 9 10
M  V30 10 2 10 11
M  V30 11 1 11 12
M  V30 12 1 12 13
M  V30 13 1 13 14
M  V30 14 1 13 15
M  V30 15 1 13 16
M  V30 16 2 12 17
M  V30 17 1 17 18
M  V30 18 1 18 19
M  V30 19 1 19 20
M  V30 20 1 20 21
M  V30 21 1 21 22
M  V30 22 1 17 23
M  V30 23 2 23 24
M  V30 24 1 24 25
M  V30 25 1 25 2
M  V30 26 1 25 7
M  V30 27 1 24 10
M  V30 28 1 22 19
M  V30 29 1 1 26
M  V30 30 1 1 27
M  V30 31 1 1 28
M  V30 32 1 2 29
M  V30 33 1 5 30
M  V30 34 1 8 31
M  V30 35 1 8 32
M  V30 36 1 11 33
M  V30 37 1 18 34
M  V30 38 1 18 35
M  V30 39 1 19 36
M  V30 40 1 20 37
M  V30 41 1 20 38
M  V30 42 1 21 39
M  V30 43 1 22 40
M  V30 44 1 22 41
M  V30 45 1 23 42
M  V30 END BOND
M  V30 END CTAB
M  END
>  <Dataset>  (675) 
ChEMBL_Kinases

>  <Ligand_Instance>  (675) 
nan

>  <PDB_ID>  (675) 
nan

>  <Standardized_SMILES>  (675) 
CC1C(=O)NN=C2COc3cc(C(F)(F)F)c(CC4CNC4)cc3N21

>  <Name>  (675) 
nan

>  <Pocket>  (675) 
nan

>  <ATP_Site>  (675) 
nan

>  <Peripheral>  (675) 
nan

>  <Num_H_Atoms_ProtBoundConf>  (675) 
nan

>  <Num_Resolved_Atoms>  (675) 
nan

>  <Num_Not_Resolved_Atoms>  (675) 
nan

$$$$
CHEMBL3356471
     RDKit          3D

  0  0  0  0  0  0  0  0  0  0999 V3000
M  V30 BEGIN CTAB
M  V30 COUNTS 41 44 0 0 0
M  V30 BEGIN ATOM
M  V30 1 C -1.835853 -3.942239 1.821807 0
M  V30 2 C -0.820489 -2.834840 1.761435 0
M  V30 3 C 0.176199 -2.756390 2.697461 0
M  V30 4 C 1.115663 -1.753303 2.662980 0
M  V30 5 C 1.053328 -0.820351 1.678820 0
M  V30 6 C 0.044677 -0.914454 0.745913 0
M  V30 7 C -0.938913 -1.904699 0.723296 0
M  V30 8 N -1.926459 -1.936030 -0.265226 0
M  V30 9 C -2.293003 -1.141177 -1.389828 0
M  V30 10 C -1.136978 -0.979970 -2.347723 0
M  V30 11 N -1.291952 0.431087 -2.302980 0
M  V30 12 C -2.280932 0.335862 -1.289911 0
M  V30 13 N 2.043943 0.200780 1.677244 0
M  V30 14 C 3.056582 0.200623 2.705810 0
M  V30 15 N 4.067674 0.993294 2.692567 0
M  V30 16 N 4.251541 1.909022 1.677675 0
M  V30 17 C 3.282231 1.942783 0.648819 0
M  V30 18 O 3.543340 2.680320 -0.361068 0
M  V30 19 C 1.995755 1.196780 0.646491 0 CFG=2
M  V30 20 C 0.900032 2.193435 0.987783 0
M  V30 21 C 2.997023 -0.732220 3.867897 0
M  V30 22 O 2.065887 -1.772070 3.648076 0
M  V30 23 H -2.822703 -3.528770 2.059767 0
M  V30 24 H -1.506938 -4.655558 2.593758 0
M  V30 25 H -1.840266 -4.450460 0.816907 0
M  V30 26 H 0.176674 -3.518245 3.449659 0
M  V30 27 H 0.106414 -0.124543 0.019117 0
M  V30 28 H -2.556952 -2.785887 -0.118011 0
M  V30 29 H -3.213868 -1.548499 -1.900029 0
M  V30 30 H -0.183078 -1.413440 -1.965260 0
M  V30 31 H -1.359823 -1.371670 -3.372399 0
M  V30 32 H -1.535532 0.915728 -3.184859 0
M  V30 33 H -3.248986 0.761265 -1.694579 0
M  V30 34 H -2.035482 0.765238 -0.298367 0
M  V30 35 H 5.082620 2.551744 1.678411 0
M  V30 36 H 1.849311 0.857671 -0.378742 0
M  V30 37 H 0.394323 2.586972 0.082499 0
M  V30 38 H 0.156626 1.663931 1.618170 0
M  V30 39 H 1.347058 2.988530 1.625282 0
M  V30 40 H 2.704315 -0.191231 4.794262 0
M  V30 41 H 3.969825 -1.195069 4.042159 0
M  V30 END ATOM
M  V30 BEGIN BOND
M  V30 1 1 1 2
M  V30 2 2 2 3
M  V30 3 1 3 4
M  V30 4 2 4 5
M  V30 5 1 5 6
M  V30 6 2 6 7
M  V30 7 1 7 8
M  V30 8 1 8 9
M  V30 9 1 9 10
M  V30 10 1 10 11
M  V30 11 1 11 12
M  V30 12 1 5 13
M  V30 13 1 13 14
M  V30 14 2 14 15
M  V30 15 1 15 16
M  V30 16 1 16 17
M  V30 17 2 17 18
M  V30 18 1 17 19
M  V30 19 1 19 20
M  V30 20 1 14 21
M  V30 21 1 21 22
M  V30 22 1 7 2
M  V30 23 1 12 9
M  V30 24 1 19 13
M  V30 25 1 22 4
M  V30 26 1 1 23
M  V30 27 1 1 24
M  V30 28 1 1 25
M  V30 29 1 3 26
M  V30 30 1 6 27
M  V30 31 1 8 28
M  V30 32 1 9 29
M  V30 33 1 10 30
M  V30 34 1 10 31
M  V30 35 1 11 32
M  V30 36 1 12 33
M  V30 37 1 12 34
M  V30 38 1 16 35
M  V30 39 1 19 36 CFG=3
M  V30 40 1 20 37
M  V30 41 1 20 38
M  V30 42 1 20 39
M  V30 43 1 21 40
M  V30 44 1 21 41
M  V30 END BOND
M  V30 END CTAB
M  END
>  <Dataset>  (676) 
ChEMBL_Kinases

>  <Ligand_Instance>  (676) 
nan

>  <PDB_ID>  (676) 
nan

>  <Standardized_SMILES>  (676) 
Cc1cc2c(cc1NC1CNC1)N1C(=NNC(=O)[C@@H]1C)CO2

>  <Name>  (676) 
nan

>  <Pocket>  (676) 
nan

>  <ATP_Site>  (676) 
nan

>  <Peripheral>  (676) 
nan

>  <Num_H_Atoms_ProtBoundConf>  (676) 
nan

>  <Num_Resolved_Atoms>  (676) 
nan

>  <Num_Not_Resolved_Atoms>  (676) 
nan

$$$$
CHEMBL3781528
     RDKit          3D

  0  0  0  0  0  0  0  0  0  0999 V3000
M  V30 BEGIN CTAB
M  V30 COUNTS 72 76 0 0 0
M  V30 BEGIN ATOM
M  V30 1 C 6.812938 -0.528510 2.472847 0
M  V30 2 C 5.656196 0.378813 2.212952 0
M  V30 3 C 5.594832 1.735992 2.317872 0
M  V30 4 C 4.389098 2.353339 2.041041 0
M  V30 5 C 3.259546 1.610855 1.664073 0
M  V30 6 N 2.069628 2.326308 1.435753 0
M  V30 7 N 1.179747 2.962072 2.149629 0
M  V30 8 C 0.185665 3.483973 1.373021 0
M  V30 9 C -0.791967 4.176295 2.284880 0
M  V30 10 C -0.547005 3.952825 3.727747 0
M  V30 11 C -2.206426 3.800698 1.917157 0
M  V30 12 C -0.650229 5.656458 1.998411 0
M  V30 13 C 0.407621 3.178640 -0.032143 0
M  V30 14 C 1.604005 2.464577 0.206050 0
M  V30 15 N 1.886708 2.085448 -1.171350 0
M  V30 16 C 1.254577 0.916588 -1.731888 0
M  V30 17 O 0.461736 0.370251 -0.836303 0
M  V30 18 N 1.057455 0.024898 -2.819779 0
M  V30 19 C 0.154947 -1.052164 -2.522633 0
M  V30 20 C 0.510998 -2.347019 -2.207802 0
M  V30 21 C -0.481523 -3.234991 -1.832672 0
M  V30 22 C -1.805819 -2.732448 -1.803119 0
M  V30 23 O -2.803829 -3.569774 -1.428815 0
M  V30 24 C -2.597803 -4.913309 -1.071569 0
M  V30 25 C -3.909557 -5.528981 -0.616893 0
M  V30 26 C -3.683485 -6.924616 -0.218459 0
M  V30 27 C -3.886758 -8.085409 -0.971335 0
M  V30 28 C -3.729721 -9.362627 -0.568830 0
M  V30 29 C -3.325151 -9.588758 0.717868 0
M  V30 30 C -3.114140 -8.471375 1.497753 0
M  V30 31 N -3.280995 -7.167157 1.064412 0
M  V30 32 C -2.138817 -1.447551 -2.123964 0
M  V30 33 C -3.482501 -1.053565 -2.054302 0
M  V30 34 C -3.746326 0.245836 -2.376471 0
M  V30 35 C -2.830563 1.195733 -2.758096 0
M  V30 36 C -1.543077 0.714205 -2.796289 0
M  V30 37 C -1.121155 -0.589316 -2.493809 0
M  V30 38 C 3.324830 0.225889 1.558782 0
M  V30 39 C 4.564924 -0.354107 1.847885 0
M  V30 40 H 6.520912 -1.284507 3.256160 0
M  V30 41 H 7.090369 -1.061413 1.553991 0
M  V30 42 H 7.679065 0.015643 2.890758 0
M  V30 43 H 6.523726 2.203946 2.618350 0
M  V30 44 H 4.418165 3.442643 2.146932 0
M  V30 45 H 0.240033 4.614715 4.144825 0
M  V30 46 H -1.494543 4.031079 4.324571 0
M  V30 47 H -0.189480 2.897422 3.915101 0
M  V30 48 H -2.839931 3.695606 2.820820 0
M  V30 49 H -2.161802 2.767146 1.467492 0
M  V30 50 H -2.693267 4.537161 1.262248 0
M  V30 51 H 0.436238 5.872203 1.891821 0
M  V30 52 H -1.056434 6.183402 2.899559 0
M  V30 53 H -1.182356 5.972698 1.079357 0
M  V30 54 H -0.487825 3.712193 -0.219034 0
M  V30 55 H 2.405192 2.269136 -2.027385 0
M  V30 56 H 1.692444 0.509913 -3.524994 0
M  V30 57 H 1.577239 -2.589799 -2.280325 0
M  V30 58 H -0.207521 -4.247071 -1.586589 0
M  V30 59 H -1.933452 -4.947799 -0.162271 0
M  V30 60 H -2.216827 -5.520686 -1.906155 0
M  V30 61 H -4.632413 -5.520831 -1.478504 0
M  V30 62 H -4.349174 -4.984406 0.252233 0
M  V30 63 H -4.214506 -7.901668 -1.992284 0
M  V30 64 H -3.890756 -10.258342 -1.148881 0
M  V30 65 H -3.129394 -10.501134 1.275152 0
M  V30 66 H -2.788596 -8.455875 2.546862 0
M  V30 67 H -4.279997 -1.716556 -1.760842 0
M  V30 68 H -4.784185 0.557664 -2.323709 0
M  V30 69 H -3.008849 2.212318 -3.014825 0
M  V30 70 H -0.753334 1.420511 -3.094543 0
M  V30 71 H 2.420771 -0.305519 1.265669 0
M  V30 72 H 4.474157 -1.445938 1.727460 0
M  V30 END ATOM
M  V30 BEGIN BOND
M  V30 1 1 1 2
M  V30 2 2 2 3
M  V30 3 1 3 4
M  V30 4 2 4 5
M  V30 5 1 5 6
M  V30 6 1 6 7
M  V30 7 2 7 8
M  V30 8 1 8 9
M  V30 9 1 9 10
M  V30 10 1 9 11
M  V30 11 1 9 12
M  V30 12 1 8 13
M  V30 13 2 13 14
M  V30 14 1 14 15
M  V30 15 1 15 16
M  V30 16 2 16 17
M  V30 17 1 16 18
M  V30 18 1 18 19
M  V30 19 2 19 20
M  V30 20 1 20 21
M  V30 21 2 21 22
M  V30 22 1 22 23
M  V30 23 1 23 24
M  V30 24 1 24 25
M  V30 25 1 25 26
M  V30 26 2 26 27
M  V30 27 1 27 28
M  V30 28 2 28 29
M  V30 29 1 29 30
M  V30 30 2 30 31
M  V30 31 1 22 32
M  V30 32 2 32 33
M  V30 33 1 33 34
M  V30 34 2 34 35
M  V30 35 1 35 36
M  V30 36 2 36 37
M  V30 37 1 5 38
M  V30 38 2 38 39
M  V30 39 1 39 2
M  V30 40 1 14 6
M  V30 41 1 37 19
M  V30 42 1 31 26
M  V30 43 1 37 32
M  V30 44 1 1 40
M  V30 45 1 1 41
M  V30 46 1 1 42
M  V30 47 1 3 43
M  V30 48 1 4 44
M  V30 49 1 10 45
M  V30 50 1 10 46
M  V30 51 1 10 47
M  V30 52 1 11 48
M  V30 53 1 11 49
M  V30 54 1 11 50
M  V30 55 1 12 51
M  V30 56 1 12 52
M  V30 57 1 12 53
M  V30 58 1 13 54
M  V30 59 1 15 55
M  V30 60 1 18 56
M  V30 61 1 20 57
M  V30 62 1 21 58
M  V30 63 1 24 59
M  V30 64 1 24 60
M  V30 65 1 25 61
M  V30 66 1 25 62
M  V30 67 1 27 63
M  V30 68 1 28 64
M  V30 69 1 29 65
M  V30 70 1 30 66
M  V30 71 1 33 67
M  V30 72 1 34 68
M  V30 73 1 35 69
M  V30 74 1 36 70
M  V30 75 1 38 71
M  V30 76 1 39 72
M  V30 END BOND
M  V30 END CTAB
M  END
>  <Dataset>  (677) 
ChEMBL_Kinases

>  <Ligand_Instance>  (677) 
nan

>  <PDB_ID>  (677) 
nan

>  <Standardized_SMILES>  (677) 
Cc1ccc(-n2nc(C(C)(C)C)cc2NC(=O)Nc2ccc(OCCc3ccccn3)c3ccccc23)cc1

>  <Name>  (677) 
nan

>  <Pocket>  (677) 
nan

>  <ATP_Site>  (677) 
nan

>  <Peripheral>  (677) 
nan

>  <Num_H_Atoms_ProtBoundConf>  (677) 
nan

>  <Num_Resolved_Atoms>  (677) 
nan

>  <Num_Not_Resolved_Atoms>  (677) 
nan

$$$$
CHEMBL3356473
     RDKit          3D

  0  0  0  0  0  0  0  0  0  0999 V3000
M  V30 BEGIN CTAB
M  V30 COUNTS 48 52 0 0 0
M  V30 BEGIN ATOM
M  V30 1 C 0.547886 -4.546067 -0.556234 0
M  V30 2 C 1.780279 -3.943839 0.092287 0 CFG=1
M  V30 3 C 2.890360 -4.907915 -0.204065 0
M  V30 4 O 2.974616 -5.979011 0.462839 0
M  V30 5 N 3.874591 -4.693123 -1.205718 0
M  V30 6 N 3.947071 -3.436968 -1.814974 0
M  V30 7 C 3.124381 -2.513659 -1.453837 0
M  V30 8 C 3.350230 -1.252356 -2.207012 0
M  V30 9 O 2.775910 -0.141661 -1.553741 0
M  V30 10 C 1.783683 -0.212077 -0.593157 0
M  V30 11 C 1.102794 0.901020 -0.145794 0
M  V30 12 C 0.106445 0.765646 0.829782 0
M  V30 13 C -0.426007 2.071982 1.175937 0
M  V30 14 C -0.530646 2.724535 2.384080 0
M  V30 15 C -1.088976 3.976022 2.503800 0
M  V30 16 C -1.581998 4.663731 1.423432 0
M  V30 17 C -1.511089 4.077508 0.193913 0
M  V30 18 C -0.944879 2.820808 0.108844 0
M  V30 19 C -0.213987 -0.463238 1.356943 0
M  V30 20 N -1.258455 -0.571258 2.302616 0
M  V30 21 C -2.251970 0.185628 2.963277 0
M  V30 22 C -3.331146 0.837810 2.156310 0
M  V30 23 N -4.060985 -0.440050 2.177380 0
M  V30 24 C -3.416678 -0.705823 3.443262 0
M  V30 25 C 0.480982 -1.556871 0.894265 0
M  V30 26 C 1.461261 -1.441001 -0.060997 0
M  V30 27 N 2.111972 -2.641216 -0.463458 0
M  V30 28 H 0.892180 -4.976633 -1.539983 0
M  V30 29 H 0.161881 -5.331730 0.124445 0
M  V30 30 H -0.226450 -3.769193 -0.714354 0
M  V30 31 H 1.726532 -3.939743 1.207103 0
M  V30 32 H 4.520117 -5.478077 -1.462967 0
M  V30 33 H 4.450428 -1.017640 -2.303852 0
M  V30 34 H 2.975937 -1.381236 -3.243254 0
M  V30 35 H 1.426128 1.819794 -0.621619 0
M  V30 36 H -0.111719 2.122463 3.206493 0
M  V30 37 H -1.104626 4.371147 3.530181 0
M  V30 38 H -1.993596 5.628000 1.630233 0
M  V30 39 H -1.885699 4.587552 -0.663475 0
M  V30 40 H -0.920243 2.408931 -0.910172 0
M  V30 41 H -1.324063 -1.549672 2.658946 0
M  V30 42 H -1.918617 0.740581 3.876890 0
M  V30 43 H -3.894954 1.560491 2.788829 0
M  V30 44 H -3.104916 1.187513 1.145400 0
M  V30 45 H -3.756391 -1.114664 1.437540 0
M  V30 46 H -3.159272 -1.778908 3.530054 0
M  V30 47 H -3.953375 -0.284379 4.312618 0
M  V30 48 H 0.249099 -2.550366 1.295692 0
M  V30 END ATOM
M  V30 BEGIN BOND
M  V30 1 1 1 2
M  V30 2 1 2 3
M  V30 3 2 3 4
M  V30 4 1 3 5
M  V30 5 1 5 6
M  V30 6 2 6 7
M  V30 7 1 7 8
M  V30 8 1 8 9
M  V30 9 1 9 10
M  V30 10 2 10 11
M  V30 11 1 11 12
M  V30 12 1 12 13
M  V30 13 2 13 14
M  V30 14 1 14 15
M  V30 15 2 15 16
M  V30 16 1 16 17
M  V30 17 2 17 18
M  V30 18 2 12 19
M  V30 19 1 19 20
M  V30 20 1 20 21
M  V30 21 1 21 22
M  V30 22 1 22 23
M  V30 23 1 23 24
M  V30 24 1 19 25
M  V30 25 2 25 26
M  V30 26 1 26 27
M  V30 27 1 27 2
M  V30 28 1 27 7
M  V30 29 1 26 10
M  V30 30 1 18 13
M  V30 31 1 24 21
M  V30 32 1 1 28
M  V30 33 1 1 29
M  V30 34 1 1 30
M  V30 35 1 2 31 CFG=1
M  V30 36 1 5 32
M  V30 37 1 8 33
M  V30 38 1 8 34
M  V30 39 1 11 35
M  V30 40 1 14 36
M  V30 41 1 15 37
M  V30 42 1 16 38
M  V30 43 1 17 39
M  V30 44 1 18 40
M  V30 45 1 20 41
M  V30 46 1 21 42
M  V30 47 1 22 43
M  V30 48 1 22 44
M  V30 49 1 23 45
M  V30 50 1 24 46
M  V30 51 1 24 47
M  V30 52 1 25 48
M  V30 END BOND
M  V30 END CTAB
M  END
>  <Dataset>  (678) 
ChEMBL_Kinases

>  <Ligand_Instance>  (678) 
nan

>  <PDB_ID>  (678) 
nan

>  <Standardized_SMILES>  (678) 
C[C@H]1C(=O)NN=C2COc3cc(-c4ccccc4)c(NC4CNC4)cc3N21

>  <Name>  (678) 
nan

>  <Pocket>  (678) 
nan

>  <ATP_Site>  (678) 
nan

>  <Peripheral>  (678) 
nan

>  <Num_H_Atoms_ProtBoundConf>  (678) 
nan

>  <Num_Resolved_Atoms>  (678) 
nan

>  <Num_Not_Resolved_Atoms>  (678) 
nan

$$$$
CHEMBL3781587
     RDKit          3D

  0  0  0  0  0  0  0  0  0  0999 V3000
M  V30 BEGIN CTAB
M  V30 COUNTS 74 78 0 0 0
M  V30 BEGIN ATOM
M  V30 1 C 4.830079 -2.551361 3.762656 0
M  V30 2 C 4.560013 -1.989641 2.398729 0
M  V30 3 C 3.320263 -2.288764 1.846934 0
M  V30 4 C 2.957721 -1.824481 0.591143 0
M  V30 5 C 3.868640 -1.041203 -0.121125 0
M  V30 6 N 3.615714 -0.499976 -1.428727 0
M  V30 7 N 4.017225 -1.231859 -2.470768 0
M  V30 8 C 3.712309 -0.597500 -3.615052 0
M  V30 9 C 3.915879 -0.933163 -5.049848 0
M  V30 10 C 2.663540 -1.698674 -5.471598 0
M  V30 11 C 5.078588 -1.887016 -5.207243 0
M  V30 12 C 4.092700 0.277437 -5.900845 0
M  V30 13 C 3.090806 0.587359 -3.280173 0
M  V30 14 C 3.033779 0.641450 -1.902839 0
M  V30 15 N 2.558321 1.514104 -0.855004 0
M  V30 16 C 1.205313 1.333363 -0.385235 0
M  V30 17 O 0.504551 0.441360 -0.894121 0
M  V30 18 N 0.614225 2.141044 0.655393 0
M  V30 19 C -0.737972 1.746584 0.924496 0
M  V30 20 C -0.863541 0.776853 1.896080 0
M  V30 21 C -2.137985 0.356586 2.197248 0
M  V30 22 C -3.297858 0.812867 1.619462 0
M  V30 23 O -4.621070 0.529536 1.778164 0
M  V30 24 C -5.150410 -0.412195 2.661923 0
M  V30 25 C -4.774042 -1.828270 2.450472 0
M  V30 26 C -5.405957 -2.747203 3.469665 0
M  V30 27 C -4.758606 -3.028606 4.656119 0
M  V30 28 C -5.286685 -3.861584 5.625054 0
M  V30 29 N -6.494552 -4.431452 5.407276 0
M  V30 30 C -7.125043 -4.159244 4.255191 0
M  V30 31 N -8.401251 -4.734373 3.975370 0
M  V30 32 C -6.642984 -3.337417 3.258621 0
M  V30 33 C -3.122110 1.798855 0.636865 0
M  V30 34 C -4.126868 2.400473 -0.071996 0
M  V30 35 C -3.949882 3.367691 -1.035407 0
M  V30 36 C -2.663995 3.773318 -1.320275 0
M  V30 37 C -1.592083 3.219518 -0.653270 0
M  V30 38 C -1.853397 2.256614 0.297513 0
M  V30 39 C 5.098533 -0.760991 0.459066 0
M  V30 40 C 5.469677 -1.217220 1.706835 0
M  V30 41 H 4.516555 -3.616745 3.762506 0
M  V30 42 H 4.121566 -2.049596 4.475546 0
M  V30 43 H 5.875248 -2.374366 4.023079 0
M  V30 44 H 2.606899 -2.901645 2.403670 0
M  V30 45 H 2.013463 -2.028711 0.124139 0
M  V30 46 H 2.405380 -2.411642 -4.657113 0
M  V30 47 H 2.795326 -2.225332 -6.427852 0
M  V30 48 H 1.811475 -0.968119 -5.494326 0
M  V30 49 H 4.850737 -2.508324 -6.120622 0
M  V30 50 H 5.093207 -2.598260 -4.372065 0
M  V30 51 H 6.047818 -1.407518 -5.336656 0
M  V30 52 H 3.078679 0.678551 -6.182903 0
M  V30 53 H 4.730426 1.050551 -5.473469 0
M  V30 54 H 4.552087 -0.047296 -6.872357 0
M  V30 55 H 2.661872 1.434207 -3.775985 0
M  V30 56 H 3.119247 2.273353 -0.404849 0
M  V30 57 H 1.221349 2.887223 1.070325 0
M  V30 58 H -0.060296 0.322160 2.436320 0
M  V30 59 H -2.295222 -0.382517 2.951320 0
M  V30 60 H -6.263045 -0.323385 2.756796 0
M  V30 61 H -4.791304 -0.083732 3.688715 0
M  V30 62 H -3.735113 -2.102236 2.424258 0
M  V30 63 H -5.208006 -2.164354 1.465365 0
M  V30 64 H -3.791654 -2.545918 4.782254 0
M  V30 65 H -4.672664 -4.003191 6.521849 0
M  V30 66 H -8.148021 -5.577741 3.415260 0
M  V30 67 H -9.439391 -4.697531 4.072386 0
M  V30 68 H -7.178136 -3.139136 2.340234 0
M  V30 69 H -5.149506 2.090618 0.141701 0
M  V30 70 H -4.820498 3.776666 -1.535618 0
M  V30 71 H -2.559087 4.533259 -2.080653 0
M  V30 72 H -0.588419 3.547947 -0.887900 0
M  V30 73 H 5.814558 -0.161031 -0.069712 0
M  V30 74 H 6.419097 -1.004235 2.161069 0
M  V30 END ATOM
M  V30 BEGIN BOND
M  V30 1 1 1 2
M  V30 2 2 2 3
M  V30 3 1 3 4
M  V30 4 2 4 5
M  V30 5 1 5 6
M  V30 6 1 6 7
M  V30 7 2 7 8
M  V30 8 1 8 9
M  V30 9 1 9 10
M  V30 10 1 9 11
M  V30 11 1 9 12
M  V30 12 1 8 13
M  V30 13 2 13 14
M  V30 14 1 14 15
M  V30 15 1 15 16
M  V30 16 2 16 17
M  V30 17 1 16 18
M  V30 18 1 18 19
M  V30 19 2 19 20
M  V30 20 1 20 21
M  V30 21 2 21 22
M  V30 22 1 22 23
M  V30 23 1 23 24
M  V30 24 1 24 25
M  V30 25 1 25 26
M  V30 26 2 26 27
M  V30 27 1 27 28
M  V30 28 2 28 29
M  V30 29 1 29 30
M  V30 30 1 30 31
M  V30 31 2 30 32
M  V30 32 1 22 33
M  V30 33 2 33 34
M  V30 34 1 34 35
M  V30 35 2 35 36
M  V30 36 1 36 37
M  V30 37 2 37 38
M  V30 38 1 5 39
M  V30 39 2 39 40
M  V30 40 1 40 2
M  V30 41 1 14 6
M  V30 42 1 38 19
M  V30 43 1 32 26
M  V30 44 1 38 33
M  V30 45 1 1 41
M  V30 46 1 1 42
M  V30 47 1 1 43
M  V30 48 1 3 44
M  V30 49 1 4 45
M  V30 50 1 10 46
M  V30 51 1 10 47
M  V30 52 1 10 48
M  V30 53 1 11 49
M  V30 54 1 11 50
M  V30 55 1 11 51
M  V30 56 1 12 52
M  V30 57 1 12 53
M  V30 58 1 12 54
M  V30 59 1 13 55
M  V30 60 1 15 56
M  V30 61 1 18 57
M  V30 62 1 20 58
M  V30 63 1 21 59
M  V30 64 1 24 60
M  V30 65 1 24 61
M  V30 66 1 25 62
M  V30 67 1 25 63
M  V30 68 1 27 64
M  V30 69 1 28 65
M  V30 70 1 31 66
M  V30 71 1 31 67
M  V30 72 1 32 68
M  V30 73 1 34 69
M  V30 74 1 35 70
M  V30 75 1 36 71
M  V30 76 1 37 72
M  V30 77 1 39 73
M  V30 78 1 40 74
M  V30 END BOND
M  V30 END CTAB
M  END
>  <Dataset>  (679) 
ChEMBL_Kinases

>  <Ligand_Instance>  (679) 
nan

>  <PDB_ID>  (679) 
nan

>  <Standardized_SMILES>  (679) 
Cc1ccc(-n2nc(C(C)(C)C)cc2NC(=O)Nc2ccc(OCCc3ccnc(N)c3)c3ccccc23)cc1

>  <Name>  (679) 
nan

>  <Pocket>  (679) 
nan

>  <ATP_Site>  (679) 
nan

>  <Peripheral>  (679) 
nan

>  <Num_H_Atoms_ProtBoundConf>  (679) 
nan

>  <Num_Resolved_Atoms>  (679) 
nan

>  <Num_Not_Resolved_Atoms>  (679) 
nan

$$$$
CHEMBL3781999
     RDKit          3D

  0  0  0  0  0  0  0  0  0  0999 V3000
M  V30 BEGIN CTAB
M  V30 COUNTS 86 90 0 0 0
M  V30 BEGIN ATOM
M  V30 1 C 0.181816 -6.821159 8.182798 0
M  V30 2 O -0.382005 -8.016513 7.817720 0
M  V30 3 C -0.471835 -8.134624 6.453365 0
M  V30 4 C -1.410752 -7.211233 5.792295 0
M  V30 5 O -1.349078 -7.454672 4.542142 0
M  V30 6 N -2.333020 -6.178279 6.060401 0
M  V30 7 C -2.862884 -5.768185 4.782336 0
M  V30 8 C -2.343586 -4.779824 3.967968 0
M  V30 9 C -2.983140 -4.519230 2.768375 0
M  V30 10 C -2.392477 -3.438708 1.908137 0
M  V30 11 C -3.286706 -3.403969 0.678029 0
M  V30 12 C -1.030679 -3.838611 1.447700 0
M  V30 13 O -2.490266 -2.184849 2.511643 0
M  V30 14 C -2.037135 -0.984575 1.990477 0
M  V30 15 C -2.987989 -0.348270 1.190000 0
M  V30 16 C -2.760206 0.860547 0.563977 0
M  V30 17 C -1.518818 1.475937 0.740293 0
M  V30 18 N -1.269549 2.722818 0.098551 0
M  V30 19 C -0.700313 2.602479 -1.202782 0
M  V30 20 O -0.488174 1.440798 -1.620899 0
M  V30 21 N -0.348595 3.666680 -2.075631 0
M  V30 22 C 0.216685 3.393810 -3.357713 0
M  V30 23 C -0.475696 3.205735 -4.558345 0
M  V30 24 C 0.440212 2.963760 -5.575308 0
M  V30 25 C 0.089602 2.715640 -6.994526 0
M  V30 26 C -0.117513 1.229701 -7.266106 0
M  V30 27 C -1.119643 3.479250 -7.450759 0
M  V30 28 C 1.254332 3.145537 -7.867391 0
M  V30 29 N 1.651919 3.006762 -4.992414 0
M  V30 30 N 1.510153 3.257376 -3.703935 0
M  V30 31 C 2.621626 3.362810 -2.819729 0
M  V30 32 C 3.465553 4.436645 -3.119989 0
M  V30 33 C 4.605118 4.724141 -2.388283 0
M  V30 34 C 4.905078 3.904210 -1.319657 0
M  V30 35 C 6.120423 4.182939 -0.511550 0
M  V30 36 C 4.083574 2.838065 -1.007137 0
M  V30 37 C 2.950034 2.563832 -1.746410 0
M  V30 38 C -0.569665 0.859148 1.528893 0
M  V30 39 C 0.662275 1.434066 1.731699 0
M  V30 40 C 1.578433 0.766741 2.542623 0
M  V30 41 C 1.306223 -0.459576 3.160791 0
M  V30 42 C 0.063980 -1.028446 2.949496 0
M  V30 43 C -0.823551 -0.348278 2.142879 0
M  V30 44 C -4.102649 -5.257117 2.448185 0
M  V30 45 C -4.605434 -6.238657 3.273449 0
M  V30 46 N -3.971768 -6.492398 4.455473 0
M  V30 47 H 0.241328 -6.689632 9.292036 0
M  V30 48 H 1.292177 -6.800344 7.891226 0
M  V30 49 H -0.212282 -5.916612 7.714133 0
M  V30 50 H -0.667988 -9.188757 6.132046 0
M  V30 51 H 0.558475 -7.865186 6.061345 0
M  V30 52 H -2.378917 -6.014305 7.086323 0
M  V30 53 H -1.458657 -4.279639 4.345404 0
M  V30 54 H -3.289891 -4.357066 0.114976 0
M  V30 55 H -2.829340 -2.644119 -0.009085 0
M  V30 56 H -4.304007 -3.113177 0.962712 0
M  V30 57 H -0.338287 -4.091812 2.274967 0
M  V30 58 H -1.147912 -4.703421 0.768076 0
M  V30 59 H -0.630210 -3.007534 0.810161 0
M  V30 60 H -3.981640 -0.735612 0.985549 0
M  V30 61 H -3.472399 1.366717 -0.053470 0
M  V30 62 H -1.437889 3.698628 0.431362 0
M  V30 63 H -0.571050 4.582264 -1.619477 0
M  V30 64 H -1.554056 3.255992 -4.607218 0
M  V30 65 H 0.685974 0.677011 -6.725805 0
M  V30 66 H -0.012239 1.108538 -8.368871 0
M  V30 67 H -1.097051 0.866144 -6.904402 0
M  V30 68 H -1.611120 2.860726 -8.248121 0
M  V30 69 H -1.808523 3.597187 -6.606687 0
M  V30 70 H -0.899095 4.477816 -7.874545 0
M  V30 71 H 1.305592 2.489710 -8.766980 0
M  V30 72 H 1.127353 4.195474 -8.225271 0
M  V30 73 H 2.234005 3.022387 -7.362569 0
M  V30 74 H 3.291708 5.118590 -3.940980 0
M  V30 75 H 5.254438 5.551156 -2.620246 0
M  V30 76 H 7.014055 4.384885 -1.140104 0
M  V30 77 H 6.378789 3.348315 0.152739 0
M  V30 78 H 5.930285 5.123556 0.062827 0
M  V30 79 H 4.294052 2.177924 -0.174026 0
M  V30 80 H 2.250931 1.756190 -1.578228 0
M  V30 81 H 0.900797 2.372861 1.271822 0
M  V30 82 H 2.544820 1.250665 2.681628 0
M  V30 83 H 2.050660 -0.938674 3.781777 0
M  V30 84 H -0.159818 -1.970490 3.425872 0
M  V30 85 H -4.588906 -5.050313 1.523231 0
M  V30 86 H -5.490591 -6.776294 2.952118 0
M  V30 END ATOM
M  V30 BEGIN BOND
M  V30 1 1 1 2
M  V30 2 1 2 3
M  V30 3 1 3 4
M  V30 4 2 4 5
M  V30 5 1 4 6
M  V30 6 1 6 7
M  V30 7 2 7 8
M  V30 8 1 8 9
M  V30 9 1 9 10
M  V30 10 1 10 11
M  V30 11 1 10 12
M  V30 12 1 10 13
M  V30 13 1 13 14
M  V30 14 2 14 15
M  V30 15 1 15 16
M  V30 16 2 16 17
M  V30 17 1 17 18
M  V30 18 1 18 19
M  V30 19 2 19 20
M  V30 20 1 19 21
M  V30 21 1 21 22
M  V30 22 2 22 23
M  V30 23 1 23 24
M  V30 24 1 24 25
M  V30 25 1 25 26
M  V30 26 1 25 27
M  V30 27 1 25 28
M  V30 28 2 24 29
M  V30 29 1 29 30
M  V30 30 1 30 31
M  V30 31 2 31 32
M  V30 32 1 32 33
M  V30 33 2 33 34
M  V30 34 1 34 35
M  V30 35 1 34 36
M  V30 36 2 36 37
M  V30 37 1 17 38
M  V30 38 2 38 39
M  V30 39 1 39 40
M  V30 40 2 40 41
M  V30 41 1 41 42
M  V30 42 2 42 43
M  V30 43 2 9 44
M  V30 44 1 44 45
M  V30 45 2 45 46
M  V30 46 1 46 7
M  V30 47 1 43 14
M  V30 48 1 30 22
M  V30 49 1 37 31
M  V30 50 1 43 38
M  V30 51 1 1 47
M  V30 52 1 1 48
M  V30 53 1 1 49
M  V30 54 1 3 50
M  V30 55 1 3 51
M  V30 56 1 6 52
M  V30 57 1 8 53
M  V30 58 1 11 54
M  V30 59 1 11 55
M  V30 60 1 11 56
M  V30 61 1 12 57
M  V30 62 1 12 58
M  V30 63 1 12 59
M  V30 64 1 15 60
M  V30 65 1 16 61
M  V30 66 1 18 62
M  V30 67 1 21 63
M  V30 68 1 23 64
M  V30 69 1 26 65
M  V30 70 1 26 66
M  V30 71 1 26 67
M  V30 72 1 27 68
M  V30 73 1 27 69
M  V30 74 1 27 70
M  V30 75 1 28 71
M  V30 76 1 28 72
M  V30 77 1 28 73
M  V30 78 1 32 74
M  V30 79 1 33 75
M  V30 80 1 35 76
M  V30 81 1 35 77
M  V30 82 1 35 78
M  V30 83 1 36 79
M  V30 84 1 37 80
M  V30 85 1 39 81
M  V30 86 1 40 82
M  V30 87 1 41 83
M  V30 88 1 42 84
M  V30 89 1 44 85
M  V30 90 1 45 86
M  V30 END BOND
M  V30 END CTAB
M  END
>  <Dataset>  (680) 
ChEMBL_Kinases

>  <Ligand_Instance>  (680) 
nan

>  <PDB_ID>  (680) 
nan

>  <Standardized_SMILES>  (680) 
COCC(=O)Nc1cc(C(C)(C)Oc2ccc(NC(=O)Nc3cc(C(C)(C)C)nn3-c3ccc(C)cc3)c3ccccc23)ccn1

>  <Name>  (680) 
nan

>  <Pocket>  (680) 
nan

>  <ATP_Site>  (680) 
nan

>  <Peripheral>  (680) 
nan

>  <Num_H_Atoms_ProtBoundConf>  (680) 
nan

>  <Num_Resolved_Atoms>  (680) 
nan

>  <Num_Not_Resolved_Atoms>  (680) 
nan

$$$$
CHEMBL3357950
     RDKit          3D

  0  0  0  0  0  0  0  0  0  0999 V3000
M  V30 BEGIN CTAB
M  V30 COUNTS 51 54 0 0 0
M  V30 BEGIN ATOM
M  V30 1 C 0.431444 -2.517583 -2.201789 0
M  V30 2 C 0.979461 -3.175750 -0.957555 0 CFG=1
M  V30 3 N 1.010246 -2.235812 0.146685 0
M  V30 4 C 2.201638 -1.879932 0.836096 0
M  V30 5 O 3.365523 -2.304527 0.608130 0
M  V30 6 N 2.234303 -0.954049 1.924391 0
M  V30 7 C 3.523412 -0.689622 2.529319 0
M  V30 8 C 3.671431 0.773704 2.874322 0
M  V30 9 C 2.583968 1.613971 2.316463 0
M  V30 10 C 2.832918 2.929365 1.979865 0
M  V30 11 N 1.862855 3.709806 1.473985 0
M  V30 12 C 0.616849 3.275080 1.266461 0
M  V30 13 N -0.390721 4.122462 0.729749 0
M  V30 14 C -1.740055 3.750391 0.474628 0
M  V30 15 C -2.743256 4.543453 -0.044026 0
M  V30 16 N -3.861693 3.801266 -0.122098 0
M  V30 17 N -3.645271 2.567334 0.316655 0
M  V30 18 C -4.662854 1.528292 0.357490 0
M  V30 19 C -2.351890 2.532619 0.681567 0
M  V30 20 N 0.360207 1.995569 1.589885 0
M  V30 21 C 1.295770 1.175113 2.098609 0
M  V30 22 C 1.061701 -0.253586 2.472753 0
M  V30 23 C 0.076042 -4.318347 -0.626639 0
M  V30 24 C 0.412074 -5.632780 -0.860204 0
M  V30 25 C -0.410102 -6.695636 -0.560515 0
M  V30 26 C -1.651167 -6.398226 0.012655 0
M  V30 27 Cl -2.723850 -7.726507 0.407367 0
M  V30 28 C -2.000620 -5.095753 0.251454 0
M  V30 29 Cl -3.580232 -4.820334 0.974421 0
M  V30 30 C -1.157750 -4.023073 -0.056854 0
M  V30 31 H -0.676720 -2.471923 -2.205015 0
M  V30 32 H 0.725859 -3.084212 -3.109937 0
M  V30 33 H 0.854304 -1.482065 -2.328337 0
M  V30 34 H 1.997140 -3.566608 -1.179762 0
M  V30 35 H 0.104079 -1.809989 0.435281 0
M  V30 36 H 4.352967 -1.052750 1.890194 0
M  V30 37 H 3.533549 -1.327587 3.461410 0
M  V30 38 H 4.668029 1.170042 2.593974 0
M  V30 39 H 3.635557 0.859058 3.997864 0
M  V30 40 H 3.792083 3.397427 2.098554 0
M  V30 41 H -0.112580 5.113300 0.501067 0
M  V30 42 H -2.598741 5.582028 -0.323849 0
M  V30 43 H -5.471863 1.851064 1.030279 0
M  V30 44 H -4.231628 0.596004 0.780385 0
M  V30 45 H -5.015924 1.291944 -0.665950 0
M  V30 46 H -1.924018 1.642532 1.072493 0
M  V30 47 H 0.114824 -0.650137 2.111868 0
M  V30 48 H 1.075231 -0.303891 3.594579 0
M  V30 49 H 1.407702 -5.756735 -1.312739 0
M  V30 50 H -0.062592 -7.696882 -0.779309 0
M  V30 51 H -1.519933 -3.024237 0.168343 0
M  V30 END ATOM
M  V30 BEGIN BOND
M  V30 1 1 1 2
M  V30 2 1 2 3
M  V30 3 1 3 4
M  V30 4 2 4 5
M  V30 5 1 4 6
M  V30 6 1 6 7
M  V30 7 1 7 8
M  V30 8 1 8 9
M  V30 9 2 9 10
M  V30 10 1 10 11
M  V30 11 2 11 12
M  V30 12 1 12 13
M  V30 13 1 13 14
M  V30 14 1 14 15
M  V30 15 2 15 16
M  V30 16 1 16 17
M  V30 17 1 17 18
M  V30 18 1 17 19
M  V30 19 1 12 20
M  V30 20 2 20 21
M  V30 21 1 21 22
M  V30 22 1 2 23
M  V30 23 2 23 24
M  V30 24 1 24 25
M  V30 25 2 25 26
M  V30 26 1 26 27
M  V30 27 1 26 28
M  V30 28 1 28 29
M  V30 29 2 28 30
M  V30 30 1 22 6
M  V30 31 1 30 23
M  V30 32 1 21 9
M  V30 33 2 19 14
M  V30 34 1 1 31
M  V30 35 1 1 32
M  V30 36 1 1 33
M  V30 37 1 2 34 CFG=3
M  V30 38 1 3 35
M  V30 39 1 7 36
M  V30 40 1 7 37
M  V30 41 1 8 38
M  V30 42 1 8 39
M  V30 43 1 10 40
M  V30 44 1 13 41
M  V30 45 1 15 42
M  V30 46 1 18 43
M  V30 47 1 18 44
M  V30 48 1 18 45
M  V30 49 1 19 46
M  V30 50 1 22 47
M  V30 51 1 22 48
M  V30 52 1 24 49
M  V30 53 1 25 50
M  V30 54 1 30 51
M  V30 END BOND
M  V30 END CTAB
M  END
>  <Dataset>  (681) 
ChEMBL_Kinases

>  <Ligand_Instance>  (681) 
nan

>  <PDB_ID>  (681) 
nan

>  <Standardized_SMILES>  (681) 
C[C@@H](NC(=O)N1CCc2cnc(Nc3cnn(C)c3)nc2C1)c1ccc(Cl)c(Cl)c1

>  <Name>  (681) 
nan

>  <Pocket>  (681) 
nan

>  <ATP_Site>  (681) 
nan

>  <Peripheral>  (681) 
nan

>  <Num_H_Atoms_ProtBoundConf>  (681) 
nan

>  <Num_Resolved_Atoms>  (681) 
nan

>  <Num_Not_Resolved_Atoms>  (681) 
nan

$$$$
CHEMBL3357951
     RDKit          3D

  0  0  0  0  0  0  0  0  0  0999 V3000
M  V30 BEGIN CTAB
M  V30 COUNTS 51 54 0 0 0
M  V30 BEGIN ATOM
M  V30 1 C 1.055542 -3.000094 -0.970784 0
M  V30 2 C 1.221789 -3.462764 0.479839 0 CFG=1
M  V30 3 N 1.020714 -2.279127 1.295553 0
M  V30 4 C 2.045539 -1.689970 2.071489 0
M  V30 5 O 3.216665 -2.095262 2.157871 0
M  V30 6 N 1.701972 -0.531131 2.815586 0
M  V30 7 C 2.652097 0.195318 3.643756 0
M  V30 8 C 2.837255 1.595669 3.097263 0
M  V30 9 C 1.699797 2.035185 2.269462 0
M  V30 10 C 1.845836 3.226032 1.549646 0
M  V30 11 N 0.871162 3.701533 0.774298 0
M  V30 12 C -0.318591 3.084412 0.621801 0
M  V30 13 N -1.505193 3.337608 -0.121759 0
M  V30 14 C -1.507821 2.632738 -1.359911 0
M  V30 15 C -0.573672 1.782488 -1.913605 0
M  V30 16 C -0.969914 1.301349 -3.143934 0
M  V30 17 N -2.191169 1.883518 -3.341210 0
M  V30 18 N -2.470559 2.640651 -2.300576 0
M  V30 19 C -3.736053 3.376254 -2.277660 0
M  V30 20 N -0.463869 1.941789 1.310645 0
M  V30 21 C 0.478044 1.419784 2.100545 0
M  V30 22 C 0.406059 0.139784 2.898081 0
M  V30 23 C 0.193406 -4.494876 0.751523 0
M  V30 24 C -0.414458 -5.167056 -0.286177 0
M  V30 25 C -1.385625 -6.136099 -0.014424 0
M  V30 26 C -1.726787 -6.410148 1.300995 0
M  V30 27 Cl -2.953191 -7.635116 1.618901 0
M  V30 28 C -1.097278 -5.716569 2.328870 0
M  V30 29 Cl -1.616100 -6.154450 3.948616 0
M  V30 30 C -0.129504 -4.749716 2.075741 0
M  V30 31 H 1.532072 -3.660771 -1.695239 0
M  V30 32 H 1.514044 -1.986849 -1.106522 0
M  V30 33 H -0.028903 -2.918417 -1.150649 0
M  V30 34 H 2.235214 -3.875983 0.551127 0
M  V30 35 H 0.033630 -1.993228 1.182197 0
M  V30 36 H 3.652687 -0.304220 3.619217 0
M  V30 37 H 2.289115 0.270546 4.685062 0
M  V30 38 H 3.791243 1.686714 2.537193 0
M  V30 39 H 2.900159 2.310531 3.965015 0
M  V30 40 H 2.728583 3.855700 1.549743 0
M  V30 41 H -2.330562 3.935969 0.097356 0
M  V30 42 H 0.373174 1.516677 -1.437151 0
M  V30 43 H -0.448818 0.622495 -3.806409 0
M  V30 44 H -3.819352 4.041810 -3.159980 0
M  V30 45 H -3.870919 3.927332 -1.332799 0
M  V30 46 H -4.574936 2.632510 -2.341799 0
M  V30 47 H 0.163818 0.403525 3.931549 0
M  V30 48 H -0.376295 -0.482787 2.444636 0
M  V30 49 H -0.131246 -4.939985 -1.310608 0
M  V30 50 H -1.883998 -6.683942 -0.787824 0
M  V30 51 H 0.312904 -4.256069 2.910108 0
M  V30 END ATOM
M  V30 BEGIN BOND
M  V30 1 1 1 2
M  V30 2 1 2 3
M  V30 3 1 3 4
M  V30 4 2 4 5
M  V30 5 1 4 6
M  V30 6 1 6 7
M  V30 7 1 7 8
M  V30 8 1 8 9
M  V30 9 2 9 10
M  V30 10 1 10 11
M  V30 11 2 11 12
M  V30 12 1 12 13
M  V30 13 1 13 14
M  V30 14 2 14 15
M  V30 15 1 15 16
M  V30 16 2 16 17
M  V30 17 1 17 18
M  V30 18 1 18 19
M  V30 19 1 12 20
M  V30 20 2 20 21
M  V30 21 1 21 22
M  V30 22 1 2 23
M  V30 23 2 23 24
M  V30 24 1 24 25
M  V30 25 2 25 26
M  V30 26 1 26 27
M  V30 27 1 26 28
M  V30 28 1 28 29
M  V30 29 2 28 30
M  V30 30 1 22 6
M  V30 31 1 30 23
M  V30 32 1 21 9
M  V30 33 1 18 14
M  V30 34 1 1 31
M  V30 35 1 1 32
M  V30 36 1 1 33
M  V30 37 1 2 34 CFG=3
M  V30 38 1 3 35
M  V30 39 1 7 36
M  V30 40 1 7 37
M  V30 41 1 8 38
M  V30 42 1 8 39
M  V30 43 1 10 40
M  V30 44 1 13 41
M  V30 45 1 15 42
M  V30 46 1 16 43
M  V30 47 1 19 44
M  V30 48 1 19 45
M  V30 49 1 19 46
M  V30 50 1 22 47
M  V30 51 1 22 48
M  V30 52 1 24 49
M  V30 53 1 25 50
M  V30 54 1 30 51
M  V30 END BOND
M  V30 END CTAB
M  END
>  <Dataset>  (682) 
ChEMBL_Kinases

>  <Ligand_Instance>  (682) 
nan

>  <PDB_ID>  (682) 
nan

>  <Standardized_SMILES>  (682) 
C[C@@H](NC(=O)N1CCc2cnc(Nc3ccnn3C)nc2C1)c1ccc(Cl)c(Cl)c1

>  <Name>  (682) 
nan

>  <Pocket>  (682) 
nan

>  <ATP_Site>  (682) 
nan

>  <Peripheral>  (682) 
nan

>  <Num_H_Atoms_ProtBoundConf>  (682) 
nan

>  <Num_Resolved_Atoms>  (682) 
nan

>  <Num_Not_Resolved_Atoms>  (682) 
nan

$$$$
CHEMBL3781651
     RDKit          3D

  0  0  0  0  0  0  0  0  0  0999 V3000
M  V30 BEGIN CTAB
M  V30 COUNTS 56 60 0 0 0
M  V30 BEGIN ATOM
M  V30 1 C 5.747328 -4.367860 5.322221 0
M  V30 2 O 5.604682 -4.872944 4.001944 0
M  V30 3 C 4.943506 -4.157204 3.018128 0
M  V30 4 C 4.392409 -2.907990 3.294015 0
M  V30 5 C 3.752104 -2.258373 2.275211 0
M  V30 6 C 3.613098 -2.749839 0.997557 0
M  V30 7 C 2.931624 -2.088559 -0.101013 0
M  V30 8 C 2.336359 -0.854488 0.079914 0
M  V30 9 N 1.649571 -0.115103 -0.852198 0
M  V30 10 C 1.558828 -0.694380 -2.111122 0
M  V30 11 C 0.892031 -0.102568 -3.164590 0
M  V30 12 N 0.347219 1.174769 -2.785018 0
M  V30 13 C -0.721977 1.230228 -1.821393 0
M  V30 14 C -1.233168 2.467116 -1.418749 0
M  V30 15 C -2.237740 2.596427 -0.483407 0
M  V30 16 C -2.776346 1.446467 0.095069 0
M  V30 17 N -3.826998 1.515924 1.070761 0
M  V30 18 C -4.216607 0.459993 2.022426 0
M  V30 19 C -5.685378 0.193523 1.917147 0
M  V30 20 C -6.213053 0.835227 0.649686 0
M  V30 21 C -6.018797 2.310086 0.578106 0
M  V30 22 C -4.700044 2.657255 1.262649 0
M  V30 23 C -2.263034 0.242935 -0.312643 0
M  V30 24 C -1.260245 0.099398 -1.245961 0
M  V30 25 N 0.824066 -0.718183 -4.348762 0
M  V30 26 C 1.388740 -1.909551 -4.553618 0
M  V30 27 C 2.074197 -2.549407 -3.519705 0
M  V30 28 C 2.150716 -1.919483 -2.286770 0
M  V30 29 N 2.831759 -2.645062 -1.346437 0
M  V30 30 C 4.169470 -4.002507 0.730556 0
M  V30 31 C 4.822168 -4.673097 1.755194 0
M  V30 32 H 6.379423 -3.463755 5.266610 0
M  V30 33 H 4.751092 -4.060950 5.709607 0
M  V30 34 H 6.172948 -5.129727 5.997840 0
M  V30 35 H 4.470194 -2.474083 4.275094 0
M  V30 36 H 3.328252 -1.295443 2.491661 0
M  V30 37 H 2.349905 -0.310963 1.028512 0
M  V30 38 H 0.682893 2.085342 -3.176074 0
M  V30 39 H -0.803780 3.346446 -1.879789 0
M  V30 40 H -2.591441 3.586114 -0.209805 0
M  V30 41 H -3.925721 0.734190 3.059176 0
M  V30 42 H -3.662201 -0.463382 1.791778 0
M  V30 43 H -5.842251 -0.899478 1.820929 0
M  V30 44 H -6.263891 0.515309 2.809627 0
M  V30 45 H -7.281978 0.534570 0.528270 0
M  V30 46 H -5.684722 0.346907 -0.200880 0
M  V30 47 H -5.872389 2.565915 -0.510399 0
M  V30 48 H -6.856354 2.911011 0.985820 0
M  V30 49 H -4.821763 2.871882 2.337034 0
M  V30 50 H -4.344138 3.584723 0.768179 0
M  V30 51 H -2.622643 -0.701219 0.081405 0
M  V30 52 H -0.894891 -0.895340 -1.540505 0
M  V30 53 H 1.240918 -2.266690 -5.565173 0
M  V30 54 H 2.497603 -3.508962 -3.782091 0
M  V30 55 H 4.086442 -4.420075 -0.245137 0
M  V30 56 H 5.255511 -5.640958 1.561956 0
M  V30 END ATOM
M  V30 BEGIN BOND
M  V30 1 1 1 2
M  V30 2 1 2 3
M  V30 3 2 3 4
M  V30 4 1 4 5
M  V30 5 2 5 6
M  V30 6 1 6 7
M  V30 7 2 7 8
M  V30 8 1 8 9
M  V30 9 2 9 10
M  V30 10 1 10 11
M  V30 11 1 11 12
M  V30 12 1 12 13
M  V30 13 2 13 14
M  V30 14 1 14 15
M  V30 15 2 15 16
M  V30 16 1 16 17
M  V30 17 1 17 18
M  V30 18 1 18 19
M  V30 19 1 19 20
M  V30 20 1 20 21
M  V30 21 1 21 22
M  V30 22 1 16 23
M  V30 23 2 23 24
M  V30 24 2 11 25
M  V30 25 1 25 26
M  V30 26 2 26 27
M  V30 27 1 27 28
M  V30 28 2 28 29
M  V30 29 1 6 30
M  V30 30 2 30 31
M  V30 31 1 31 3
M  V30 32 1 29 7
M  V30 33 1 28 10
M  V30 34 1 24 13
M  V30 35 1 22 17
M  V30 36 1 1 32
M  V30 37 1 1 33
M  V30 38 1 1 34
M  V30 39 1 4 35
M  V30 40 1 5 36
M  V30 41 1 8 37
M  V30 42 1 12 38
M  V30 43 1 14 39
M  V30 44 1 15 40
M  V30 45 1 18 41
M  V30 46 1 18 42
M  V30 47 1 19 43
M  V30 48 1 19 44
M  V30 49 1 20 45
M  V30 50 1 20 46
M  V30 51 1 21 47
M  V30 52 1 21 48
M  V30 53 1 22 49
M  V30 54 1 22 50
M  V30 55 1 23 51
M  V30 56 1 24 52
M  V30 57 1 26 53
M  V30 58 1 27 54
M  V30 59 1 30 55
M  V30 60 1 31 56
M  V30 END BOND
M  V30 END CTAB
M  END
>  <Dataset>  (683) 
ChEMBL_Kinases

>  <Ligand_Instance>  (683) 
nan

>  <PDB_ID>  (683) 
nan

>  <Standardized_SMILES>  (683) 
COc1ccc(-c2cnc3c(Nc4ccc(N5CCCCC5)cc4)nccc3n2)cc1

>  <Name>  (683) 
nan

>  <Pocket>  (683) 
nan

>  <ATP_Site>  (683) 
nan

>  <Peripheral>  (683) 
nan

>  <Num_H_Atoms_ProtBoundConf>  (683) 
nan

>  <Num_Resolved_Atoms>  (683) 
nan

>  <Num_Not_Resolved_Atoms>  (683) 
nan

$$$$
CHEMBL3781687
     RDKit          3D

  0  0  0  0  0  0  0  0  0  0999 V3000
M  V30 BEGIN CTAB
M  V30 COUNTS 81 85 0 0 0
M  V30 BEGIN ATOM
M  V30 1 C 1.994623 -9.432873 -2.742016 0
M  V30 2 N 2.520727 -9.013087 -1.453012 0
M  V30 3 C 3.200830 -7.772912 -1.372951 0
M  V30 4 O 3.304761 -7.112411 -2.431470 0
M  V30 5 N 3.783358 -7.180449 -0.236357 0
M  V30 6 C 4.472518 -5.962619 -0.067460 0
M  V30 7 C 4.758956 -5.010773 -1.012239 0
M  V30 8 C 5.436070 -3.843278 -0.780270 0
M  V30 9 C 5.709010 -2.867144 -1.838510 0
M  V30 10 C 4.606192 -1.841729 -1.967120 0
M  V30 11 O 4.463237 -1.127908 -0.734733 0
M  V30 12 C 3.516407 -0.132246 -0.597326 0
M  V30 13 C 2.655127 0.235121 -1.629928 0
M  V30 14 C 1.718457 1.236522 -1.458716 0
M  V30 15 C 1.623407 1.893864 -0.246383 0
M  V30 16 N 0.685150 2.951340 0.042232 0
M  V30 17 C -0.581014 2.512078 0.575147 0
M  V30 18 O -0.674628 1.260952 0.708156 0
M  V30 19 N -1.678902 3.337581 0.944562 0
M  V30 20 C -2.843526 2.697758 1.452784 0
M  V30 21 C -3.250815 2.343895 2.719797 0
M  V30 22 C -4.484252 1.751317 2.545665 0
M  V30 23 C -5.294434 1.213867 3.671526 0
M  V30 24 C -4.572121 1.419008 4.964371 0
M  V30 25 C -6.651209 1.863304 3.620045 0
M  V30 26 C -5.526789 -0.288984 3.474293 0
M  V30 27 N -4.775552 1.763000 1.235057 0
M  V30 28 N -3.786899 2.336281 0.551601 0
M  V30 29 C -3.919519 2.439245 -0.862350 0
M  V30 30 C -3.342272 1.501036 -1.705240 0
M  V30 31 C -3.538357 1.704336 -3.067971 0
M  V30 32 C -4.259356 2.768478 -3.554347 0
M  V30 33 C -4.490359 3.019179 -5.001050 0
M  V30 34 C -4.826935 3.692580 -2.702477 0
M  V30 35 C -4.637186 3.499526 -1.331310 0
M  V30 36 C 2.464657 1.550248 0.794891 0
M  V30 37 C 2.414093 2.172535 2.025852 0
M  V30 38 C 3.231687 1.864141 3.092703 0
M  V30 39 C 4.155517 0.854682 2.877028 0
M  V30 40 C 4.240488 0.211712 1.674390 0
M  V30 41 C 3.402853 0.542590 0.613454 0
M  V30 42 C 5.863943 -3.605708 0.505468 0
M  V30 43 C 5.574503 -4.558555 1.439777 0
M  V30 44 N 4.917263 -5.670846 1.166900 0
M  V30 45 H 1.824897 -10.527147 -2.676106 0
M  V30 46 H 1.032139 -8.952282 -2.977784 0
M  V30 47 H 2.749170 -9.162055 -3.511005 0
M  V30 48 H 2.445220 -9.549253 -0.555820 0
M  V30 49 H 3.631613 -7.818477 0.567322 0
M  V30 50 H 4.431475 -5.181905 -2.020583 0
M  V30 51 H 6.641305 -2.296443 -1.573455 0
M  V30 52 H 5.792691 -3.399094 -2.804885 0
M  V30 53 H 3.647332 -2.345145 -2.211199 0
M  V30 54 H 4.853142 -1.120239 -2.764110 0
M  V30 55 H 2.722851 -0.279199 -2.592547 0
M  V30 56 H 1.037560 1.556129 -2.212327 0
M  V30 57 H 0.772241 3.999728 -0.072663 0
M  V30 58 H -1.430091 4.351824 0.768589 0
M  V30 59 H -2.642670 2.542522 3.588545 0
M  V30 60 H -4.985895 0.692186 5.722246 0
M  V30 61 H -3.511373 1.197339 4.854838 0
M  V30 62 H -4.795131 2.420048 5.384299 0
M  V30 63 H -6.865239 2.102588 2.554074 0
M  V30 64 H -6.582658 2.818578 4.159646 0
M  V30 65 H -7.462056 1.235682 4.041543 0
M  V30 66 H -5.320501 -0.500338 2.399350 0
M  V30 67 H -4.803181 -0.893919 4.057393 0
M  V30 68 H -6.585071 -0.573605 3.638786 0
M  V30 69 H -2.776226 0.666032 -1.317384 0
M  V30 70 H -3.107866 0.999103 -3.775406 0
M  V30 71 H -4.175643 2.176400 -5.636876 0
M  V30 72 H -3.830642 3.881429 -5.272715 0
M  V30 73 H -5.557224 3.193037 -5.234763 0
M  V30 74 H -5.401630 4.544805 -3.031906 0
M  V30 75 H -5.083547 4.226511 -0.658742 0
M  V30 76 H 1.687197 2.967980 2.198028 0
M  V30 77 H 3.132186 2.397440 4.028726 0
M  V30 78 H 4.800817 0.614153 3.725352 0
M  V30 79 H 4.967980 -0.572257 1.528017 0
M  V30 80 H 6.403674 -2.703881 0.756005 0
M  V30 81 H 5.923931 -4.349864 2.456226 0
M  V30 END ATOM
M  V30 BEGIN BOND
M  V30 1 1 1 2
M  V30 2 1 2 3
M  V30 3 2 3 4
M  V30 4 1 3 5
M  V30 5 1 5 6
M  V30 6 2 6 7
M  V30 7 1 7 8
M  V30 8 1 8 9
M  V30 9 1 9 10
M  V30 10 1 10 11
M  V30 11 1 11 12
M  V30 12 2 12 13
M  V30 13 1 13 14
M  V30 14 2 14 15
M  V30 15 1 15 16
M  V30 16 1 16 17
M  V30 17 2 17 18
M  V30 18 1 17 19
M  V30 19 1 19 20
M  V30 20 2 20 21
M  V30 21 1 21 22
M  V30 22 1 22 23
M  V30 23 1 23 24
M  V30 24 1 23 25
M  V30 25 1 23 26
M  V30 26 2 22 27
M  V30 27 1 27 28
M  V30 28 1 28 29
M  V30 29 2 29 30
M  V30 30 1 30 31
M  V30 31 2 31 32
M  V30 32 1 32 33
M  V30 33 1 32 34
M  V30 34 2 34 35
M  V30 35 1 15 36
M  V30 36 2 36 37
M  V30 37 1 37 38
M  V30 38 2 38 39
M  V30 39 1 39 40
M  V30 40 2 40 41
M  V30 41 2 8 42
M  V30 42 1 42 43
M  V30 43 2 43 44
M  V30 44 1 44 6
M  V30 45 1 41 12
M  V30 46 1 28 20
M  V30 47 1 35 29
M  V30 48 1 41 36
M  V30 49 1 1 45
M  V30 50 1 1 46
M  V30 51 1 1 47
M  V30 52 1 2 48
M  V30 53 1 5 49
M  V30 54 1 7 50
M  V30 55 1 9 51
M  V30 56 1 9 52
M  V30 57 1 10 53
M  V30 58 1 10 54
M  V30 59 1 13 55
M  V30 60 1 14 56
M  V30 61 1 16 57
M  V30 62 1 19 58
M  V30 63 1 21 59
M  V30 64 1 24 60
M  V30 65 1 24 61
M  V30 66 1 24 62
M  V30 67 1 25 63
M  V30 68 1 25 64
M  V30 69 1 25 65
M  V30 70 1 26 66
M  V30 71 1 26 67
M  V30 72 1 26 68
M  V30 73 1 30 69
M  V30 74 1 31 70
M  V30 75 1 33 71
M  V30 76 1 33 72
M  V30 77 1 33 73
M  V30 78 1 34 74
M  V30 79 1 35 75
M  V30 80 1 37 76
M  V30 81 1 38 77
M  V30 82 1 39 78
M  V30 83 1 40 79
M  V30 84 1 42 80
M  V30 85 1 43 81
M  V30 END BOND
M  V30 END CTAB
M  END
>  <Dataset>  (684) 
ChEMBL_Kinases

>  <Ligand_Instance>  (684) 
nan

>  <PDB_ID>  (684) 
nan

>  <Standardized_SMILES>  (684) 
CNC(=O)Nc1cc(CCOc2ccc(NC(=O)Nc3cc(C(C)(C)C)nn3-c3ccc(C)cc3)c3ccccc23)ccn1

>  <Name>  (684) 
nan

>  <Pocket>  (684) 
nan

>  <ATP_Site>  (684) 
nan

>  <Peripheral>  (684) 
nan

>  <Num_H_Atoms_ProtBoundConf>  (684) 
nan

>  <Num_Resolved_Atoms>  (684) 
nan

>  <Num_Not_Resolved_Atoms>  (684) 
nan

$$$$
CHEMBL4105185
     RDKit          3D

  0  0  0  0  0  0  0  0  0  0999 V3000
M  V30 BEGIN CTAB
M  V30 COUNTS 55 59 0 0 0
M  V30 BEGIN ATOM
M  V30 1 C 0.304134 -2.960161 3.618831 0
M  V30 2 N 1.518724 -3.775292 3.778788 0
M  V30 3 C 2.528680 -2.940719 4.302995 0
M  V30 4 C 3.530379 -2.399929 3.352241 0
M  V30 5 N 3.241822 -2.831778 1.973723 0
M  V30 6 C 3.063822 -1.964376 0.860402 0
M  V30 7 C 2.449470 -0.776718 1.198248 0
M  V30 8 C 2.227511 0.156863 0.178277 0
M  V30 9 C 2.628552 -0.142264 -1.122642 0
M  V30 10 N 2.366877 0.793156 -2.170433 0
M  V30 11 C 1.573838 1.918459 -1.786649 0
M  V30 12 N 1.799878 3.237444 -1.554728 0
M  V30 13 C 0.778424 4.040066 -1.174890 0
M  V30 14 C -0.512760 3.597716 -1.002691 0
M  V30 15 C -0.726241 2.237124 -1.245378 0
M  V30 16 C -2.093418 1.700344 -1.064699 0
M  V30 17 C -2.366437 0.344012 -1.284780 0
M  V30 18 C -3.702629 0.118308 -1.047849 0
M  V30 19 C -4.225382 1.337381 -0.686534 0
M  V30 20 N -3.242220 2.283673 -0.701767 0
M  V30 21 C -5.669321 1.453600 -0.346349 0
M  V30 22 C -6.473405 0.395937 -1.099026 0
M  V30 23 N -5.894959 -0.920904 -0.809812 0
M  V30 24 C -4.513299 -1.099997 -1.132520 0
M  V30 25 O -4.052548 -2.221857 -1.459915 0
M  V30 26 N 0.320229 1.463514 -1.624103 0
M  V30 27 C 3.243731 -1.336206 -1.444570 0
M  V30 28 C 3.455031 -2.245862 -0.425955 0
M  V30 29 C 3.146286 -4.287594 1.998566 0
M  V30 30 C 1.739476 -4.489223 2.584509 0
M  V30 31 H -0.596365 -3.548100 3.872275 0
M  V30 32 H 0.328730 -2.105760 4.326483 0
M  V30 33 H 0.223842 -2.558755 2.588835 0
M  V30 34 H 3.061718 -3.528610 5.090403 0
M  V30 35 H 2.041332 -2.108468 4.908207 0
M  V30 36 H 4.539142 -2.855227 3.600434 0
M  V30 37 H 3.639857 -1.309443 3.442478 0
M  V30 38 H 2.117341 -0.499913 2.183769 0
M  V30 39 H 1.745202 1.095469 0.429339 0
M  V30 40 H 2.734276 0.652950 -3.129048 0
M  V30 41 H 1.091687 5.062203 -1.024914 0
M  V30 42 H -1.287425 4.280591 -0.697507 0
M  V30 43 H -1.670139 -0.410755 -1.585895 0
M  V30 44 H -3.282801 3.302756 -0.483980 0
M  V30 45 H -6.100671 2.432147 -0.561935 0
M  V30 46 H -5.802613 1.185426 0.741939 0
M  V30 47 H -7.524849 0.405832 -0.740902 0
M  V30 48 H -6.394539 0.555270 -2.191842 0
M  V30 49 H -6.422027 -1.741500 -0.383679 0
M  V30 50 H 3.538342 -1.524061 -2.463689 0
M  V30 51 H 3.937707 -3.199046 -0.626487 0
M  V30 52 H 3.110357 -4.693830 0.964795 0
M  V30 53 H 3.878021 -4.782809 2.632931 0
M  V30 54 H 1.032691 -4.164991 1.772257 0
M  V30 55 H 1.562019 -5.567029 2.781692 0
M  V30 END ATOM
M  V30 BEGIN BOND
M  V30 1 1 1 2
M  V30 2 1 2 3
M  V30 3 1 3 4
M  V30 4 1 4 5
M  V30 5 1 5 6
M  V30 6 2 6 7
M  V30 7 1 7 8
M  V30 8 2 8 9
M  V30 9 1 9 10
M  V30 10 1 10 11
M  V30 11 2 11 12
M  V30 12 1 12 13
M  V30 13 2 13 14
M  V30 14 1 14 15
M  V30 15 1 15 16
M  V30 16 2 16 17
M  V30 17 1 17 18
M  V30 18 2 18 19
M  V30 19 1 19 20
M  V30 20 1 19 21
M  V30 21 1 21 22
M  V30 22 1 22 23
M  V30 23 1 23 24
M  V30 24 2 24 25
M  V30 25 2 15 26
M  V30 26 1 9 27
M  V30 27 2 27 28
M  V30 28 1 5 29
M  V30 29 1 29 30
M  V30 30 1 30 2
M  V30 31 1 28 6
M  V30 32 1 26 11
M  V30 33 1 20 16
M  V30 34 1 24 18
M  V30 35 1 1 31
M  V30 36 1 1 32
M  V30 37 1 1 33
M  V30 38 1 3 34
M  V30 39 1 3 35
M  V30 40 1 4 36
M  V30 41 1 4 37
M  V30 42 1 7 38
M  V30 43 1 8 39
M  V30 44 1 10 40
M  V30 45 1 13 41
M  V30 46 1 14 42
M  V30 47 1 17 43
M  V30 48 1 20 44
M  V30 49 1 21 45
M  V30 50 1 21 46
M  V30 51 1 22 47
M  V30 52 1 22 48
M  V30 53 1 23 49
M  V30 54 1 27 50
M  V30 55 1 28 51
M  V30 56 1 29 52
M  V30 57 1 29 53
M  V30 58 1 30 54
M  V30 59 1 30 55
M  V30 END BOND
M  V30 END CTAB
M  END
>  <Dataset>  (685) 
ChEMBL_Kinases

>  <Ligand_Instance>  (685) 
nan

>  <PDB_ID>  (685) 
nan

>  <Standardized_SMILES>  (685) 
CN1CCN(c2ccc(Nc3nccc(-c4cc5c([nH]4)CCNC5=O)n3)cc2)CC1

>  <Name>  (685) 
nan

>  <Pocket>  (685) 
nan

>  <ATP_Site>  (685) 
nan

>  <Peripheral>  (685) 
nan

>  <Num_H_Atoms_ProtBoundConf>  (685) 
nan

>  <Num_Resolved_Atoms>  (685) 
nan

>  <Num_Not_Resolved_Atoms>  (685) 
nan

$$$$
CHEMBL4104765
     RDKit          3D

  0  0  0  0  0  0  0  0  0  0999 V3000
M  V30 BEGIN CTAB
M  V30 COUNTS 50 54 0 0 0
M  V30 BEGIN ATOM
M  V30 1 C 1.291038 -4.867433 -2.632951 0
M  V30 2 C 1.559402 -3.909575 -1.538683 0
M  V30 3 C 0.566249 -3.630850 -0.617600 0
M  V30 4 C 0.769032 -2.747267 0.417221 0
M  V30 5 C 1.962535 -2.086483 0.604352 0
M  V30 6 C 2.410867 -1.088368 1.618709 0 CFG=1
M  V30 7 C 3.690251 -1.769032 2.193387 0
M  V30 8 N 2.824526 0.160494 1.079250 0
M  V30 9 N 4.111935 0.427626 0.804368 0
M  V30 10 N 4.276783 1.636762 0.315284 0
M  V30 11 C 3.080843 2.243423 0.240328 0
M  V30 12 C 2.725453 3.500381 -0.197133 0
M  V30 13 N 1.422381 3.831593 -0.151180 0
M  V30 14 C 0.530263 2.916390 0.320474 0
M  V30 15 C -0.783039 3.334204 0.330883 0
M  V30 16 C -1.708585 2.426092 0.800517 0
M  V30 17 C -1.378468 1.141653 1.251118 0
M  V30 18 C -2.479543 0.274147 1.727341 0
M  V30 19 C -2.316343 -0.658756 2.700879 0
M  V30 20 C -3.429757 -1.395675 3.045653 0
M  V30 21 N -4.632693 -1.233733 2.475596 0
M  V30 22 C -4.829871 -0.323444 1.512730 0
M  V30 23 C -6.161823 -0.129314 0.867370 0
M  V30 24 C -3.732105 0.437831 1.138573 0
M  V30 25 C -0.040771 0.795039 1.210221 0
M  V30 26 C 0.906276 1.665731 0.752677 0
M  V30 27 C 2.219752 1.282048 0.726191 0
M  V30 28 C 2.973771 -2.364383 -0.325529 0
M  V30 29 C 2.764436 -3.261383 -1.373791 0
M  V30 30 H 0.288291 -4.807137 -3.059092 0
M  V30 31 H 2.001409 -4.641038 -3.460610 0
M  V30 32 H 1.460022 -5.894692 -2.249483 0
M  V30 33 H -0.419586 -4.076896 -0.643343 0
M  V30 34 H 0.038553 -2.498259 1.165591 0
M  V30 35 H 1.783522 -1.054699 2.531304 0
M  V30 36 H 3.524389 -2.844387 2.242316 0
M  V30 37 H 4.532786 -1.560024 1.523309 0
M  V30 38 H 3.905812 -1.388317 3.205653 0
M  V30 39 H 3.507354 4.183769 -0.564968 0
M  V30 40 H -1.064913 4.317175 -0.010138 0
M  V30 41 H -2.737889 2.751777 0.809555 0
M  V30 42 H -1.342251 -0.774596 3.147340 0
M  V30 43 H -3.336026 -2.146332 3.816192 0
M  V30 44 H -6.858996 -0.854075 1.298942 0
M  V30 45 H -6.526751 0.908559 0.932635 0
M  V30 46 H -6.069099 -0.354360 -0.212028 0
M  V30 47 H -3.941646 1.172403 0.344453 0
M  V30 48 H 0.078263 -0.193631 1.568769 0
M  V30 49 H 3.990113 -1.968857 -0.385271 0
M  V30 50 H 3.495370 -3.525538 -2.128120 0
M  V30 END ATOM
M  V30 BEGIN BOND
M  V30 1 1 1 2
M  V30 2 2 2 3
M  V30 3 1 3 4
M  V30 4 2 4 5
M  V30 5 1 5 6
M  V30 6 1 6 7
M  V30 7 1 6 8
M  V30 8 1 8 9
M  V30 9 2 9 10
M  V30 10 1 10 11
M  V30 11 2 11 12
M  V30 12 1 12 13
M  V30 13 2 13 14
M  V30 14 1 14 15
M  V30 15 2 15 16
M  V30 16 1 16 17
M  V30 17 1 17 18
M  V30 18 2 18 19
M  V30 19 1 19 20
M  V30 20 2 20 21
M  V30 21 1 21 22
M  V30 22 1 22 23
M  V30 23 2 22 24
M  V30 24 2 17 25
M  V30 25 1 25 26
M  V30 26 2 26 27
M  V30 27 1 5 28
M  V30 28 2 28 29
M  V30 29 1 29 2
M  V30 30 1 27 8
M  V30 31 1 27 11
M  V30 32 1 26 14
M  V30 33 1 24 18
M  V30 34 1 1 30
M  V30 35 1 1 31
M  V30 36 1 1 32
M  V30 37 1 3 33
M  V30 38 1 4 34
M  V30 39 1 6 35 CFG=1
M  V30 40 1 7 36
M  V30 41 1 7 37
M  V30 42 1 7 38
M  V30 43 1 12 39
M  V30 44 1 15 40
M  V30 45 1 16 41
M  V30 46 1 19 42
M  V30 47 1 20 43
M  V30 48 1 23 44
M  V30 49 1 23 45
M  V30 50 1 23 46
M  V30 51 1 24 47
M  V30 52 1 25 48
M  V30 53 1 28 49
M  V30 54 1 29 50
M  V30 END BOND
M  V30 END CTAB
M  END
>  <Dataset>  (686) 
ChEMBL_Kinases

>  <Ligand_Instance>  (686) 
nan

>  <PDB_ID>  (686) 
nan

>  <Standardized_SMILES>  (686) 
Cc1ccc([C@@H](C)n2nnc3cnc4ccc(-c5ccnc(C)c5)cc4c32)cc1

>  <Name>  (686) 
nan

>  <Pocket>  (686) 
nan

>  <ATP_Site>  (686) 
nan

>  <Peripheral>  (686) 
nan

>  <Num_H_Atoms_ProtBoundConf>  (686) 
nan

>  <Num_Resolved_Atoms>  (686) 
nan

>  <Num_Not_Resolved_Atoms>  (686) 
nan

$$$$
CHEMBL378171
     RDKit          3D

  0  0  0  0  0  0  0  0  0  0999 V3000
M  V30 BEGIN CTAB
M  V30 COUNTS 41 45 0 0 0
M  V30 BEGIN ATOM
M  V30 1 O 3.193066 1.329377 -0.254793 0
M  V30 2 C 2.517674 0.993127 0.773326 0
M  V30 3 N 2.622767 1.408412 2.139003 0
M  V30 4 C 1.643923 0.749401 2.909209 0
M  V30 5 O 1.630613 1.023051 4.107656 0
M  V30 6 C 0.880747 -0.110836 2.053285 0
M  V30 7 C 1.409194 0.044489 0.794575 0
M  V30 8 C 0.876892 -0.670342 -0.284390 0
M  V30 9 C 1.403636 -0.537623 -1.635212 0
M  V30 10 C 2.432142 -1.413390 -1.966031 0
M  V30 11 C 2.984748 -1.345547 -3.231410 0
M  V30 12 C 2.522685 -0.422220 -4.153488 0
M  V30 13 C 1.488167 0.454511 -3.812609 0
M  V30 14 C 0.938800 0.384562 -2.549588 0
M  V30 15 C -0.160306 1.291494 -2.136986 0
M  V30 16 O 0.325410 2.307588 -1.292861 0
M  V30 17 C -0.182142 -1.535494 -0.089610 0
M  V30 18 C -0.686992 -1.665950 1.187552 0
M  V30 19 N -1.700602 -2.431618 1.633909 0
M  V30 20 C -1.791931 -2.190475 2.975494 0
M  V30 21 C -2.707775 -2.766663 3.859480 0
M  V30 22 C -2.679821 -2.423411 5.194320 0
M  V30 23 C -1.739612 -1.507610 5.644743 0
M  V30 24 O -1.687209 -1.138728 6.998974 0
M  V30 25 C -0.872111 -0.984625 4.712452 0
M  V30 26 C -0.843633 -1.277921 3.382682 0
M  V30 27 C -0.161947 -0.962277 2.246142 0
M  V30 28 H 3.375348 2.112986 2.377421 0
M  V30 29 H 2.813870 -2.150093 -1.256071 0
M  V30 30 H 3.790855 -2.002439 -3.549022 0
M  V30 31 H 2.969553 -0.383909 -5.143116 0
M  V30 32 H 1.139729 1.170312 -4.546492 0
M  V30 33 H -0.551942 1.829549 -3.025388 0
M  V30 34 H -1.000029 0.782510 -1.664115 0
M  V30 35 H 0.936033 2.901823 -1.805724 0
M  V30 36 H -0.589316 -2.086129 -0.932920 0
M  V30 37 H -2.278098 -3.068260 1.045752 0
M  V30 38 H -3.436242 -3.478531 3.501424 0
M  V30 39 H -3.377833 -2.850664 5.918757 0
M  V30 40 H -1.719984 -0.184985 7.316763 0
M  V30 41 H -0.175492 -0.289503 5.111989 0
M  V30 END ATOM
M  V30 BEGIN BOND
M  V30 1 2 1 2
M  V30 2 1 2 3
M  V30 3 1 3 4
M  V30 4 2 4 5
M  V30 5 1 4 6
M  V30 6 2 6 7
M  V30 7 1 7 8
M  V30 8 1 8 9
M  V30 9 2 9 10
M  V30 10 1 10 11
M  V30 11 2 11 12
M  V30 12 1 12 13
M  V30 13 2 13 14
M  V30 14 1 14 15
M  V30 15 1 15 16
M  V30 16 2 8 17
M  V30 17 1 17 18
M  V30 18 1 18 19
M  V30 19 1 19 20
M  V30 20 2 20 21
M  V30 21 1 21 22
M  V30 22 2 22 23
M  V30 23 1 23 24
M  V30 24 1 23 25
M  V30 25 2 25 26
M  V30 26 1 26 27
M  V30 27 1 7 2
M  V30 28 1 14 9
M  V30 29 2 27 18
M  V30 30 1 27 6
M  V30 31 1 26 20
M  V30 32 1 3 28
M  V30 33 1 10 29
M  V30 34 1 11 30
M  V30 35 1 12 31
M  V30 36 1 13 32
M  V30 37 1 15 33
M  V30 38 1 15 34
M  V30 39 1 16 35
M  V30 40 1 17 36
M  V30 41 1 19 37
M  V30 42 1 21 38
M  V30 43 1 22 39
M  V30 44 1 24 40
M  V30 45 1 25 41
M  V30 END BOND
M  V30 END CTAB
M  END
>  <Dataset>  (687) 
ChEMBL_Kinases

>  <Ligand_Instance>  (687) 
nan

>  <PDB_ID>  (687) 
nan

>  <Standardized_SMILES>  (687) 
O=C1NC(=O)c2c1c(-c1ccccc1CO)cc1[nH]c3ccc(O)cc3c21

>  <Name>  (687) 
nan

>  <Pocket>  (687) 
nan

>  <ATP_Site>  (687) 
nan

>  <Peripheral>  (687) 
nan

>  <Num_H_Atoms_ProtBoundConf>  (687) 
nan

>  <Num_Resolved_Atoms>  (687) 
nan

>  <Num_Not_Resolved_Atoms>  (687) 
nan

$$$$
CHEMBL336001
     RDKit          3D

  0  0  0  0  0  0  0  0  0  0999 V3000
M  V30 BEGIN CTAB
M  V30 COUNTS 70 74 0 0 0
M  V30 BEGIN ATOM
M  V30 1 C 4.523817 2.359088 3.275813 0
M  V30 2 C 3.468444 2.579225 2.249250 0
M  V30 3 C 3.729000 3.361982 1.131344 0
M  V30 4 C 2.778417 3.589588 0.159474 0
M  V30 5 C 1.527912 3.023343 0.298871 0
M  V30 6 N 0.415008 3.136754 -0.587194 0
M  V30 7 N -0.429994 4.138640 -0.643754 0
M  V30 8 C -1.363232 3.902700 -1.609416 0
M  V30 9 C -2.526480 4.759618 -2.039313 0
M  V30 10 C -2.144607 5.697964 -3.133822 0
M  V30 11 C -3.663965 3.845500 -2.412200 0
M  V30 12 C -2.904240 5.578080 -0.809910 0
M  V30 13 C -1.040128 2.677519 -2.154284 0
M  V30 14 C 0.080826 2.202094 -1.504810 0
M  V30 15 N 0.774054 0.964919 -1.739374 0
M  V30 16 C 0.310870 -0.134338 -0.982052 0
M  V30 17 O -0.623475 -0.168775 -0.136011 0
M  V30 18 N 0.995840 -1.381645 -1.205219 0
M  V30 19 C 0.750586 -2.653460 -0.592508 0
M  V30 20 C -0.165117 -3.401190 -1.303578 0
M  V30 21 C -0.506673 -4.651583 -0.840162 0
M  V30 22 C 0.010980 -5.215878 0.302713 0
M  V30 23 O -0.193002 -6.418942 0.920595 0
M  V30 24 C -0.997588 -7.484467 0.614198 0
M  V30 25 C -2.467524 -7.258006 0.570343 0
M  V30 26 N -3.000129 -6.790837 1.844702 0
M  V30 27 C -3.056903 -5.458426 2.079301 0
M  V30 28 C -3.588093 -5.225461 3.332523 0
M  V30 29 N -3.842476 -6.449062 3.829942 0
M  V30 30 C -3.491495 -7.393094 2.941071 0
M  V30 31 C 0.930361 -4.429375 0.989358 0
M  V30 32 C 1.568152 -4.824149 2.170821 0
M  V30 33 C 2.476773 -4.041480 2.845130 0
M  V30 34 C 2.793281 -2.794695 2.349607 0
M  V30 35 C 2.204365 -2.336916 1.188847 0
M  V30 36 C 1.303146 -3.169457 0.561960 0
M  V30 37 C 1.242566 2.237337 1.406461 0
M  V30 38 C 2.200637 2.005821 2.389494 0
M  V30 39 H 4.038777 2.271333 4.253748 0
M  V30 40 H 5.207764 3.224571 3.289660 0
M  V30 41 H 5.123726 1.444597 3.036097 0
M  V30 42 H 4.705831 3.830399 0.979317 0
M  V30 43 H 2.888852 4.175301 -0.730577 0
M  V30 44 H -1.908953 6.690053 -2.710092 0
M  V30 45 H -1.278081 5.338157 -3.724791 0
M  V30 46 H -3.026051 5.839217 -3.809244 0
M  V30 47 H -4.006404 3.974324 -3.455286 0
M  V30 48 H -4.491015 3.970141 -1.684434 0
M  V30 49 H -3.360914 2.768069 -2.309424 0
M  V30 50 H -2.248896 6.455530 -0.807197 0
M  V30 51 H -2.871733 4.991364 0.117760 0
M  V30 52 H -3.951170 5.931927 -1.015188 0
M  V30 53 H -1.514458 2.130566 -2.931780 0
M  V30 54 H 1.575479 0.878931 -2.429155 0
M  V30 55 H 1.793391 -1.531213 -1.869716 0
M  V30 56 H -0.657293 -3.091448 -2.220156 0
M  V30 57 H -1.209974 -5.284123 -1.356832 0
M  V30 58 H -0.665827 -7.873975 -0.393470 0
M  V30 59 H -0.728129 -8.327423 1.310296 0
M  V30 60 H -2.775916 -6.617438 -0.244969 0
M  V30 61 H -2.979958 -8.245814 0.403558 0
M  V30 62 H -2.763404 -4.607997 1.462793 0
M  V30 63 H -3.782278 -4.293161 3.855292 0
M  V30 64 H -3.523740 -8.476312 2.932767 0
M  V30 65 H 1.328302 -5.797188 2.566986 0
M  V30 66 H 2.933467 -4.412871 3.757964 0
M  V30 67 H 3.506284 -2.164995 2.867049 0
M  V30 68 H 2.457192 -1.358096 0.805998 0
M  V30 69 H 0.319781 1.738745 1.641352 0
M  V30 70 H 2.067206 1.415565 3.271970 0
M  V30 END ATOM
M  V30 BEGIN BOND
M  V30 1 1 1 2
M  V30 2 2 2 3
M  V30 3 1 3 4
M  V30 4 2 4 5
M  V30 5 1 5 6
M  V30 6 1 6 7
M  V30 7 2 7 8
M  V30 8 1 8 9
M  V30 9 1 9 10
M  V30 10 1 9 11
M  V30 11 1 9 12
M  V30 12 1 8 13
M  V30 13 2 13 14
M  V30 14 1 14 15
M  V30 15 1 15 16
M  V30 16 2 16 17
M  V30 17 1 16 18
M  V30 18 1 18 19
M  V30 19 2 19 20
M  V30 20 1 20 21
M  V30 21 2 21 22
M  V30 22 1 22 23
M  V30 23 1 23 24
M  V30 24 1 24 25
M  V30 25 1 25 26
M  V30 26 1 26 27
M  V30 27 2 27 28
M  V30 28 1 28 29
M  V30 29 2 29 30
M  V30 30 1 22 31
M  V30 31 2 31 32
M  V30 32 1 32 33
M  V30 33 2 33 34
M  V30 34 1 34 35
M  V30 35 2 35 36
M  V30 36 1 5 37
M  V30 37 2 37 38
M  V30 38 1 38 2
M  V30 39 1 14 6
M  V30 40 1 36 19
M  V30 41 1 30 26
M  V30 42 1 36 31
M  V30 43 1 1 39
M  V30 44 1 1 40
M  V30 45 1 1 41
M  V30 46 1 3 42
M  V30 47 1 4 43
M  V30 48 1 10 44
M  V30 49 1 10 45
M  V30 50 1 10 46
M  V30 51 1 11 47
M  V30 52 1 11 48
M  V30 53 1 11 49
M  V30 54 1 12 50
M  V30 55 1 12 51
M  V30 56 1 12 52
M  V30 57 1 13 53
M  V30 58 1 15 54
M  V30 59 1 18 55
M  V30 60 1 20 56
M  V30 61 1 21 57
M  V30 62 1 24 58
M  V30 63 1 24 59
M  V30 64 1 25 60
M  V30 65 1 25 61
M  V30 66 1 27 62
M  V30 67 1 28 63
M  V30 68 1 30 64
M  V30 69 1 32 65
M  V30 70 1 33 66
M  V30 71 1 34 67
M  V30 72 1 35 68
M  V30 73 1 37 69
M  V30 74 1 38 70
M  V30 END BOND
M  V30 END CTAB
M  END
>  <Dataset>  (688) 
ChEMBL_Kinases

>  <Ligand_Instance>  (688) 
nan

>  <PDB_ID>  (688) 
nan

>  <Standardized_SMILES>  (688) 
Cc1ccc(-n2nc(C(C)(C)C)cc2NC(=O)Nc2ccc(OCCn3ccnc3)c3ccccc23)cc1

>  <Name>  (688) 
nan

>  <Pocket>  (688) 
nan

>  <ATP_Site>  (688) 
nan

>  <Peripheral>  (688) 
nan

>  <Num_H_Atoms_ProtBoundConf>  (688) 
nan

>  <Num_Resolved_Atoms>  (688) 
nan

>  <Num_Not_Resolved_Atoms>  (688) 
nan

$$$$
CHEMBL3781982
     RDKit          3D

  0  0  0  0  0  0  0  0  0  0999 V3000
M  V30 BEGIN CTAB
M  V30 COUNTS 83 87 0 0 0
M  V30 BEGIN ATOM
M  V30 1 C 4.804821 -4.881800 0.248241 0
M  V30 2 O 5.337273 -3.620628 0.025167 0
M  V30 3 C 5.418108 -2.941096 1.219589 0
M  V30 4 C 5.980532 -1.569856 1.109345 0
M  V30 5 O 6.118048 -0.836269 2.114155 0
M  V30 6 N 6.328560 -1.194841 -0.201421 0
M  V30 7 C 6.880616 -0.029535 -0.798752 0
M  V30 8 C 6.035583 0.975798 -1.182384 0
M  V30 9 C 6.307926 2.222169 -1.797884 0
M  V30 10 C 5.083843 3.054272 -2.055028 0
M  V30 11 C 5.435040 4.474453 -2.314989 0
M  V30 12 O 4.202471 2.951912 -0.962034 0
M  V30 13 C 2.991564 2.310990 -0.927575 0
M  V30 14 C 2.444302 1.682923 -2.008275 0
M  V30 15 C 1.231213 1.099295 -1.761715 0
M  V30 16 C 0.600263 1.117063 -0.584298 0
M  V30 17 N -0.646819 0.609626 -0.317187 0
M  V30 18 C -1.911639 0.156171 -0.059954 0
M  V30 19 O -2.536095 1.262276 -0.212885 0
M  V30 20 N -2.601726 -1.000021 0.272623 0
M  V30 21 C -3.995043 -0.936642 0.471406 0
M  V30 22 C -4.892877 0.072731 0.501425 0
M  V30 23 C -6.149609 -0.439622 0.720976 0
M  V30 24 C -7.387170 0.383365 0.822618 0
M  V30 25 C -7.613280 0.660414 2.293890 0
M  V30 26 C -7.145698 1.700563 0.073412 0
M  V30 27 C -8.568200 -0.281848 0.171921 0
M  V30 28 N -5.926591 -1.771757 0.813405 0
M  V30 29 N -4.666901 -2.080913 0.669481 0
M  V30 30 C -4.179484 -3.416031 0.717714 0
M  V30 31 C -4.841722 -4.225850 -0.211746 0
M  V30 32 C -4.472577 -5.577041 -0.299810 0
M  V30 33 C -3.492326 -6.067078 0.509252 0
M  V30 34 C -3.096046 -7.492458 0.422864 0
M  V30 35 C -2.816983 -5.278308 1.445240 0
M  V30 36 C -3.199352 -3.956906 1.509848 0
M  V30 37 C 1.171333 1.771599 0.540005 0
M  V30 38 C 0.521785 1.811065 1.784287 0
M  V30 39 C 1.080536 2.456050 2.861788 0
M  V30 40 C 2.300773 3.051985 2.642243 0
M  V30 41 C 2.967096 3.042757 1.463292 0
M  V30 42 C 2.427177 2.398746 0.357237 0
M  V30 43 C 7.688754 2.409031 -2.030744 0
M  V30 44 C 8.526822 1.399188 -1.643525 0
M  V30 45 N 8.172884 0.251431 -1.066751 0
M  V30 46 H 3.777070 -4.793587 0.672794 0
M  V30 47 H 4.790225 -5.524606 -0.640614 0
M  V30 48 H 5.409108 -5.432769 1.031136 0
M  V30 49 H 5.924770 -3.553054 1.966644 0
M  V30 50 H 4.337603 -2.767337 1.527925 0
M  V30 51 H 6.222077 -1.791918 -1.070218 0
M  V30 52 H 4.981635 0.763703 -0.971330 0
M  V30 53 H 4.609506 2.604736 -2.940511 0
M  V30 54 H 6.474136 4.720018 -1.941000 0
M  V30 55 H 4.733791 5.196241 -1.833327 0
M  V30 56 H 5.433749 4.713012 -3.398318 0
M  V30 57 H 2.898320 1.640723 -2.961334 0
M  V30 58 H 0.782642 0.590262 -2.619627 0
M  V30 59 H -0.159029 -0.371307 -0.166302 0
M  V30 60 H -1.960099 -1.804904 0.353586 0
M  V30 61 H -4.692941 1.103550 0.381417 0
M  V30 62 H -7.944512 1.698498 2.407261 0
M  V30 63 H -8.391645 -0.086859 2.623184 0
M  V30 64 H -6.676694 0.492091 2.892475 0
M  V30 65 H -8.102908 2.083561 -0.328493 0
M  V30 66 H -6.385821 1.480030 -0.700893 0
M  V30 67 H -6.660778 2.420217 0.791582 0
M  V30 68 H -9.470810 -0.290018 0.849153 0
M  V30 69 H -8.398103 -1.342658 -0.076380 0
M  V30 70 H -8.862002 0.215304 -0.791758 0
M  V30 71 H -5.642625 -3.936907 -0.907527 0
M  V30 72 H -4.960259 -6.229436 -1.004134 0
M  V30 73 H -3.730260 -8.144892 1.035906 0
M  V30 74 H -3.233886 -7.774787 -0.653547 0
M  V30 75 H -2.003265 -7.612760 0.614841 0
M  V30 76 H -2.024040 -5.608561 2.121442 0
M  V30 77 H -2.756322 -3.255333 2.185428 0
M  V30 78 H -0.435020 1.324293 1.885282 0
M  V30 79 H 0.595312 2.494201 3.811225 0
M  V30 80 H 2.729773 3.556728 3.496236 0
M  V30 81 H 3.925024 3.504212 1.275903 0
M  V30 82 H 7.844150 3.353293 -2.494875 0
M  V30 83 H 9.581397 1.620979 -1.858295 0
M  V30 END ATOM
M  V30 BEGIN BOND
M  V30 1 1 1 2
M  V30 2 1 2 3
M  V30 3 1 3 4
M  V30 4 2 4 5
M  V30 5 1 4 6
M  V30 6 1 6 7
M  V30 7 2 7 8
M  V30 8 1 8 9
M  V30 9 1 9 10
M  V30 10 1 10 11
M  V30 11 1 10 12
M  V30 12 1 12 13
M  V30 13 2 13 14
M  V30 14 1 14 15
M  V30 15 2 15 16
M  V30 16 1 16 17
M  V30 17 1 17 18
M  V30 18 2 18 19
M  V30 19 1 18 20
M  V30 20 1 20 21
M  V30 21 2 21 22
M  V30 22 1 22 23
M  V30 23 1 23 24
M  V30 24 1 24 25
M  V30 25 1 24 26
M  V30 26 1 24 27
M  V30 27 2 23 28
M  V30 28 1 28 29
M  V30 29 1 29 30
M  V30 30 2 30 31
M  V30 31 1 31 32
M  V30 32 2 32 33
M  V30 33 1 33 34
M  V30 34 1 33 35
M  V30 35 2 35 36
M  V30 36 1 16 37
M  V30 37 2 37 38
M  V30 38 1 38 39
M  V30 39 2 39 40
M  V30 40 1 40 41
M  V30 41 2 41 42
M  V30 42 2 9 43
M  V30 43 1 43 44
M  V30 44 2 44 45
M  V30 45 1 45 7
M  V30 46 1 42 13
M  V30 47 1 29 21
M  V30 48 1 36 30
M  V30 49 1 42 37
M  V30 50 1 1 46
M  V30 51 1 1 47
M  V30 52 1 1 48
M  V30 53 1 3 49
M  V30 54 1 3 50
M  V30 55 1 6 51
M  V30 56 1 8 52
M  V30 57 1 10 53
M  V30 58 1 11 54
M  V30 59 1 11 55
M  V30 60 1 11 56
M  V30 61 1 14 57
M  V30 62 1 15 58
M  V30 63 1 17 59
M  V30 64 1 20 60
M  V30 65 1 22 61
M  V30 66 1 25 62
M  V30 67 1 25 63
M  V30 68 1 25 64
M  V30 69 1 26 65
M  V30 70 1 26 66
M  V30 71 1 26 67
M  V30 72 1 27 68
M  V30 73 1 27 69
M  V30 74 1 27 70
M  V30 75 1 31 71
M  V30 76 1 32 72
M  V30 77 1 34 73
M  V30 78 1 34 74
M  V30 79 1 34 75
M  V30 80 1 35 76
M  V30 81 1 36 77
M  V30 82 1 38 78
M  V30 83 1 39 79
M  V30 84 1 40 80
M  V30 85 1 41 81
M  V30 86 1 43 82
M  V30 87 1 44 83
M  V30 END BOND
M  V30 END CTAB
M  END
>  <Dataset>  (689) 
ChEMBL_Kinases

>  <Ligand_Instance>  (689) 
nan

>  <PDB_ID>  (689) 
nan

>  <Standardized_SMILES>  (689) 
COCC(=O)Nc1cc(C(C)Oc2ccc(NC(=O)Nc3cc(C(C)(C)C)nn3-c3ccc(C)cc3)c3ccccc23)ccn1

>  <Name>  (689) 
nan

>  <Pocket>  (689) 
nan

>  <ATP_Site>  (689) 
nan

>  <Peripheral>  (689) 
nan

>  <Num_H_Atoms_ProtBoundConf>  (689) 
nan

>  <Num_Resolved_Atoms>  (689) 
nan

>  <Num_Not_Resolved_Atoms>  (689) 
nan

$$$$
CHEMBL3356475
     RDKit          3D

  0  0  0  0  0  0  0  0  0  0999 V3000
M  V30 BEGIN CTAB
M  V30 COUNTS 41 44 0 0 0
M  V30 BEGIN ATOM
M  V30 1 C 0.139028 -3.020091 2.022356 0
M  V30 2 C -0.744621 -3.040041 0.873212 0 CFG=1
M  V30 3 C -2.134543 -3.582818 1.236584 0
M  V30 4 O -2.326713 -3.783999 2.468111 0
M  V30 5 N -3.195866 -3.872224 0.340454 0
M  V30 6 N -3.115483 -3.135739 -0.848112 0
M  V30 7 C -2.093136 -2.310397 -0.947794 0
M  V30 8 C -2.159120 -1.598080 -2.283154 0
M  V30 9 O -1.902846 -0.213206 -2.092233 0
M  V30 10 C -0.835052 0.197747 -1.275886 0
M  V30 11 C -0.194330 1.399839 -1.396091 0
M  V30 12 C 0.845964 1.766748 -0.581967 0
M  V30 13 C 1.529019 3.068268 -0.723204 0
M  V30 14 F 2.866299 2.908620 -0.998425 0
M  V30 15 F 1.362510 3.774463 0.466518 0
M  V30 16 F 0.940466 3.804781 -1.731587 0
M  V30 17 C 1.228086 0.847694 0.387995 0
M  V30 18 N 2.304019 1.208347 1.240757 0
M  V30 19 C 2.833415 0.398347 2.291083 0
M  V30 20 C 1.758819 0.096448 3.326893 0
M  V30 21 N 2.417817 0.920086 4.324567 0
M  V30 22 C 3.510192 1.096663 3.417297 0
M  V30 23 C 0.562342 -0.348371 0.479528 0
M  V30 24 C -0.482692 -0.731047 -0.328392 0
M  V30 25 N -0.993381 -2.015966 -0.025002 0
M  V30 26 H -0.055998 -3.972552 2.663595 0
M  V30 27 H 1.228336 -3.149279 1.859629 0
M  V30 28 H -0.130702 -2.254798 2.790350 0
M  V30 29 H -0.381860 -3.931398 0.239282 0
M  V30 30 H -3.891275 -4.580021 0.664285 0
M  V30 31 H -1.412607 -2.074502 -2.949618 0
M  V30 32 H -3.135991 -1.655853 -2.754731 0
M  V30 33 H -0.563047 2.060224 -2.188018 0
M  V30 34 H 2.797057 2.120880 1.154170 0
M  V30 35 H 3.351472 -0.506297 1.894012 0
M  V30 36 H 0.763297 0.513401 3.132032 0
M  V30 37 H 1.758421 -0.985116 3.546416 0
M  V30 38 H 1.930390 1.822624 4.564046 0
M  V30 39 H 4.383464 0.493455 3.799299 0
M  V30 40 H 3.841744 2.134445 3.242045 0
M  V30 41 H 0.949941 -0.967335 1.254781 0
M  V30 END ATOM
M  V30 BEGIN BOND
M  V30 1 1 1 2
M  V30 2 1 2 3
M  V30 3 2 3 4
M  V30 4 1 3 5
M  V30 5 1 5 6
M  V30 6 2 6 7
M  V30 7 1 7 8
M  V30 8 1 8 9
M  V30 9 1 9 10
M  V30 10 2 10 11
M  V30 11 1 11 12
M  V30 12 1 12 13
M  V30 13 1 13 14
M  V30 14 1 13 15
M  V30 15 1 13 16
M  V30 16 2 12 17
M  V30 17 1 17 18
M  V30 18 1 18 19
M  V30 19 1 19 20
M  V30 20 1 20 21
M  V30 21 1 21 22
M  V30 22 1 17 23
M  V30 23 2 23 24
M  V30 24 1 24 25
M  V30 25 1 25 2
M  V30 26 1 25 7
M  V30 27 1 24 10
M  V30 28 1 22 19
M  V30 29 1 1 26
M  V30 30 1 1 27
M  V30 31 1 1 28
M  V30 32 1 2 29 CFG=3
M  V30 33 1 5 30
M  V30 34 1 8 31
M  V30 35 1 8 32
M  V30 36 1 11 33
M  V30 37 1 18 34
M  V30 38 1 19 35
M  V30 39 1 20 36
M  V30 40 1 20 37
M  V30 41 1 21 38
M  V30 42 1 22 39
M  V30 43 1 22 40
M  V30 44 1 23 41
M  V30 END BOND
M  V30 END CTAB
M  END
>  <Dataset>  (690) 
ChEMBL_Kinases

>  <Ligand_Instance>  (690) 
nan

>  <PDB_ID>  (690) 
nan

>  <Standardized_SMILES>  (690) 
C[C@H]1C(=O)NN=C2COc3cc(C(F)(F)F)c(NC4CNC4)cc3N21

>  <Name>  (690) 
nan

>  <Pocket>  (690) 
nan

>  <ATP_Site>  (690) 
nan

>  <Peripheral>  (690) 
nan

>  <Num_H_Atoms_ProtBoundConf>  (690) 
nan

>  <Num_Resolved_Atoms>  (690) 
nan

>  <Num_Not_Resolved_Atoms>  (690) 
nan

$$$$
CHEMBL3393481
     RDKit          3D

  0  0  0  0  0  0  0  0  0  0999 V3000
M  V30 BEGIN CTAB
M  V30 COUNTS 55 60 0 0 0
M  V30 BEGIN ATOM
M  V30 1 C 6.705889 -1.186770 4.432152 0
M  V30 2 C 5.759306 -0.080894 4.042896 0
M  V30 3 O 4.713759 -0.582737 3.231913 0
M  V30 4 C 3.702390 0.246816 2.738085 0
M  V30 5 O 4.012710 1.367226 3.193465 0
M  V30 6 C 2.596681 -0.199197 1.899161 0
M  V30 7 N 2.345236 -1.430532 1.458751 0
M  V30 8 C 1.232280 -1.341242 0.733014 0
M  V30 9 C 0.763978 -0.049116 0.704775 0
M  V30 10 C 1.648777 0.691695 1.461037 0
M  V30 11 N 1.373989 2.090318 1.585908 0
M  V30 12 C 0.244164 2.707352 0.965445 0
M  V30 13 C -0.567887 1.948401 0.253907 0
M  V30 14 C -1.704854 2.624322 -0.358368 0
M  V30 15 O -2.350015 2.066350 -1.291802 0
M  V30 16 C -2.104522 3.973981 0.118558 0
M  V30 17 C -0.866653 4.819169 0.300979 0
M  V30 18 C 0.139689 4.151798 1.214298 0
M  V30 19 C -0.427318 0.509994 0.030317 0
M  V30 20 C -1.609712 -0.255789 0.534208 0
M  V30 21 C -2.328954 0.112205 1.636557 0
M  V30 22 C -3.344302 -0.788379 1.837238 0
M  V30 23 C -3.191735 -1.698323 0.809364 0
M  V30 24 S -4.232607 -3.124520 0.534989 0
M  V30 25 C -3.701271 -4.047728 -0.902039 0
M  V30 26 N -2.676232 -3.844182 -1.778946 0
M  V30 27 C -2.694356 -4.831722 -2.703204 0
M  V30 28 C -1.920929 -5.137424 -3.803627 0
M  V30 29 C -2.205321 -6.256668 -4.575485 0
M  V30 30 C -3.271745 -7.068628 -4.236417 0
M  V30 31 N -4.000124 -6.733607 -3.155067 0
M  V30 32 C -3.753638 -5.656790 -2.384108 0
M  V30 33 N -4.351210 -5.161478 -1.286465 0
M  V30 34 O -2.178237 -1.355751 0.077988 0
M  V30 35 H 7.583465 -1.253667 3.728954 0
M  V30 36 H 6.202518 -2.171837 4.382342 0
M  V30 37 H 7.059054 -1.048600 5.474099 0
M  V30 38 H 5.301811 0.296796 4.983299 0
M  V30 39 H 6.283024 0.740457 3.534871 0
M  V30 40 H 2.959410 -2.247273 1.689722 0
M  V30 41 H 0.817872 -2.234488 0.258152 0
M  V30 42 H 2.079055 2.615365 2.174146 0
M  V30 43 H -2.733965 4.489893 -0.627217 0
M  V30 44 H -2.595915 3.874776 1.109363 0
M  V30 45 H -1.202542 5.790945 0.692257 0
M  V30 46 H -0.387016 4.985157 -0.681290 0
M  V30 47 H -0.217396 4.319545 2.251223 0
M  V30 48 H 1.121957 4.656965 1.130311 0
M  V30 49 H -0.306403 0.282843 -1.047891 0
M  V30 50 H -2.151120 0.972055 2.271574 0
M  V30 51 H -4.120865 -0.856870 2.582803 0
M  V30 52 H -1.106485 -4.503545 -4.049395 0
M  V30 53 H -1.626871 -6.535745 -5.446688 0
M  V30 54 H -3.584290 -7.973622 -4.774165 0
M  V30 55 H -5.187446 -5.618234 -0.848699 0
M  V30 END ATOM
M  V30 BEGIN BOND
M  V30 1 1 1 2
M  V30 2 1 2 3
M  V30 3 1 3 4
M  V30 4 2 4 5
M  V30 5 1 4 6
M  V30 6 1 6 7
M  V30 7 1 7 8
M  V30 8 2 8 9
M  V30 9 1 9 10
M  V30 10 1 10 11
M  V30 11 1 11 12
M  V30 12 2 12 13
M  V30 13 1 13 14
M  V30 14 2 14 15
M  V30 15 1 14 16
M  V30 16 1 16 17
M  V30 17 1 17 18
M  V30 18 1 13 19
M  V30 19 1 19 20
M  V30 20 2 20 21
M  V30 21 1 21 22
M  V30 22 2 22 23
M  V30 23 1 23 24
M  V30 24 1 24 25
M  V30 25 2 25 26
M  V30 26 1 26 27
M  V30 27 2 27 28
M  V30 28 1 28 29
M  V30 29 2 29 30
M  V30 30 1 30 31
M  V30 31 2 31 32
M  V30 32 1 32 33
M  V30 33 1 23 34
M  V30 34 2 10 6
M  V30 35 1 18 12
M  V30 36 1 34 20
M  V30 37 1 19 9
M  V30 38 1 33 25
M  V30 39 1 32 27
M  V30 40 1 1 35
M  V30 41 1 1 36
M  V30 42 1 1 37
M  V30 43 1 2 38
M  V30 44 1 2 39
M  V30 45 1 7 40
M  V30 46 1 8 41
M  V30 47 1 11 42
M  V30 48 1 16 43
M  V30 49 1 16 44
M  V30 50 1 17 45
M  V30 51 1 17 46
M  V30 52 1 18 47
M  V30 53 1 18 48
M  V30 54 1 19 49
M  V30 55 1 21 50
M  V30 56 1 22 51
M  V30 57 1 28 52
M  V30 58 1 29 53
M  V30 59 1 30 54
M  V30 60 1 33 55
M  V30 END BOND
M  V30 END CTAB
M  END
>  <Dataset>  (691) 
ChEMBL_Kinases

>  <Ligand_Instance>  (691) 
nan

>  <PDB_ID>  (691) 
nan

>  <Standardized_SMILES>  (691) 
CCOC(=O)c1[nH]cc2c1NC1=C(C(=O)CCC1)C2c1ccc(Sc2nc3cccnc3[nH]2)o1

>  <Name>  (691) 
nan

>  <Pocket>  (691) 
nan

>  <ATP_Site>  (691) 
nan

>  <Peripheral>  (691) 
nan

>  <Num_H_Atoms_ProtBoundConf>  (691) 
nan

>  <Num_Resolved_Atoms>  (691) 
nan

>  <Num_Not_Resolved_Atoms>  (691) 
nan

$$$$
CHEMBL3393482
     RDKit          3D

  0  0  0  0  0  0  0  0  0  0999 V3000
M  V30 BEGIN CTAB
M  V30 COUNTS 57 62 0 0 0
M  V30 BEGIN ATOM
M  V30 1 C 4.409222 -4.547620 0.428802 0
M  V30 2 C 4.704434 -3.349379 -0.465161 0
M  V30 3 O 3.944296 -2.247966 0.057832 0
M  V30 4 C 4.115536 -1.775005 1.332434 0
M  V30 5 O 4.957556 -2.290355 2.114044 0
M  V30 6 C 3.313293 -0.646968 1.817700 0
M  V30 7 N 3.372467 -0.079731 3.037298 0
M  V30 8 C 2.466733 0.940973 3.096783 0
M  V30 9 C 1.803863 1.028271 1.867035 0
M  V30 10 C 2.353662 0.027147 1.094612 0
M  V30 11 N 1.839191 -0.089080 -0.214235 0
M  V30 12 C 0.819782 0.754013 -0.736778 0
M  V30 13 C 0.352812 1.684819 0.074469 0
M  V30 14 C -0.695179 2.577915 -0.411849 0
M  V30 15 O -1.064821 3.641839 0.136311 0
M  V30 16 C -1.464065 2.298029 -1.667359 0
M  V30 17 C -1.176109 0.871862 -2.098121 0
M  V30 18 C 0.325400 0.583143 -2.107846 0
M  V30 19 C 0.738896 1.988817 1.474582 0
M  V30 20 C -0.460547 1.692958 2.326538 0
M  V30 21 C -0.807453 2.217001 3.557800 0
M  V30 22 C -2.000209 1.663907 3.986850 0
M  V30 23 C -2.333730 0.803673 2.966935 0
M  V30 24 S -3.791259 -0.255720 2.871621 0
M  V30 25 C -3.798307 -1.204226 1.349195 0
M  V30 26 N -4.263425 -1.053046 0.096088 0
M  V30 27 C -3.935518 -2.159058 -0.600447 0
M  V30 28 C -4.187228 -2.483105 -1.920169 0
M  V30 29 O -4.882338 -1.587146 -2.733789 0
M  V30 30 C -3.774093 -3.674113 -2.477620 0
M  V30 31 C -3.088027 -4.549767 -1.660978 0
M  V30 32 C -2.835945 -4.227632 -0.343111 0
M  V30 33 C -3.251317 -3.026237 0.223577 0
M  V30 34 N -3.177430 -2.416602 1.424343 0
M  V30 35 O -1.423753 0.851107 2.034554 0
M  V30 36 H 3.603537 -4.323235 1.168461 0
M  V30 37 H 4.010304 -5.398154 -0.165171 0
M  V30 38 H 5.305144 -4.826294 1.021436 0
M  V30 39 H 5.789546 -3.131348 -0.477579 0
M  V30 40 H 4.405498 -3.575313 -1.499321 0
M  V30 41 H 4.024861 -0.401849 3.791826 0
M  V30 42 H 2.358049 1.531976 4.008171 0
M  V30 43 H 2.227578 -0.833678 -0.831930 0
M  V30 44 H -2.541125 2.327522 -1.373211 0
M  V30 45 H -1.226715 3.024571 -2.452502 0
M  V30 46 H -1.588802 0.227299 -1.279672 0
M  V30 47 H -1.654471 0.648058 -3.058402 0
M  V30 48 H 0.426669 -0.463346 -2.459541 0
M  V30 49 H 0.806977 1.264101 -2.841281 0
M  V30 50 H 1.051714 3.041713 1.606988 0
M  V30 51 H -0.220681 2.954197 4.098092 0
M  V30 52 H -2.544460 1.846864 4.885940 0
M  V30 53 H -5.616235 -1.054900 -2.320162 0
M  V30 54 H -3.966334 -3.936415 -3.509051 0
M  V30 55 H -2.723401 -5.521760 -2.027736 0
M  V30 56 H -2.297385 -4.916245 0.295960 0
M  V30 57 H -2.674645 -2.960234 2.177836 0
M  V30 END ATOM
M  V30 BEGIN BOND
M  V30 1 1 1 2
M  V30 2 1 2 3
M  V30 3 1 3 4
M  V30 4 2 4 5
M  V30 5 1 4 6
M  V30 6 1 6 7
M  V30 7 1 7 8
M  V30 8 2 8 9
M  V30 9 1 9 10
M  V30 10 1 10 11
M  V30 11 1 11 12
M  V30 12 2 12 13
M  V30 13 1 13 14
M  V30 14 2 14 15
M  V30 15 1 14 16
M  V30 16 1 16 17
M  V30 17 1 17 18
M  V30 18 1 13 19
M  V30 19 1 19 20
M  V30 20 2 20 21
M  V30 21 1 21 22
M  V30 22 2 22 23
M  V30 23 1 23 24
M  V30 24 1 24 25
M  V30 25 2 25 26
M  V30 26 1 26 27
M  V30 27 2 27 28
M  V30 28 1 28 29
M  V30 29 1 28 30
M  V30 30 2 30 31
M  V30 31 1 31 32
M  V30 32 2 32 33
M  V30 33 1 33 34
M  V30 34 1 23 35
M  V30 35 2 10 6
M  V30 36 1 18 12
M  V30 37 1 35 20
M  V30 38 1 19 9
M  V30 39 1 34 25
M  V30 40 1 33 27
M  V30 41 1 1 36
M  V30 42 1 1 37
M  V30 43 1 1 38
M  V30 44 1 2 39
M  V30 45 1 2 40
M  V30 46 1 7 41
M  V30 47 1 8 42
M  V30 48 1 11 43
M  V30 49 1 16 44
M  V30 50 1 16 45
M  V30 51 1 17 46
M  V30 52 1 17 47
M  V30 53 1 18 48
M  V30 54 1 18 49
M  V30 55 1 19 50
M  V30 56 1 21 51
M  V30 57 1 22 52
M  V30 58 1 29 53
M  V30 59 1 30 54
M  V30 60 1 31 55
M  V30 61 1 32 56
M  V30 62 1 34 57
M  V30 END BOND
M  V30 END CTAB
M  END
>  <Dataset>  (692) 
ChEMBL_Kinases

>  <Ligand_Instance>  (692) 
nan

>  <PDB_ID>  (692) 
nan

>  <Standardized_SMILES>  (692) 
CCOC(=O)c1[nH]cc2c1NC1=C(C(=O)CCC1)C2c1ccc(Sc2nc3c(O)cccc3[nH]2)o1

>  <Name>  (692) 
nan

>  <Pocket>  (692) 
nan

>  <ATP_Site>  (692) 
nan

>  <Peripheral>  (692) 
nan

>  <Num_H_Atoms_ProtBoundConf>  (692) 
nan

>  <Num_Resolved_Atoms>  (692) 
nan

>  <Num_Not_Resolved_Atoms>  (692) 
nan

$$$$
CHEMBL3393483
     RDKit          3D

  0  0  0  0  0  0  0  0  0  0999 V3000
M  V30 BEGIN CTAB
M  V30 COUNTS 58 63 0 0 0
M  V30 BEGIN ATOM
M  V30 1 C 5.699809 -3.352766 0.641982 0
M  V30 2 C 5.650842 -1.934878 0.114699 0
M  V30 3 O 4.639338 -1.158279 0.682326 0
M  V30 4 C 4.477348 -0.847076 2.010896 0
M  V30 5 O 5.313142 -1.292945 2.838946 0
M  V30 6 C 3.358596 -0.016583 2.450269 0
M  V30 7 N 3.076984 0.365639 3.707969 0
M  V30 8 C 1.950383 1.136459 3.715769 0
M  V30 9 C 1.499956 1.244879 2.394879 0
M  V30 10 C 2.392447 0.520966 1.638256 0
M  V30 11 N 2.107935 0.507129 0.259249 0
M  V30 12 C 0.997226 1.177843 -0.323778 0
M  V30 13 C 0.189618 1.850906 0.480392 0
M  V30 14 C -0.969646 2.556302 -0.092703 0
M  V30 15 O -1.723261 3.342379 0.554092 0
M  V30 16 C -1.311000 2.358247 -1.524419 0
M  V30 17 C -0.693212 1.094365 -2.074596 0
M  V30 18 C 0.780366 1.105562 -1.784804 0
M  V30 19 C 0.296763 2.000256 1.954570 0
M  V30 20 C -0.912351 1.347635 2.549121 0
M  V30 21 C -1.457114 1.671750 3.763476 0
M  V30 22 C -2.571881 0.873093 4.010201 0
M  V30 23 C -2.636233 0.077276 2.876577 0
M  V30 24 S -3.904843 -1.164331 2.647879 0
M  V30 25 C -3.688249 -1.999730 1.085147 0
M  V30 26 N -4.457033 -2.972257 0.607984 0
M  V30 27 C -4.001006 -3.375064 -0.608132 0
M  V30 28 C -4.400348 -4.319559 -1.528285 0
M  V30 29 N -5.537075 -5.127067 -1.269157 0
M  V30 30 C -3.665352 -4.455593 -2.702965 0
M  V30 31 C -2.550436 -3.694054 -3.003762 0
M  V30 32 C -2.180623 -2.769082 -2.074616 0
M  V30 33 C -2.878713 -2.600155 -0.898162 0
M  V30 34 N -2.741365 -1.795692 0.152237 0
M  V30 35 O -1.658255 0.384664 2.058021 0
M  V30 36 H 5.341135 -3.342605 1.692478 0
M  V30 37 H 5.025285 -4.033049 0.086641 0
M  V30 38 H 6.752469 -3.736548 0.658183 0
M  V30 39 H 6.670637 -1.524613 0.213462 0
M  V30 40 H 5.430535 -1.957835 -0.989376 0
M  V30 41 H 3.659962 0.094929 4.554745 0
M  V30 42 H 1.571912 1.537177 4.657117 0
M  V30 43 H 2.743051 -0.025023 -0.391986 0
M  V30 44 H -2.422616 2.177092 -1.559964 0
M  V30 45 H -1.135595 3.244703 -2.142160 0
M  V30 46 H -1.167697 0.236344 -1.569539 0
M  V30 47 H -0.902631 1.075167 -3.160482 0
M  V30 48 H 1.266910 1.998471 -2.220806 0
M  V30 49 H 1.283776 0.195088 -2.171357 0
M  V30 50 H 0.340534 3.062600 2.264530 0
M  V30 51 H -1.090367 2.433964 4.447107 0
M  V30 52 H -3.212588 0.901306 4.898008 0
M  V30 53 H -6.552390 -4.831820 -1.350650 0
M  V30 54 H -5.037787 -6.019530 -0.998982 0
M  V30 55 H -4.014763 -5.216999 -3.408631 0
M  V30 56 H -1.994105 -3.812702 -3.916893 0
M  V30 57 H -1.313956 -2.155631 -2.275467 0
M  V30 58 H -1.989860 -1.078574 0.261730 0
M  V30 END ATOM
M  V30 BEGIN BOND
M  V30 1 1 1 2
M  V30 2 1 2 3
M  V30 3 1 3 4
M  V30 4 2 4 5
M  V30 5 1 4 6
M  V30 6 1 6 7
M  V30 7 1 7 8
M  V30 8 2 8 9
M  V30 9 1 9 10
M  V30 10 1 10 11
M  V30 11 1 11 12
M  V30 12 2 12 13
M  V30 13 1 13 14
M  V30 14 2 14 15
M  V30 15 1 14 16
M  V30 16 1 16 17
M  V30 17 1 17 18
M  V30 18 1 13 19
M  V30 19 1 19 20
M  V30 20 2 20 21
M  V30 21 1 21 22
M  V30 22 2 22 23
M  V30 23 1 23 24
M  V30 24 1 24 25
M  V30 25 2 25 26
M  V30 26 1 26 27
M  V30 27 2 27 28
M  V30 28 1 28 29
M  V30 29 1 28 30
M  V30 30 2 30 31
M  V30 31 1 31 32
M  V30 32 2 32 33
M  V30 33 1 33 34
M  V30 34 1 23 35
M  V30 35 2 10 6
M  V30 36 1 18 12
M  V30 37 1 35 20
M  V30 38 1 19 9
M  V30 39 1 34 25
M  V30 40 1 33 27
M  V30 41 1 1 36
M  V30 42 1 1 37
M  V30 43 1 1 38
M  V30 44 1 2 39
M  V30 45 1 2 40
M  V30 46 1 7 41
M  V30 47 1 8 42
M  V30 48 1 11 43
M  V30 49 1 16 44
M  V30 50 1 16 45
M  V30 51 1 17 46
M  V30 52 1 17 47
M  V30 53 1 18 48
M  V30 54 1 18 49
M  V30 55 1 19 50
M  V30 56 1 21 51
M  V30 57 1 22 52
M  V30 58 1 29 53
M  V30 59 1 29 54
M  V30 60 1 30 55
M  V30 61 1 31 56
M  V30 62 1 32 57
M  V30 63 1 34 58
M  V30 END BOND
M  V30 END CTAB
M  END
>  <Dataset>  (693) 
ChEMBL_Kinases

>  <Ligand_Instance>  (693) 
nan

>  <PDB_ID>  (693) 
nan

>  <Standardized_SMILES>  (693) 
CCOC(=O)c1[nH]cc2c1NC1=C(C(=O)CCC1)C2c1ccc(Sc2nc3c(N)cccc3[nH]2)o1

>  <Name>  (693) 
nan

>  <Pocket>  (693) 
nan

>  <ATP_Site>  (693) 
nan

>  <Peripheral>  (693) 
nan

>  <Num_H_Atoms_ProtBoundConf>  (693) 
nan

>  <Num_Resolved_Atoms>  (693) 
nan

>  <Num_Not_Resolved_Atoms>  (693) 
nan

$$$$
CHEMBL3393484
     RDKit          3D

  0  0  0  0  0  0  0  0  0  0999 V3000
M  V30 BEGIN CTAB
M  V30 COUNTS 61 66 0 0 0
M  V30 BEGIN ATOM
M  V30 1 C 8.709432 0.088540 -0.832386 0
M  V30 2 C 7.483653 0.126852 -1.737005 0
M  V30 3 O 6.366932 0.181812 -0.894197 0
M  V30 4 C 5.047130 0.229847 -1.295130 0
M  V30 5 O 4.858318 0.222212 -2.547271 0
M  V30 6 C 3.957461 0.285357 -0.319728 0
M  V30 7 N 3.997152 0.300392 1.039861 0
M  V30 8 C 2.726972 0.357072 1.521520 0
M  V30 9 C 1.852044 0.378870 0.441223 0
M  V30 10 C 2.631637 0.333778 -0.696035 0
M  V30 11 N 1.914130 0.347788 -1.901147 0
M  V30 12 C 0.494096 0.403865 -1.967529 0
M  V30 13 C -0.178889 0.444724 -0.829267 0
M  V30 14 C -1.651319 0.502349 -0.940781 0
M  V30 15 O -2.397255 0.153534 0.030628 0
M  V30 16 C -2.219369 0.988702 -2.245786 0
M  V30 17 N -1.559854 0.233521 -3.277375 0
M  V30 18 C -2.011500 -1.123395 -3.229273 0
M  V30 19 C -1.384153 -2.016625 -4.271599 0
M  V30 20 C -0.143040 0.413171 -3.294333 0
M  V30 21 C 0.371011 0.439262 0.546227 0
M  V30 22 C -0.112511 -0.800770 1.240023 0
M  V30 23 C -0.456044 -1.985219 0.589014 0
M  V30 24 C -0.861128 -2.931042 1.520920 0
M  V30 25 C -0.735107 -2.242265 2.718233 0
M  V30 26 S -1.075094 -2.797615 4.398402 0
M  V30 27 C -2.789565 -2.423602 4.774121 0
M  V30 28 N -3.645400 -3.412086 4.456598 0
M  V30 29 C -4.909135 -3.041169 4.774525 0
M  V30 30 C -6.186414 -3.561896 4.710950 0
M  V30 31 C -7.264695 -2.829874 5.160856 0
M  V30 32 C -7.116096 -1.554404 5.690416 0
M  V30 33 C -5.833659 -1.005579 5.765439 0
M  V30 34 C -4.786461 -1.767931 5.306392 0
M  V30 35 N -3.491808 -1.406193 5.299486 0
M  V30 36 O -0.298582 -1.008688 2.522032 0
M  V30 37 H 9.065165 -0.950165 -0.674059 0
M  V30 38 H 8.488987 0.524794 0.174885 0
M  V30 39 H 9.544187 0.706769 -1.228183 0
M  V30 40 H 7.603376 1.034623 -2.364843 0
M  V30 41 H 7.538709 -0.777406 -2.369168 0
M  V30 42 H 4.942376 0.268447 1.517595 0
M  V30 43 H 2.606065 0.374904 2.578031 0
M  V30 44 H 2.462116 0.314837 -2.804267 0
M  V30 45 H -3.296659 0.768106 -2.291956 0
M  V30 46 H -2.075468 2.086835 -2.361224 0
M  V30 47 H -3.109936 -1.091498 -3.478621 0
M  V30 48 H -1.952727 -1.564798 -2.228219 0
M  V30 49 H -0.401047 -2.404135 -3.965478 0
M  V30 50 H -1.304163 -1.417710 -5.209437 0
M  V30 51 H -2.087135 -2.848477 -4.528481 0
M  V30 52 H 0.308872 -0.325340 -3.989741 0
M  V30 53 H 0.070747 1.416513 -3.764197 0
M  V30 54 H 0.047777 1.348121 1.085584 0
M  V30 55 H -0.433834 -2.204639 -0.484255 0
M  V30 56 H -1.197488 -3.943213 1.439887 0
M  V30 57 H -6.261017 -4.553184 4.294250 0
M  V30 58 H -8.236927 -3.306353 5.078081 0
M  V30 59 H -8.009238 -1.040042 6.023537 0
M  V30 60 H -5.711051 -0.016054 6.175353 0
M  V30 61 H -2.932392 -0.584846 5.582327 0
M  V30 END ATOM
M  V30 BEGIN BOND
M  V30 1 1 1 2
M  V30 2 1 2 3
M  V30 3 1 3 4
M  V30 4 2 4 5
M  V30 5 1 4 6
M  V30 6 1 6 7
M  V30 7 1 7 8
M  V30 8 2 8 9
M  V30 9 1 9 10
M  V30 10 1 10 11
M  V30 11 1 11 12
M  V30 12 2 12 13
M  V30 13 1 13 14
M  V30 14 2 14 15
M  V30 15 1 14 16
M  V30 16 1 16 17
M  V30 17 1 17 18
M  V30 18 1 18 19
M  V30 19 1 17 20
M  V30 20 1 13 21
M  V30 21 1 21 22
M  V30 22 2 22 23
M  V30 23 1 23 24
M  V30 24 2 24 25
M  V30 25 1 25 26
M  V30 26 1 26 27
M  V30 27 2 27 28
M  V30 28 1 28 29
M  V30 29 2 29 30
M  V30 30 1 30 31
M  V30 31 2 31 32
M  V30 32 1 32 33
M  V30 33 2 33 34
M  V30 34 1 34 35
M  V30 35 1 25 36
M  V30 36 2 10 6
M  V30 37 1 20 12
M  V30 38 1 36 22
M  V30 39 1 21 9
M  V30 40 1 35 27
M  V30 41 1 34 29
M  V30 42 1 1 37
M  V30 43 1 1 38
M  V30 44 1 1 39
M  V30 45 1 2 40
M  V30 46 1 2 41
M  V30 47 1 7 42
M  V30 48 1 8 43
M  V30 49 1 11 44
M  V30 50 1 16 45
M  V30 51 1 16 46
M  V30 52 1 18 47
M  V30 53 1 18 48
M  V30 54 1 19 49
M  V30 55 1 19 50
M  V30 56 1 19 51
M  V30 57 1 20 52
M  V30 58 1 20 53
M  V30 59 1 21 54
M  V30 60 1 23 55
M  V30 61 1 24 56
M  V30 62 1 30 57
M  V30 63 1 31 58
M  V30 64 1 32 59
M  V30 65 1 33 60
M  V30 66 1 35 61
M  V30 END BOND
M  V30 END CTAB
M  END
>  <Dataset>  (694) 
ChEMBL_Kinases

>  <Ligand_Instance>  (694) 
nan

>  <PDB_ID>  (694) 
nan

>  <Standardized_SMILES>  (694) 
CCOC(=O)c1[nH]cc2c1NC1=C(C(=O)CN(CC)C1)C2c1ccc(Sc2nc3ccccc3[nH]2)o1

>  <Name>  (694) 
nan

>  <Pocket>  (694) 
nan

>  <ATP_Site>  (694) 
nan

>  <Peripheral>  (694) 
nan

>  <Num_H_Atoms_ProtBoundConf>  (694) 
nan

>  <Num_Resolved_Atoms>  (694) 
nan

>  <Num_Not_Resolved_Atoms>  (694) 
nan

$$$$
CHEMBL3393485
     RDKit          3D

  0  0  0  0  0  0  0  0  0  0999 V3000
M  V30 BEGIN CTAB
M  V30 COUNTS 62 67 0 0 0
M  V30 BEGIN ATOM
M  V30 1 C 5.356293 -5.494813 -0.987314 0
M  V30 2 C 5.017268 -4.445691 -2.041936 0
M  V30 3 O 4.072746 -3.516365 -1.545267 0
M  V30 4 C 4.270205 -2.712472 -0.449243 0
M  V30 5 O 5.384429 -2.852159 0.114749 0
M  V30 6 C 3.265009 -1.768321 0.025389 0
M  V30 7 N 3.418665 -0.963920 1.093250 0
M  V30 8 C 2.247589 -0.266825 1.161949 0
M  V30 9 C 1.368092 -0.628065 0.150006 0
M  V30 10 C 2.037144 -1.593967 -0.571576 0
M  V30 11 N 1.385932 -2.157590 -1.676841 0
M  V30 12 C 0.079116 -1.766040 -2.064590 0
M  V30 13 C -0.509535 -0.838400 -1.336190 0
M  V30 14 C -1.858127 -0.421895 -1.721387 0
M  V30 15 O -2.488695 0.535575 -1.178597 0
M  V30 16 C -2.587154 -1.129349 -2.813532 0
M  V30 17 N -2.042241 -2.477786 -2.945090 0
M  V30 18 C -2.631780 -3.771488 -2.841570 0
M  V30 19 O -1.943818 -4.809734 -2.998300 0
M  V30 20 C -4.084735 -3.601850 -2.539091 0
M  V30 21 N -4.737071 -4.894251 -2.422588 0
M  V30 22 C -0.607086 -2.368877 -3.239965 0
M  V30 23 C 0.002850 -0.128290 -0.146021 0 CFG=1
M  V30 24 C -0.888939 -0.366882 1.034204 0
M  V30 25 C -1.624570 -1.524171 1.200830 0
M  V30 26 C -2.298715 -1.351076 2.389970 0
M  V30 27 C -1.953362 -0.120106 2.889479 0
M  V30 28 S -2.604001 0.507581 4.424154 0
M  V30 29 C -1.948187 2.132520 4.773954 0
M  V30 30 N -0.862314 2.554326 5.437631 0
M  V30 31 C -0.803098 3.900837 5.424529 0
M  V30 32 C 0.092422 4.809783 5.950964 0
M  V30 33 C -0.192642 6.140095 5.723060 0
M  V30 34 C -1.271054 6.650053 5.029346 0
M  V30 35 C -2.146845 5.700711 4.516758 0
M  V30 36 C -1.916079 4.340600 4.711800 0
M  V30 37 N -2.588932 3.229271 4.332215 0
M  V30 38 O -1.106287 0.444282 2.052196 0
M  V30 39 H 5.276141 -6.535144 -1.395239 0
M  V30 40 H 4.718177 -5.364618 -0.075882 0
M  V30 41 H 6.394099 -5.390455 -0.621244 0
M  V30 42 H 4.501297 -4.997418 -2.877158 0
M  V30 43 H 5.907623 -3.989984 -2.473943 0
M  V30 44 H 4.215800 -0.852197 1.751156 0
M  V30 45 H 2.061287 0.475380 1.931740 0
M  V30 46 H 1.850839 -2.895350 -2.258280 0
M  V30 47 H -3.666370 -1.114768 -2.623976 0
M  V30 48 H -2.439815 -0.622594 -3.804827 0
M  V30 49 H -4.545771 -3.083973 -3.393465 0
M  V30 50 H -4.202705 -3.037214 -1.592589 0
M  V30 51 H -4.778764 -5.190173 -1.441282 0
M  V30 52 H -5.619857 -4.925995 -2.958077 0
M  V30 53 H -0.511820 -1.764575 -4.161633 0
M  V30 54 H -0.199157 -3.382685 -3.453855 0
M  V30 55 H -0.005672 0.954632 -0.380073 0
M  V30 56 H -1.659764 -2.374539 0.540884 0
M  V30 57 H -2.964409 -2.117227 2.776928 0
M  V30 58 H 0.943486 4.481025 6.495685 0
M  V30 59 H 0.505345 6.866081 6.132720 0
M  V30 60 H -1.395459 7.716711 4.911783 0
M  V30 61 H -3.007245 6.025901 3.966328 0
M  V30 62 H -3.480957 3.321691 3.770669 0
M  V30 END ATOM
M  V30 BEGIN BOND
M  V30 1 1 1 2
M  V30 2 1 2 3
M  V30 3 1 3 4
M  V30 4 2 4 5
M  V30 5 1 4 6
M  V30 6 1 6 7
M  V30 7 1 7 8
M  V30 8 2 8 9
M  V30 9 1 9 10
M  V30 10 1 10 11
M  V30 11 1 11 12
M  V30 12 2 12 13
M  V30 13 1 13 14
M  V30 14 2 14 15
M  V30 15 1 14 16
M  V30 16 1 16 17
M  V30 17 1 17 18
M  V30 18 2 18 19
M  V30 19 1 18 20
M  V30 20 1 20 21
M  V30 21 1 17 22
M  V30 22 1 13 23
M  V30 23 1 23 24
M  V30 24 2 24 25
M  V30 25 1 25 26
M  V30 26 2 26 27
M  V30 27 1 27 28
M  V30 28 1 28 29
M  V30 29 2 29 30
M  V30 30 1 30 31
M  V30 31 2 31 32
M  V30 32 1 32 33
M  V30 33 2 33 34
M  V30 34 1 34 35
M  V30 35 2 35 36
M  V30 36 1 36 37
M  V30 37 1 27 38
M  V30 38 2 10 6
M  V30 39 1 22 12
M  V30 40 1 38 24
M  V30 41 1 23 9
M  V30 42 1 37 29
M  V30 43 1 36 31
M  V30 44 1 1 39
M  V30 45 1 1 40
M  V30 46 1 1 41
M  V30 47 1 2 42
M  V30 48 1 2 43
M  V30 49 1 7 44
M  V30 50 1 8 45
M  V30 51 1 11 46
M  V30 52 1 16 47
M  V30 53 1 16 48
M  V30 54 1 20 49
M  V30 55 1 20 50
M  V30 56 1 21 51
M  V30 57 1 21 52
M  V30 58 1 22 53
M  V30 59 1 22 54
M  V30 60 1 23 55 CFG=3
M  V30 61 1 25 56
M  V30 62 1 26 57
M  V30 63 1 32 58
M  V30 64 1 33 59
M  V30 65 1 34 60
M  V30 66 1 35 61
M  V30 67 1 37 62
M  V30 END BOND
M  V30 END CTAB
M  END
>  <Dataset>  (695) 
ChEMBL_Kinases

>  <Ligand_Instance>  (695) 
nan

>  <PDB_ID>  (695) 
nan

>  <Standardized_SMILES>  (695) 
CCOC(=O)c1[nH]cc2c1NC1=C(C(=O)CN(C(=O)CN)C1)[C@H]2c1ccc(Sc2nc3ccccc3[nH]2)o1

>  <Name>  (695) 
nan

>  <Pocket>  (695) 
nan

>  <ATP_Site>  (695) 
nan

>  <Peripheral>  (695) 
nan

>  <Num_H_Atoms_ProtBoundConf>  (695) 
nan

>  <Num_Resolved_Atoms>  (695) 
nan

>  <Num_Not_Resolved_Atoms>  (695) 
nan

$$$$
CHEMBL3393486
     RDKit          3D

  0  0  0  0  0  0  0  0  0  0999 V3000
M  V30 BEGIN CTAB
M  V30 COUNTS 62 67 0 0 0
M  V30 BEGIN ATOM
M  V30 1 C 6.458962 2.195068 2.136561 0
M  V30 2 C 5.216509 2.799272 2.693710 0
M  V30 3 O 4.045477 2.039937 2.524493 0
M  V30 4 C 3.512613 1.657260 1.330540 0
M  V30 5 O 4.061967 1.974983 0.252983 0
M  V30 6 C 2.284713 0.868746 1.383932 0
M  V30 7 N 1.571291 0.444430 2.431905 0
M  V30 8 C 0.492389 -0.262739 2.046762 0
M  V30 9 C 0.514708 -0.294066 0.672167 0
M  V30 10 C 1.625048 0.407043 0.266278 0
M  V30 11 N 1.793834 0.468770 -1.144553 0
M  V30 12 C 0.882206 -0.148019 -2.049240 0
M  V30 13 C -0.165384 -0.807081 -1.593553 0
M  V30 14 C -1.009340 -1.384835 -2.634130 0
M  V30 15 O -1.918828 -2.227112 -2.360679 0
M  V30 16 C -0.922334 -1.078242 -4.095464 0
M  V30 17 N -0.123690 0.152063 -4.187983 0
M  V30 18 C -0.426518 1.402787 -4.832146 0
M  V30 19 O 0.365824 2.396678 -4.834250 0
M  V30 20 C -1.718194 1.539708 -5.523750 0
M  V30 21 N -1.798027 2.878195 -6.092576 0
M  V30 22 C 1.139710 -0.030282 -3.492396 0
M  V30 23 C -0.507852 -0.979838 -0.160586 0 CFG=1
M  V30 24 C -0.423334 -2.448002 0.169055 0
M  V30 25 C 0.346461 -3.430376 -0.416525 0
M  V30 26 C 0.068613 -4.623232 0.242958 0
M  V30 27 C -0.877576 -4.293019 1.216771 0
M  V30 28 S -1.607258 -5.448312 2.376056 0
M  V30 29 C -2.761171 -4.576139 3.427927 0
M  V30 30 N -4.059980 -4.319859 3.324082 0
M  V30 31 C -4.505749 -3.614804 4.383926 0
M  V30 32 C -5.753161 -3.125610 4.715665 0
M  V30 33 F -6.829996 -3.314407 3.917200 0
M  V30 34 C -5.874253 -2.430228 5.898030 0
M  V30 35 C -4.783865 -2.227987 6.726187 0
M  V30 36 C -3.556229 -2.737039 6.350684 0
M  V30 37 C -3.371193 -3.449667 5.165213 0
M  V30 38 N -2.307072 -4.033765 4.586135 0
M  V30 39 O -1.130492 -3.014722 1.132445 0
M  V30 40 H 6.638022 2.423082 1.072081 0
M  V30 41 H 6.516806 1.097287 2.374722 0
M  V30 42 H 7.327236 2.650345 2.681897 0
M  V30 43 H 5.380918 3.031272 3.763598 0
M  V30 44 H 5.082732 3.788923 2.169268 0
M  V30 45 H 1.898013 0.686983 3.403147 0
M  V30 46 H -0.196151 -0.681797 2.771224 0
M  V30 47 H 2.627454 0.992703 -1.522686 0
M  V30 48 H -1.898201 -0.982840 -4.566780 0
M  V30 49 H -0.283983 -1.869178 -4.560219 0
M  V30 50 H -1.752605 0.839296 -6.401563 0
M  V30 51 H -2.590475 1.442735 -4.858567 0
M  V30 52 H -2.771464 3.143018 -6.366525 0
M  V30 53 H -1.522340 3.609704 -5.380582 0
M  V30 54 H 1.665767 -0.944843 -3.893312 0
M  V30 55 H 1.797022 0.805270 -3.760304 0
M  V30 56 H -1.537297 -0.634988 0.071364 0
M  V30 57 H 1.027934 -3.256273 -1.237184 0
M  V30 58 H 0.509949 -5.595630 0.025731 0
M  V30 59 H -6.813524 -2.008624 6.242357 0
M  V30 60 H -4.814117 -1.690207 7.667859 0
M  V30 61 H -2.684760 -2.581098 7.002460 0
M  V30 62 H -1.356944 -4.012942 5.031886 0
M  V30 END ATOM
M  V30 BEGIN BOND
M  V30 1 1 1 2
M  V30 2 1 2 3
M  V30 3 1 3 4
M  V30 4 2 4 5
M  V30 5 1 4 6
M  V30 6 1 6 7
M  V30 7 1 7 8
M  V30 8 2 8 9
M  V30 9 1 9 10
M  V30 10 1 10 11
M  V30 11 1 11 12
M  V30 12 2 12 13
M  V30 13 1 13 14
M  V30 14 2 14 15
M  V30 15 1 14 16
M  V30 16 1 16 17
M  V30 17 1 17 18
M  V30 18 2 18 19
M  V30 19 1 18 20
M  V30 20 1 20 21
M  V30 21 1 17 22
M  V30 22 1 13 23
M  V30 23 1 23 24
M  V30 24 2 24 25
M  V30 25 1 25 26
M  V30 26 2 26 27
M  V30 27 1 27 28
M  V30 28 1 28 29
M  V30 29 2 29 30
M  V30 30 1 30 31
M  V30 31 2 31 32
M  V30 32 1 32 33
M  V30 33 1 32 34
M  V30 34 2 34 35
M  V30 35 1 35 36
M  V30 36 2 36 37
M  V30 37 1 37 38
M  V30 38 1 27 39
M  V30 39 2 10 6
M  V30 40 1 22 12
M  V30 41 1 39 24
M  V30 42 1 23 9
M  V30 43 1 38 29
M  V30 44 1 37 31
M  V30 45 1 1 40
M  V30 46 1 1 41
M  V30 47 1 1 42
M  V30 48 1 2 43
M  V30 49 1 2 44
M  V30 50 1 7 45
M  V30 51 1 8 46
M  V30 52 1 11 47
M  V30 53 1 16 48
M  V30 54 1 16 49
M  V30 55 1 20 50
M  V30 56 1 20 51
M  V30 57 1 21 52
M  V30 58 1 21 53
M  V30 59 1 22 54
M  V30 60 1 22 55
M  V30 61 1 23 56 CFG=3
M  V30 62 1 25 57
M  V30 63 1 26 58
M  V30 64 1 34 59
M  V30 65 1 35 60
M  V30 66 1 36 61
M  V30 67 1 38 62
M  V30 END BOND
M  V30 END CTAB
M  END
>  <Dataset>  (696) 
ChEMBL_Kinases

>  <Ligand_Instance>  (696) 
nan

>  <PDB_ID>  (696) 
nan

>  <Standardized_SMILES>  (696) 
CCOC(=O)c1[nH]cc2c1NC1=C(C(=O)CN(C(=O)CN)C1)[C@H]2c1ccc(Sc2nc3c(F)cccc3[nH]2)o1

>  <Name>  (696) 
nan

>  <Pocket>  (696) 
nan

>  <ATP_Site>  (696) 
nan

>  <Peripheral>  (696) 
nan

>  <Num_H_Atoms_ProtBoundConf>  (696) 
nan

>  <Num_Resolved_Atoms>  (696) 
nan

>  <Num_Not_Resolved_Atoms>  (696) 
nan

$$$$
CHEMBL3393487
     RDKit          3D

  0  0  0  0  0  0  0  0  0  0999 V3000
M  V30 BEGIN CTAB
M  V30 COUNTS 55 60 0 0 0
M  V30 BEGIN ATOM
M  V30 1 C 3.638189 -5.417830 0.967083 0
M  V30 2 C 3.891256 -4.427047 -0.149157 0
M  V30 3 O 3.510623 -3.121756 0.152211 0
M  V30 4 C 3.981486 -2.330884 1.177557 0
M  V30 5 O 4.849044 -2.807883 1.942660 0
M  V30 6 C 3.475570 -0.972550 1.359117 0
M  V30 7 N 3.853031 -0.104453 2.316957 0
M  V30 8 C 3.149682 1.050282 2.142882 0
M  V30 9 C 2.300863 0.916582 1.045465 0
M  V30 10 C 2.527007 -0.358823 0.576128 0
M  V30 11 N 1.757574 -0.720556 -0.558018 0
M  V30 12 C 0.815122 0.134961 -1.192880 0
M  V30 13 C 0.680480 1.336830 -0.656483 0
M  V30 14 C -0.280078 2.227584 -1.292686 0
M  V30 15 O -0.367144 3.449080 -1.086387 0
M  V30 16 C -1.294024 1.775511 -2.286434 0
M  V30 17 N -1.314764 0.328979 -2.379953 0
M  V30 18 C 0.007874 -0.241154 -2.380508 0
M  V30 19 C 1.362831 1.943783 0.515336 0
M  V30 20 C 0.338055 2.310826 1.546050 0
M  V30 21 C 0.389013 3.304344 2.502406 0
M  V30 22 C -0.804553 3.222374 3.195495 0
M  V30 23 C -1.522013 2.185130 2.628194 0
M  V30 24 S -3.155387 1.611958 3.117587 0
M  V30 25 C -3.672658 0.238381 2.086145 0
M  V30 26 N -3.318610 -0.971328 2.560182 0
M  V30 27 C -3.755332 -1.925482 1.711705 0
M  V30 28 C -3.721672 -3.306155 1.620395 0
M  V30 29 C -4.298913 -3.987186 0.561498 0
M  V30 30 C -4.924652 -3.245132 -0.426894 0
M  V30 31 C -4.997339 -1.860671 -0.401781 0
M  V30 32 Cl -5.793078 -0.941766 -1.661248 0
M  V30 33 C -4.399284 -1.261740 0.683830 0
M  V30 34 N -4.339436 0.071847 0.929782 0
M  V30 35 O -0.815101 1.668945 1.655258 0
M  V30 36 H 3.664058 -4.985333 1.970828 0
M  V30 37 H 2.615582 -5.876031 0.849609 0
M  V30 38 H 4.349723 -6.264431 0.819564 0
M  V30 39 H 4.923937 -4.515323 -0.541630 0
M  V30 40 H 3.240411 -4.753494 -1.005799 0
M  V30 41 H 4.559626 -0.277756 3.065176 0
M  V30 42 H 3.262856 1.920219 2.784215 0
M  V30 43 H 1.878461 -1.677134 -0.968464 0
M  V30 44 H -2.284911 2.079980 -1.890819 0
M  V30 45 H -1.133422 2.187880 -3.285948 0
M  V30 46 H -1.859164 -0.116081 -1.633918 0
M  V30 47 H -0.128573 -1.351997 -2.328725 0
M  V30 48 H 0.566957 -0.028908 -3.313484 0
M  V30 49 H 1.903634 2.872171 0.233782 0
M  V30 50 H 1.225724 3.976570 2.628834 0
M  V30 51 H -1.097377 3.858160 4.018696 0
M  V30 52 H -3.213021 -3.842311 2.431011 0
M  V30 53 H -4.242523 -5.068105 0.541284 0
M  V30 54 H -5.373468 -3.791539 -1.252085 0
M  V30 55 H -4.667092 0.937529 0.463628 0
M  V30 END ATOM
M  V30 BEGIN BOND
M  V30 1 1 1 2
M  V30 2 1 2 3
M  V30 3 1 3 4
M  V30 4 2 4 5
M  V30 5 1 4 6
M  V30 6 1 6 7
M  V30 7 1 7 8
M  V30 8 2 8 9
M  V30 9 1 9 10
M  V30 10 1 10 11
M  V30 11 1 11 12
M  V30 12 2 12 13
M  V30 13 1 13 14
M  V30 14 2 14 15
M  V30 15 1 14 16
M  V30 16 1 16 17
M  V30 17 1 17 18
M  V30 18 1 13 19
M  V30 19 1 19 20
M  V30 20 2 20 21
M  V30 21 1 21 22
M  V30 22 2 22 23
M  V30 23 1 23 24
M  V30 24 1 24 25
M  V30 25 2 25 26
M  V30 26 1 26 27
M  V30 27 2 27 28
M  V30 28 1 28 29
M  V30 29 2 29 30
M  V30 30 1 30 31
M  V30 31 1 31 32
M  V30 32 2 31 33
M  V30 33 1 33 34
M  V30 34 1 23 35
M  V30 35 2 10 6
M  V30 36 1 18 12
M  V30 37 1 35 20
M  V30 38 1 19 9
M  V30 39 1 34 25
M  V30 40 1 33 27
M  V30 41 1 1 36
M  V30 42 1 1 37
M  V30 43 1 1 38
M  V30 44 1 2 39
M  V30 45 1 2 40
M  V30 46 1 7 41
M  V30 47 1 8 42
M  V30 48 1 11 43
M  V30 49 1 16 44
M  V30 50 1 16 45
M  V30 51 1 17 46
M  V30 52 1 18 47
M  V30 53 1 18 48
M  V30 54 1 19 49
M  V30 55 1 21 50
M  V30 56 1 22 51
M  V30 57 1 28 52
M  V30 58 1 29 53
M  V30 59 1 30 54
M  V30 60 1 34 55
M  V30 END BOND
M  V30 END CTAB
M  END
>  <Dataset>  (697) 
ChEMBL_Kinases

>  <Ligand_Instance>  (697) 
nan

>  <PDB_ID>  (697) 
nan

>  <Standardized_SMILES>  (697) 
CCOC(=O)c1[nH]cc2c1NC1=C(C(=O)CNC1)C2c1ccc(Sc2nc3cccc(Cl)c3[nH]2)o1

>  <Name>  (697) 
nan

>  <Pocket>  (697) 
nan

>  <ATP_Site>  (697) 
nan

>  <Peripheral>  (697) 
nan

>  <Num_H_Atoms_ProtBoundConf>  (697) 
nan

>  <Num_Resolved_Atoms>  (697) 
nan

>  <Num_Not_Resolved_Atoms>  (697) 
nan

$$$$
CHEMBL3393488
     RDKit          3D

  0  0  0  0  0  0  0  0  0  0999 V3000
M  V30 BEGIN CTAB
M  V30 COUNTS 55 60 0 0 0
M  V30 BEGIN ATOM
M  V30 1 C 3.870733 -4.908608 1.772473 0
M  V30 2 C 4.159434 -4.338719 0.395458 0
M  V30 3 O 3.622147 -3.024310 0.394628 0
M  V30 4 C 4.044779 -2.046354 1.280555 0
M  V30 5 O 4.938178 -2.406390 2.085080 0
M  V30 6 C 3.489955 -0.695949 1.276824 0
M  V30 7 N 3.884467 0.268519 2.126536 0
M  V30 8 C 3.120155 1.344277 1.776348 0
M  V30 9 C 2.270477 1.036657 0.725253 0
M  V30 10 C 2.508280 -0.278056 0.402808 0
M  V30 11 N 1.754411 -0.818870 -0.647506 0
M  V30 12 C 0.779505 -0.078128 -1.371932 0
M  V30 13 C 0.612169 1.175077 -1.000695 0
M  V30 14 C -0.383441 1.947370 -1.733470 0
M  V30 15 O -0.443356 3.216767 -1.730809 0
M  V30 16 C -1.440899 1.298682 -2.567927 0
M  V30 17 N -1.409693 -0.143510 -2.414834 0
M  V30 18 C -0.027152 -0.638238 -2.487656 0
M  V30 19 C 1.292394 1.946663 0.071639 0
M  V30 20 C 0.221395 2.308428 1.063191 0
M  V30 21 C 0.291979 3.396116 1.909107 0
M  V30 22 C -0.878733 3.402433 2.673932 0
M  V30 23 C -1.581551 2.305071 2.230315 0
M  V30 24 S -3.193884 1.769442 2.837364 0
M  V30 25 C -3.728889 0.296813 1.976923 0
M  V30 26 N -3.342272 -0.866982 2.562297 0
M  V30 27 C -3.793565 -1.910556 1.839807 0
M  V30 28 C -3.749790 -3.291913 1.885642 0
M  V30 29 F -3.058354 -3.794466 2.958379 0
M  V30 30 C -4.349125 -4.068225 0.936042 0
M  V30 31 C -5.016991 -3.456854 -0.097973 0
M  V30 32 C -5.114837 -2.074161 -0.228303 0
M  V30 33 C -4.480412 -1.355297 0.775203 0
M  V30 34 N -4.434060 -0.005534 0.869679 0
M  V30 35 O -0.917227 1.700269 1.303424 0
M  V30 36 H 3.357949 -4.206384 2.442795 0
M  V30 37 H 3.245984 -5.820778 1.744282 0
M  V30 38 H 4.811908 -5.203299 2.291644 0
M  V30 39 H 5.245873 -4.356003 0.221496 0
M  V30 40 H 3.607854 -4.985278 -0.316586 0
M  V30 41 H 4.600994 0.210377 2.873147 0
M  V30 42 H 3.248297 2.287403 2.329583 0
M  V30 43 H 1.910547 -1.813772 -0.917137 0
M  V30 44 H -1.263407 1.563992 -3.623394 0
M  V30 45 H -2.417454 1.635367 -2.172143 0
M  V30 46 H -1.724090 -0.376913 -1.425975 0
M  V30 47 H -0.104156 -1.733605 -2.328541 0
M  V30 48 H 0.423046 -0.395634 -3.478380 0
M  V30 49 H 1.772508 2.853482 -0.332078 0
M  V30 50 H 1.061847 4.149541 2.027193 0
M  V30 51 H -1.164068 4.107094 3.436804 0
M  V30 52 H -4.285051 -5.144465 1.018588 0
M  V30 53 H -5.477446 -4.114415 -0.828622 0
M  V30 54 H -5.635843 -1.607290 -1.035142 0
M  V30 55 H -4.786433 0.798179 0.331912 0
M  V30 END ATOM
M  V30 BEGIN BOND
M  V30 1 1 1 2
M  V30 2 1 2 3
M  V30 3 1 3 4
M  V30 4 2 4 5
M  V30 5 1 4 6
M  V30 6 1 6 7
M  V30 7 1 7 8
M  V30 8 2 8 9
M  V30 9 1 9 10
M  V30 10 1 10 11
M  V30 11 1 11 12
M  V30 12 2 12 13
M  V30 13 1 13 14
M  V30 14 2 14 15
M  V30 15 1 14 16
M  V30 16 1 16 17
M  V30 17 1 17 18
M  V30 18 1 13 19
M  V30 19 1 19 20
M  V30 20 2 20 21
M  V30 21 1 21 22
M  V30 22 2 22 23
M  V30 23 1 23 24
M  V30 24 1 24 25
M  V30 25 2 25 26
M  V30 26 1 26 27
M  V30 27 2 27 28
M  V30 28 1 28 29
M  V30 29 1 28 30
M  V30 30 2 30 31
M  V30 31 1 31 32
M  V30 32 2 32 33
M  V30 33 1 33 34
M  V30 34 1 23 35
M  V30 35 2 10 6
M  V30 36 1 18 12
M  V30 37 1 35 20
M  V30 38 1 19 9
M  V30 39 1 34 25
M  V30 40 1 33 27
M  V30 41 1 1 36
M  V30 42 1 1 37
M  V30 43 1 1 38
M  V30 44 1 2 39
M  V30 45 1 2 40
M  V30 46 1 7 41
M  V30 47 1 8 42
M  V30 48 1 11 43
M  V30 49 1 16 44
M  V30 50 1 16 45
M  V30 51 1 17 46
M  V30 52 1 18 47
M  V30 53 1 18 48
M  V30 54 1 19 49
M  V30 55 1 21 50
M  V30 56 1 22 51
M  V30 57 1 30 52
M  V30 58 1 31 53
M  V30 59 1 32 54
M  V30 60 1 34 55
M  V30 END BOND
M  V30 END CTAB
M  END
>  <Dataset>  (698) 
ChEMBL_Kinases

>  <Ligand_Instance>  (698) 
nan

>  <PDB_ID>  (698) 
nan

>  <Standardized_SMILES>  (698) 
CCOC(=O)c1[nH]cc2c1NC1=C(C(=O)CNC1)C2c1ccc(Sc2nc3c(F)cccc3[nH]2)o1

>  <Name>  (698) 
nan

>  <Pocket>  (698) 
nan

>  <ATP_Site>  (698) 
nan

>  <Peripheral>  (698) 
nan

>  <Num_H_Atoms_ProtBoundConf>  (698) 
nan

>  <Num_Resolved_Atoms>  (698) 
nan

>  <Num_Not_Resolved_Atoms>  (698) 
nan

$$$$
CHEMBL3393489
     RDKit          3D

  0  0  0  0  0  0  0  0  0  0999 V3000
M  V30 BEGIN CTAB
M  V30 COUNTS 62 67 0 0 0
M  V30 BEGIN ATOM
M  V30 1 C 6.325622 -3.193410 -1.453644 0
M  V30 2 C 5.742179 -2.127475 -2.380520 0
M  V30 3 O 4.504467 -1.703492 -1.804328 0
M  V30 4 C 4.416756 -1.142154 -0.555035 0
M  V30 5 O 5.459353 -0.984154 0.131884 0
M  V30 6 C 3.141317 -0.717197 0.010727 0
M  V30 7 N 2.952629 -0.159406 1.219882 0
M  V30 8 C 1.613901 0.081830 1.346546 0
M  V30 9 C 0.943407 -0.330919 0.196400 0
M  V30 10 C 1.929957 -0.829988 -0.627646 0
M  V30 11 N 1.448788 -1.312280 -1.876031 0
M  V30 12 C 0.075455 -1.284363 -2.245272 0
M  V30 13 C -0.796050 -0.785383 -1.385166 0
M  V30 14 C -2.221628 -0.734308 -1.718197 0
M  V30 15 O -3.139943 -0.357905 -0.956654 0
M  V30 16 C -2.662815 -1.165498 -3.091313 0
M  V30 17 C -1.741555 -2.260154 -3.567477 0
M  V30 18 C -2.114852 -2.530027 -5.012163 0
M  V30 19 C -1.932580 -3.459554 -2.692609 0
M  V30 20 C -0.294504 -1.818584 -3.578677 0
M  V30 21 C -0.518504 -0.230618 -0.037487 0
M  V30 22 C -1.283979 -1.024494 0.974447 0
M  V30 23 C -1.683543 -2.342942 0.932409 0
M  V30 24 C -2.363387 -2.620148 2.100759 0
M  V30 25 C -2.346856 -1.429708 2.818873 0
M  V30 26 S -3.130107 -1.341448 4.421870 0
M  V30 27 C -2.956180 0.294482 5.112346 0
M  V30 28 N -1.862325 0.543553 5.881045 0
M  V30 29 C -1.913386 1.827144 6.306491 0
M  V30 30 C -1.121045 2.643659 7.089894 0
M  V30 31 C -1.457853 3.958012 7.348707 0
M  V30 32 C -2.621589 4.472849 6.808656 0
M  V30 33 C -3.460050 3.696735 6.010998 0
M  V30 34 C -3.065769 2.388816 5.790203 0
M  V30 35 N -3.677245 1.428546 5.068073 0
M  V30 36 O -1.710139 -0.535971 2.124551 0
M  V30 37 H 5.543111 -3.592948 -0.798143 0
M  V30 38 H 7.048365 -2.652186 -0.791508 0
M  V30 39 H 6.888098 -3.954088 -1.999930 0
M  V30 40 H 5.576926 -2.585883 -3.355007 0
M  V30 41 H 6.413486 -1.271764 -2.473968 0
M  V30 42 H 3.705850 0.041479 1.914147 0
M  V30 43 H 1.230403 0.538520 2.264324 0
M  V30 44 H 2.148729 -1.706988 -2.552870 0
M  V30 45 H -2.632096 -0.289455 -3.776561 0
M  V30 46 H -3.676021 -1.618921 -3.030982 0
M  V30 47 H -3.229111 -2.461667 -5.158220 0
M  V30 48 H -1.685372 -3.450954 -5.410261 0
M  V30 49 H -1.684820 -1.683178 -5.587716 0
M  V30 50 H -1.021765 -3.736329 -2.121859 0
M  V30 51 H -2.727710 -3.276587 -1.911222 0
M  V30 52 H -2.279194 -4.360991 -3.238189 0
M  V30 53 H -0.194448 -1.043581 -4.355276 0
M  V30 54 H 0.338436 -2.708519 -3.765181 0
M  V30 55 H -0.863128 0.821104 0.033762 0
M  V30 56 H -1.498072 -3.021184 0.138640 0
M  V30 57 H -2.804833 -3.590843 2.360793 0
M  V30 58 H -0.206377 2.221022 7.507954 0
M  V30 59 H -0.833970 4.610634 7.969076 0
M  V30 60 H -2.892050 5.518309 7.012871 0
M  V30 61 H -4.370487 4.098790 5.588369 0
M  V30 62 H -4.573080 1.419924 4.508124 0
M  V30 END ATOM
M  V30 BEGIN BOND
M  V30 1 1 1 2
M  V30 2 1 2 3
M  V30 3 1 3 4
M  V30 4 2 4 5
M  V30 5 1 4 6
M  V30 6 1 6 7
M  V30 7 1 7 8
M  V30 8 2 8 9
M  V30 9 1 9 10
M  V30 10 1 10 11
M  V30 11 1 11 12
M  V30 12 2 12 13
M  V30 13 1 13 14
M  V30 14 2 14 15
M  V30 15 1 14 16
M  V30 16 1 16 17
M  V30 17 1 17 18
M  V30 18 1 17 19
M  V30 19 1 17 20
M  V30 20 1 13 21
M  V30 21 1 21 22
M  V30 22 2 22 23
M  V30 23 1 23 24
M  V30 24 2 24 25
M  V30 25 1 25 26
M  V30 26 1 26 27
M  V30 27 2 27 28
M  V30 28 1 28 29
M  V30 29 2 29 30
M  V30 30 1 30 31
M  V30 31 2 31 32
M  V30 32 1 32 33
M  V30 33 2 33 34
M  V30 34 1 34 35
M  V30 35 1 25 36
M  V30 36 2 10 6
M  V30 37 1 20 12
M  V30 38 1 36 22
M  V30 39 1 21 9
M  V30 40 1 35 27
M  V30 41 1 34 29
M  V30 42 1 1 37
M  V30 43 1 1 38
M  V30 44 1 1 39
M  V30 45 1 2 40
M  V30 46 1 2 41
M  V30 47 1 7 42
M  V30 48 1 8 43
M  V30 49 1 11 44
M  V30 50 1 16 45
M  V30 51 1 16 46
M  V30 52 1 18 47
M  V30 53 1 18 48
M  V30 54 1 18 49
M  V30 55 1 19 50
M  V30 56 1 19 51
M  V30 57 1 19 52
M  V30 58 1 20 53
M  V30 59 1 20 54
M  V30 60 1 21 55
M  V30 61 1 23 56
M  V30 62 1 24 57
M  V30 63 1 30 58
M  V30 64 1 31 59
M  V30 65 1 32 60
M  V30 66 1 33 61
M  V30 67 1 35 62
M  V30 END BOND
M  V30 END CTAB
M  END
>  <Dataset>  (699) 
ChEMBL_Kinases

>  <Ligand_Instance>  (699) 
nan

>  <PDB_ID>  (699) 
nan

>  <Standardized_SMILES>  (699) 
CCOC(=O)c1[nH]cc2c1NC1=C(C(=O)CC(C)(C)C1)C2c1ccc(Sc2nc3ccccc3[nH]2)o1

>  <Name>  (699) 
nan

>  <Pocket>  (699) 
nan

>  <ATP_Site>  (699) 
nan

>  <Peripheral>  (699) 
nan

>  <Num_H_Atoms_ProtBoundConf>  (699) 
nan

>  <Num_Resolved_Atoms>  (699) 
nan

>  <Num_Not_Resolved_Atoms>  (699) 
nan

$$$$
CHEMBL3393453
     RDKit          3D

  0  0  0  0  0  0  0  0  0  0999 V3000
M  V30 BEGIN CTAB
M  V30 COUNTS 42 46 0 0 0
M  V30 BEGIN ATOM
M  V30 1 N -2.453975 -5.442231 -0.853848 0
M  V30 2 C -1.570249 -4.728484 -0.591958 0
M  V30 3 C -0.492786 -3.845275 -0.280730 0
M  V30 4 C 0.290503 -3.999970 0.850988 0
M  V30 5 C 1.325700 -3.132887 1.128922 0
M  V30 6 C 1.565042 -2.087506 0.232980 0
M  V30 7 C 0.779181 -1.939306 -0.894421 0
M  V30 8 C 1.206907 -0.790468 -1.675812 0
M  V30 9 C 1.617081 -0.930704 -3.007671 0
M  V30 10 N 1.999821 0.296478 -3.435667 0
M  V30 11 C 1.868550 1.237576 -2.474506 0
M  V30 12 N 2.074881 2.548770 -2.324326 0
M  V30 13 C 1.793018 3.142715 -1.127413 0
M  V30 14 N 1.301115 2.439433 -0.063588 0
M  V30 15 C 1.083376 1.095405 -0.199055 0
M  V30 16 N 0.532818 0.605695 1.016952 0
M  V30 17 C -0.736176 0.041860 1.519732 0
M  V30 18 C -1.004234 0.800437 2.804552 0
M  V30 19 C -1.574985 -0.173858 3.799990 0
M  V30 20 C -0.291099 -0.599196 4.521459 0
M  V30 21 O 0.494304 0.545665 4.530506 0
M  V30 22 C 0.379917 1.166003 3.308886 0
M  V30 23 C 1.312896 0.603026 2.250168 0
M  V30 24 C 1.376982 0.531195 -1.406866 0
M  V30 25 C -0.256265 -2.806080 -1.173045 0
M  V30 26 H 0.033096 -4.842444 1.494290 0
M  V30 27 H 1.908768 -3.308134 2.039651 0
M  V30 28 H 2.396528 -1.468923 0.542923 0
M  V30 29 H 1.627807 -1.842917 -3.587675 0
M  V30 30 H 2.364197 0.522436 -4.406575 0
M  V30 31 H 1.997633 4.205543 -1.116111 0
M  V30 32 H -1.579847 0.245445 0.837905 0
M  V30 33 H -0.605767 -1.022482 1.673207 0
M  V30 34 H -1.685167 1.644360 2.699238 0
M  V30 35 H -2.247650 0.314600 4.530202 0
M  V30 36 H -2.066572 -1.028483 3.298769 0
M  V30 37 H 0.224268 -1.410798 3.968326 0
M  V30 38 H -0.558792 -0.899234 5.543836 0
M  V30 39 H 0.423542 2.266847 3.350972 0
M  V30 40 H 1.603467 -0.398365 2.587771 0
M  V30 41 H 2.208645 1.245140 2.198969 0
M  V30 42 H -0.801587 -2.593430 -2.080213 0
M  V30 END ATOM
M  V30 BEGIN BOND
M  V30 1 3 1 2
M  V30 2 1 2 3
M  V30 3 2 3 4
M  V30 4 1 4 5
M  V30 5 2 5 6
M  V30 6 1 6 7
M  V30 7 1 7 8
M  V30 8 2 8 9
M  V30 9 1 9 10
M  V30 10 1 10 11
M  V30 11 2 11 12
M  V30 12 1 12 13
M  V30 13 2 13 14
M  V30 14 1 14 15
M  V30 15 1 15 16
M  V30 16 1 16 17
M  V30 17 1 17 18
M  V30 18 1 18 19
M  V30 19 1 19 20
M  V30 20 1 20 21
M  V30 21 1 21 22
M  V30 22 1 22 23
M  V30 23 2 15 24
M  V30 24 2 7 25
M  V30 25 1 25 3
M  V30 26 1 24 8
M  V30 27 1 24 11
M  V30 28 1 23 16
M  V30 29 1 22 18
M  V30 30 1 4 26
M  V30 31 1 5 27
M  V30 32 1 6 28
M  V30 33 1 9 29
M  V30 34 1 10 30
M  V30 35 1 13 31
M  V30 36 1 17 32
M  V30 37 1 17 33
M  V30 38 1 18 34
M  V30 39 1 19 35
M  V30 40 1 19 36
M  V30 41 1 20 37
M  V30 42 1 20 38
M  V30 43 1 22 39
M  V30 44 1 23 40
M  V30 45 1 23 41
M  V30 46 1 25 42
M  V30 END BOND
M  V30 END CTAB
M  END
>  <Dataset>  (700) 
ChEMBL_Kinases

>  <Ligand_Instance>  (700) 
nan

>  <PDB_ID>  (700) 
nan

>  <Standardized_SMILES>  (700) 
N#Cc1cccc(-c2c[nH]c3ncnc(N4CC5CCOC5C4)c23)c1

>  <Name>  (700) 
nan

>  <Pocket>  (700) 
nan

>  <ATP_Site>  (700) 
nan

>  <Peripheral>  (700) 
nan

>  <Num_H_Atoms_ProtBoundConf>  (700) 
nan

>  <Num_Resolved_Atoms>  (700) 
nan

>  <Num_Not_Resolved_Atoms>  (700) 
nan

$$$$
CHEMBL3393490
     RDKit          3D

  0  0  0  0  0  0  0  0  0  0999 V3000
M  V30 BEGIN CTAB
M  V30 COUNTS 70 75 0 0 0
M  V30 BEGIN ATOM
M  V30 1 C 4.201978 -5.333378 0.833370 0
M  V30 2 C 3.524172 -5.136655 -0.506169 0
M  V30 3 O 2.698238 -3.995783 -0.519026 0
M  V30 4 C 3.155356 -2.717546 -0.287503 0
M  V30 5 O 2.766335 -3.905993 -0.496370 0
M  V30 6 C 2.432391 -1.458738 -0.265516 0
M  V30 7 N 3.065504 -0.302536 -0.023320 0
M  V30 8 C 2.077685 0.636548 -0.076388 0
M  V30 9 C 0.832972 0.089828 -0.348589 0
M  V30 10 C 1.087422 -1.256523 -0.464954 0
M  V30 11 N -0.026525 -2.092038 -0.743600 0
M  V30 12 C -1.327366 -1.514315 -0.888248 0
M  V30 13 C -1.499768 -0.207640 -0.765655 0
M  V30 14 C -2.860886 0.293161 -0.927608 0
M  V30 15 O -3.187667 1.500995 -1.119707 0
M  V30 16 C -4.059732 -0.618828 -0.879775 0
M  V30 17 N -3.643366 -1.965102 -0.607745 0
M  V30 18 C -4.407421 -2.849055 0.222042 0
M  V30 19 O -5.313242 -3.279029 0.958435 0
M  V30 20 O -3.994851 -4.122697 0.475205 0
M  V30 21 C -4.597265 -5.109320 1.244613 0
M  V30 22 C -5.962192 -5.465904 0.735402 0
M  V30 23 C -3.732514 -6.368737 1.076724 0
M  V30 24 C -4.708161 -4.762598 2.711454 0
M  V30 25 C -2.430605 -2.467568 -1.172085 0
M  V30 26 C -0.442042 0.790206 -0.487009 0
M  V30 27 C -0.766288 1.646766 0.680638 0
M  V30 28 C -1.659460 1.556915 1.724876 0
M  V30 29 C -1.444076 2.697211 2.468387 0
M  V30 30 C -0.447076 3.413279 1.851755 0
M  V30 31 S 0.239056 4.994331 2.392523 0
M  V30 32 C 1.542934 5.537123 1.306905 0
M  V30 33 N 2.758067 5.055484 1.707991 0
M  V30 34 C 3.725632 5.484224 0.859993 0
M  V30 35 C 5.097209 5.348638 0.725115 0
M  V30 36 C 5.773089 5.965188 -0.323381 0
M  V30 37 C 5.045383 6.710222 -1.219769 0
M  V30 38 C 3.680685 6.897148 -1.160176 0
M  V30 39 C 3.070432 6.249386 -0.082324 0
M  V30 40 N 1.754549 6.271742 0.200744 0
M  V30 41 O -0.056224 2.770128 0.787629 0
M  V30 42 H 5.173891 -5.880841 0.680121 0
M  V30 43 H 3.564148 -5.915193 1.543489 0
M  V30 44 H 4.427867 -4.339033 1.268145 0
M  V30 45 H 2.847796 -6.031278 -0.615644 0
M  V30 46 H 4.243771 -5.194349 -1.319941 0
M  V30 47 H 4.071331 -0.113189 0.157861 0
M  V30 48 H 2.306088 1.692594 0.088713 0
M  V30 49 H 0.152219 -3.114384 -0.834180 0
M  V30 50 H -4.680188 -0.275342 -0.024173 0
M  V30 51 H -4.695272 -0.525430 -1.769620 0
M  V30 52 H -6.091217 -5.091756 -0.282138 0
M  V30 53 H -6.781602 -5.042255 1.375939 0
M  V30 54 H -6.099575 -6.584026 0.655831 0
M  V30 55 H -3.764192 -6.643106 0.010975 0
M  V30 56 H -4.135408 -7.203297 1.668370 0
M  V30 57 H -2.675613 -6.119308 1.372778 0
M  V30 58 H -5.755122 -4.769642 3.051276 0
M  V30 59 H -4.165160 -3.843739 2.935613 0
M  V30 60 H -4.210385 -5.577423 3.281884 0
M  V30 61 H -2.176675 -3.477324 -0.786655 0
M  V30 62 H -2.558609 -2.492519 -2.291922 0
M  V30 63 H -0.366913 1.418095 -1.423105 0
M  V30 64 H -2.326614 0.713913 1.815121 0
M  V30 65 H -1.986377 2.932520 3.357692 0
M  V30 66 H 5.531337 4.723015 1.516644 0
M  V30 67 H 6.839944 5.798114 -0.338114 0
M  V30 68 H 5.621599 7.177388 -2.027487 0
M  V30 69 H 3.124372 7.480275 -1.863857 0
M  V30 70 H 0.883969 6.684660 -0.183994 0
M  V30 END ATOM
M  V30 BEGIN BOND
M  V30 1 1 1 2
M  V30 2 1 2 3
M  V30 3 1 3 4
M  V30 4 2 4 5
M  V30 5 1 4 6
M  V30 6 1 6 7
M  V30 7 1 7 8
M  V30 8 2 8 9
M  V30 9 1 9 10
M  V30 10 1 10 11
M  V30 11 1 11 12
M  V30 12 2 12 13
M  V30 13 1 13 14
M  V30 14 2 14 15
M  V30 15 1 14 16
M  V30 16 1 16 17
M  V30 17 1 17 18
M  V30 18 2 18 19
M  V30 19 1 18 20
M  V30 20 1 20 21
M  V30 21 1 21 22
M  V30 22 1 21 23
M  V30 23 1 21 24
M  V30 24 1 17 25
M  V30 25 1 13 26
M  V30 26 1 26 27
M  V30 27 2 27 28
M  V30 28 1 28 29
M  V30 29 2 29 30
M  V30 30 1 30 31
M  V30 31 1 31 32
M  V30 32 2 32 33
M  V30 33 1 33 34
M  V30 34 2 34 35
M  V30 35 1 35 36
M  V30 36 2 36 37
M  V30 37 1 37 38
M  V30 38 2 38 39
M  V30 39 1 39 40
M  V30 40 1 30 41
M  V30 41 2 10 6
M  V30 42 1 25 12
M  V30 43 1 41 27
M  V30 44 1 26 9
M  V30 45 1 40 32
M  V30 46 1 39 34
M  V30 47 1 1 42
M  V30 48 1 1 43
M  V30 49 1 1 44
M  V30 50 1 2 45
M  V30 51 1 2 46
M  V30 52 1 7 47
M  V30 53 1 8 48
M  V30 54 1 11 49
M  V30 55 1 16 50
M  V30 56 1 16 51
M  V30 57 1 22 52
M  V30 58 1 22 53
M  V30 59 1 22 54
M  V30 60 1 23 55
M  V30 61 1 23 56
M  V30 62 1 23 57
M  V30 63 1 24 58
M  V30 64 1 24 59
M  V30 65 1 24 60
M  V30 66 1 25 61
M  V30 67 1 25 62
M  V30 68 1 26 63
M  V30 69 1 28 64
M  V30 70 1 29 65
M  V30 71 1 35 66
M  V30 72 1 36 67
M  V30 73 1 37 68
M  V30 74 1 38 69
M  V30 75 1 40 70
M  V30 END BOND
M  V30 END CTAB
M  END
>  <Dataset>  (701) 
ChEMBL_Kinases

>  <Ligand_Instance>  (701) 
nan

>  <PDB_ID>  (701) 
nan

>  <Standardized_SMILES>  (701) 
CCOC(=O)c1[nH]cc2c1NC1=C(C(=O)CN(C(=O)OC(C)(C)C)C1)C2c1ccc(Sc2nc3ccccc3[nH]2)o1

>  <Name>  (701) 
nan

>  <Pocket>  (701) 
nan

>  <ATP_Site>  (701) 
nan

>  <Peripheral>  (701) 
nan

>  <Num_H_Atoms_ProtBoundConf>  (701) 
nan

>  <Num_Resolved_Atoms>  (701) 
nan

>  <Num_Not_Resolved_Atoms>  (701) 
nan

$$$$
CHEMBL3393491
     RDKit          3D

  0  0  0  0  0  0  0  0  0  0999 V3000
M  V30 BEGIN CTAB
M  V30 COUNTS 68 74 0 0 0
M  V30 BEGIN ATOM
M  V30 1 C 1.562188 -5.822724 4.271579 0
M  V30 2 C 0.956855 -6.193816 2.914088 0
M  V30 3 O 0.627608 -5.003891 2.223712 0
M  V30 4 C 1.620000 -4.090366 1.926104 0
M  V30 5 O 2.827998 -4.312539 2.268998 0
M  V30 6 C 1.319439 -2.854332 1.216712 0
M  V30 7 N 2.231165 -1.913469 0.889549 0
M  V30 8 C 1.622599 -0.883696 0.231693 0
M  V30 9 C 0.291059 -1.238837 0.170925 0
M  V30 10 C 0.072878 -2.459685 0.775499 0
M  V30 11 N -1.242596 -3.016145 0.824173 0
M  V30 12 C -2.351471 -2.310994 0.244570 0
M  V30 13 C -2.112034 -1.149948 -0.324429 0
M  V30 14 C -3.280692 -0.488627 -0.892026 0
M  V30 15 O -3.191573 0.732499 -1.228567 0
M  V30 16 C -4.577369 -1.149712 -1.105147 0
M  V30 17 N -4.497389 -2.558249 -0.891638 0
M  V30 18 C -4.249701 -3.362516 -2.035685 0
M  V30 19 C -3.002418 -3.105690 -2.758606 0
M  V30 20 C -2.975858 -2.172401 -3.795625 0
M  V30 21 C -1.891352 -1.822741 -4.563508 0
M  V30 22 C -0.703605 -2.456070 -4.285467 0
M  V30 23 C -0.646717 -3.392759 -3.274164 0
M  V30 24 C -1.757027 -3.707200 -2.535950 0
M  V30 25 C -3.721716 -2.847282 0.272443 0
M  V30 26 C -0.796638 -0.467884 -0.439566 0
M  V30 27 C -0.950947 0.884803 0.161079 0
M  V30 28 C -1.755217 1.187226 1.240855 0
M  V30 29 C -1.638290 2.536270 1.507238 0
M  V30 30 C -0.745854 3.009364 0.554855 0
M  V30 31 S -0.059355 4.636450 0.206132 0
M  V30 32 C 1.459796 4.877993 1.130982 0
M  V30 33 N 2.591756 4.483409 0.493278 0
M  V30 34 C 3.670799 4.710304 1.277981 0
M  V30 35 C 5.037676 4.533283 1.199488 0
M  V30 36 C 5.858184 4.906899 2.260586 0
M  V30 37 C 5.295141 5.458563 3.398517 0
M  V30 38 C 3.925804 5.654546 3.520211 0
M  V30 39 C 3.150850 5.266811 2.437514 0
M  V30 40 N 1.812710 5.363055 2.336434 0
M  V30 41 O -0.368169 2.009234 -0.213001 0
M  V30 42 H 1.397884 -6.712574 4.928982 0
M  V30 43 H 1.069767 -4.918485 4.657221 0
M  V30 44 H 2.651790 -5.678253 4.210898 0
M  V30 45 H -0.011391 -6.703000 3.152201 0
M  V30 46 H 1.689977 -6.822257 2.410819 0
M  V30 47 H 3.258934 -1.958771 1.105275 0
M  V30 48 H 2.144673 -0.009532 -0.132911 0
M  V30 49 H -1.380816 -3.935297 1.284195 0
M  V30 50 H -5.068685 -0.868531 -2.054030 0
M  V30 51 H -5.258673 -0.745196 -0.300331 0
M  V30 52 H -4.372719 -4.424581 -1.734407 0
M  V30 53 H -5.086698 -3.160088 -2.760102 0
M  V30 54 H -3.908216 -1.668474 -4.021350 0
M  V30 55 H -1.983451 -1.091963 -5.335627 0
M  V30 56 H 0.153018 -2.191980 -4.878679 0
M  V30 57 H 0.300994 -3.873782 -3.079079 0
M  V30 58 H -1.745179 -4.444479 -1.728312 0
M  V30 59 H -3.739227 -3.922378 0.554174 0
M  V30 60 H -4.234423 -2.311536 1.124577 0
M  V30 61 H -0.521251 -0.346946 -1.525100 0
M  V30 62 H -2.397942 0.555999 1.838447 0
M  V30 63 H -2.056737 3.216586 2.228001 0
M  V30 64 H 5.420211 4.090226 0.268768 0
M  V30 65 H 6.935821 4.753482 2.166718 0
M  V30 66 H 5.975285 5.736742 4.205268 0
M  V30 67 H 3.491376 6.086292 4.412305 0
M  V30 68 H 1.039934 5.698775 2.925033 0
M  V30 END ATOM
M  V30 BEGIN BOND
M  V30 1 1 1 2
M  V30 2 1 2 3
M  V30 3 1 3 4
M  V30 4 2 4 5
M  V30 5 1 4 6
M  V30 6 1 6 7
M  V30 7 1 7 8
M  V30 8 2 8 9
M  V30 9 1 9 10
M  V30 10 1 10 11
M  V30 11 1 11 12
M  V30 12 2 12 13
M  V30 13 1 13 14
M  V30 14 2 14 15
M  V30 15 1 14 16
M  V30 16 1 16 17
M  V30 17 1 17 18
M  V30 18 1 18 19
M  V30 19 2 19 20
M  V30 20 1 20 21
M  V30 21 2 21 22
M  V30 22 1 22 23
M  V30 23 2 23 24
M  V30 24 1 17 25
M  V30 25 1 13 26
M  V30 26 1 26 27
M  V30 27 2 27 28
M  V30 28 1 28 29
M  V30 29 2 29 30
M  V30 30 1 30 31
M  V30 31 1 31 32
M  V30 32 2 32 33
M  V30 33 1 33 34
M  V30 34 2 34 35
M  V30 35 1 35 36
M  V30 36 2 36 37
M  V30 37 1 37 38
M  V30 38 2 38 39
M  V30 39 1 39 40
M  V30 40 1 30 41
M  V30 41 2 10 6
M  V30 42 1 25 12
M  V30 43 1 41 27
M  V30 44 1 26 9
M  V30 45 1 40 32
M  V30 46 1 24 19
M  V30 47 1 39 34
M  V30 48 1 1 42
M  V30 49 1 1 43
M  V30 50 1 1 44
M  V30 51 1 2 45
M  V30 52 1 2 46
M  V30 53 1 7 47
M  V30 54 1 8 48
M  V30 55 1 11 49
M  V30 56 1 16 50
M  V30 57 1 16 51
M  V30 58 1 18 52
M  V30 59 1 18 53
M  V30 60 1 20 54
M  V30 61 1 21 55
M  V30 62 1 22 56
M  V30 63 1 23 57
M  V30 64 1 24 58
M  V30 65 1 25 59
M  V30 66 1 25 60
M  V30 67 1 26 61
M  V30 68 1 28 62
M  V30 69 1 29 63
M  V30 70 1 35 64
M  V30 71 1 36 65
M  V30 72 1 37 66
M  V30 73 1 38 67
M  V30 74 1 40 68
M  V30 END BOND
M  V30 END CTAB
M  END
>  <Dataset>  (702) 
ChEMBL_Kinases

>  <Ligand_Instance>  (702) 
nan

>  <PDB_ID>  (702) 
nan

>  <Standardized_SMILES>  (702) 
CCOC(=O)c1[nH]cc2c1NC1=C(C(=O)CN(Cc3ccccc3)C1)C2c1ccc(Sc2nc3ccccc3[nH]2)o1

>  <Name>  (702) 
nan

>  <Pocket>  (702) 
nan

>  <ATP_Site>  (702) 
nan

>  <Peripheral>  (702) 
nan

>  <Num_H_Atoms_ProtBoundConf>  (702) 
nan

>  <Num_Resolved_Atoms>  (702) 
nan

>  <Num_Not_Resolved_Atoms>  (702) 
nan

$$$$
CHEMBL3393492
     RDKit          3D

  0  0  0  0  0  0  0  0  0  0999 V3000
M  V30 BEGIN CTAB
M  V30 COUNTS 56 61 0 0 0
M  V30 BEGIN ATOM
M  V30 1 C 6.746579 -0.670500 5.044478 0
M  V30 2 C 5.681653 0.295696 4.611701 0
M  V30 3 O 4.757950 -0.296244 3.703003 0
M  V30 4 C 3.731255 0.515662 3.240921 0
M  V30 5 O 3.842037 1.642948 3.743665 0
M  V30 6 C 2.733029 0.003367 2.306393 0
M  V30 7 N 2.616288 -1.212596 1.766240 0
M  V30 8 C 1.532323 -1.192144 0.966345 0
M  V30 9 C 0.946532 0.037622 0.988272 0
M  V30 10 C 1.693206 0.800692 1.828895 0
M  V30 11 N 1.292111 2.159050 2.036226 0
M  V30 12 C 0.141224 2.685973 1.375126 0
M  V30 13 C -0.562410 1.917962 0.564780 0
M  V30 14 C -1.735442 2.468673 -0.103990 0
M  V30 15 O -2.381816 1.840615 -1.005363 0
M  V30 16 C -2.242683 3.814955 0.240774 0
M  V30 17 C -1.071105 4.692279 0.590570 0
M  V30 18 C -0.185648 4.093765 1.656298 0
M  V30 19 C -0.260412 0.488102 0.257187 0
M  V30 20 C -1.382862 -0.333674 0.484389 0
M  V30 21 C -2.382116 -0.319530 1.398773 0
M  V30 22 C -3.395479 -1.235368 1.437108 0
M  V30 23 C -3.334016 -2.232145 0.429079 0
M  V30 24 S -4.367061 -3.633003 0.021746 0
M  V30 25 C -3.694779 -4.501660 -1.415265 0
M  V30 26 N -2.799390 -5.528284 -1.507504 0
M  V30 27 C -2.624792 -5.819925 -2.805044 0
M  V30 28 C -1.832440 -6.766674 -3.421575 0
M  V30 29 C -1.857882 -6.836630 -4.805314 0
M  V30 30 C -2.656798 -5.979913 -5.552952 0
M  V30 31 C -3.460551 -5.019951 -4.933895 0
M  V30 32 C -3.431291 -4.953538 -3.538374 0
M  V30 33 N -4.086822 -4.143939 -2.659221 0
M  V30 34 S -1.772170 -1.766367 -0.533834 0
M  V30 35 H 7.655067 -0.587501 4.426854 0
M  V30 36 H 6.410837 -1.732717 5.013803 0
M  V30 37 H 7.004999 -0.410286 6.110346 0
M  V30 38 H 5.094520 0.720558 5.457109 0
M  V30 39 H 6.152455 1.174107 4.111596 0
M  V30 40 H 3.303331 -1.984202 1.990580 0
M  V30 41 H 1.251671 -2.089987 0.422632 0
M  V30 42 H 1.863809 2.754481 2.684003 0
M  V30 43 H -2.746477 4.272081 -0.632395 0
M  V30 44 H -3.022583 3.769051 1.039528 0
M  V30 45 H -1.440109 5.680671 0.933611 0
M  V30 46 H -0.473921 4.790098 -0.347034 0
M  V30 47 H 0.708760 4.751922 1.734564 0
M  V30 48 H -0.746526 4.184287 2.629132 0
M  V30 49 H 0.002529 0.474904 -0.835353 0
M  V30 50 H -2.369240 0.478238 2.149622 0
M  V30 51 H -4.222177 -1.302250 2.118553 0
M  V30 52 H -1.217669 -7.425560 -2.842689 0
M  V30 53 H -1.251790 -7.566635 -5.357567 0
M  V30 54 H -2.681320 -6.030037 -6.643913 0
M  V30 55 H -4.093145 -4.339082 -5.491254 0
M  V30 56 H -4.755738 -3.403281 -2.958519 0
M  V30 END ATOM
M  V30 BEGIN BOND
M  V30 1 1 1 2
M  V30 2 1 2 3
M  V30 3 1 3 4
M  V30 4 2 4 5
M  V30 5 1 4 6
M  V30 6 1 6 7
M  V30 7 1 7 8
M  V30 8 2 8 9
M  V30 9 1 9 10
M  V30 10 1 10 11
M  V30 11 1 11 12
M  V30 12 2 12 13
M  V30 13 1 13 14
M  V30 14 2 14 15
M  V30 15 1 14 16
M  V30 16 1 16 17
M  V30 17 1 17 18
M  V30 18 1 13 19
M  V30 19 1 19 20
M  V30 20 2 20 21
M  V30 21 1 21 22
M  V30 22 2 22 23
M  V30 23 1 23 24
M  V30 24 1 24 25
M  V30 25 2 25 26
M  V30 26 1 26 27
M  V30 27 2 27 28
M  V30 28 1 28 29
M  V30 29 2 29 30
M  V30 30 1 30 31
M  V30 31 2 31 32
M  V30 32 1 32 33
M  V30 33 1 23 34
M  V30 34 2 10 6
M  V30 35 1 18 12
M  V30 36 1 34 20
M  V30 37 1 19 9
M  V30 38 1 33 25
M  V30 39 1 32 27
M  V30 40 1 1 35
M  V30 41 1 1 36
M  V30 42 1 1 37
M  V30 43 1 2 38
M  V30 44 1 2 39
M  V30 45 1 7 40
M  V30 46 1 8 41
M  V30 47 1 11 42
M  V30 48 1 16 43
M  V30 49 1 16 44
M  V30 50 1 17 45
M  V30 51 1 17 46
M  V30 52 1 18 47
M  V30 53 1 18 48
M  V30 54 1 19 49
M  V30 55 1 21 50
M  V30 56 1 22 51
M  V30 57 1 28 52
M  V30 58 1 29 53
M  V30 59 1 30 54
M  V30 60 1 31 55
M  V30 61 1 33 56
M  V30 END BOND
M  V30 END CTAB
M  END
>  <Dataset>  (703) 
ChEMBL_Kinases

>  <Ligand_Instance>  (703) 
nan

>  <PDB_ID>  (703) 
nan

>  <Standardized_SMILES>  (703) 
CCOC(=O)c1[nH]cc2c1NC1=C(C(=O)CCC1)C2c1ccc(Sc2nc3ccccc3[nH]2)s1

>  <Name>  (703) 
nan

>  <Pocket>  (703) 
nan

>  <ATP_Site>  (703) 
nan

>  <Peripheral>  (703) 
nan

>  <Num_H_Atoms_ProtBoundConf>  (703) 
nan

>  <Num_Resolved_Atoms>  (703) 
nan

>  <Num_Not_Resolved_Atoms>  (703) 
nan

$$$$
CHEMBL3393494
     RDKit          3D

  0  0  0  0  0  0  0  0  0  0999 V3000
M  V30 BEGIN CTAB
M  V30 COUNTS 59 64 0 0 0
M  V30 BEGIN ATOM
M  V30 1 C 7.089105 -1.674343 2.080086 0
M  V30 2 C 6.803036 -0.538091 1.136349 0
M  V30 3 O 5.457857 -0.107457 1.377063 0
M  V30 4 C 5.033584 0.365351 2.587381 0
M  V30 5 O 5.804288 0.454300 3.578539 0
M  V30 6 C 3.641748 0.788880 2.763135 0
M  V30 7 N 3.059322 1.274874 3.875899 0
M  V30 8 C 1.748110 1.555917 3.644265 0
M  V30 9 C 1.461999 1.236792 2.313010 0
M  V30 10 C 2.660701 0.768447 1.813183 0
M  V30 11 N 2.633022 0.371521 0.452655 0
M  V30 12 C 1.469576 0.439452 -0.363501 0
M  V30 13 C 0.368097 0.902585 0.205735 0
M  V30 14 C -0.873031 1.003257 -0.569989 0
M  V30 15 O -1.976732 1.467431 -0.141048 0
M  V30 16 C -0.973620 0.559712 -1.981898 0
M  V30 17 C 0.095148 -0.483941 -2.224219 0
M  V30 18 C 1.456802 0.019109 -1.788782 0
M  V30 19 C 0.177689 1.369658 1.606081 0
M  V30 20 C -0.910074 0.532063 2.197169 0
M  V30 21 C -1.716643 1.056488 3.196164 0
M  V30 22 C -2.711013 0.254085 3.718462 0
M  V30 23 C -2.923752 -1.050739 3.275532 0
M  V30 24 C -2.104028 -1.542791 2.280303 0
M  V30 25 S -2.254217 -3.191696 1.611383 0
M  V30 26 C -3.362137 -3.264625 0.214463 0
M  V30 27 N -2.761869 -3.064137 -0.982685 0
M  V30 28 C -3.707730 -3.144169 -1.957936 0
M  V30 29 C -3.717003 -3.031292 -3.346303 0
M  V30 30 C -4.916245 -3.179710 -4.013578 0
M  V30 31 C -6.097389 -3.435089 -3.345796 0
M  V30 32 C -6.113836 -3.552894 -1.950686 0
M  V30 33 C -4.899417 -3.399791 -1.309342 0
M  V30 34 N -4.675729 -3.471643 0.022456 0
M  V30 35 C -1.095165 -0.758896 1.735566 0
M  V30 36 H 6.907177 -2.641673 1.538127 0
M  V30 37 H 8.151331 -1.653273 2.438301 0
M  V30 38 H 6.421869 -1.710261 2.963092 0
M  V30 39 H 6.912830 -0.913734 0.100083 0
M  V30 40 H 7.510442 0.309634 1.258991 0
M  V30 41 H 3.618537 1.391881 4.771776 0
M  V30 42 H 1.151255 1.952047 4.441704 0
M  V30 43 H 3.495405 0.000676 -0.020748 0
M  V30 44 H -1.940863 0.065847 -2.191773 0
M  V30 45 H -0.803781 1.391283 -2.706970 0
M  V30 46 H -0.106778 -1.400839 -1.621742 0
M  V30 47 H 0.181016 -0.784877 -3.271539 0
M  V30 48 H 2.119452 -0.890624 -1.836475 0
M  V30 49 H 1.866228 0.803631 -2.457877 0
M  V30 50 H -0.112842 2.438772 1.602010 0
M  V30 51 H -1.533572 2.071362 3.524351 0
M  V30 52 H -3.334244 0.663979 4.492578 0
M  V30 53 H -3.695131 -1.691168 3.671854 0
M  V30 54 H -2.753168 -2.832281 -3.777446 0
M  V30 55 H -4.823827 -3.075326 -5.090594 0
M  V30 56 H -7.008791 -3.541632 -3.928467 0
M  V30 57 H -7.038481 -3.753672 -1.418470 0
M  V30 58 H -5.257089 -3.639811 0.866251 0
M  V30 59 H -0.428563 -1.103498 0.953411 0
M  V30 END ATOM
M  V30 BEGIN BOND
M  V30 1 1 1 2
M  V30 2 1 2 3
M  V30 3 1 3 4
M  V30 4 2 4 5
M  V30 5 1 4 6
M  V30 6 1 6 7
M  V30 7 1 7 8
M  V30 8 2 8 9
M  V30 9 1 9 10
M  V30 10 1 10 11
M  V30 11 1 11 12
M  V30 12 2 12 13
M  V30 13 1 13 14
M  V30 14 2 14 15
M  V30 15 1 14 16
M  V30 16 1 16 17
M  V30 17 1 17 18
M  V30 18 1 13 19
M  V30 19 1 19 20
M  V30 20 2 20 21
M  V30 21 1 21 22
M  V30 22 2 22 23
M  V30 23 1 23 24
M  V30 24 1 24 25
M  V30 25 1 25 26
M  V30 26 2 26 27
M  V30 27 1 27 28
M  V30 28 2 28 29
M  V30 29 1 29 30
M  V30 30 2 30 31
M  V30 31 1 31 32
M  V30 32 2 32 33
M  V30 33 1 33 34
M  V30 34 2 24 35
M  V30 35 2 10 6
M  V30 36 1 18 12
M  V30 37 1 35 20
M  V30 38 1 19 9
M  V30 39 1 34 26
M  V30 40 1 33 28
M  V30 41 1 1 36
M  V30 42 1 1 37
M  V30 43 1 1 38
M  V30 44 1 2 39
M  V30 45 1 2 40
M  V30 46 1 7 41
M  V30 47 1 8 42
M  V30 48 1 11 43
M  V30 49 1 16 44
M  V30 50 1 16 45
M  V30 51 1 17 46
M  V30 52 1 17 47
M  V30 53 1 18 48
M  V30 54 1 18 49
M  V30 55 1 19 50
M  V30 56 1 21 51
M  V30 57 1 22 52
M  V30 58 1 23 53
M  V30 59 1 29 54
M  V30 60 1 30 55
M  V30 61 1 31 56
M  V30 62 1 32 57
M  V30 63 1 34 58
M  V30 64 1 35 59
M  V30 END BOND
M  V30 END CTAB
M  END
>  <Dataset>  (704) 
ChEMBL_Kinases

>  <Ligand_Instance>  (704) 
nan

>  <PDB_ID>  (704) 
nan

>  <Standardized_SMILES>  (704) 
CCOC(=O)c1[nH]cc2c1NC1=C(C(=O)CCC1)C2c1cccc(Sc2nc3ccccc3[nH]2)c1

>  <Name>  (704) 
nan

>  <Pocket>  (704) 
nan

>  <ATP_Site>  (704) 
nan

>  <Peripheral>  (704) 
nan

>  <Num_H_Atoms_ProtBoundConf>  (704) 
nan

>  <Num_Resolved_Atoms>  (704) 
nan

>  <Num_Not_Resolved_Atoms>  (704) 
nan

$$$$
CHEMBL3393495
     RDKit          3D

  0  0  0  0  0  0  0  0  0  0999 V3000
M  V30 BEGIN CTAB
M  V30 COUNTS 58 63 0 0 0
M  V30 BEGIN ATOM
M  V30 1 C 6.703362 -2.082694 2.475086 0
M  V30 2 C 6.621387 -0.933189 1.493572 0
M  V30 3 O 5.314196 -0.375685 1.618206 0
M  V30 4 C 4.840470 0.152444 2.794680 0
M  V30 5 O 5.510620 0.188576 3.847468 0
M  V30 6 C 3.488040 0.701429 2.827144 0
M  V30 7 N 2.857872 1.261281 3.896729 0
M  V30 8 C 1.607027 1.659094 3.546009 0
M  V30 9 C 1.406848 1.350163 2.197974 0
M  V30 10 C 2.586115 0.763098 1.793431 0
M  V30 11 N 2.671869 0.344357 0.460115 0
M  V30 12 C 1.606827 0.501062 -0.469321 0
M  V30 13 C 0.505146 1.072622 -0.010947 0
M  V30 14 C -0.631320 1.262130 -0.925307 0
M  V30 15 O -1.703548 1.895156 -0.650136 0
M  V30 16 C -0.643513 0.718180 -2.303009 0
M  V30 17 C 0.350245 -0.413495 -2.380570 0
M  V30 18 C 1.699563 0.057446 -1.880319 0
M  V30 19 C 0.208319 1.584186 1.351945 0
M  V30 20 C -0.907581 0.777218 1.958851 0
M  V30 21 C -1.720706 1.320266 2.916869 0
M  V30 22 C -2.733796 0.550004 3.450826 0
M  V30 23 C -2.957872 -0.762229 3.048233 0
M  V30 24 C -2.112321 -1.265433 2.080023 0
M  V30 25 S -2.334223 -2.921912 1.518870 0
M  V30 26 C -3.434322 -3.072791 0.132175 0
M  V30 27 N -2.902516 -2.997624 -1.112376 0
M  V30 28 C -3.906137 -3.135781 -1.996220 0
M  V30 29 C -3.933486 -3.138057 -3.384843 0
M  V30 30 C -5.135516 -3.304018 -4.040586 0
M  V30 31 C -6.303294 -3.466799 -3.297340 0
M  V30 32 C -6.275655 -3.464519 -1.898738 0
M  V30 33 C -5.058033 -3.296347 -1.254753 0
M  V30 34 N -4.764918 -3.257214 0.058358 0
M  V30 35 N -1.138090 -0.492894 1.581124 0
M  V30 36 H 5.929507 -2.034195 3.263122 0
M  V30 37 H 7.710293 -2.179830 2.941935 0
M  V30 38 H 6.515969 -3.049958 1.950830 0
M  V30 39 H 6.814147 -1.271472 0.477403 0
M  V30 40 H 7.397837 -0.166039 1.737795 0
M  V30 41 H 3.325937 1.346724 4.840675 0
M  V30 42 H 0.929619 2.137273 4.266821 0
M  V30 43 H 3.545556 -0.104039 0.113677 0
M  V30 44 H -1.631185 0.276814 -2.535662 0
M  V30 45 H -0.423622 1.478160 -3.060088 0
M  V30 46 H 0.012873 -1.216513 -1.701721 0
M  V30 47 H 0.458374 -0.821237 -3.392584 0
M  V30 48 H 2.345220 -0.868397 -1.856975 0
M  V30 49 H 2.155203 0.812443 -2.535419 0
M  V30 50 H -0.068597 2.648741 1.350426 0
M  V30 51 H -1.515838 2.340297 3.203064 0
M  V30 52 H -3.344014 1.019185 4.198173 0
M  V30 53 H -3.768679 -1.310157 3.506765 0
M  V30 54 H -3.029227 -3.011946 -3.968288 0
M  V30 55 H -5.190446 -3.310442 -5.140844 0
M  V30 56 H -7.255729 -3.598438 -3.817886 0
M  V30 57 H -7.177693 -3.590439 -1.301837 0
M  V30 58 H -5.371960 -3.342416 0.904659 0
M  V30 END ATOM
M  V30 BEGIN BOND
M  V30 1 1 1 2
M  V30 2 1 2 3
M  V30 3 1 3 4
M  V30 4 2 4 5
M  V30 5 1 4 6
M  V30 6 1 6 7
M  V30 7 1 7 8
M  V30 8 2 8 9
M  V30 9 1 9 10
M  V30 10 1 10 11
M  V30 11 1 11 12
M  V30 12 2 12 13
M  V30 13 1 13 14
M  V30 14 2 14 15
M  V30 15 1 14 16
M  V30 16 1 16 17
M  V30 17 1 17 18
M  V30 18 1 13 19
M  V30 19 1 19 20
M  V30 20 2 20 21
M  V30 21 1 21 22
M  V30 22 2 22 23
M  V30 23 1 23 24
M  V30 24 1 24 25
M  V30 25 1 25 26
M  V30 26 2 26 27
M  V30 27 1 27 28
M  V30 28 2 28 29
M  V30 29 1 29 30
M  V30 30 2 30 31
M  V30 31 1 31 32
M  V30 32 2 32 33
M  V30 33 1 33 34
M  V30 34 2 24 35
M  V30 35 2 10 6
M  V30 36 1 18 12
M  V30 37 1 35 20
M  V30 38 1 19 9
M  V30 39 1 34 26
M  V30 40 1 33 28
M  V30 41 1 1 36
M  V30 42 1 1 37
M  V30 43 1 1 38
M  V30 44 1 2 39
M  V30 45 1 2 40
M  V30 46 1 7 41
M  V30 47 1 8 42
M  V30 48 1 11 43
M  V30 49 1 16 44
M  V30 50 1 16 45
M  V30 51 1 17 46
M  V30 52 1 17 47
M  V30 53 1 18 48
M  V30 54 1 18 49
M  V30 55 1 19 50
M  V30 56 1 21 51
M  V30 57 1 22 52
M  V30 58 1 23 53
M  V30 59 1 29 54
M  V30 60 1 30 55
M  V30 61 1 31 56
M  V30 62 1 32 57
M  V30 63 1 34 58
M  V30 END BOND
M  V30 END CTAB
M  END
>  <Dataset>  (705) 
ChEMBL_Kinases

>  <Ligand_Instance>  (705) 
nan

>  <PDB_ID>  (705) 
nan

>  <Standardized_SMILES>  (705) 
CCOC(=O)c1[nH]cc2c1NC1=C(C(=O)CCC1)C2c1cccc(Sc2nc3ccccc3[nH]2)n1

>  <Name>  (705) 
nan

>  <Pocket>  (705) 
nan

>  <ATP_Site>  (705) 
nan

>  <Peripheral>  (705) 
nan

>  <Num_H_Atoms_ProtBoundConf>  (705) 
nan

>  <Num_Resolved_Atoms>  (705) 
nan

>  <Num_Not_Resolved_Atoms>  (705) 
nan

$$$$
CHEMBL3670494
     RDKit          3D

  0  0  0  0  0  0  0  0  0  0999 V3000
M  V30 BEGIN CTAB
M  V30 COUNTS 39 41 0 0 0
M  V30 BEGIN ATOM
M  V30 1 C 1.974553 -5.097938 1.952349 0
M  V30 2 O 1.108599 -3.982489 1.832033 0
M  V30 3 C 1.598940 -2.881406 1.139582 0
M  V30 4 C 2.874664 -2.930472 0.617021 0
M  V30 5 C 3.386092 -1.843699 -0.078137 0
M  V30 6 C 4.727048 -1.849562 -0.647423 0
M  V30 7 N 5.530283 -3.020323 -0.475774 0
M  V30 8 O 5.218467 -0.864886 -1.289449 0
M  V30 9 C 2.599541 -0.721583 -0.235221 0
M  V30 10 N 3.084925 0.317636 -0.898361 0
M  V30 11 C 2.339842 1.423480 -1.065950 0
M  V30 12 N 1.095085 1.497545 -0.567569 0
M  V30 13 C 0.549845 0.476875 0.112958 0
M  V30 14 N -0.754997 0.593288 0.618428 0
M  V30 15 C -1.515239 1.780213 0.421734 0
M  V30 16 C -2.864366 1.845855 0.968613 0
M  V30 17 C -4.061975 1.473009 0.354507 0
M  V30 18 C -5.252467 1.605848 1.028044 0
M  V30 19 C -5.329759 2.092840 2.291747 0
M  V30 20 Cl -6.852618 2.259381 3.144660 0
M  V30 21 C -4.153568 2.477617 2.942303 0
M  V30 22 Cl -4.234651 3.109354 4.576187 0
M  V30 23 C -2.949434 2.348709 2.274961 0
M  V30 24 C 1.322003 -0.652276 0.279228 0
M  V30 25 C 0.841415 -1.743586 0.963224 0
M  V30 26 H 2.287189 -5.447104 0.946656 0
M  V30 27 H 2.894948 -4.716719 2.434366 0
M  V30 28 H 1.512556 -5.928930 2.512669 0
M  V30 29 H 3.523581 -3.788739 0.716997 0
M  V30 30 H 6.199403 -2.691239 0.249759 0
M  V30 31 H 5.369601 -3.901924 -1.008446 0
M  V30 32 H 2.756134 2.275065 -1.617275 0
M  V30 33 H -1.311575 -0.102601 1.161270 0
M  V30 34 H -1.634689 1.889584 -0.696605 0
M  V30 35 H -0.978585 2.716904 0.692783 0
M  V30 36 H -3.941338 1.095748 -0.641535 0
M  V30 37 H -6.153282 1.302153 0.506829 0
M  V30 38 H -2.074627 2.671469 2.852079 0
M  V30 39 H -0.144580 -1.727900 1.376869 0
M  V30 END ATOM
M  V30 BEGIN BOND
M  V30 1 1 1 2
M  V30 2 1 2 3
M  V30 3 2 3 4
M  V30 4 1 4 5
M  V30 5 1 5 6
M  V30 6 1 6 7
M  V30 7 2 6 8
M  V30 8 2 5 9
M  V30 9 1 9 10
M  V30 10 2 10 11
M  V30 11 1 11 12
M  V30 12 2 12 13
M  V30 13 1 13 14
M  V30 14 1 14 15
M  V30 15 1 15 16
M  V30 16 2 16 17
M  V30 17 1 17 18
M  V30 18 2 18 19
M  V30 19 1 19 20
M  V30 20 1 19 21
M  V30 21 1 21 22
M  V30 22 2 21 23
M  V30 23 1 13 24
M  V30 24 2 24 25
M  V30 25 1 25 3
M  V30 26 1 24 9
M  V30 27 1 23 16
M  V30 28 1 1 26
M  V30 29 1 1 27
M  V30 30 1 1 28
M  V30 31 1 4 29
M  V30 32 1 7 30
M  V30 33 1 7 31
M  V30 34 1 11 32
M  V30 35 1 14 33
M  V30 36 1 15 34
M  V30 37 1 15 35
M  V30 38 1 17 36
M  V30 39 1 18 37
M  V30 40 1 23 38
M  V30 41 1 25 39
M  V30 END BOND
M  V30 END CTAB
M  END
>  <Dataset>  (706) 
ChEMBL_Kinases

>  <Ligand_Instance>  (706) 
nan

>  <PDB_ID>  (706) 
nan

>  <Standardized_SMILES>  (706) 
COc1cc(C(N)=O)c2ncnc(NCc3ccc(Cl)c(Cl)c3)c2c1

>  <Name>  (706) 
nan

>  <Pocket>  (706) 
nan

>  <ATP_Site>  (706) 
nan

>  <Peripheral>  (706) 
nan

>  <Num_H_Atoms_ProtBoundConf>  (706) 
nan

>  <Num_Resolved_Atoms>  (706) 
nan

>  <Num_Not_Resolved_Atoms>  (706) 
nan

$$$$
CHEMBL3393496
     RDKit          3D

  0  0  0  0  0  0  0  0  0  0999 V3000
M  V30 BEGIN CTAB
M  V30 COUNTS 58 63 0 0 0
M  V30 BEGIN ATOM
M  V30 1 C 4.061218 -4.982193 -0.311985 0
M  V30 2 C 4.341345 -3.679861 -1.032107 0
M  V30 3 O 3.695653 -2.583030 -0.392345 0
M  V30 4 C 3.939745 -2.216664 0.908306 0
M  V30 5 O 4.786575 -2.924535 1.512297 0
M  V30 6 C 3.268176 -1.088119 1.549455 0
M  V30 7 N 3.482795 -0.701728 2.820182 0
M  V30 8 C 2.667906 0.359056 2.988518 0
M  V30 9 C 1.949195 0.642275 1.848420 0
M  V30 10 C 2.338257 -0.295924 0.915243 0
M  V30 11 N 1.780675 -0.287936 -0.387367 0
M  V30 12 C 0.810606 0.678980 -0.771232 0
M  V30 13 C 0.465773 1.560044 0.153691 0
M  V30 14 C -0.539866 2.579056 -0.211400 0
M  V30 15 O -0.864578 3.552360 0.550328 0
M  V30 16 C -1.275283 2.589792 -1.481164 0
M  V30 17 C -1.213165 1.199649 -2.078433 0
M  V30 18 C 0.212511 0.710245 -2.123848 0
M  V30 19 C 0.942862 1.694573 1.547378 0
M  V30 20 C -0.167828 1.688775 2.534855 0
M  V30 21 C -0.149647 2.437576 3.698792 0
M  V30 22 C -1.183975 2.428384 4.612820 0
M  V30 23 N -2.260398 1.638773 4.334562 0
M  V30 24 C -2.287077 0.899700 3.193594 0
M  V30 25 S -3.761527 -0.068196 2.992189 0
M  V30 26 C -3.766752 -1.023038 1.493384 0
M  V30 27 N -4.196968 -0.765806 0.242475 0
M  V30 28 C -3.968664 -1.836979 -0.541258 0
M  V30 29 C -4.196406 -2.130511 -1.869073 0
M  V30 30 C -3.871520 -3.325879 -2.475051 0
M  V30 31 C -3.281804 -4.236671 -1.624892 0
M  V30 32 C -3.007340 -4.053993 -0.289642 0
M  V30 33 C -3.365230 -2.823110 0.244827 0
M  V30 34 N -3.264920 -2.271317 1.483952 0
M  V30 35 C -1.275585 0.880858 2.255854 0
M  V30 36 H 3.181297 -4.778797 0.366307 0
M  V30 37 H 4.887223 -5.283577 0.352466 0
M  V30 38 H 3.709628 -5.783951 -0.992994 0
M  V30 39 H 5.432596 -3.513734 -1.127585 0
M  V30 40 H 3.935385 -3.765833 -2.060368 0
M  V30 41 H 4.104623 -1.079118 3.545166 0
M  V30 42 H 2.597579 0.921341 3.932784 0
M  V30 43 H 2.077346 -0.995316 -1.083105 0
M  V30 44 H -2.359172 2.815952 -1.294539 0
M  V30 45 H -0.893063 3.358836 -2.195342 0
M  V30 46 H -1.761605 0.518060 -1.405454 0
M  V30 47 H -1.609630 1.187039 -3.113785 0
M  V30 48 H 0.146536 -0.362014 -2.469217 0
M  V30 49 H 0.825356 1.218774 -2.880209 0
M  V30 50 H 1.483662 2.667822 1.702421 0
M  V30 51 H 0.737870 3.054724 3.874802 0
M  V30 52 H -1.159185 3.021596 5.525518 0
M  V30 53 H -4.670285 -1.361620 -2.494936 0
M  V30 54 H -4.052522 -3.547125 -3.511601 0
M  V30 55 H -2.987381 -5.217407 -2.015309 0
M  V30 56 H -2.546573 -4.799688 0.321863 0
M  V30 57 H -2.836169 -2.833549 2.256841 0
M  V30 58 H -1.343672 0.275124 1.362216 0
M  V30 END ATOM
M  V30 BEGIN BOND
M  V30 1 1 1 2
M  V30 2 1 2 3
M  V30 3 1 3 4
M  V30 4 2 4 5
M  V30 5 1 4 6
M  V30 6 1 6 7
M  V30 7 1 7 8
M  V30 8 2 8 9
M  V30 9 1 9 10
M  V30 10 1 10 11
M  V30 11 1 11 12
M  V30 12 2 12 13
M  V30 13 1 13 14
M  V30 14 2 14 15
M  V30 15 1 14 16
M  V30 16 1 16 17
M  V30 17 1 17 18
M  V30 18 1 13 19
M  V30 19 1 19 20
M  V30 20 2 20 21
M  V30 21 1 21 22
M  V30 22 2 22 23
M  V30 23 1 23 24
M  V30 24 1 24 25
M  V30 25 1 25 26
M  V30 26 2 26 27
M  V30 27 1 27 28
M  V30 28 2 28 29
M  V30 29 1 29 30
M  V30 30 2 30 31
M  V30 31 1 31 32
M  V30 32 2 32 33
M  V30 33 1 33 34
M  V30 34 2 24 35
M  V30 35 2 10 6
M  V30 36 1 18 12
M  V30 37 1 35 20
M  V30 38 1 19 9
M  V30 39 1 34 26
M  V30 40 1 33 28
M  V30 41 1 1 36
M  V30 42 1 1 37
M  V30 43 1 1 38
M  V30 44 1 2 39
M  V30 45 1 2 40
M  V30 46 1 7 41
M  V30 47 1 8 42
M  V30 48 1 11 43
M  V30 49 1 16 44
M  V30 50 1 16 45
M  V30 51 1 17 46
M  V30 52 1 17 47
M  V30 53 1 18 48
M  V30 54 1 18 49
M  V30 55 1 19 50
M  V30 56 1 21 51
M  V30 57 1 22 52
M  V30 58 1 29 53
M  V30 59 1 30 54
M  V30 60 1 31 55
M  V30 61 1 32 56
M  V30 62 1 34 57
M  V30 63 1 35 58
M  V30 END BOND
M  V30 END CTAB
M  END
>  <Dataset>  (707) 
ChEMBL_Kinases

>  <Ligand_Instance>  (707) 
nan

>  <PDB_ID>  (707) 
nan

>  <Standardized_SMILES>  (707) 
CCOC(=O)c1[nH]cc2c1NC1=C(C(=O)CCC1)C2c1ccnc(Sc2nc3ccccc3[nH]2)c1

>  <Name>  (707) 
nan

>  <Pocket>  (707) 
nan

>  <ATP_Site>  (707) 
nan

>  <Peripheral>  (707) 
nan

>  <Num_H_Atoms_ProtBoundConf>  (707) 
nan

>  <Num_Resolved_Atoms>  (707) 
nan

>  <Num_Not_Resolved_Atoms>  (707) 
nan

$$$$
CHEMBL3393497
     RDKit          3D

  0  0  0  0  0  0  0  0  0  0999 V3000
M  V30 BEGIN CTAB
M  V30 COUNTS 59 64 0 0 0
M  V30 BEGIN ATOM
M  V30 1 C 7.143931 -1.199054 1.082456 0
M  V30 2 C 6.667475 0.012373 0.312290 0
M  V30 3 O 5.359677 0.354809 0.733369 0
M  V30 4 C 5.027593 0.697453 2.012686 0
M  V30 5 O 5.966181 0.700206 2.849188 0
M  V30 6 C 3.655930 1.037767 2.368081 0
M  V30 7 N 3.169606 1.394086 3.570195 0
M  V30 8 C 1.832548 1.629864 3.480695 0
M  V30 9 C 1.428751 1.418720 2.165187 0
M  V30 10 C 2.589152 1.053958 1.512128 0
M  V30 11 N 2.438092 0.778396 0.124229 0
M  V30 12 C 1.196023 0.865213 -0.561121 0
M  V30 13 C 0.142219 1.224029 0.157592 0
M  V30 14 C -1.171470 1.332560 -0.491655 0
M  V30 15 O -2.248626 1.693905 0.084179 0
M  V30 16 C -1.353740 1.015692 -1.932673 0
M  V30 17 C -0.285895 0.009942 -2.352647 0
M  V30 18 C 1.075596 0.571028 -2.005657 0
M  V30 19 C 0.070662 1.554637 1.603210 0
M  V30 20 C -0.882155 0.584990 2.238231 0
M  V30 21 C -1.596527 0.952637 3.364826 0
M  V30 22 C -2.455626 0.020922 3.904971 0
M  V30 23 C -2.619431 -1.240577 3.365319 0
M  V30 24 C -1.906117 -1.631417 2.226296 0
M  V30 25 O -2.012934 -2.860856 1.633126 0
M  V30 26 C -2.888170 -3.213536 0.644650 0
M  V30 27 N -2.811896 -4.500286 0.204670 0
M  V30 28 C -3.744147 -4.662709 -0.762982 0
M  V30 29 C -4.142663 -5.722322 -1.572150 0
M  V30 30 C -5.169753 -5.572059 -2.506782 0
M  V30 31 C -5.820524 -4.344614 -2.646847 0
M  V30 32 C -5.431752 -3.290670 -1.849410 0
M  V30 33 C -4.414510 -3.450381 -0.928002 0
M  V30 34 N -3.864211 -2.589805 -0.051460 0
M  V30 35 C -1.050544 -0.683959 1.699870 0
M  V30 36 H 6.430044 -1.385877 1.907168 0
M  V30 37 H 7.160166 -2.123447 0.436634 0
M  V30 38 H 8.157981 -1.041152 1.519487 0
M  V30 39 H 6.711705 -0.258197 -0.749172 0
M  V30 40 H 7.371674 0.861691 0.443325 0
M  V30 41 H 3.792145 1.461312 4.420341 0
M  V30 42 H 1.236567 1.933264 4.346170 0
M  V30 43 H 3.305719 0.498730 -0.395650 0
M  V30 44 H -2.322629 0.501293 -2.094193 0
M  V30 45 H -1.259632 1.903490 -2.571721 0
M  V30 46 H -0.406256 -0.914432 -1.733717 0
M  V30 47 H -0.317384 -0.176974 -3.428039 0
M  V30 48 H 1.797024 -0.271236 -2.219663 0
M  V30 49 H 1.371814 1.417298 -2.659749 0
M  V30 50 H -0.331271 2.585089 1.672861 0
M  V30 51 H -1.449345 1.936785 3.761070 0
M  V30 52 H -3.032973 0.275930 4.790481 0
M  V30 53 H -3.306872 -1.962396 3.811815 0
M  V30 54 H -3.614514 -6.642329 -1.428105 0
M  V30 55 H -5.429398 -6.453264 -3.110159 0
M  V30 56 H -6.616061 -4.268687 -3.386269 0
M  V30 57 H -5.933989 -2.330800 -1.952562 0
M  V30 58 H -4.078734 -1.588965 0.140505 0
M  V30 59 H -0.459653 -0.913006 0.812632 0
M  V30 END ATOM
M  V30 BEGIN BOND
M  V30 1 1 1 2
M  V30 2 1 2 3
M  V30 3 1 3 4
M  V30 4 2 4 5
M  V30 5 1 4 6
M  V30 6 1 6 7
M  V30 7 1 7 8
M  V30 8 2 8 9
M  V30 9 1 9 10
M  V30 10 1 10 11
M  V30 11 1 11 12
M  V30 12 2 12 13
M  V30 13 1 13 14
M  V30 14 2 14 15
M  V30 15 1 14 16
M  V30 16 1 16 17
M  V30 17 1 17 18
M  V30 18 1 13 19
M  V30 19 1 19 20
M  V30 20 2 20 21
M  V30 21 1 21 22
M  V30 22 2 22 23
M  V30 23 1 23 24
M  V30 24 1 24 25
M  V30 25 1 25 26
M  V30 26 2 26 27
M  V30 27 1 27 28
M  V30 28 2 28 29
M  V30 29 1 29 30
M  V30 30 2 30 31
M  V30 31 1 31 32
M  V30 32 2 32 33
M  V30 33 1 33 34
M  V30 34 2 24 35
M  V30 35 2 10 6
M  V30 36 1 18 12
M  V30 37 1 35 20
M  V30 38 1 19 9
M  V30 39 1 34 26
M  V30 40 1 33 28
M  V30 41 1 1 36
M  V30 42 1 1 37
M  V30 43 1 1 38
M  V30 44 1 2 39
M  V30 45 1 2 40
M  V30 46 1 7 41
M  V30 47 1 8 42
M  V30 48 1 11 43
M  V30 49 1 16 44
M  V30 50 1 16 45
M  V30 51 1 17 46
M  V30 52 1 17 47
M  V30 53 1 18 48
M  V30 54 1 18 49
M  V30 55 1 19 50
M  V30 56 1 21 51
M  V30 57 1 22 52
M  V30 58 1 23 53
M  V30 59 1 29 54
M  V30 60 1 30 55
M  V30 61 1 31 56
M  V30 62 1 32 57
M  V30 63 1 34 58
M  V30 64 1 35 59
M  V30 END BOND
M  V30 END CTAB
M  END
>  <Dataset>  (708) 
ChEMBL_Kinases

>  <Ligand_Instance>  (708) 
nan

>  <PDB_ID>  (708) 
nan

>  <Standardized_SMILES>  (708) 
CCOC(=O)c1[nH]cc2c1NC1=C(C(=O)CCC1)C2c1cccc(Oc2nc3ccccc3[nH]2)c1

>  <Name>  (708) 
nan

>  <Pocket>  (708) 
nan

>  <ATP_Site>  (708) 
nan

>  <Peripheral>  (708) 
nan

>  <Num_H_Atoms_ProtBoundConf>  (708) 
nan

>  <Num_Resolved_Atoms>  (708) 
nan

>  <Num_Not_Resolved_Atoms>  (708) 
nan

$$$$
CHEMBL3670492
     RDKit          3D

  0  0  0  0  0  0  0  0  0  0999 V3000
M  V30 BEGIN CTAB
M  V30 COUNTS 65 68 0 0 0
M  V30 BEGIN ATOM
M  V30 1 C 3.028436 -0.349081 7.450287 0
M  V30 2 C 3.867535 -0.754026 6.267149 0
M  V30 3 O 3.272438 -0.420479 5.035793 0
M  V30 4 C 2.942131 0.851059 4.638778 0
M  V30 5 O 3.238487 1.703721 5.522323 0
M  V30 6 N 2.347595 0.916501 3.336613 0
M  V30 7 C 2.073782 -0.184095 2.434369 0
M  V30 8 C 0.729426 0.064911 1.821340 0
M  V30 9 N 0.477232 1.373552 1.337124 0
M  V30 10 C -0.913642 1.633598 1.525089 0
M  V30 11 C -1.408807 2.948768 1.082078 0
M  V30 12 O -1.222369 3.201239 -0.269984 0
M  V30 13 C -1.775263 2.537794 -1.315395 0
M  V30 14 C -1.261836 3.140591 -2.478340 0
M  V30 15 C -1.618015 2.713126 -3.762638 0
M  V30 16 C -2.516132 1.649583 -3.878732 0
M  V30 17 C -3.032273 1.044424 -2.727197 0
M  V30 18 C -4.004006 -0.049768 -2.941949 0
M  V30 19 N -3.297671 -1.295437 -3.122190 0
M  V30 20 C -2.517462 -1.993783 -2.162697 0
M  V30 21 N -2.367431 -1.547281 -0.907421 0
M  V30 22 C -1.666220 -2.151889 0.051187 0
M  V30 23 N -1.037746 -3.321879 -0.234530 0
M  V30 24 C -1.133805 -3.844564 -1.471550 0
M  V30 25 C -0.504758 -5.029089 -1.786408 0
M  V30 26 C 0.269654 -5.724308 -0.768597 0
M  V30 27 N 0.948537 -6.949772 -1.010196 0
M  V30 28 O 0.535449 -5.507433 0.418823 0
M  V30 29 C -0.559903 -5.620472 -3.030203 0
M  V30 30 C -1.305869 -4.937966 -3.976997 0
M  V30 31 C -1.932627 -3.753311 -3.654992 0
M  V30 32 C -1.864166 -3.180713 -2.406286 0
M  V30 33 C -2.643279 1.510055 -1.512022 0
M  V30 34 C 1.346668 2.418421 1.701495 0
M  V30 35 C 2.043606 2.297828 3.025670 0
M  V30 36 H 1.975886 -0.244607 7.126715 0
M  V30 37 H 3.071475 -1.122361 8.221648 0
M  V30 38 H 3.398721 0.606564 7.877037 0
M  V30 39 H 4.910753 -0.367204 6.339676 0
M  V30 40 H 3.943676 -1.874236 6.286774 0
M  V30 41 H 2.104883 -1.104888 3.047865 0
M  V30 42 H 2.866600 -0.189710 1.648145 0
M  V30 43 H -0.025343 -0.239670 2.574560 0
M  V30 44 H 0.638217 -0.701878 0.989098 0
M  V30 45 H -1.465606 0.792996 1.079523 0
M  V30 46 H -1.082285 1.494503 2.641798 0
M  V30 47 H -2.546670 2.897740 1.200988 0
M  V30 48 H -1.157525 3.808991 1.730033 0
M  V30 49 H -0.564755 3.964903 -2.598712 0
M  V30 50 H -1.279442 3.109582 -4.703578 0
M  V30 51 H -2.823422 1.280449 -4.869949 0
M  V30 52 H -4.567730 0.157926 -3.890817 0
M  V30 53 H -4.731504 -0.121718 -2.093013 0
M  V30 54 H -3.379339 -1.716573 -4.070828 0
M  V30 55 H -1.626563 -1.677421 1.028088 0
M  V30 56 H 0.560368 -7.932452 -1.149128 0
M  V30 57 H 1.964061 -7.217570 -1.116408 0
M  V30 58 H -0.050959 -6.552091 -3.233708 0
M  V30 59 H -1.348450 -5.412115 -4.969362 0
M  V30 60 H -2.471010 -3.344887 -4.493886 0
M  V30 61 H -3.016380 1.103485 -0.598694 0
M  V30 62 H 0.791250 3.379953 1.770751 0
M  V30 63 H 2.075262 2.568083 0.860454 0
M  V30 64 H 3.045107 2.801287 2.884634 0
M  V30 65 H 1.571966 2.855290 3.855294 0
M  V30 END ATOM
M  V30 BEGIN BOND
M  V30 1 1 1 2
M  V30 2 1 2 3
M  V30 3 1 3 4
M  V30 4 2 4 5
M  V30 5 1 4 6
M  V30 6 1 6 7
M  V30 7 1 7 8
M  V30 8 1 8 9
M  V30 9 1 9 10
M  V30 10 1 10 11
M  V30 11 1 11 12
M  V30 12 1 12 13
M  V30 13 2 13 14
M  V30 14 1 14 15
M  V30 15 2 15 16
M  V30 16 1 16 17
M  V30 17 1 17 18
M  V30 18 1 18 19
M  V30 19 1 19 20
M  V30 20 2 20 21
M  V30 21 1 21 22
M  V30 22 2 22 23
M  V30 23 1 23 24
M  V30 24 2 24 25
M  V30 25 1 25 26
M  V30 26 1 26 27
M  V30 27 2 26 28
M  V30 28 1 25 29
M  V30 29 2 29 30
M  V30 30 1 30 31
M  V30 31 2 31 32
M  V30 32 2 17 33
M  V30 33 1 9 34
M  V30 34 1 34 35
M  V30 35 1 35 6
M  V30 36 1 33 13
M  V30 37 1 32 20
M  V30 38 1 32 24
M  V30 39 1 1 36
M  V30 40 1 1 37
M  V30 41 1 1 38
M  V30 42 1 2 39
M  V30 43 1 2 40
M  V30 44 1 7 41
M  V30 45 1 7 42
M  V30 46 1 8 43
M  V30 47 1 8 44
M  V30 48 1 10 45
M  V30 49 1 10 46
M  V30 50 1 11 47
M  V30 51 1 11 48
M  V30 52 1 14 49
M  V30 53 1 15 50
M  V30 54 1 16 51
M  V30 55 1 18 52
M  V30 56 1 18 53
M  V30 57 1 19 54
M  V30 58 1 22 55
M  V30 59 1 27 56
M  V30 60 1 27 57
M  V30 61 1 29 58
M  V30 62 1 30 59
M  V30 63 1 31 60
M  V30 64 1 33 61
M  V30 65 1 34 62
M  V30 66 1 34 63
M  V30 67 1 35 64
M  V30 68 1 35 65
M  V30 END BOND
M  V30 END CTAB
M  END
>  <Dataset>  (709) 
ChEMBL_Kinases

>  <Ligand_Instance>  (709) 
nan

>  <PDB_ID>  (709) 
nan

>  <Standardized_SMILES>  (709) 
CCOC(=O)N1CCN(CCOc2cccc(CNc3ncnc4c(C(N)=O)cccc34)c2)CC1

>  <Name>  (709) 
nan

>  <Pocket>  (709) 
nan

>  <ATP_Site>  (709) 
nan

>  <Peripheral>  (709) 
nan

>  <Num_H_Atoms_ProtBoundConf>  (709) 
nan

>  <Num_Resolved_Atoms>  (709) 
nan

>  <Num_Not_Resolved_Atoms>  (709) 
nan

$$$$
CHEMBL3670495
     RDKit          3D

  0  0  0  0  0  0  0  0  0  0999 V3000
M  V30 BEGIN CTAB
M  V30 COUNTS 44 46 0 0 0
M  V30 BEGIN ATOM
M  V30 1 C 1.522099 -7.538080 -0.306213 0
M  V30 2 O 0.595886 -6.535613 0.061665 0
M  V30 3 C 0.810924 -5.210915 -0.242334 0
M  V30 4 C 1.854856 -4.606348 -0.900391 0
M  V30 5 C 1.868873 -3.242995 -1.099442 0
M  V30 6 C 0.827709 -2.454349 -0.638448 0
M  V30 7 C 0.852992 -0.969978 -0.860689 0
M  V30 8 C -0.035969 -0.675710 -2.052828 0
M  V30 9 N -0.075202 0.720479 -2.350323 0
M  V30 10 N 0.482140 -0.229226 0.329188 0
M  V30 11 C 0.521703 1.171865 0.573410 0
M  V30 12 N 0.959911 2.066314 -0.323319 0
M  V30 13 C 1.018279 3.386699 -0.108926 0
M  V30 14 N 0.617553 3.878984 1.075189 0
M  V30 15 C 0.166607 3.036874 2.019668 0
M  V30 16 C -0.239218 3.566787 3.227003 0
M  V30 17 C -0.162298 5.013923 3.428255 0
M  V30 18 N -0.564956 5.611466 4.646243 0
M  V30 19 O 0.265557 5.774621 2.521962 0
M  V30 20 C -0.717250 2.783200 4.257938 0
M  V30 21 C -0.768474 1.426973 4.014821 0
M  V30 22 C -0.362511 0.928427 2.815853 0
M  V30 23 C 0.112445 1.681742 1.784615 0
M  V30 24 C -0.236580 -3.035793 0.027542 0
M  V30 25 C -0.234204 -4.421315 0.220701 0
M  V30 26 H 1.259011 -7.985871 -1.305627 0
M  V30 27 H 2.536531 -7.122520 -0.279747 0
M  V30 28 H 1.441947 -8.342697 0.478670 0
M  V30 29 H 2.612337 -5.305963 -1.218114 0
M  V30 30 H 2.711212 -2.832017 -1.619634 0
M  V30 31 H 1.879558 -0.684310 -1.133531 0
M  V30 32 H 0.378845 -1.243882 -2.893079 0
M  V30 33 H -1.065612 -1.050253 -1.883375 0
M  V30 34 H -1.064973 1.040394 -2.470780 0
M  V30 35 H 0.479728 0.970194 -3.216533 0
M  V30 36 H 0.151094 -0.874794 1.060625 0
M  V30 37 H 1.404582 3.957040 -0.960063 0
M  V30 38 H -0.349532 5.552637 5.673898 0
M  V30 39 H -1.295686 6.355463 4.665235 0
M  V30 40 H -1.015567 3.257166 5.168935 0
M  V30 41 H -1.144298 0.807866 4.824485 0
M  V30 42 H -0.445255 -0.142508 2.733439 0
M  V30 43 H -1.029756 -2.393383 0.372902 0
M  V30 44 H -1.127152 -4.761412 0.758741 0
M  V30 END ATOM
M  V30 BEGIN BOND
M  V30 1 1 1 2
M  V30 2 1 2 3
M  V30 3 2 3 4
M  V30 4 1 4 5
M  V30 5 2 5 6
M  V30 6 1 6 7
M  V30 7 1 7 8
M  V30 8 1 8 9
M  V30 9 1 7 10
M  V30 10 1 10 11
M  V30 11 2 11 12
M  V30 12 1 12 13
M  V30 13 2 13 14
M  V30 14 1 14 15
M  V30 15 2 15 16
M  V30 16 1 16 17
M  V30 17 1 17 18
M  V30 18 2 17 19
M  V30 19 1 16 20
M  V30 20 2 20 21
M  V30 21 1 21 22
M  V30 22 2 22 23
M  V30 23 1 6 24
M  V30 24 2 24 25
M  V30 25 1 25 3
M  V30 26 1 23 11
M  V30 27 1 23 15
M  V30 28 1 1 26
M  V30 29 1 1 27
M  V30 30 1 1 28
M  V30 31 1 4 29
M  V30 32 1 5 30
M  V30 33 1 7 31
M  V30 34 1 8 32
M  V30 35 1 8 33
M  V30 36 1 9 34
M  V30 37 1 9 35
M  V30 38 1 10 36
M  V30 39 1 13 37
M  V30 40 1 18 38
M  V30 41 1 18 39
M  V30 42 1 20 40
M  V30 43 1 21 41
M  V30 44 1 22 42
M  V30 45 1 24 43
M  V30 46 1 25 44
M  V30 END BOND
M  V30 END CTAB
M  END
>  <Dataset>  (710) 
ChEMBL_Kinases

>  <Ligand_Instance>  (710) 
nan

>  <PDB_ID>  (710) 
nan

>  <Standardized_SMILES>  (710) 
COc1ccc(C(CN)Nc2ncnc3c(C(N)=O)cccc23)cc1

>  <Name>  (710) 
nan

>  <Pocket>  (710) 
nan

>  <ATP_Site>  (710) 
nan

>  <Peripheral>  (710) 
nan

>  <Num_H_Atoms_ProtBoundConf>  (710) 
nan

>  <Num_Resolved_Atoms>  (710) 
nan

>  <Num_Not_Resolved_Atoms>  (710) 
nan

$$$$
CHEMBL4103211
     RDKit          3D

  0  0  0  0  0  0  0  0  0  0999 V3000
M  V30 BEGIN CTAB
M  V30 COUNTS 50 52 0 0 0
M  V30 BEGIN ATOM
M  V30 1 C 4.215960 -7.705255 4.885354 0
M  V30 2 N 5.009529 -6.476016 4.819920 0
M  V30 3 C 4.421189 -5.322973 4.211137 0
M  V30 4 C 4.576938 -5.111095 2.858332 0
M  V30 5 C 3.989144 -3.983889 2.322843 0
M  V30 6 O 4.105160 -3.704409 0.959107 0
M  V30 7 C 3.497982 -2.559104 0.462728 0
M  V30 8 C 4.205821 -1.550481 -0.157148 0
M  V30 9 C 3.569168 -0.428608 -0.637193 0
M  V30 10 C 2.208904 -0.231198 -0.538075 0
M  V30 11 N 1.630911 0.948504 -1.056298 0
M  V30 12 C 0.301619 1.367156 -1.074586 0
M  V30 13 O -0.565287 0.619043 -0.564205 0
M  V30 14 N -0.127484 2.595286 -1.639533 0
M  V30 15 C -1.481899 3.007373 -1.650666 0
M  V30 16 C -2.630870 2.413989 -1.177568 0
M  V30 17 C -3.711001 3.239662 -1.440825 0
M  V30 18 C -5.158310 3.075258 -1.143258 0
M  V30 19 C -5.407238 1.752279 -0.428942 0
M  V30 20 C -5.935451 3.041372 -2.443907 0
M  V30 21 C -5.684730 4.185800 -0.270634 0
M  V30 22 O -3.192396 4.270579 -2.044874 0
M  V30 23 N -1.924874 4.168647 -2.179626 0
M  V30 24 C 1.551721 -1.264163 0.086792 0
M  V30 25 C 2.132301 -2.408521 0.586583 0
M  V30 26 F 1.408542 -3.379941 1.189756 0
M  V30 27 N 3.292791 -3.142221 3.133816 0
M  V30 28 C 3.141142 -3.349352 4.453434 0
M  V30 29 N 3.718847 -4.459502 4.986464 0
M  V30 30 H 4.583224 -8.393360 5.667324 0
M  V30 31 H 4.189069 -8.146947 3.875655 0
M  V30 32 H 3.168699 -7.373658 5.106272 0
M  V30 33 H 5.979536 -6.521190 5.232721 0
M  V30 34 H 5.135594 -5.796677 2.237920 0
M  V30 35 H 5.276002 -1.626896 -0.275461 0
M  V30 36 H 4.194152 0.337945 -1.121105 0
M  V30 37 H 2.284548 1.639927 -1.506236 0
M  V30 38 H 0.601304 3.205317 -2.058955 0
M  V30 39 H -2.700296 1.475067 -0.686836 0
M  V30 40 H -5.247783 0.874105 -1.063281 0
M  V30 41 H -4.628451 1.680132 0.385919 0
M  V30 42 H -6.368807 1.768560 0.119511 0
M  V30 43 H -6.365842 4.050029 -2.660323 0
M  V30 44 H -5.229235 2.845834 -3.287702 0
M  V30 45 H -6.680508 2.239935 -2.447203 0
M  V30 46 H -6.134439 5.024849 -0.844402 0
M  V30 47 H -4.871464 4.550826 0.388932 0
M  V30 48 H -6.504510 3.763837 0.348807 0
M  V30 49 H 0.491187 -1.216069 0.218179 0
M  V30 50 H 2.571411 -2.631225 5.030601 0
M  V30 END ATOM
M  V30 BEGIN BOND
M  V30 1 1 1 2
M  V30 2 1 2 3
M  V30 3 2 3 4
M  V30 4 1 4 5
M  V30 5 1 5 6
M  V30 6 1 6 7
M  V30 7 2 7 8
M  V30 8 1 8 9
M  V30 9 2 9 10
M  V30 10 1 10 11
M  V30 11 1 11 12
M  V30 12 2 12 13
M  V30 13 1 12 14
M  V30 14 1 14 15
M  V30 15 1 15 16
M  V30 16 2 16 17
M  V30 17 1 17 18
M  V30 18 1 18 19
M  V30 19 1 18 20
M  V30 20 1 18 21
M  V30 21 1 17 22
M  V30 22 1 22 23
M  V30 23 1 10 24
M  V30 24 2 24 25
M  V30 25 1 25 26
M  V30 26 2 5 27
M  V30 27 1 27 28
M  V30 28 2 28 29
M  V30 29 1 29 3
M  V30 30 1 25 7
M  V30 31 2 23 15
M  V30 32 1 1 30
M  V30 33 1 1 31
M  V30 34 1 1 32
M  V30 35 1 2 33
M  V30 36 1 4 34
M  V30 37 1 8 35
M  V30 38 1 9 36
M  V30 39 1 11 37
M  V30 40 1 14 38
M  V30 41 1 16 39
M  V30 42 1 19 40
M  V30 43 1 19 41
M  V30 44 1 19 42
M  V30 45 1 20 43
M  V30 46 1 20 44
M  V30 47 1 20 45
M  V30 48 1 21 46
M  V30 49 1 21 47
M  V30 50 1 21 48
M  V30 51 1 24 49
M  V30 52 1 28 50
M  V30 END BOND
M  V30 END CTAB
M  END
>  <Dataset>  (711) 
ChEMBL_Kinases

>  <Ligand_Instance>  (711) 
nan

>  <PDB_ID>  (711) 
nan

>  <Standardized_SMILES>  (711) 
CNc1cc(Oc2ccc(NC(=O)Nc3cc(C(C)(C)C)on3)cc2F)ncn1

>  <Name>  (711) 
nan

>  <Pocket>  (711) 
nan

>  <ATP_Site>  (711) 
nan

>  <Peripheral>  (711) 
nan

>  <Num_H_Atoms_ProtBoundConf>  (711) 
nan

>  <Num_Resolved_Atoms>  (711) 
nan

>  <Num_Not_Resolved_Atoms>  (711) 
nan

$$$$
CHEMBL3393462
     RDKit          3D

  0  0  0  0  0  0  0  0  0  0999 V3000
M  V30 BEGIN CTAB
M  V30 COUNTS 46 51 0 0 0
M  V30 BEGIN ATOM
M  V30 1 O 2.230818 -0.779601 1.330485 0
M  V30 2 C 1.416347 -1.710556 1.559399 0
M  V30 3 C 0.737336 -1.663559 2.903485 0
M  V30 4 C 0.687067 -3.083858 3.394668 0
M  V30 5 C 0.026411 -4.044172 2.464981 0
M  V30 6 C 0.450873 -3.884403 1.054591 0
M  V30 7 C 1.093983 -2.808031 0.628629 0
M  V30 8 C 1.568548 -2.533544 -0.752385 0
M  V30 9 C 1.124524 -1.217951 -1.250821 0
M  V30 10 C 1.719362 -0.291802 -2.084777 0
M  V30 11 C 0.827764 0.762002 -2.198635 0
M  V30 12 C -0.274395 0.417843 -1.419620 0
M  V30 13 S -1.730058 1.469330 -1.231903 0
M  V30 14 C -1.490602 2.571684 0.182447 0
M  V30 15 N -0.932992 3.787236 0.116138 0
M  V30 16 C -0.895900 4.361488 1.338027 0
M  V30 17 C -0.423459 5.589273 1.773413 0
M  V30 18 C -0.527028 5.902374 3.124633 0
M  V30 19 C -1.090549 4.999146 3.999818 0
M  V30 20 C -1.543254 3.793341 3.509806 0
M  V30 21 C -1.468841 3.418273 2.166086 0
M  V30 22 N -1.831657 2.329281 1.468429 0
M  V30 23 O -0.046751 -0.755888 -0.885289 0
M  V30 24 C 1.202265 -3.674372 -1.591463 0
M  V30 25 C 1.481248 -3.773629 -2.936961 0
M  V30 26 N 0.993520 -4.958698 -3.369665 0
M  V30 27 N 0.428312 -5.591312 -2.352756 0
M  V30 28 C 0.537768 -4.837141 -1.254884 0
M  V30 29 N 0.163483 -4.916135 0.115683 0
M  V30 30 H 1.297327 -1.066995 3.620133 0
M  V30 31 H -0.317451 -1.307024 2.815679 0
M  V30 32 H 0.080022 -3.086222 4.341620 0
M  V30 33 H 1.715832 -3.408135 3.696299 0
M  V30 34 H -1.067593 -4.095794 2.580879 0
M  V30 35 H 0.393992 -5.070551 2.759760 0
M  V30 36 H 2.694222 -2.518944 -0.676778 0
M  V30 37 H 2.702496 -0.456396 -2.516241 0
M  V30 38 H 1.018825 1.645609 -2.793907 0
M  V30 39 H 0.023810 6.316320 1.103808 0
M  V30 40 H -0.187476 6.833807 3.559100 0
M  V30 41 H -1.193757 5.202583 5.076433 0
M  V30 42 H -1.992681 3.067940 4.195351 0
M  V30 43 H -2.278390 1.485643 1.845067 0
M  V30 44 H 1.967959 -3.182570 -3.717321 0
M  V30 45 H -0.059181 -6.513143 -2.247117 0
M  V30 46 H -0.343801 -5.769218 0.443579 0
M  V30 END ATOM
M  V30 BEGIN BOND
M  V30 1 2 1 2
M  V30 2 1 2 3
M  V30 3 1 3 4
M  V30 4 1 4 5
M  V30 5 1 5 6
M  V30 6 2 6 7
M  V30 7 1 7 8
M  V30 8 1 8 9
M  V30 9 2 9 10
M  V30 10 1 10 11
M  V30 11 2 11 12
M  V30 12 1 12 13
M  V30 13 1 13 14
M  V30 14 2 14 15
M  V30 15 1 15 16
M  V30 16 2 16 17
M  V30 17 1 17 18
M  V30 18 2 18 19
M  V30 19 1 19 20
M  V30 20 2 20 21
M  V30 21 1 21 22
M  V30 22 1 12 23
M  V30 23 1 8 24
M  V30 24 1 24 25
M  V30 25 2 25 26
M  V30 26 1 26 27
M  V30 27 1 27 28
M  V30 28 1 28 29
M  V30 29 1 7 2
M  V30 30 1 23 9
M  V30 31 2 28 24
M  V30 32 1 29 6
M  V30 33 1 22 14
M  V30 34 1 21 16
M  V30 35 1 3 30
M  V30 36 1 3 31
M  V30 37 1 4 32
M  V30 38 1 4 33
M  V30 39 1 5 34
M  V30 40 1 5 35
M  V30 41 1 8 36
M  V30 42 1 10 37
M  V30 43 1 11 38
M  V30 44 1 17 39
M  V30 45 1 18 40
M  V30 46 1 19 41
M  V30 47 1 20 42
M  V30 48 1 22 43
M  V30 49 1 25 44
M  V30 50 1 27 45
M  V30 51 1 29 46
M  V30 END BOND
M  V30 END CTAB
M  END
>  <Dataset>  (712) 
ChEMBL_Kinases

>  <Ligand_Instance>  (712) 
nan

>  <PDB_ID>  (712) 
nan

>  <Standardized_SMILES>  (712) 
O=C1CCCC2=C1C(c1ccc(Sc3nc4ccccc4[nH]3)o1)c1cn[nH]c1N2

>  <Name>  (712) 
nan

>  <Pocket>  (712) 
nan

>  <ATP_Site>  (712) 
nan

>  <Peripheral>  (712) 
nan

>  <Num_H_Atoms_ProtBoundConf>  (712) 
nan

>  <Num_Resolved_Atoms>  (712) 
nan

>  <Num_Not_Resolved_Atoms>  (712) 
nan

$$$$
CHEMBL3670502
     RDKit          3D

  0  0  0  0  0  0  0  0  0  0999 V3000
M  V30 BEGIN CTAB
M  V30 COUNTS 53 55 0 0 0
M  V30 BEGIN ATOM
M  V30 1 C 3.447744 0.960593 5.000717 0
M  V30 2 N 3.241849 0.049430 3.863321 0
M  V30 3 C 3.703345 -1.226034 4.293898 0
M  V30 4 C 3.985117 0.619917 2.769304 0
M  V30 5 C 3.915633 -0.146788 1.506218 0
M  V30 6 O 2.645537 -0.309945 0.984231 0
M  V30 7 C 1.815332 0.651872 0.550839 0
M  V30 8 C 1.859296 2.013265 0.433053 0
M  V30 9 C 0.867391 2.831253 -0.047922 0
M  V30 10 C 1.085097 4.263332 -0.101890 0
M  V30 11 N 0.047194 5.075475 -0.600958 0
M  V30 12 O 2.180927 4.730562 0.293885 0
M  V30 13 C -0.301306 2.232772 -0.459950 0
M  V30 14 N -1.278372 3.025575 -0.932602 0
M  V30 15 C -2.449381 2.515830 -1.354539 0
M  V30 16 N -2.579825 1.185680 -1.275477 0
M  V30 17 C -1.645229 0.361030 -0.816798 0
M  V30 18 N -1.888278 -1.035566 -0.776532 0
M  V30 19 C -3.150037 -1.523603 -1.237269 0
M  V30 20 C -3.309191 -2.993077 -1.155954 0
M  V30 21 C -3.832840 -3.538908 0.001988 0
M  V30 22 C -4.001673 -4.904320 0.128448 0
M  V30 23 C -3.637002 -5.739132 -0.930122 0
M  V30 24 C -3.801345 -7.222899 -0.839112 0
M  V30 25 F -4.709317 -7.556525 0.129896 0
M  V30 26 F -4.178623 -7.785523 -2.042427 0
M  V30 27 F -2.588861 -7.784237 -0.471312 0
M  V30 28 C -3.112779 -5.209058 -2.092733 0
M  V30 29 C -2.948306 -3.825896 -2.204920 0
M  V30 30 C -0.441683 0.865018 -0.381160 0
M  V30 31 C 0.599345 0.097328 0.114989 0
M  V30 32 H 2.874847 0.650367 5.891154 0
M  V30 33 H 4.506641 1.002358 5.273133 0
M  V30 34 H 3.146946 1.993837 4.744675 0
M  V30 35 H 3.210345 -1.418504 5.287988 0
M  V30 36 H 3.357702 -2.071578 3.660282 0
M  V30 37 H 4.778200 -1.319265 4.489533 0
M  V30 38 H 5.060194 0.641424 3.142896 0
M  V30 39 H 3.737773 1.677029 2.637333 0
M  V30 40 H 4.486686 0.458152 0.728501 0
M  V30 41 H 4.498329 -1.100952 1.531471 0
M  V30 42 H 2.766728 2.462020 0.736811 0
M  V30 43 H -0.357984 5.509522 -1.451202 0
M  V30 44 H -0.565425 5.364509 0.170754 0
M  V30 45 H -3.307360 3.038521 -1.752405 0
M  V30 46 H -1.278029 -1.805957 -0.454024 0
M  V30 47 H -3.954462 -1.040014 -0.614180 0
M  V30 48 H -3.396030 -1.223839 -2.276106 0
M  V30 49 H -4.139881 -2.983597 0.862644 0
M  V30 50 H -4.409915 -5.385368 1.019666 0
M  V30 51 H -2.815269 -5.820704 -2.941953 0
M  V30 52 H -2.540132 -3.369791 -3.101163 0
M  V30 53 H 0.386403 -0.949570 0.132682 0
M  V30 END ATOM
M  V30 BEGIN BOND
M  V30 1 1 1 2
M  V30 2 1 2 3
M  V30 3 1 2 4
M  V30 4 1 4 5
M  V30 5 1 5 6
M  V30 6 1 6 7
M  V30 7 2 7 8
M  V30 8 1 8 9
M  V30 9 1 9 10
M  V30 10 1 10 11
M  V30 11 2 10 12
M  V30 12 2 9 13
M  V30 13 1 13 14
M  V30 14 2 14 15
M  V30 15 1 15 16
M  V30 16 2 16 17
M  V30 17 1 17 18
M  V30 18 1 18 19
M  V30 19 1 19 20
M  V30 20 2 20 21
M  V30 21 1 21 22
M  V30 22 2 22 23
M  V30 23 1 23 24
M  V30 24 1 24 25
M  V30 25 1 24 26
M  V30 26 1 24 27
M  V30 27 1 23 28
M  V30 28 2 28 29
M  V30 29 1 17 30
M  V30 30 2 30 31
M  V30 31 1 31 7
M  V30 32 1 30 13
M  V30 33 1 29 20
M  V30 34 1 1 32
M  V30 35 1 1 33
M  V30 36 1 1 34
M  V30 37 1 3 35
M  V30 38 1 3 36
M  V30 39 1 3 37
M  V30 40 1 4 38
M  V30 41 1 4 39
M  V30 42 1 5 40
M  V30 43 1 5 41
M  V30 44 1 8 42
M  V30 45 1 11 43
M  V30 46 1 11 44
M  V30 47 1 15 45
M  V30 48 1 18 46
M  V30 49 1 19 47
M  V30 50 1 19 48
M  V30 51 1 21 49
M  V30 52 1 22 50
M  V30 53 1 28 51
M  V30 54 1 29 52
M  V30 55 1 31 53
M  V30 END BOND
M  V30 END CTAB
M  END
>  <Dataset>  (713) 
ChEMBL_Kinases

>  <Ligand_Instance>  (713) 
nan

>  <PDB_ID>  (713) 
nan

>  <Standardized_SMILES>  (713) 
CN(C)CCOc1cc(C(N)=O)c2ncnc(NCc3ccc(C(F)(F)F)cc3)c2c1

>  <Name>  (713) 
nan

>  <Pocket>  (713) 
nan

>  <ATP_Site>  (713) 
nan

>  <Peripheral>  (713) 
nan

>  <Num_H_Atoms_ProtBoundConf>  (713) 
nan

>  <Num_Resolved_Atoms>  (713) 
nan

>  <Num_Not_Resolved_Atoms>  (713) 
nan

$$$$
CHEMBL4103030
     RDKit          3D

  0  0  0  0  0  0  0  0  0  0999 V3000
M  V30 BEGIN CTAB
M  V30 COUNTS 53 56 0 0 0
M  V30 BEGIN ATOM
M  V30 1 C 2.401625 -2.017767 -1.277727 0
M  V30 2 C 3.436300 -2.564662 -0.325862 0
M  V30 3 S 3.266462 -1.913883 1.306716 0
M  V30 4 O 1.965706 -2.359151 1.912455 0
M  V30 5 O 4.359670 -2.502885 2.152360 0
M  V30 6 C 3.429912 -0.179662 1.350006 0
M  V30 7 C 4.693930 0.360455 1.537403 0
M  V30 8 C 4.801867 1.734390 1.568629 0
M  V30 9 C 3.696568 2.566847 1.419723 0
M  V30 10 O 3.833088 3.947117 1.455119 0
M  V30 11 C 5.125909 4.482284 1.646594 0
M  V30 12 C 2.434316 2.045858 1.232800 0
M  V30 13 N 1.318178 2.909332 1.082709 0
M  V30 14 C -0.028428 2.501696 0.885015 0
M  V30 15 N -1.090245 3.345379 0.742502 0
M  V30 16 C -2.202091 2.618285 0.574799 0
M  V30 17 C -1.824903 1.297254 0.613701 0
M  V30 18 C -2.687527 0.126980 0.476617 0
M  V30 19 C -4.047164 0.263861 0.283358 0
M  V30 20 C -4.798239 -0.901953 0.162240 0
M  V30 21 C -4.230314 -2.155332 0.229128 0
M  V30 22 C -4.943038 -3.330814 0.113349 0
M  V30 23 C -4.306542 -4.553616 0.190378 0
M  V30 24 O -4.961151 -5.764112 0.082516 0
M  V30 25 C -6.360878 -5.812456 -0.118653 0
M  V30 26 C -2.932382 -4.661317 0.386061 0
M  V30 27 C -2.191666 -3.494276 0.505754 0
M  V30 28 C -2.865830 -2.293166 0.423072 0
M  V30 29 C -2.128896 -1.133885 0.542089 0
M  V30 30 O -0.545404 1.308465 0.797224 0
M  V30 31 C 2.366125 0.672603 1.207279 0
M  V30 32 H 2.846049 -2.048916 -2.300184 0
M  V30 33 H 2.138600 -0.969812 -1.070009 0
M  V30 34 H 1.495609 -2.657085 -1.333014 0
M  V30 35 H 4.433860 -2.352825 -0.720116 0
M  V30 36 H 3.218415 -3.661645 -0.245418 0
M  V30 37 H 5.556730 -0.273707 1.653797 0
M  V30 38 H 5.795209 2.138023 1.715657 0
M  V30 39 H 5.512450 4.165503 2.645404 0
M  V30 40 H 5.130205 5.586184 1.537383 0
M  V30 41 H 5.798967 4.007290 0.893243 0
M  V30 42 H 1.504529 3.947713 1.121320 0
M  V30 43 H -3.200439 3.010469 0.436195 0
M  V30 44 H -4.509555 1.240684 0.228407 0
M  V30 45 H -5.880533 -0.844830 0.007810 0
M  V30 46 H -5.995787 -3.291763 -0.037064 0
M  V30 47 H -6.867387 -5.493176 0.834810 0
M  V30 48 H -6.657675 -6.836608 -0.403765 0
M  V30 49 H -6.607517 -5.104129 -0.932566 0
M  V30 50 H -2.384642 -5.583004 0.453860 0
M  V30 51 H -1.119188 -3.521082 0.659141 0
M  V30 52 H -1.041238 -1.192854 0.697282 0
M  V30 53 H 1.434447 0.179720 1.068075 0
M  V30 END ATOM
M  V30 BEGIN BOND
M  V30 1 1 1 2
M  V30 2 1 2 3
M  V30 3 2 3 4
M  V30 4 2 3 5
M  V30 5 1 3 6
M  V30 6 2 6 7
M  V30 7 1 7 8
M  V30 8 2 8 9
M  V30 9 1 9 10
M  V30 10 1 10 11
M  V30 11 1 9 12
M  V30 12 1 12 13
M  V30 13 1 13 14
M  V30 14 2 14 15
M  V30 15 1 15 16
M  V30 16 2 16 17
M  V30 17 1 17 18
M  V30 18 2 18 19
M  V30 19 1 19 20
M  V30 20 2 20 21
M  V30 21 1 21 22
M  V30 22 2 22 23
M  V30 23 1 23 24
M  V30 24 1 24 25
M  V30 25 1 23 26
M  V30 26 2 26 27
M  V30 27 1 27 28
M  V30 28 2 28 29
M  V30 29 1 17 30
M  V30 30 2 12 31
M  V30 31 1 31 6
M  V30 32 1 30 14
M  V30 33 1 29 18
M  V30 34 1 28 21
M  V30 35 1 1 32
M  V30 36 1 1 33
M  V30 37 1 1 34
M  V30 38 1 2 35
M  V30 39 1 2 36
M  V30 40 1 7 37
M  V30 41 1 8 38
M  V30 42 1 11 39
M  V30 43 1 11 40
M  V30 44 1 11 41
M  V30 45 1 13 42
M  V30 46 1 16 43
M  V30 47 1 19 44
M  V30 48 1 20 45
M  V30 49 1 22 46
M  V30 50 1 25 47
M  V30 51 1 25 48
M  V30 52 1 25 49
M  V30 53 1 26 50
M  V30 54 1 27 51
M  V30 55 1 29 52
M  V30 56 1 31 53
M  V30 END BOND
M  V30 END CTAB
M  END
>  <Dataset>  (714) 
ChEMBL_Kinases

>  <Ligand_Instance>  (714) 
nan

>  <PDB_ID>  (714) 
nan

>  <Standardized_SMILES>  (714) 
CCS(=O)(=O)c1ccc(OC)c(Nc2ncc(-c3ccc4cc(OC)ccc4c3)o2)c1

>  <Name>  (714) 
nan

>  <Pocket>  (714) 
nan

>  <ATP_Site>  (714) 
nan

>  <Peripheral>  (714) 
nan

>  <Num_H_Atoms_ProtBoundConf>  (714) 
nan

>  <Num_Resolved_Atoms>  (714) 
nan

>  <Num_Not_Resolved_Atoms>  (714) 
nan

$$$$
CHEMBL3393464
     RDKit          3D

  0  0  0  0  0  0  0  0  0  0999 V3000
M  V30 BEGIN CTAB
M  V30 COUNTS 55 60 0 0 0
M  V30 BEGIN ATOM
M  V30 1 C 5.569808 -2.057791 4.747591 0
M  V30 2 C 5.452262 -0.556233 4.639605 0
M  V30 3 O 4.635159 -0.171016 3.537569 0
M  V30 4 C 4.954211 -0.519163 2.232483 0
M  V30 5 O 5.981876 -1.195262 1.936611 0
M  V30 6 C 4.082246 -0.097580 1.148762 0
M  V30 7 N 4.219387 -0.333262 -0.167868 0
M  V30 8 N 3.203705 0.224640 -0.842476 0
M  V30 9 C 2.372589 0.841786 0.015881 0
M  V30 10 C 2.922105 0.640262 1.261392 0
M  V30 11 N 2.203293 1.213060 2.345827 0
M  V30 12 C 0.997865 1.945796 2.165029 0
M  V30 13 C 0.545197 2.088965 0.938913 0
M  V30 14 C -0.691877 2.840150 0.746608 0
M  V30 15 O -1.377715 2.779065 -0.304009 0
M  V30 16 C -1.200110 3.741446 1.839236 0
M  V30 17 C -1.033492 2.982692 3.127688 0
M  V30 18 C 0.352298 2.485979 3.365516 0
M  V30 19 C 1.130611 1.579028 -0.325445 0
M  V30 20 C 0.137063 0.591109 -0.885610 0
M  V30 21 C 0.130950 0.341225 -2.240904 0
M  V30 22 C -0.877578 -0.585190 -2.385719 0
M  V30 23 C -1.441658 -0.867967 -1.161499 0
M  V30 24 S -2.677565 -1.816865 -0.305224 0
M  V30 25 C -3.594881 -2.839453 -1.432446 0
M  V30 26 N -4.522170 -3.542688 -0.734939 0
M  V30 27 C -5.219685 -4.320079 -1.589880 0
M  V30 28 C -6.262046 -5.244855 -1.551537 0
M  V30 29 C -6.736483 -5.870489 -2.671413 0
M  V30 30 C -6.195046 -5.608354 -3.903643 0
M  V30 31 C -5.148327 -4.694005 -4.021378 0
M  V30 32 C -4.727780 -4.108191 -2.855098 0
M  V30 33 N -3.747086 -3.206191 -2.713835 0
M  V30 34 O -0.784900 -0.121063 -0.271033 0
M  V30 35 H 6.351337 -2.237560 5.524946 0
M  V30 36 H 4.644360 -2.509555 5.164312 0
M  V30 37 H 5.918452 -2.552693 3.839920 0
M  V30 38 H 4.926942 -0.206725 5.552970 0
M  V30 39 H 6.439330 -0.074446 4.607985 0
M  V30 40 H 5.002905 -0.872799 -0.605331 0
M  V30 41 H 2.598825 1.075228 3.305602 0
M  V30 42 H -2.285680 3.934564 1.709409 0
M  V30 43 H -0.595162 4.671687 1.808400 0
M  V30 44 H -1.766823 2.142513 3.091074 0
M  V30 45 H -1.331451 3.656469 3.971492 0
M  V30 46 H 0.995199 3.249525 3.869906 0
M  V30 47 H 0.311414 1.634596 4.105791 0
M  V30 48 H 1.332317 2.384766 -1.046708 0
M  V30 49 H 0.672852 0.667537 -3.113911 0
M  V30 50 H -1.345461 -1.145626 -3.177029 0
M  V30 51 H -6.684017 -5.442251 -0.553050 0
M  V30 52 H -7.548607 -6.574277 -2.548566 0
M  V30 53 H -6.578204 -6.108058 -4.777520 0
M  V30 54 H -4.692853 -4.458001 -4.972040 0
M  V30 55 H -3.072819 -2.715333 -3.335156 0
M  V30 END ATOM
M  V30 BEGIN BOND
M  V30 1 1 1 2
M  V30 2 1 2 3
M  V30 3 1 3 4
M  V30 4 2 4 5
M  V30 5 1 4 6
M  V30 6 1 6 7
M  V30 7 1 7 8
M  V30 8 2 8 9
M  V30 9 1 9 10
M  V30 10 1 10 11
M  V30 11 1 11 12
M  V30 12 2 12 13
M  V30 13 1 13 14
M  V30 14 2 14 15
M  V30 15 1 14 16
M  V30 16 1 16 17
M  V30 17 1 17 18
M  V30 18 1 13 19
M  V30 19 1 19 20
M  V30 20 2 20 21
M  V30 21 1 21 22
M  V30 22 2 22 23
M  V30 23 1 23 24
M  V30 24 1 24 25
M  V30 25 2 25 26
M  V30 26 1 26 27
M  V30 27 2 27 28
M  V30 28 1 28 29
M  V30 29 2 29 30
M  V30 30 1 30 31
M  V30 31 2 31 32
M  V30 32 1 32 33
M  V30 33 1 23 34
M  V30 34 2 10 6
M  V30 35 1 18 12
M  V30 36 1 34 20
M  V30 37 1 19 9
M  V30 38 1 33 25
M  V30 39 1 32 27
M  V30 40 1 1 35
M  V30 41 1 1 36
M  V30 42 1 1 37
M  V30 43 1 2 38
M  V30 44 1 2 39
M  V30 45 1 7 40
M  V30 46 1 11 41
M  V30 47 1 16 42
M  V30 48 1 16 43
M  V30 49 1 17 44
M  V30 50 1 17 45
M  V30 51 1 18 46
M  V30 52 1 18 47
M  V30 53 1 19 48
M  V30 54 1 21 49
M  V30 55 1 22 50
M  V30 56 1 28 51
M  V30 57 1 29 52
M  V30 58 1 30 53
M  V30 59 1 31 54
M  V30 60 1 33 55
M  V30 END BOND
M  V30 END CTAB
M  END
>  <Dataset>  (715) 
ChEMBL_Kinases

>  <Ligand_Instance>  (715) 
nan

>  <PDB_ID>  (715) 
nan

>  <Standardized_SMILES>  (715) 
CCOC(=O)c1[nH]nc2c1NC1=C(C(=O)CCC1)C2c1ccc(Sc2nc3ccccc3[nH]2)o1

>  <Name>  (715) 
nan

>  <Pocket>  (715) 
nan

>  <ATP_Site>  (715) 
nan

>  <Peripheral>  (715) 
nan

>  <Num_H_Atoms_ProtBoundConf>  (715) 
nan

>  <Num_Resolved_Atoms>  (715) 
nan

>  <Num_Not_Resolved_Atoms>  (715) 
nan

$$$$
CHEMBL3670500
     RDKit          3D

  0  0  0  0  0  0  0  0  0  0999 V3000
M  V30 BEGIN CTAB
M  V30 COUNTS 43 45 0 0 0
M  V30 BEGIN ATOM
M  V30 1 N -2.129314 -5.332241 0.728824 0
M  V30 2 C -0.722117 -5.436393 0.639443 0
M  V30 3 O -0.151079 -6.528333 0.865064 0
M  V30 4 C 0.007066 -4.230947 0.279253 0
M  V30 5 C 1.378930 -4.317518 0.190896 0
M  V30 6 C 2.090127 -3.187614 -0.148020 0
M  V30 7 C 1.409578 -2.016384 -0.385721 0
M  V30 8 C 0.045265 -1.862746 -0.314925 0
M  V30 9 C -0.663641 -0.692671 -0.550704 0
M  V30 10 N 0.200392 0.358944 -0.883400 0
M  V30 11 C 1.058557 1.403434 -1.213842 0
M  V30 12 C 1.044740 2.649428 -0.364836 0
M  V30 13 N -0.197798 3.336820 -0.306542 0
M  V30 14 C 1.561435 2.256692 0.974747 0
M  V30 15 C 2.853033 2.407722 1.463425 0
M  V30 16 C 3.106052 1.971280 2.730241 0
M  V30 17 C 2.151247 1.394536 3.537903 0
M  V30 18 Cl 2.523197 0.852892 5.153203 0
M  V30 19 C 0.860673 1.243320 3.050279 0
M  V30 20 C -0.192018 0.615521 3.920805 0
M  V30 21 F -1.395423 0.567450 3.225190 0
M  V30 22 F -0.295116 1.244543 5.133404 0
M  V30 23 F 0.179693 -0.696894 4.179951 0
M  V30 24 C 0.574934 1.682693 1.753735 0
M  V30 25 N -1.992098 -0.784829 -0.421420 0
M  V30 26 C -2.630621 -1.909512 -0.089382 0
M  V30 27 N -1.927752 -3.014075 0.130473 0
M  V30 28 C -0.599404 -3.030846 0.028394 0
M  V30 29 H -2.444217 -4.827857 1.575673 0
M  V30 30 H -3.154853 -5.273562 0.764415 0
M  V30 31 H 1.819246 -5.279430 0.395173 0
M  V30 32 H 3.162401 -3.236873 -0.220594 0
M  V30 33 H 2.020273 -1.172884 -0.646975 0
M  V30 34 H -0.585225 1.083038 -0.995055 0
M  V30 35 H 0.960956 1.720380 -2.292026 0
M  V30 36 H 2.162397 1.094409 -1.184281 0
M  V30 37 H 1.804835 3.329280 -0.807758 0
M  V30 38 H -0.933502 3.069924 -0.958399 0
M  V30 39 H -0.473263 3.465031 0.685349 0
M  V30 40 H 3.526954 2.866578 0.762585 0
M  V30 41 H 4.121826 2.110347 3.065023 0
M  V30 42 H -0.456606 1.519270 1.473071 0
M  V30 43 H -3.704793 -1.791302 -0.033848 0
M  V30 END ATOM
M  V30 BEGIN BOND
M  V30 1 1 1 2
M  V30 2 2 2 3
M  V30 3 1 2 4
M  V30 4 2 4 5
M  V30 5 1 5 6
M  V30 6 2 6 7
M  V30 7 1 7 8
M  V30 8 2 8 9
M  V30 9 1 9 10
M  V30 10 1 10 11
M  V30 11 1 11 12
M  V30 12 1 12 13
M  V30 13 1 12 14
M  V30 14 2 14 15
M  V30 15 1 15 16
M  V30 16 2 16 17
M  V30 17 1 17 18
M  V30 18 1 17 19
M  V30 19 1 19 20
M  V30 20 1 20 21
M  V30 21 1 20 22
M  V30 22 1 20 23
M  V30 23 2 19 24
M  V30 24 1 9 25
M  V30 25 2 25 26
M  V30 26 1 26 27
M  V30 27 2 27 28
M  V30 28 1 28 4
M  V30 29 1 28 8
M  V30 30 1 24 14
M  V30 31 1 1 29
M  V30 32 1 1 30
M  V30 33 1 5 31
M  V30 34 1 6 32
M  V30 35 1 7 33
M  V30 36 1 10 34
M  V30 37 1 11 35
M  V30 38 1 11 36
M  V30 39 1 12 37
M  V30 40 1 13 38
M  V30 41 1 13 39
M  V30 42 1 15 40
M  V30 43 1 16 41
M  V30 44 1 24 42
M  V30 45 1 26 43
M  V30 END BOND
M  V30 END CTAB
M  END
>  <Dataset>  (716) 
ChEMBL_Kinases

>  <Ligand_Instance>  (716) 
nan

>  <PDB_ID>  (716) 
nan

>  <Standardized_SMILES>  (716) 
NC(=O)c1cccc2c(NCC(N)c3ccc(Cl)c(C(F)(F)F)c3)ncnc12

>  <Name>  (716) 
nan

>  <Pocket>  (716) 
nan

>  <ATP_Site>  (716) 
nan

>  <Peripheral>  (716) 
nan

>  <Num_H_Atoms_ProtBoundConf>  (716) 
nan

>  <Num_Resolved_Atoms>  (716) 
nan

>  <Num_Not_Resolved_Atoms>  (716) 
nan

$$$$
CHEMBL3393465
     RDKit          3D

  0  0  0  0  0  0  0  0  0  0999 V3000
M  V30 BEGIN CTAB
M  V30 COUNTS 50 55 0 0 0
M  V30 BEGIN ATOM
M  V30 1 N 1.755105 -2.610562 5.670479 0
M  V30 2 C 2.119321 -1.753173 4.595475 0
M  V30 3 O 3.290273 -1.814061 4.147719 0
M  V30 4 C 1.186314 -0.809310 3.996203 0
M  V30 5 N -0.089070 -0.556793 4.285121 0
M  V30 6 N -0.543765 0.386162 3.477337 0
M  V30 7 C 0.419424 0.785001 2.629605 0
M  V30 8 C 1.526757 0.027202 2.953846 0
M  V30 9 N 2.714324 0.244009 2.202192 0
M  V30 10 C 2.773254 1.202280 1.153066 0
M  V30 11 C 1.695361 1.917100 0.861823 0
M  V30 12 C 1.773632 2.899755 -0.221816 0
M  V30 13 O 0.761074 3.229060 -0.919949 0
M  V30 14 C 3.075045 3.576079 -0.565335 0
M  V30 15 C 4.146667 2.999620 0.322773 0
M  V30 16 C 3.974468 1.486065 0.323889 0
M  V30 17 C 0.384820 1.809941 1.550285 0
M  V30 18 C -0.741033 1.565708 0.606842 0
M  V30 19 C -2.051480 2.001617 0.598350 0
M  V30 20 C -2.593420 1.435101 -0.535050 0
M  V30 21 C -1.595882 0.683032 -1.164413 0
M  V30 22 S -1.851448 -0.237911 -2.688075 0
M  V30 23 C -2.392551 -1.900917 -2.340623 0
M  V30 24 N -3.631191 -2.416152 -2.193044 0
M  V30 25 C -3.558335 -3.731024 -1.936992 0
M  V30 26 C -4.531101 -4.707780 -1.708495 0
M  V30 27 C -4.166029 -6.031320 -1.461629 0
M  V30 28 C -2.808213 -6.362746 -1.447032 0
M  V30 29 C -1.861381 -5.394505 -1.672887 0
M  V30 30 C -2.215219 -4.084120 -1.917580 0
M  V30 31 N -1.536527 -2.941381 -2.167775 0
M  V30 32 O -0.509911 0.791423 -0.446825 0
M  V30 33 H 1.887434 -2.677291 6.703023 0
M  V30 34 H 1.218157 -3.291959 5.063193 0
M  V30 35 H -0.612374 -1.052618 5.043777 0
M  V30 36 H 3.585518 -0.294811 2.396014 0
M  V30 37 H 3.293360 3.518038 -1.639022 0
M  V30 38 H 2.930490 4.650041 -0.254355 0
M  V30 39 H 5.143612 3.309587 -0.019001 0
M  V30 40 H 3.976696 3.387692 1.350544 0
M  V30 41 H 4.898725 1.082745 0.773497 0
M  V30 42 H 3.859595 1.156991 -0.728561 0
M  V30 43 H 0.181960 2.779721 2.093925 0
M  V30 44 H -2.450684 2.643904 1.366630 0
M  V30 45 H -3.643089 1.599053 -0.822091 0
M  V30 46 H -5.578121 -4.437530 -1.722638 0
M  V30 47 H -4.945344 -6.772864 -1.286634 0
M  V30 48 H -2.505884 -7.394590 -1.255238 0
M  V30 49 H -0.782007 -5.604039 -1.671900 0
M  V30 50 H -0.475804 -2.930910 -2.209383 0
M  V30 END ATOM
M  V30 BEGIN BOND
M  V30 1 1 1 2
M  V30 2 2 2 3
M  V30 3 1 2 4
M  V30 4 1 4 5
M  V30 5 1 5 6
M  V30 6 2 6 7
M  V30 7 1 7 8
M  V30 8 1 8 9
M  V30 9 1 9 10
M  V30 10 2 10 11
M  V30 11 1 11 12
M  V30 12 2 12 13
M  V30 13 1 12 14
M  V30 14 1 14 15
M  V30 15 1 15 16
M  V30 16 1 11 17
M  V30 17 1 17 18
M  V30 18 2 18 19
M  V30 19 1 19 20
M  V30 20 2 20 21
M  V30 21 1 21 22
M  V30 22 1 22 23
M  V30 23 2 23 24
M  V30 24 1 24 25
M  V30 25 2 25 26
M  V30 26 1 26 27
M  V30 27 2 27 28
M  V30 28 1 28 29
M  V30 29 2 29 30
M  V30 30 1 30 31
M  V30 31 1 21 32
M  V30 32 2 8 4
M  V30 33 1 16 10
M  V30 34 1 32 18
M  V30 35 1 17 7
M  V30 36 1 31 23
M  V30 37 1 30 25
M  V30 38 1 1 33
M  V30 39 1 1 34
M  V30 40 1 5 35
M  V30 41 1 9 36
M  V30 42 1 14 37
M  V30 43 1 14 38
M  V30 44 1 15 39
M  V30 45 1 15 40
M  V30 46 1 16 41
M  V30 47 1 16 42
M  V30 48 1 17 43
M  V30 49 1 19 44
M  V30 50 1 20 45
M  V30 51 1 26 46
M  V30 52 1 27 47
M  V30 53 1 28 48
M  V30 54 1 29 49
M  V30 55 1 31 50
M  V30 END BOND
M  V30 END CTAB
M  END
>  <Dataset>  (717) 
ChEMBL_Kinases

>  <Ligand_Instance>  (717) 
nan

>  <PDB_ID>  (717) 
nan

>  <Standardized_SMILES>  (717) 
NC(=O)c1[nH]nc2c1NC1=C(C(=O)CCC1)C2c1ccc(Sc2nc3ccccc3[nH]2)o1

>  <Name>  (717) 
nan

>  <Pocket>  (717) 
nan

>  <ATP_Site>  (717) 
nan

>  <Peripheral>  (717) 
nan

>  <Num_H_Atoms_ProtBoundConf>  (717) 
nan

>  <Num_Resolved_Atoms>  (717) 
nan

>  <Num_Not_Resolved_Atoms>  (717) 
nan

$$$$
CHEMBL3393467
     RDKit          3D

  0  0  0  0  0  0  0  0  0  0999 V3000
M  V30 BEGIN CTAB
M  V30 COUNTS 52 57 0 0 0
M  V30 BEGIN ATOM
M  V30 1 C 3.777302 -2.626365 4.632435 0
M  V30 2 O 2.664500 -1.872676 4.176508 0
M  V30 3 C 1.445520 -1.954642 4.825776 0
M  V30 4 O 1.494386 -2.726040 5.780318 0
M  V30 5 C 0.267143 -1.208342 4.408522 0
M  V30 6 C -0.936421 -1.388394 5.175314 0
M  V30 7 S -2.111165 -0.285484 4.305316 0
M  V30 8 C -1.008044 0.268408 3.110133 0
M  V30 9 C 0.166393 -0.344575 3.360206 0
M  V30 10 N 1.200704 0.006874 2.450714 0
M  V30 11 C 0.889645 0.931741 1.417903 0
M  V30 12 C -0.266479 1.526876 1.182115 0
M  V30 13 C -0.441169 2.460634 0.077060 0
M  V30 14 O -1.546849 2.562944 -0.490922 0
M  V30 15 C 0.726905 3.301307 -0.372649 0
M  V30 16 C 2.009378 2.802140 0.250765 0
M  V30 17 C 1.986761 1.302587 0.453907 0
M  V30 18 C -1.382028 1.218664 2.072300 0
M  V30 19 C -2.588568 0.729449 1.312373 0
M  V30 20 C -3.948093 0.901503 1.496590 0
M  V30 21 C -4.570705 0.203859 0.463917 0
M  V30 22 C -3.554211 -0.350399 -0.286130 0
M  V30 23 S -3.919221 -1.346570 -1.736287 0
M  V30 24 C -2.394569 -1.930652 -2.503203 0
M  V30 25 N -1.561244 -1.474999 -3.439966 0
M  V30 26 C -0.562007 -2.387237 -3.588631 0
M  V30 27 C 0.542311 -2.407063 -4.413414 0
M  V30 28 C 1.435184 -3.473460 -4.378478 0
M  V30 29 C 1.225710 -4.544487 -3.503934 0
M  V30 30 C 0.108793 -4.483686 -2.696928 0
M  V30 31 C -0.795077 -3.434084 -2.712294 0
M  V30 32 N -1.932022 -3.132835 -2.050880 0
M  V30 33 O -2.403662 -0.018057 0.245637 0
M  V30 34 H 4.249865 -2.075315 5.469078 0
M  V30 35 H 4.536481 -2.753679 3.819491 0
M  V30 36 H 3.496697 -3.643527 4.950597 0
M  V30 37 H -1.084254 -2.027803 6.050941 0
M  V30 38 H 2.174075 -0.366566 2.487494 0
M  V30 39 H 0.526298 4.301284 0.075855 0
M  V30 40 H 0.739656 3.380896 -1.457490 0
M  V30 41 H 2.209169 3.298586 1.226081 0
M  V30 42 H 2.860172 3.042500 -0.411389 0
M  V30 43 H 1.809282 0.840762 -0.531677 0
M  V30 44 H 2.967999 1.029157 0.883207 0
M  V30 45 H -1.723508 2.161320 2.571856 0
M  V30 46 H -4.321844 1.497752 2.337029 0
M  V30 47 H -5.651507 0.185641 0.387495 0
M  V30 48 H 0.699842 -1.564188 -5.096162 0
M  V30 49 H 2.305010 -3.484306 -5.031299 0
M  V30 50 H 1.892266 -5.395036 -3.441488 0
M  V30 51 H -0.066218 -5.321161 -2.004577 0
M  V30 52 H -2.274243 -3.829799 -1.325447 0
M  V30 END ATOM
M  V30 BEGIN BOND
M  V30 1 1 1 2
M  V30 2 1 2 3
M  V30 3 2 3 4
M  V30 4 1 3 5
M  V30 5 2 5 6
M  V30 6 1 6 7
M  V30 7 1 7 8
M  V30 8 2 8 9
M  V30 9 1 9 10
M  V30 10 1 10 11
M  V30 11 2 11 12
M  V30 12 1 12 13
M  V30 13 2 13 14
M  V30 14 1 13 15
M  V30 15 1 15 16
M  V30 16 1 16 17
M  V30 17 1 12 18
M  V30 18 1 18 19
M  V30 19 2 19 20
M  V30 20 1 20 21
M  V30 21 2 21 22
M  V30 22 1 22 23
M  V30 23 1 23 24
M  V30 24 2 24 25
M  V30 25 1 25 26
M  V30 26 2 26 27
M  V30 27 1 27 28
M  V30 28 2 28 29
M  V30 29 1 29 30
M  V30 30 2 30 31
M  V30 31 1 31 32
M  V30 32 1 22 33
M  V30 33 1 9 5
M  V30 34 1 17 11
M  V30 35 1 33 19
M  V30 36 1 18 8
M  V30 37 1 32 24
M  V30 38 1 31 26
M  V30 39 1 1 34
M  V30 40 1 1 35
M  V30 41 1 1 36
M  V30 42 1 6 37
M  V30 43 1 10 38
M  V30 44 1 15 39
M  V30 45 1 15 40
M  V30 46 1 16 41
M  V30 47 1 16 42
M  V30 48 1 17 43
M  V30 49 1 17 44
M  V30 50 1 18 45
M  V30 51 1 20 46
M  V30 52 1 21 47
M  V30 53 1 27 48
M  V30 54 1 28 49
M  V30 55 1 29 50
M  V30 56 1 30 51
M  V30 57 1 32 52
M  V30 END BOND
M  V30 END CTAB
M  END
>  <Dataset>  (718) 
ChEMBL_Kinases

>  <Ligand_Instance>  (718) 
nan

>  <PDB_ID>  (718) 
nan

>  <Standardized_SMILES>  (718) 
COC(=O)c1csc2c1NC1=C(C(=O)CCC1)C2c1ccc(Sc2nc3ccccc3[nH]2)o1

>  <Name>  (718) 
nan

>  <Pocket>  (718) 
nan

>  <ATP_Site>  (718) 
nan

>  <Peripheral>  (718) 
nan

>  <Num_H_Atoms_ProtBoundConf>  (718) 
nan

>  <Num_Resolved_Atoms>  (718) 
nan

>  <Num_Not_Resolved_Atoms>  (718) 
nan

$$$$
CHEMBL3393468
     RDKit          3D

  0  0  0  0  0  0  0  0  0  0999 V3000
M  V30 BEGIN CTAB
M  V30 COUNTS 47 52 0 0 0
M  V30 BEGIN ATOM
M  V30 1 O 1.751361 -1.575684 2.118630 0
M  V30 2 C 0.558605 -1.931432 2.353474 0
M  V30 3 C -0.173737 -1.374094 3.546123 0
M  V30 4 C -0.846840 -2.486230 4.279294 0
M  V30 5 C -1.565202 -3.479009 3.435340 0
M  V30 6 C -1.112092 -3.577577 2.042381 0
M  V30 7 C -0.133766 -2.891688 1.471067 0
M  V30 8 C 0.325648 -2.981925 0.085936 0
M  V30 9 C 0.358788 -1.680795 -0.615433 0
M  V30 10 C 1.318025 -1.355465 -1.576238 0
M  V30 11 C 1.020628 -0.076375 -1.993164 0
M  V30 12 C -0.102954 0.298788 -1.259460 0
M  V30 13 S -0.777450 1.945007 -1.555051 0
M  V30 14 C 0.016555 3.103961 -0.428306 0
M  V30 15 N 1.154588 3.705348 -0.870850 0
M  V30 16 C 1.615724 4.537566 0.092278 0
M  V30 17 C 2.672100 5.409946 0.291356 0
M  V30 18 C 2.806638 6.111368 1.462744 0
M  V30 19 C 1.890926 5.962517 2.469313 0
M  V30 20 C 0.815399 5.098954 2.314422 0
M  V30 21 C 0.708848 4.408151 1.124027 0
M  V30 22 N -0.265943 3.539961 0.817732 0
M  V30 23 O -0.480779 -0.663012 -0.449213 0
M  V30 24 C -0.487941 -3.986264 -0.619558 0
M  V30 25 C -0.340045 -4.333694 -1.931669 0
M  V30 26 N -1.238246 -5.282927 -2.275397 0
M  V30 27 C -1.949770 -5.525664 -1.164114 0
M  V30 28 C -1.524176 -4.750253 -0.116470 0
M  V30 29 N -1.829320 -4.524649 1.255098 0
M  V30 30 H -0.944980 -0.646622 3.224049 0
M  V30 31 H 0.584885 -0.940187 4.234372 0
M  V30 32 H -1.624269 -2.003644 4.941432 0
M  V30 33 H -0.167230 -2.992876 5.024888 0
M  V30 34 H -2.681909 -3.326350 3.451157 0
M  V30 35 H -1.421927 -4.500873 3.879313 0
M  V30 36 H 1.366624 -3.412524 0.121797 0
M  V30 37 H 2.128703 -2.017043 -1.903064 0
M  V30 38 H 1.608135 0.418689 -2.734772 0
M  V30 39 H 3.380674 5.498948 -0.538325 0
M  V30 40 H 3.668222 6.762550 1.507938 0
M  V30 41 H 2.046713 6.542909 3.375664 0
M  V30 42 H 0.117654 5.012732 3.134297 0
M  V30 43 H -1.106085 3.171018 1.290048 0
M  V30 44 H 0.348170 -3.993611 -2.720596 0
M  V30 45 H -1.495017 -5.832913 -3.130767 0
M  V30 46 H -2.781217 -6.217267 -0.973937 0
M  V30 47 H -2.622630 -5.112035 1.633812 0
M  V30 END ATOM
M  V30 BEGIN BOND
M  V30 1 2 1 2
M  V30 2 1 2 3
M  V30 3 1 3 4
M  V30 4 1 4 5
M  V30 5 1 5 6
M  V30 6 2 6 7
M  V30 7 1 7 8
M  V30 8 1 8 9
M  V30 9 2 9 10
M  V30 10 1 10 11
M  V30 11 2 11 12
M  V30 12 1 12 13
M  V30 13 1 13 14
M  V30 14 2 14 15
M  V30 15 1 15 16
M  V30 16 2 16 17
M  V30 17 1 17 18
M  V30 18 2 18 19
M  V30 19 1 19 20
M  V30 20 2 20 21
M  V30 21 1 21 22
M  V30 22 1 12 23
M  V30 23 1 8 24
M  V30 24 2 24 25
M  V30 25 1 25 26
M  V30 26 1 26 27
M  V30 27 2 27 28
M  V30 28 1 28 29
M  V30 29 1 7 2
M  V30 30 1 23 9
M  V30 31 1 28 24
M  V30 32 1 29 6
M  V30 33 1 22 14
M  V30 34 1 21 16
M  V30 35 1 3 30
M  V30 36 1 3 31
M  V30 37 1 4 32
M  V30 38 1 4 33
M  V30 39 1 5 34
M  V30 40 1 5 35
M  V30 41 1 8 36
M  V30 42 1 10 37
M  V30 43 1 11 38
M  V30 44 1 17 39
M  V30 45 1 18 40
M  V30 46 1 19 41
M  V30 47 1 20 42
M  V30 48 1 22 43
M  V30 49 1 25 44
M  V30 50 1 26 45
M  V30 51 1 27 46
M  V30 52 1 29 47
M  V30 END BOND
M  V30 END CTAB
M  END
>  <Dataset>  (719) 
ChEMBL_Kinases

>  <Ligand_Instance>  (719) 
nan

>  <PDB_ID>  (719) 
nan

>  <Standardized_SMILES>  (719) 
O=C1CCCC2=C1C(c1ccc(Sc3nc4ccccc4[nH]3)o1)c1c[nH]cc1N2

>  <Name>  (719) 
nan

>  <Pocket>  (719) 
nan

>  <ATP_Site>  (719) 
nan

>  <Peripheral>  (719) 
nan

>  <Num_H_Atoms_ProtBoundConf>  (719) 
nan

>  <Num_Resolved_Atoms>  (719) 
nan

>  <Num_Not_Resolved_Atoms>  (719) 
nan

$$$$
CHEMBL3393480
     RDKit          3D

  0  0  0  0  0  0  0  0  0  0999 V3000
M  V30 BEGIN CTAB
M  V30 COUNTS 56 61 0 0 0
M  V30 BEGIN ATOM
M  V30 1 C 4.058584 0.122911 6.315502 0
M  V30 2 C 4.821620 -0.046435 4.995515 0
M  V30 3 O 3.862820 -0.155075 3.991193 0
M  V30 4 C 4.117329 -0.322038 2.636698 0
M  V30 5 O 5.307823 -0.385751 2.239607 0
M  V30 6 C 3.010806 -0.421628 1.691170 0
M  V30 7 N 3.123145 -0.583963 0.360289 0
M  V30 8 C 1.858847 -0.629185 -0.152891 0
M  V30 9 C 0.922849 -0.494904 0.855448 0
M  V30 10 C 1.671734 -0.365686 2.007058 0
M  V30 11 N 0.977088 -0.207969 3.236132 0
M  V30 12 C -0.440353 -0.178431 3.325153 0
M  V30 13 C -1.102611 -0.307738 2.182545 0
M  V30 14 C -2.574138 -0.271367 2.322428 0
M  V30 15 O -3.322029 -0.867762 1.494869 0
M  V30 16 C -3.295435 0.441637 3.407021 0
M  V30 17 C -2.358356 0.884027 4.507312 0
M  V30 18 C -1.145813 -0.014669 4.602803 0
M  V30 19 C -0.577184 -0.480425 0.810576 0
M  V30 20 C -1.059650 -1.785321 0.269742 0
M  V30 21 C -1.379228 -2.955985 0.927986 0
M  V30 22 C -1.777499 -3.877044 -0.036859 0
M  V30 23 C -1.678212 -3.213050 -1.238013 0
M  V30 24 S -2.070216 -3.925500 -2.831451 0
M  V30 25 C -1.816120 -2.751756 -4.158669 0
M  V30 26 N -2.921964 -2.011571 -4.439945 0
M  V30 27 C -2.641013 -1.149723 -5.456017 0
M  V30 28 C -3.286281 -0.171526 -6.185971 0
M  V30 29 C -2.621620 0.511847 -7.185621 0
M  V30 30 Cl -3.580830 1.730862 -8.027351 0
M  V30 31 C -1.302572 0.252451 -7.495993 0
M  V30 32 C -0.607996 -0.729284 -6.784000 0
M  V30 33 C -1.312742 -1.390024 -5.790192 0
M  V30 34 N -0.830353 -2.366730 -4.990230 0
M  V30 35 O -1.257247 -1.999137 -1.016085 0
M  V30 36 H 3.802177 1.199198 6.357400 0
M  V30 37 H 4.648940 -0.232678 7.177648 0
M  V30 38 H 3.114752 -0.439029 6.225873 0
M  V30 39 H 5.587342 0.715393 4.841764 0
M  V30 40 H 5.283527 -1.071070 5.087571 0
M  V30 41 H 4.039606 -0.656112 -0.135539 0
M  V30 42 H 1.623357 -0.753862 -1.209972 0
M  V30 43 H 1.530104 -0.107769 4.125748 0
M  V30 44 H -3.912327 1.282282 3.025865 0
M  V30 45 H -4.017798 -0.272803 3.851586 0
M  V30 46 H -2.025264 1.911379 4.264345 0
M  V30 47 H -2.847963 0.874688 5.497390 0
M  V30 48 H -0.472648 0.453041 5.358164 0
M  V30 49 H -1.454332 -0.996196 5.044251 0
M  V30 50 H -0.944280 0.335657 0.150428 0
M  V30 51 H -1.313487 -3.083955 2.016510 0
M  V30 52 H -2.089533 -4.880225 0.141164 0
M  V30 53 H -4.331841 0.008335 -5.913364 0
M  V30 54 H -0.832423 0.830438 -8.301160 0
M  V30 55 H 0.407607 -0.943423 -7.008084 0
M  V30 56 H 0.054801 -2.863210 -4.864503 0
M  V30 END ATOM
M  V30 BEGIN BOND
M  V30 1 1 1 2
M  V30 2 1 2 3
M  V30 3 1 3 4
M  V30 4 2 4 5
M  V30 5 1 4 6
M  V30 6 1 6 7
M  V30 7 1 7 8
M  V30 8 2 8 9
M  V30 9 1 9 10
M  V30 10 1 10 11
M  V30 11 1 11 12
M  V30 12 2 12 13
M  V30 13 1 13 14
M  V30 14 2 14 15
M  V30 15 1 14 16
M  V30 16 1 16 17
M  V30 17 1 17 18
M  V30 18 1 13 19
M  V30 19 1 19 20
M  V30 20 2 20 21
M  V30 21 1 21 22
M  V30 22 2 22 23
M  V30 23 1 23 24
M  V30 24 1 24 25
M  V30 25 2 25 26
M  V30 26 1 26 27
M  V30 27 2 27 28
M  V30 28 1 28 29
M  V30 29 1 29 30
M  V30 30 2 29 31
M  V30 31 1 31 32
M  V30 32 2 32 33
M  V30 33 1 33 34
M  V30 34 1 23 35
M  V30 35 2 10 6
M  V30 36 1 18 12
M  V30 37 1 35 20
M  V30 38 1 19 9
M  V30 39 1 34 25
M  V30 40 1 33 27
M  V30 41 1 1 36
M  V30 42 1 1 37
M  V30 43 1 1 38
M  V30 44 1 2 39
M  V30 45 1 2 40
M  V30 46 1 7 41
M  V30 47 1 8 42
M  V30 48 1 11 43
M  V30 49 1 16 44
M  V30 50 1 16 45
M  V30 51 1 17 46
M  V30 52 1 17 47
M  V30 53 1 18 48
M  V30 54 1 18 49
M  V30 55 1 19 50
M  V30 56 1 21 51
M  V30 57 1 22 52
M  V30 58 1 28 53
M  V30 59 1 31 54
M  V30 60 1 32 55
M  V30 61 1 34 56
M  V30 END BOND
M  V30 END CTAB
M  END
>  <Dataset>  (720) 
ChEMBL_Kinases

>  <Ligand_Instance>  (720) 
nan

>  <PDB_ID>  (720) 
nan

>  <Standardized_SMILES>  (720) 
CCOC(=O)c1[nH]cc2c1NC1=C(C(=O)CCC1)C2c1ccc(Sc2nc3cc(Cl)ccc3[nH]2)o1

>  <Name>  (720) 
nan

>  <Pocket>  (720) 
nan

>  <ATP_Site>  (720) 
nan

>  <Peripheral>  (720) 
nan

>  <Num_H_Atoms_ProtBoundConf>  (720) 
nan

>  <Num_Resolved_Atoms>  (720) 
nan

>  <Num_Not_Resolved_Atoms>  (720) 
nan

$$$$
CHEMBL3393470
     RDKit          3D

  0  0  0  0  0  0  0  0  0  0999 V3000
M  V30 BEGIN CTAB
M  V30 COUNTS 53 58 0 0 0
M  V30 BEGIN ATOM
M  V30 1 C 4.192443 -2.747582 3.845005 0
M  V30 2 O 2.983465 -2.063519 3.738796 0
M  V30 3 C 1.901142 -2.114948 4.562377 0
M  V30 4 O 2.723744 -2.861047 5.024111 0
M  V30 5 C 0.773299 -1.279538 4.189428 0
M  V30 6 N -0.296089 -1.309763 4.985738 0
M  V30 7 C -1.198040 -0.471628 4.447679 0
M  V30 8 C -0.619912 0.049691 3.309908 0
M  V30 9 C 0.646716 -0.443821 3.107851 0
M  V30 10 N 1.504629 -0.107611 2.027701 0
M  V30 11 C 1.027983 0.820733 1.058976 0
M  V30 12 C -0.189518 1.296821 1.251078 0
M  V30 13 C -0.680701 2.255535 0.249912 0
M  V30 14 O -1.889280 2.523502 0.024408 0
M  V30 15 C 0.255867 3.031858 -0.628870 0
M  V30 16 C 1.684678 2.657930 -0.393097 0
M  V30 17 C 1.896260 1.192062 -0.085216 0
M  V30 18 C -1.160749 1.022494 2.326514 0
M  V30 19 C -2.473223 0.542618 1.771976 0
M  V30 20 C -3.745800 0.793640 2.243707 0
M  V30 21 C -4.554402 0.113542 1.360347 0
M  V30 22 C -3.780625 -0.516853 0.400416 0
M  V30 23 S -4.263465 -1.542655 -0.999782 0
M  V30 24 C -2.824721 -2.095631 -1.920463 0
M  V30 25 N -2.238658 -1.472728 -2.951530 0
M  V30 26 C -1.190110 -2.181014 -3.386843 0
M  V30 27 C -0.329079 -1.887214 -4.421012 0
M  V30 28 C 0.698804 -2.779807 -4.693921 0
M  V30 29 C 0.796531 -3.916687 -3.906268 0
M  V30 30 C -0.082729 -4.199357 -2.863750 0
M  V30 31 C -1.117549 -3.300630 -2.588938 0
M  V30 32 N -2.136668 -3.235591 -1.684071 0
M  V30 33 O -2.538747 -0.219315 0.704334 0
M  V30 34 H 4.775964 -2.551752 4.766174 0
M  V30 35 H 4.882254 -2.474964 2.982292 0
M  V30 36 H 4.057376 -3.845485 3.714258 0
M  V30 37 H -0.528087 -1.819582 5.863550 0
M  V30 38 H -2.205251 -0.229182 4.821059 0
M  V30 39 H 2.444387 -0.558365 1.997240 0
M  V30 40 H 0.143206 4.101944 -0.283183 0
M  V30 41 H -0.040060 3.012253 -1.683504 0
M  V30 42 H 2.219298 2.870769 -1.365412 0
M  V30 43 H 2.194178 3.261495 0.382264 0
M  V30 44 H 1.628011 0.630206 -1.010783 0
M  V30 45 H 2.954440 1.057047 0.199293 0
M  V30 46 H -1.428706 1.972082 2.870431 0
M  V30 47 H -3.990119 1.381801 3.094888 0
M  V30 48 H -5.626520 0.058872 1.384110 0
M  V30 49 H -0.368596 -1.028848 -5.047744 0
M  V30 50 H 1.427503 -2.654191 -5.474518 0
M  V30 51 H 1.564424 -4.698737 -4.022166 0
M  V30 52 H -0.009974 -5.081489 -2.250451 0
M  V30 53 H -2.283159 -3.971345 -0.976694 0
M  V30 END ATOM
M  V30 BEGIN BOND
M  V30 1 1 1 2
M  V30 2 1 2 3
M  V30 3 2 3 4
M  V30 4 1 3 5
M  V30 5 1 5 6
M  V30 6 1 6 7
M  V30 7 2 7 8
M  V30 8 1 8 9
M  V30 9 1 9 10
M  V30 10 1 10 11
M  V30 11 2 11 12
M  V30 12 1 12 13
M  V30 13 2 13 14
M  V30 14 1 13 15
M  V30 15 1 15 16
M  V30 16 1 16 17
M  V30 17 1 12 18
M  V30 18 1 18 19
M  V30 19 2 19 20
M  V30 20 1 20 21
M  V30 21 2 21 22
M  V30 22 1 22 23
M  V30 23 1 23 24
M  V30 24 2 24 25
M  V30 25 1 25 26
M  V30 26 2 26 27
M  V30 27 1 27 28
M  V30 28 2 28 29
M  V30 29 1 29 30
M  V30 30 2 30 31
M  V30 31 1 31 32
M  V30 32 1 22 33
M  V30 33 2 9 5
M  V30 34 1 17 11
M  V30 35 1 33 19
M  V30 36 1 18 8
M  V30 37 1 32 24
M  V30 38 1 31 26
M  V30 39 1 1 34
M  V30 40 1 1 35
M  V30 41 1 1 36
M  V30 42 1 6 37
M  V30 43 1 7 38
M  V30 44 1 10 39
M  V30 45 1 15 40
M  V30 46 1 15 41
M  V30 47 1 16 42
M  V30 48 1 16 43
M  V30 49 1 17 44
M  V30 50 1 17 45
M  V30 51 1 18 46
M  V30 52 1 20 47
M  V30 53 1 21 48
M  V30 54 1 27 49
M  V30 55 1 28 50
M  V30 56 1 29 51
M  V30 57 1 30 52
M  V30 58 1 32 53
M  V30 END BOND
M  V30 END CTAB
M  END
>  <Dataset>  (721) 
ChEMBL_Kinases

>  <Ligand_Instance>  (721) 
nan

>  <PDB_ID>  (721) 
nan

>  <Standardized_SMILES>  (721) 
COC(=O)c1[nH]cc2c1NC1=C(C(=O)CCC1)C2c1ccc(Sc2nc3ccccc3[nH]2)o1

>  <Name>  (721) 
nan

>  <Pocket>  (721) 
nan

>  <ATP_Site>  (721) 
nan

>  <Peripheral>  (721) 
nan

>  <Num_H_Atoms_ProtBoundConf>  (721) 
nan

>  <Num_Resolved_Atoms>  (721) 
nan

>  <Num_Not_Resolved_Atoms>  (721) 
nan

$$$$
CHEMBL3393471
     RDKit          3D

  0  0  0  0  0  0  0  0  0  0999 V3000
M  V30 BEGIN CTAB
M  V30 COUNTS 50 55 0 0 0
M  V30 BEGIN ATOM
M  V30 1 O 3.149777 0.072528 3.164412 0
M  V30 2 C 3.514424 -1.028665 2.670228 0
M  V30 3 C 4.881084 -1.446518 3.073774 0
M  V30 4 C 5.479666 -2.510127 2.219382 0
M  V30 5 C 4.810443 -2.691564 0.876667 0
M  V30 6 C 3.350958 -2.603907 0.948358 0
M  V30 7 C 2.681141 -1.829959 1.781996 0
M  V30 8 C 1.218825 -1.688165 1.912572 0
M  V30 9 C 0.892631 -0.237657 1.682702 0
M  V30 10 C 1.584357 0.591661 0.830213 0
M  V30 11 C 0.948435 1.811353 0.933876 0
M  V30 12 C -0.080751 1.682042 1.823270 0
M  V30 13 S -1.155093 3.049723 2.236127 0
M  V30 14 C -2.557142 3.093019 1.124678 0
M  V30 15 N -3.652665 2.390165 1.506334 0
M  V30 16 C -4.615705 2.533244 0.550469 0
M  V30 17 C -5.911843 2.087187 0.347707 0
M  V30 18 C -6.615593 2.451295 -0.791359 0
M  V30 19 C -6.041719 3.263858 -1.745431 0
M  V30 20 C -4.746079 3.733872 -1.583693 0
M  V30 21 C -4.082225 3.344975 -0.432108 0
M  V30 22 N -2.821448 3.680986 -0.068840 0
M  V30 23 O -0.089303 0.441112 2.256046 0
M  V30 24 C 0.485198 -2.550299 0.959813 0
M  V30 25 C -0.878753 -2.671706 0.805003 0
M  V30 26 N -1.087774 -3.573623 -0.182652 0
M  V30 27 C 0.114954 -3.988731 -0.615984 0
M  V30 28 C 0.294530 -4.967904 -1.681693 0
M  V30 29 O -0.717682 -5.466761 -2.242616 0
M  V30 30 O 1.520688 -5.394881 -2.127738 0
M  V30 31 C 1.144910 -3.378215 0.067115 0
M  V30 32 N 2.564361 -3.414718 0.050581 0
M  V30 33 H 4.797090 -1.792234 4.127507 0
M  V30 34 H 5.557190 -0.543763 3.122520 0
M  V30 35 H 6.568077 -2.324431 2.117825 0
M  V30 36 H 5.398556 -3.484619 2.765219 0
M  V30 37 H 5.165710 -1.877167 0.211780 0
M  V30 38 H 5.084528 -3.698122 0.492841 0
M  V30 39 H 0.910727 -1.983734 2.934307 0
M  V30 40 H 2.426458 0.350625 0.221466 0
M  V30 41 H 1.273307 2.675065 0.370810 0
M  V30 42 H -6.299014 1.452971 1.137423 0
M  V30 43 H -7.624886 2.079870 -0.908341 0
M  V30 44 H -6.613190 3.529395 -2.619311 0
M  V30 45 H -4.285880 4.366964 -2.317300 0
M  V30 46 H -2.081073 4.256014 -0.496535 0
M  V30 47 H -1.652256 -2.160313 1.350412 0
M  V30 48 H -2.018535 -3.883906 -0.536479 0
M  V30 49 H 1.676455 -6.337112 -2.518488 0
M  V30 50 H 3.035651 -4.050560 -0.635598 0
M  V30 END ATOM
M  V30 BEGIN BOND
M  V30 1 2 1 2
M  V30 2 1 2 3
M  V30 3 1 3 4
M  V30 4 1 4 5
M  V30 5 1 5 6
M  V30 6 2 6 7
M  V30 7 1 7 8
M  V30 8 1 8 9
M  V30 9 2 9 10
M  V30 10 1 10 11
M  V30 11 2 11 12
M  V30 12 1 12 13
M  V30 13 1 13 14
M  V30 14 2 14 15
M  V30 15 1 15 16
M  V30 16 2 16 17
M  V30 17 1 17 18
M  V30 18 2 18 19
M  V30 19 1 19 20
M  V30 20 2 20 21
M  V30 21 1 21 22
M  V30 22 1 12 23
M  V30 23 1 8 24
M  V30 24 2 24 25
M  V30 25 1 25 26
M  V30 26 1 26 27
M  V30 27 1 27 28
M  V30 28 2 28 29
M  V30 29 1 28 30
M  V30 30 2 27 31
M  V30 31 1 31 32
M  V30 32 1 7 2
M  V30 33 1 23 9
M  V30 34 1 31 24
M  V30 35 1 32 6
M  V30 36 1 22 14
M  V30 37 1 21 16
M  V30 38 1 3 33
M  V30 39 1 3 34
M  V30 40 1 4 35
M  V30 41 1 4 36
M  V30 42 1 5 37
M  V30 43 1 5 38
M  V30 44 1 8 39
M  V30 45 1 10 40
M  V30 46 1 11 41
M  V30 47 1 17 42
M  V30 48 1 18 43
M  V30 49 1 19 44
M  V30 50 1 20 45
M  V30 51 1 22 46
M  V30 52 1 25 47
M  V30 53 1 26 48
M  V30 54 1 30 49
M  V30 55 1 32 50
M  V30 END BOND
M  V30 END CTAB
M  END
>  <Dataset>  (722) 
ChEMBL_Kinases

>  <Ligand_Instance>  (722) 
nan

>  <PDB_ID>  (722) 
nan

>  <Standardized_SMILES>  (722) 
O=C1CCCC2=C1C(c1ccc(Sc3nc4ccccc4[nH]3)o1)c1c[nH]c(C(=O)O)c1N2

>  <Name>  (722) 
nan

>  <Pocket>  (722) 
nan

>  <ATP_Site>  (722) 
nan

>  <Peripheral>  (722) 
nan

>  <Num_H_Atoms_ProtBoundConf>  (722) 
nan

>  <Num_Resolved_Atoms>  (722) 
nan

>  <Num_Not_Resolved_Atoms>  (722) 
nan

$$$$
CHEMBL3393472
     RDKit          3D

  0  0  0  0  0  0  0  0  0  0999 V3000
M  V30 BEGIN CTAB
M  V30 COUNTS 55 60 0 0 0
M  V30 BEGIN ATOM
M  V30 1 C 3.228697 -2.804534 5.023578 0
M  V30 2 C 3.559662 -1.351233 4.814345 0
M  V30 3 O 3.145445 -0.841852 3.580887 0
M  V30 4 C 3.562453 -1.314779 2.344910 0
M  V30 5 O 4.359286 -2.255202 2.265189 0
M  V30 6 C 3.044332 -0.683011 1.137103 0
M  V30 7 N 3.333893 -1.004651 -0.139391 0
M  V30 8 C 2.663561 -0.198374 -1.013394 0
M  V30 9 C 1.922294 0.665575 -0.263442 0
M  V30 10 C 2.154941 0.369262 1.063345 0
M  V30 11 N 1.516705 1.107154 2.080258 0
M  V30 12 C 0.628098 2.162834 1.737503 0
M  V30 13 C 0.401390 2.451244 0.465298 0
M  V30 14 C -0.520030 3.544891 0.172891 0
M  V30 15 O -1.126921 3.674626 -0.926267 0
M  V30 16 C -0.802195 4.588247 1.170810 0
M  V30 17 N -0.190605 4.347922 2.447248 0
M  V30 18 C -0.058786 2.957715 2.785814 0
M  V30 19 C 1.010594 1.749978 -0.695558 0
M  V30 20 C -0.125402 1.197072 -1.497427 0
M  V30 21 C -0.189781 1.008961 -2.861736 0
M  V30 22 C -1.418686 0.475237 -3.187408 0
M  V30 23 C -2.069088 0.357170 -1.976678 0
M  V30 24 S -3.723461 -0.264139 -1.597349 0
M  V30 25 C -3.605373 -2.019077 -1.294369 0
M  V30 26 N -3.395291 -2.813240 -0.222395 0
M  V30 27 C -3.412718 -4.102955 -0.621894 0
M  V30 28 C -3.236186 -5.228062 0.173970 0
M  V30 29 C -3.298040 -6.461999 -0.477959 0
M  V30 30 C -3.523737 -6.529184 -1.840456 0
M  V30 31 C -3.693885 -5.361768 -2.588523 0
M  V30 32 C -3.640174 -4.120621 -1.983557 0
M  V30 33 N -3.757194 -2.825184 -2.385227 0
M  V30 34 O -1.282981 0.789540 -1.003198 0
M  V30 35 H 3.156246 -2.967543 6.135342 0
M  V30 36 H 2.184581 -2.961558 4.651474 0
M  V30 37 H 3.921914 -3.497725 4.533245 0
M  V30 38 H 2.963710 -0.788306 5.589050 0
M  V30 39 H 4.622847 -1.134718 5.070948 0
M  V30 40 H 3.997824 -1.784753 -0.420106 0
M  V30 41 H 2.752461 -0.285850 -2.105315 0
M  V30 42 H 1.656407 0.925608 3.101316 0
M  V30 43 H -1.914956 4.663242 1.263227 0
M  V30 44 H -0.465705 5.566018 0.761623 0
M  V30 45 H -0.672399 4.808170 3.229460 0
M  V30 46 H -0.993184 2.475614 3.118361 0
M  V30 47 H 0.626997 2.929382 3.677428 0
M  V30 48 H 1.547889 2.491737 -1.331870 0
M  V30 49 H 0.577355 1.232069 -3.584341 0
M  V30 50 H -1.861630 0.184476 -4.132395 0
M  V30 51 H -3.062232 -5.148209 1.230533 0
M  V30 52 H -3.168525 -7.377233 0.085317 0
M  V30 53 H -3.577874 -7.485650 -2.382712 0
M  V30 54 H -3.872153 -5.398102 -3.660865 0
M  V30 55 H -3.935308 -2.655170 -3.409396 0
M  V30 END ATOM
M  V30 BEGIN BOND
M  V30 1 1 1 2
M  V30 2 1 2 3
M  V30 3 1 3 4
M  V30 4 2 4 5
M  V30 5 1 4 6
M  V30 6 1 6 7
M  V30 7 1 7 8
M  V30 8 2 8 9
M  V30 9 1 9 10
M  V30 10 1 10 11
M  V30 11 1 11 12
M  V30 12 2 12 13
M  V30 13 1 13 14
M  V30 14 2 14 15
M  V30 15 1 14 16
M  V30 16 1 16 17
M  V30 17 1 17 18
M  V30 18 1 13 19
M  V30 19 1 19 20
M  V30 20 2 20 21
M  V30 21 1 21 22
M  V30 22 2 22 23
M  V30 23 1 23 24
M  V30 24 1 24 25
M  V30 25 2 25 26
M  V30 26 1 26 27
M  V30 27 2 27 28
M  V30 28 1 28 29
M  V30 29 2 29 30
M  V30 30 1 30 31
M  V30 31 2 31 32
M  V30 32 1 32 33
M  V30 33 1 23 34
M  V30 34 2 10 6
M  V30 35 1 18 12
M  V30 36 1 34 20
M  V30 37 1 19 9
M  V30 38 1 33 25
M  V30 39 1 32 27
M  V30 40 1 1 35
M  V30 41 1 1 36
M  V30 42 1 1 37
M  V30 43 1 2 38
M  V30 44 1 2 39
M  V30 45 1 7 40
M  V30 46 1 8 41
M  V30 47 1 11 42
M  V30 48 1 16 43
M  V30 49 1 16 44
M  V30 50 1 17 45
M  V30 51 1 18 46
M  V30 52 1 18 47
M  V30 53 1 19 48
M  V30 54 1 21 49
M  V30 55 1 22 50
M  V30 56 1 28 51
M  V30 57 1 29 52
M  V30 58 1 30 53
M  V30 59 1 31 54
M  V30 60 1 33 55
M  V30 END BOND
M  V30 END CTAB
M  END
>  <Dataset>  (723) 
ChEMBL_Kinases

>  <Ligand_Instance>  (723) 
nan

>  <PDB_ID>  (723) 
nan

>  <Standardized_SMILES>  (723) 
CCOC(=O)c1[nH]cc2c1NC1=C(C(=O)CNC1)C2c1ccc(Sc2nc3ccccc3[nH]2)o1

>  <Name>  (723) 
nan

>  <Pocket>  (723) 
nan

>  <ATP_Site>  (723) 
nan

>  <Peripheral>  (723) 
nan

>  <Num_H_Atoms_ProtBoundConf>  (723) 
nan

>  <Num_Resolved_Atoms>  (723) 
nan

>  <Num_Not_Resolved_Atoms>  (723) 
nan

$$$$
CHEMBL3393473
     RDKit          3D

  0  0  0  0  0  0  0  0  0  0999 V3000
M  V30 BEGIN CTAB
M  V30 COUNTS 56 61 0 0 0
M  V30 BEGIN ATOM
M  V30 1 C 3.951132 0.224170 6.309169 0
M  V30 2 C 4.735198 0.109538 5.003455 0
M  V30 3 O 3.802347 -0.026245 3.972778 0
M  V30 4 C 4.072899 -0.159187 2.634703 0
M  V30 5 O 5.267070 -0.165681 2.240819 0
M  V30 6 C 2.982978 -0.293234 1.664624 0
M  V30 7 N 3.104076 -0.429965 0.331848 0
M  V30 8 C 1.844848 -0.521298 -0.184917 0
M  V30 9 C 0.897168 -0.444142 0.812164 0
M  V30 10 C 1.638569 -0.300888 1.966671 0
M  V30 11 N 0.954245 -0.189736 3.213757 0
M  V30 12 C -0.473365 -0.221354 3.311260 0
M  V30 13 C -1.116789 -0.360665 2.167169 0
M  V30 14 C -2.590653 -0.392348 2.277073 0
M  V30 15 O -3.325719 -0.951951 1.416775 0
M  V30 16 C -3.354140 0.223646 3.398207 0
M  V30 17 C -2.444505 0.714851 4.492160 0
M  V30 18 C -1.178697 -0.107426 4.590974 0
M  V30 19 C -0.596138 -0.490604 0.787976 0
M  V30 20 C -0.997199 -1.828036 0.220696 0
M  V30 21 C -1.230511 -3.017346 0.884345 0
M  V30 22 C -1.576085 -3.995138 -0.026205 0
M  V30 23 C -1.535907 -3.329318 -1.254368 0
M  V30 24 S -1.880647 -4.007509 -2.881491 0
M  V30 25 C -1.702953 -2.777440 -4.166174 0
M  V30 26 N -2.831231 -2.095275 -4.439302 0
M  V30 27 C -2.625540 -1.189045 -5.412561 0
M  V30 28 C -3.303722 -0.223204 -6.128307 0
M  V30 29 C -2.698377 0.541342 -7.103912 0
M  V30 30 F -3.489751 1.464166 -7.736367 0
M  V30 31 C -1.344508 0.359097 -7.407859 0
M  V30 32 C -0.650970 -0.613118 -6.691287 0
M  V30 33 C -1.287129 -1.360467 -5.721732 0
M  V30 34 N -0.725049 -2.321027 -4.969480 0
M  V30 35 O -1.196041 -2.078035 -1.058481 0
M  V30 36 H 3.533999 1.268902 6.350595 0
M  V30 37 H 4.582254 -0.031392 7.173496 0
M  V30 38 H 3.068199 -0.441718 6.197931 0
M  V30 39 H 5.441089 0.949866 4.856334 0
M  V30 40 H 5.323863 -0.847005 5.044137 0
M  V30 41 H 4.001681 -0.462352 -0.226480 0
M  V30 42 H 1.678351 -0.638708 -1.254382 0
M  V30 43 H 1.468799 -0.078684 4.125215 0
M  V30 44 H -3.977338 1.048981 3.039464 0
M  V30 45 H -4.006208 -0.586902 3.818833 0
M  V30 46 H -2.133082 1.767830 4.302212 0
M  V30 47 H -2.937234 0.702133 5.486640 0
M  V30 48 H -0.497203 0.425260 5.300049 0
M  V30 49 H -1.331992 -1.116481 5.009733 0
M  V30 50 H -1.023331 0.303329 0.150792 0
M  V30 51 H -1.152808 -3.157828 1.960070 0
M  V30 52 H -1.824128 -5.025707 0.114434 0
M  V30 53 H -4.357246 -0.113051 -5.860266 0
M  V30 54 H -0.917927 0.983322 -8.180205 0
M  V30 55 H 0.396073 -0.743216 -6.937063 0
M  V30 56 H 0.192791 -2.759573 -4.862874 0
M  V30 END ATOM
M  V30 BEGIN BOND
M  V30 1 1 1 2
M  V30 2 1 2 3
M  V30 3 1 3 4
M  V30 4 2 4 5
M  V30 5 1 4 6
M  V30 6 1 6 7
M  V30 7 1 7 8
M  V30 8 2 8 9
M  V30 9 1 9 10
M  V30 10 1 10 11
M  V30 11 1 11 12
M  V30 12 2 12 13
M  V30 13 1 13 14
M  V30 14 2 14 15
M  V30 15 1 14 16
M  V30 16 1 16 17
M  V30 17 1 17 18
M  V30 18 1 13 19
M  V30 19 1 19 20
M  V30 20 2 20 21
M  V30 21 1 21 22
M  V30 22 2 22 23
M  V30 23 1 23 24
M  V30 24 1 24 25
M  V30 25 2 25 26
M  V30 26 1 26 27
M  V30 27 2 27 28
M  V30 28 1 28 29
M  V30 29 1 29 30
M  V30 30 2 29 31
M  V30 31 1 31 32
M  V30 32 2 32 33
M  V30 33 1 33 34
M  V30 34 1 23 35
M  V30 35 2 10 6
M  V30 36 1 18 12
M  V30 37 1 35 20
M  V30 38 1 19 9
M  V30 39 1 34 25
M  V30 40 1 33 27
M  V30 41 1 1 36
M  V30 42 1 1 37
M  V30 43 1 1 38
M  V30 44 1 2 39
M  V30 45 1 2 40
M  V30 46 1 7 41
M  V30 47 1 8 42
M  V30 48 1 11 43
M  V30 49 1 16 44
M  V30 50 1 16 45
M  V30 51 1 17 46
M  V30 52 1 17 47
M  V30 53 1 18 48
M  V30 54 1 18 49
M  V30 55 1 19 50
M  V30 56 1 21 51
M  V30 57 1 22 52
M  V30 58 1 28 53
M  V30 59 1 31 54
M  V30 60 1 32 55
M  V30 61 1 34 56
M  V30 END BOND
M  V30 END CTAB
M  END
>  <Dataset>  (724) 
ChEMBL_Kinases

>  <Ligand_Instance>  (724) 
nan

>  <PDB_ID>  (724) 
nan

>  <Standardized_SMILES>  (724) 
CCOC(=O)c1[nH]cc2c1NC1=C(C(=O)CCC1)C2c1ccc(Sc2nc3cc(F)ccc3[nH]2)o1

>  <Name>  (724) 
nan

>  <Pocket>  (724) 
nan

>  <ATP_Site>  (724) 
nan

>  <Peripheral>  (724) 
nan

>  <Num_H_Atoms_ProtBoundConf>  (724) 
nan

>  <Num_Resolved_Atoms>  (724) 
nan

>  <Num_Not_Resolved_Atoms>  (724) 
nan

$$$$
CHEMBL3393474
     RDKit          3D

  0  0  0  0  0  0  0  0  0  0999 V3000
M  V30 BEGIN CTAB
M  V30 COUNTS 56 61 0 0 0
M  V30 BEGIN ATOM
M  V30 1 C 3.296751 -0.633300 7.412444 0
M  V30 2 C 4.341446 -0.707974 6.316425 0
M  V30 3 O 3.654661 -0.531360 5.093169 0
M  V30 4 C 4.248990 -0.533731 3.863385 0
M  V30 5 O 5.461832 -0.714147 4.023425 0
M  V30 6 C 3.529521 -0.350442 2.608543 0
M  V30 7 N 4.086544 -0.348997 1.387365 0
M  V30 8 C 3.065938 -0.148543 0.521097 0
M  V30 9 C 1.870949 -0.025614 1.215088 0
M  V30 10 C 2.166447 -0.155206 2.559452 0
M  V30 11 N 1.067387 -0.058184 3.451075 0
M  V30 12 C -0.270229 0.157756 3.038181 0
M  V30 13 C -0.476961 0.271763 1.739210 0
M  V30 14 C -1.888406 0.496092 1.359669 0
M  V30 15 O -2.367961 0.106000 0.253480 0
M  V30 16 C -2.877022 1.202057 2.243828 0
M  V30 17 C -2.373474 1.322819 3.648307 0
M  V30 18 C -1.372444 0.250535 4.008539 0
M  V30 19 C 0.503955 0.205249 0.623455 0
M  V30 20 C 0.220015 -0.998942 -0.230239 0
M  V30 21 C -0.416682 -2.141256 0.262956 0
M  V30 22 C -0.533827 -3.076007 -0.765798 0
M  V30 23 C 0.051589 -2.424704 -1.835889 0
M  V30 24 S 0.276843 -2.993927 -3.514137 0
M  V30 25 C -1.105532 -2.572085 -4.565336 0
M  V30 26 N -2.239387 -3.284137 -4.825161 0
M  V30 27 C -3.012741 -2.585898 -5.677504 0
M  V30 28 C -4.235855 -2.767338 -6.292869 0
M  V30 29 C -4.798890 -1.847568 -7.148421 0
M  V30 30 C -4.106923 -0.672226 -7.412161 0
M  V30 31 C -2.865607 -0.415702 -6.828912 0
M  V30 32 F -2.174492 0.721827 -7.071718 0
M  V30 33 C -2.378052 -1.401346 -5.980193 0
M  V30 34 N -1.210550 -1.421858 -5.282831 0
M  V30 35 O 0.469354 -1.244281 -1.493753 0
M  V30 36 H 2.479715 -1.321912 7.101880 0
M  V30 37 H 3.717754 -0.868526 8.409817 0
M  V30 38 H 2.874911 0.405384 7.366594 0
M  V30 39 H 5.149129 0.032728 6.457458 0
M  V30 40 H 4.729084 -1.753687 6.313324 0
M  V30 41 H 5.093394 -0.475438 1.151616 0
M  V30 42 H 3.253872 -0.104104 -0.562939 0
M  V30 43 H 1.292930 -0.156425 4.468021 0
M  V30 44 H -3.081604 2.200076 1.768547 0
M  V30 45 H -3.815772 0.644140 2.224560 0
M  V30 46 H -1.862539 2.313248 3.761865 0
M  V30 47 H -3.192613 1.297900 4.385851 0
M  V30 48 H -0.917387 0.556732 4.983589 0
M  V30 49 H -1.876081 -0.715179 4.212908 0
M  V30 50 H 0.473713 1.134214 0.021922 0
M  V30 51 H -0.799577 -2.370072 1.267573 0
M  V30 52 H -0.955579 -4.069262 -0.804844 0
M  V30 53 H -4.779767 -3.680186 -6.091687 0
M  V30 54 H -5.752898 -1.981578 -7.632738 0
M  V30 55 H -4.514272 0.093367 -8.088348 0
M  V30 56 H -0.500094 -0.666608 -5.296293 0
M  V30 END ATOM
M  V30 BEGIN BOND
M  V30 1 1 1 2
M  V30 2 1 2 3
M  V30 3 1 3 4
M  V30 4 2 4 5
M  V30 5 1 4 6
M  V30 6 1 6 7
M  V30 7 1 7 8
M  V30 8 2 8 9
M  V30 9 1 9 10
M  V30 10 1 10 11
M  V30 11 1 11 12
M  V30 12 2 12 13
M  V30 13 1 13 14
M  V30 14 2 14 15
M  V30 15 1 14 16
M  V30 16 1 16 17
M  V30 17 1 17 18
M  V30 18 1 13 19
M  V30 19 1 19 20
M  V30 20 2 20 21
M  V30 21 1 21 22
M  V30 22 2 22 23
M  V30 23 1 23 24
M  V30 24 1 24 25
M  V30 25 2 25 26
M  V30 26 1 26 27
M  V30 27 2 27 28
M  V30 28 1 28 29
M  V30 29 2 29 30
M  V30 30 1 30 31
M  V30 31 1 31 32
M  V30 32 2 31 33
M  V30 33 1 33 34
M  V30 34 1 23 35
M  V30 35 2 10 6
M  V30 36 1 18 12
M  V30 37 1 35 20
M  V30 38 1 19 9
M  V30 39 1 34 25
M  V30 40 1 33 27
M  V30 41 1 1 36
M  V30 42 1 1 37
M  V30 43 1 1 38
M  V30 44 1 2 39
M  V30 45 1 2 40
M  V30 46 1 7 41
M  V30 47 1 8 42
M  V30 48 1 11 43
M  V30 49 1 16 44
M  V30 50 1 16 45
M  V30 51 1 17 46
M  V30 52 1 17 47
M  V30 53 1 18 48
M  V30 54 1 18 49
M  V30 55 1 19 50
M  V30 56 1 21 51
M  V30 57 1 22 52
M  V30 58 1 28 53
M  V30 59 1 29 54
M  V30 60 1 30 55
M  V30 61 1 34 56
M  V30 END BOND
M  V30 END CTAB
M  END
>  <Dataset>  (725) 
ChEMBL_Kinases

>  <Ligand_Instance>  (725) 
nan

>  <PDB_ID>  (725) 
nan

>  <Standardized_SMILES>  (725) 
CCOC(=O)c1[nH]cc2c1NC1=C(C(=O)CCC1)C2c1ccc(Sc2nc3cccc(F)c3[nH]2)o1

>  <Name>  (725) 
nan

>  <Pocket>  (725) 
nan

>  <ATP_Site>  (725) 
nan

>  <Peripheral>  (725) 
nan

>  <Num_H_Atoms_ProtBoundConf>  (725) 
nan

>  <Num_Resolved_Atoms>  (725) 
nan

>  <Num_Not_Resolved_Atoms>  (725) 
nan

$$$$
CHEMBL3393475
     RDKit          3D

  0  0  0  0  0  0  0  0  0  0999 V3000
M  V30 BEGIN CTAB
M  V30 COUNTS 56 61 0 0 0
M  V30 BEGIN ATOM
M  V30 1 C 5.797286 0.892250 3.574780 0
M  V30 2 C 5.652684 0.689727 2.084330 0
M  V30 3 O 4.412931 0.002324 1.879762 0
M  V30 4 C 3.205674 0.538341 2.278870 0
M  V30 5 O 3.201194 1.673343 2.842736 0
M  V30 6 C 1.992448 -0.237180 2.027594 0
M  V30 7 N 1.861660 -1.453858 1.438367 0
M  V30 8 C 0.561489 -1.802296 1.408228 0
M  V30 9 C -0.147342 -0.772080 1.997110 0
M  V30 10 C 0.738081 0.211921 2.388088 0
M  V30 11 N 0.156533 1.349459 3.016155 0
M  V30 12 C -1.246149 1.441064 3.215459 0
M  V30 13 C -2.078493 0.483094 2.831596 0
M  V30 14 C -3.525735 0.610201 3.053393 0
M  V30 15 O -4.338130 -0.363148 3.096692 0
M  V30 16 C -4.150981 1.958625 3.249752 0
M  V30 17 C -3.131671 3.052930 3.224777 0
M  V30 18 C -1.828698 2.651753 3.879585 0
M  V30 19 C -1.641411 -0.754200 2.169871 0
M  V30 20 C -2.231482 -0.906825 0.809604 0
M  V30 21 C -2.536838 0.165607 -0.018689 0
M  V30 22 C -3.047275 -0.428921 -1.145419 0
M  V30 23 C -3.028962 -1.794543 -0.955185 0
M  V30 24 S -3.580712 -3.075158 -2.104315 0
M  V30 25 C -2.187266 -3.559117 -3.146261 0
M  V30 26 N -1.929461 -2.936538 -4.322825 0
M  V30 27 C -0.841707 -3.484932 -4.900271 0
M  V30 28 C -0.113479 -3.292098 -6.060463 0
M  V30 29 F -0.578937 -2.297936 -6.862676 0
M  V30 30 C 1.001632 -4.065522 -6.360551 0
M  V30 31 C 1.386736 -5.054921 -5.466298 0
M  V30 32 F 2.487869 -5.769380 -5.830694 0
M  V30 33 C 0.677246 -5.266664 -4.302989 0
M  V30 34 C -0.429441 -4.486483 -4.022570 0
M  V30 35 N -1.251191 -4.523909 -2.962262 0
M  V30 36 O -2.533608 -2.064094 0.229682 0
M  V30 37 H 5.026749 0.336355 4.148714 0
M  V30 38 H 5.679264 1.973481 3.854432 0
M  V30 39 H 6.776978 0.504216 3.939263 0
M  V30 40 H 6.498162 0.063705 1.743692 0
M  V30 41 H 5.687399 1.631817 1.526562 0
M  V30 42 H 2.672363 -2.012509 1.072116 0
M  V30 43 H 0.197300 -2.748742 0.978706 0
M  V30 44 H 0.805308 2.105184 3.319882 0
M  V30 45 H -4.680901 2.007468 4.224440 0
M  V30 46 H -4.859098 2.121294 2.430676 0
M  V30 47 H -2.869131 3.381108 2.193177 0
M  V30 48 H -3.521263 3.905526 3.818569 0
M  V30 49 H -1.948156 2.408785 4.940531 0
M  V30 50 H -1.104136 3.470828 3.766107 0
M  V30 51 H -1.942254 -1.611667 2.788627 0
M  V30 52 H -2.382311 1.207913 0.229209 0
M  V30 53 H -3.397981 0.092604 -2.019989 0
M  V30 54 H 1.459891 -3.794877 -7.296925 0
M  V30 55 H 1.014227 -6.038658 -3.649928 0
M  V30 56 H -1.243398 -5.140533 -2.119978 0
M  V30 END ATOM
M  V30 BEGIN BOND
M  V30 1 1 1 2
M  V30 2 1 2 3
M  V30 3 1 3 4
M  V30 4 2 4 5
M  V30 5 1 4 6
M  V30 6 1 6 7
M  V30 7 1 7 8
M  V30 8 2 8 9
M  V30 9 1 9 10
M  V30 10 1 10 11
M  V30 11 1 11 12
M  V30 12 2 12 13
M  V30 13 1 13 14
M  V30 14 2 14 15
M  V30 15 1 14 16
M  V30 16 1 16 17
M  V30 17 1 17 18
M  V30 18 1 13 19
M  V30 19 1 19 20
M  V30 20 2 20 21
M  V30 21 1 21 22
M  V30 22 2 22 23
M  V30 23 1 23 24
M  V30 24 1 24 25
M  V30 25 2 25 26
M  V30 26 1 26 27
M  V30 27 2 27 28
M  V30 28 1 28 29
M  V30 29 1 28 30
M  V30 30 2 30 31
M  V30 31 1 31 32
M  V30 32 1 31 33
M  V30 33 2 33 34
M  V30 34 1 34 35
M  V30 35 1 23 36
M  V30 36 2 10 6
M  V30 37 1 18 12
M  V30 38 1 36 20
M  V30 39 1 19 9
M  V30 40 1 35 25
M  V30 41 1 34 27
M  V30 42 1 1 37
M  V30 43 1 1 38
M  V30 44 1 1 39
M  V30 45 1 2 40
M  V30 46 1 2 41
M  V30 47 1 7 42
M  V30 48 1 8 43
M  V30 49 1 11 44
M  V30 50 1 16 45
M  V30 51 1 16 46
M  V30 52 1 17 47
M  V30 53 1 17 48
M  V30 54 1 18 49
M  V30 55 1 18 50
M  V30 56 1 19 51
M  V30 57 1 21 52
M  V30 58 1 22 53
M  V30 59 1 30 54
M  V30 60 1 33 55
M  V30 61 1 35 56
M  V30 END BOND
M  V30 END CTAB
M  END
>  <Dataset>  (726) 
ChEMBL_Kinases

>  <Ligand_Instance>  (726) 
nan

>  <PDB_ID>  (726) 
nan

>  <Standardized_SMILES>  (726) 
CCOC(=O)c1[nH]cc2c1NC1=C(C(=O)CCC1)C2c1ccc(Sc2nc3c(F)cc(F)cc3[nH]2)o1

>  <Name>  (726) 
nan

>  <Pocket>  (726) 
nan

>  <ATP_Site>  (726) 
nan

>  <Peripheral>  (726) 
nan

>  <Num_H_Atoms_ProtBoundConf>  (726) 
nan

>  <Num_Resolved_Atoms>  (726) 
nan

>  <Num_Not_Resolved_Atoms>  (726) 
nan

$$$$
CHEMBL3393476
     RDKit          3D

  0  0  0  0  0  0  0  0  0  0999 V3000
M  V30 BEGIN CTAB
M  V30 COUNTS 56 61 0 0 0
M  V30 BEGIN ATOM
M  V30 1 C 5.977607 -1.717790 6.853921 0
M  V30 2 C 5.379501 -0.808947 5.811873 0
M  V30 3 O 4.079271 -1.307219 5.505432 0
M  V30 4 C 3.251721 -0.706755 4.584033 0
M  V30 5 O 3.890263 0.284315 4.143705 0
M  V30 6 C 1.928064 -1.112573 4.191798 0
M  V30 7 N 1.168635 -2.136254 4.592680 0
M  V30 8 C -0.022856 -2.116319 3.934880 0
M  V30 9 C 0.007652 -1.026948 3.089232 0
M  V30 10 C 1.221888 -0.387561 3.237543 0
M  V30 11 N 1.449726 0.769515 2.444781 0
M  V30 12 C 0.468675 1.259778 1.528323 0
M  V30 13 C -0.683433 0.627188 1.408152 0
M  V30 14 C -1.654779 1.163019 0.460923 0
M  V30 15 O -2.535954 0.421926 -0.040653 0
M  V30 16 C -1.547787 2.627436 0.121196 0
M  V30 17 C -0.121595 2.823299 -0.327917 0
M  V30 18 C 0.833631 2.464209 0.771951 0
M  V30 19 C -1.076458 -0.599217 2.166534 0
M  V30 20 C -1.498760 -1.708873 1.263551 0
M  V30 21 C -2.450019 -2.690108 1.371179 0
M  V30 22 C -2.334912 -3.406908 0.179666 0
M  V30 23 C -1.349574 -2.849208 -0.578793 0
M  V30 24 S -0.837620 -3.422947 -2.190825 0
M  V30 25 C -1.754162 -2.641175 -3.512081 0
M  V30 26 N -2.738828 -1.718293 -3.513078 0
M  V30 27 C -3.106188 -1.448553 -4.788536 0
M  V30 28 C -4.046555 -0.599310 -5.339182 0
M  V30 29 C -4.192252 -0.543286 -6.716838 0
M  V30 30 F -5.130751 0.305125 -7.252752 0
M  V30 31 C -3.402180 -1.332810 -7.554268 0
M  V30 32 F -3.529300 -1.291855 -8.892371 0
M  V30 33 C -2.476856 -2.163608 -6.929376 0
M  V30 34 C -2.296804 -2.252567 -5.564312 0
M  V30 35 N -1.468587 -2.984217 -4.800882 0
M  V30 36 O -0.876391 -1.840762 0.101614 0
M  V30 37 H 6.409308 -2.585349 6.334920 0
M  V30 38 H 5.167801 -2.111697 7.493001 0
M  V30 39 H 6.762795 -1.179321 7.457031 0
M  V30 40 H 6.017538 -0.770136 4.894653 0
M  V30 41 H 5.217955 0.224873 6.176142 0
M  V30 42 H 1.465747 -2.840124 5.309790 0
M  V30 43 H -0.798798 -2.871778 4.114615 0
M  V30 44 H 2.384226 1.238533 2.577186 0
M  V30 45 H -1.756709 3.232389 1.048333 0
M  V30 46 H -2.237025 2.904221 -0.676975 0
M  V30 47 H 0.049563 2.223417 -1.226876 0
M  V30 48 H -0.014188 3.921410 -0.552176 0
M  V30 49 H 1.876619 2.409787 0.358477 0
M  V30 50 H 0.848669 3.307471 1.492864 0
M  V30 51 H -1.943266 -0.365379 2.820140 0
M  V30 52 H -3.077948 -2.774300 2.237101 0
M  V30 53 H -2.988042 -4.267259 -0.009715 0
M  V30 54 H -4.622975 -0.018869 -4.653538 0
M  V30 55 H -1.875396 -2.767974 -7.623768 0
M  V30 56 H -0.786406 -3.647523 -5.209465 0
M  V30 END ATOM
M  V30 BEGIN BOND
M  V30 1 1 1 2
M  V30 2 1 2 3
M  V30 3 1 3 4
M  V30 4 2 4 5
M  V30 5 1 4 6
M  V30 6 1 6 7
M  V30 7 1 7 8
M  V30 8 2 8 9
M  V30 9 1 9 10
M  V30 10 1 10 11
M  V30 11 1 11 12
M  V30 12 2 12 13
M  V30 13 1 13 14
M  V30 14 2 14 15
M  V30 15 1 14 16
M  V30 16 1 16 17
M  V30 17 1 17 18
M  V30 18 1 13 19
M  V30 19 1 19 20
M  V30 20 2 20 21
M  V30 21 1 21 22
M  V30 22 2 22 23
M  V30 23 1 23 24
M  V30 24 1 24 25
M  V30 25 2 25 26
M  V30 26 1 26 27
M  V30 27 2 27 28
M  V30 28 1 28 29
M  V30 29 1 29 30
M  V30 30 2 29 31
M  V30 31 1 31 32
M  V30 32 1 31 33
M  V30 33 2 33 34
M  V30 34 1 34 35
M  V30 35 1 23 36
M  V30 36 2 10 6
M  V30 37 1 18 12
M  V30 38 1 36 20
M  V30 39 1 19 9
M  V30 40 1 35 25
M  V30 41 1 34 27
M  V30 42 1 1 37
M  V30 43 1 1 38
M  V30 44 1 1 39
M  V30 45 1 2 40
M  V30 46 1 2 41
M  V30 47 1 7 42
M  V30 48 1 8 43
M  V30 49 1 11 44
M  V30 50 1 16 45
M  V30 51 1 16 46
M  V30 52 1 17 47
M  V30 53 1 17 48
M  V30 54 1 18 49
M  V30 55 1 18 50
M  V30 56 1 19 51
M  V30 57 1 21 52
M  V30 58 1 22 53
M  V30 59 1 28 54
M  V30 60 1 33 55
M  V30 61 1 35 56
M  V30 END BOND
M  V30 END CTAB
M  END
>  <Dataset>  (727) 
ChEMBL_Kinases

>  <Ligand_Instance>  (727) 
nan

>  <PDB_ID>  (727) 
nan

>  <Standardized_SMILES>  (727) 
CCOC(=O)c1[nH]cc2c1NC1=C(C(=O)CCC1)C2c1ccc(Sc2nc3cc(F)c(F)cc3[nH]2)o1

>  <Name>  (727) 
nan

>  <Pocket>  (727) 
nan

>  <ATP_Site>  (727) 
nan

>  <Peripheral>  (727) 
nan

>  <Num_H_Atoms_ProtBoundConf>  (727) 
nan

>  <Num_Resolved_Atoms>  (727) 
nan

>  <Num_Not_Resolved_Atoms>  (727) 
nan

$$$$
CHEMBL3393477
     RDKit          3D

  0  0  0  0  0  0  0  0  0  0999 V3000
M  V30 BEGIN CTAB
M  V30 COUNTS 56 61 0 0 0
M  V30 BEGIN ATOM
M  V30 1 C 5.426634 0.851695 4.726795 0
M  V30 2 C 5.399683 0.296046 3.317797 0
M  V30 3 O 4.136505 -0.206837 2.962561 0
M  V30 4 C 2.966975 0.532449 2.929129 0
M  V30 5 O 3.035970 1.750867 3.240587 0
M  V30 6 C 1.733123 -0.145597 2.536315 0
M  V30 7 N 1.575378 -1.442423 2.189344 0
M  V30 8 C 0.277601 -1.664694 1.896542 0
M  V30 9 C -0.369152 -0.469799 2.070795 0
M  V30 10 C 0.515125 0.500072 2.470998 0
M  V30 11 N -0.012804 1.800432 2.692923 0
M  V30 12 C -1.390888 2.094172 2.511896 0
M  V30 13 C -2.207062 1.123821 2.124082 0
M  V30 14 C -3.600553 1.526767 1.967004 0
M  V30 15 O -4.544659 0.684297 2.065875 0
M  V30 16 C -4.119250 2.891478 1.684976 0
M  V30 17 C -2.938569 3.837981 1.674718 0
M  V30 18 C -1.943399 3.451592 2.743298 0
M  V30 19 C -1.843514 -0.264062 1.850518 0
M  V30 20 C -2.236634 -0.735055 0.509845 0
M  V30 21 C -2.199837 0.136427 -0.558166 0
M  V30 22 C -2.614424 -0.553850 -1.692838 0
M  V30 23 C -2.886317 -1.834794 -1.242239 0
M  V30 24 S -3.464774 -3.171260 -2.286844 0
M  V30 25 C -2.025231 -4.036471 -2.922937 0
M  V30 26 N -1.317321 -5.093682 -2.439243 0
M  V30 27 C -0.312151 -5.346057 -3.326902 0
M  V30 28 C 0.663110 -6.319545 -3.269496 0
M  V30 29 C 1.606611 -6.402562 -4.296709 0
M  V30 30 C 1.530890 -5.510140 -5.331044 0
M  V30 31 F 2.424770 -5.543979 -6.360737 0
M  V30 32 C 0.530606 -4.543250 -5.350106 0
M  V30 33 F 0.477898 -3.672034 -6.385298 0
M  V30 34 C -0.416602 -4.431848 -4.354238 0
M  V30 35 N -1.472753 -3.637806 -4.088357 0
M  V30 36 O -2.652768 -1.883088 0.027528 0
M  V30 37 H 4.825064 0.202739 5.385056 0
M  V30 38 H 5.075055 1.913809 4.752432 0
M  V30 39 H 6.476696 0.769633 5.100844 0
M  V30 40 H 6.110092 -0.551828 3.302943 0
M  V30 41 H 5.784499 1.032738 2.585430 0
M  V30 42 H 2.396512 -2.104205 2.177838 0
M  V30 43 H -0.071784 -2.660719 1.588143 0
M  V30 44 H 0.662452 2.539517 2.998153 0
M  V30 45 H -4.797381 3.166101 2.525098 0
M  V30 46 H -4.647963 2.918841 0.711251 0
M  V30 47 H -2.517989 3.834341 0.669193 0
M  V30 48 H -3.336308 4.835682 1.878829 0
M  V30 49 H -2.424286 3.554383 3.732966 0
M  V30 50 H -1.096699 4.190783 2.686238 0
M  V30 51 H -2.346681 -0.911682 2.602394 0
M  V30 52 H -1.917203 1.176841 -0.606598 0
M  V30 53 H -2.720659 -0.234574 -2.699278 0
M  V30 54 H 0.735996 -7.035791 -2.453872 0
M  V30 55 H 2.403369 -7.134156 -4.330146 0
M  V30 56 H -1.701497 -2.877584 -4.772438 0
M  V30 END ATOM
M  V30 BEGIN BOND
M  V30 1 1 1 2
M  V30 2 1 2 3
M  V30 3 1 3 4
M  V30 4 2 4 5
M  V30 5 1 4 6
M  V30 6 1 6 7
M  V30 7 1 7 8
M  V30 8 2 8 9
M  V30 9 1 9 10
M  V30 10 1 10 11
M  V30 11 1 11 12
M  V30 12 2 12 13
M  V30 13 1 13 14
M  V30 14 2 14 15
M  V30 15 1 14 16
M  V30 16 1 16 17
M  V30 17 1 17 18
M  V30 18 1 13 19
M  V30 19 1 19 20
M  V30 20 2 20 21
M  V30 21 1 21 22
M  V30 22 2 22 23
M  V30 23 1 23 24
M  V30 24 1 24 25
M  V30 25 2 25 26
M  V30 26 1 26 27
M  V30 27 2 27 28
M  V30 28 1 28 29
M  V30 29 2 29 30
M  V30 30 1 30 31
M  V30 31 1 30 32
M  V30 32 1 32 33
M  V30 33 2 32 34
M  V30 34 1 34 35
M  V30 35 1 23 36
M  V30 36 2 10 6
M  V30 37 1 18 12
M  V30 38 1 36 20
M  V30 39 1 19 9
M  V30 40 1 35 25
M  V30 41 1 34 27
M  V30 42 1 1 37
M  V30 43 1 1 38
M  V30 44 1 1 39
M  V30 45 1 2 40
M  V30 46 1 2 41
M  V30 47 1 7 42
M  V30 48 1 8 43
M  V30 49 1 11 44
M  V30 50 1 16 45
M  V30 51 1 16 46
M  V30 52 1 17 47
M  V30 53 1 17 48
M  V30 54 1 18 49
M  V30 55 1 18 50
M  V30 56 1 19 51
M  V30 57 1 21 52
M  V30 58 1 22 53
M  V30 59 1 28 54
M  V30 60 1 29 55
M  V30 61 1 35 56
M  V30 END BOND
M  V30 END CTAB
M  END
>  <Dataset>  (728) 
ChEMBL_Kinases

>  <Ligand_Instance>  (728) 
nan

>  <PDB_ID>  (728) 
nan

>  <Standardized_SMILES>  (728) 
CCOC(=O)c1[nH]cc2c1NC1=C(C(=O)CCC1)C2c1ccc(Sc2nc3ccc(F)c(F)c3[nH]2)o1

>  <Name>  (728) 
nan

>  <Pocket>  (728) 
nan

>  <ATP_Site>  (728) 
nan

>  <Peripheral>  (728) 
nan

>  <Num_H_Atoms_ProtBoundConf>  (728) 
nan

>  <Num_Resolved_Atoms>  (728) 
nan

>  <Num_Not_Resolved_Atoms>  (728) 
nan

$$$$
CHEMBL3393478
     RDKit          3D

  0  0  0  0  0  0  0  0  0  0999 V3000
M  V30 BEGIN CTAB
M  V30 COUNTS 56 61 0 0 0
M  V30 BEGIN ATOM
M  V30 1 C 4.275783 1.266173 5.121810 0
M  V30 2 C 3.665482 -0.041946 4.667289 0
M  V30 3 O 2.557362 0.279156 3.828793 0
M  V30 4 C 2.803254 1.018913 2.679977 0
M  V30 5 O 3.991114 1.393517 2.395673 0
M  V30 6 C 1.741849 1.396989 1.760785 0
M  V30 7 N 1.895776 2.101900 0.643560 0
M  V30 8 C 0.681890 2.250468 0.059519 0
M  V30 9 C -0.297822 1.617749 0.826956 0
M  V30 10 C 0.403166 1.090085 1.891539 0
M  V30 11 N -0.379388 0.378956 2.843212 0
M  V30 12 C -1.786642 0.226491 2.700609 0
M  V30 13 C -2.405823 0.755099 1.657345 0
M  V30 14 C -3.849638 0.565258 1.566046 0
M  V30 15 O -4.454542 0.638138 0.477993 0
M  V30 16 C -4.615515 0.273996 2.830133 0
M  V30 17 C -3.881988 -0.909865 3.453646 0
M  V30 18 C -2.472222 -0.538297 3.767730 0
M  V30 19 C -1.759010 1.524549 0.571690 0
M  V30 20 C -2.034284 0.783533 -0.703926 0
M  V30 21 C -2.145653 1.345214 -1.961368 0
M  V30 22 C -2.402145 0.297755 -2.842691 0
M  V30 23 C -2.433073 -0.848573 -2.071150 0
M  V30 24 S -2.727949 -2.521898 -2.680691 0
M  V30 25 C -1.178633 -3.318261 -3.134075 0
M  V30 26 N -0.398120 -4.056061 -2.318719 0
M  V30 27 C 0.689432 -4.508369 -2.967834 0
M  V30 28 C 1.800745 -5.275986 -2.684061 0
M  V30 29 F 1.896468 -5.748805 -1.398518 0
M  V30 30 C 2.780718 -5.573974 -3.608745 0
M  V30 31 F 3.858078 -6.341178 -3.262185 0
M  V30 32 C 2.628465 -5.065175 -4.899204 0
M  V30 33 F 3.578922 -5.343463 -5.829283 0
M  V30 34 C 1.521566 -4.283535 -5.234779 0
M  V30 35 C 0.583719 -4.027115 -4.260673 0
M  V30 36 N -0.544846 -3.317519 -4.331989 0
M  V30 37 O -2.209824 -0.513490 -0.807822 0
M  V30 38 H 5.369303 1.306421 4.857444 0
M  V30 39 H 3.733259 2.154645 4.693874 0
M  V30 40 H 4.218137 1.385068 6.218914 0
M  V30 41 H 4.399268 -0.699722 4.162579 0
M  V30 42 H 3.213512 -0.525344 5.564338 0
M  V30 43 H 2.791544 2.491577 0.252684 0
M  V30 44 H 0.521786 2.791066 -0.875090 0
M  V30 45 H 0.132864 -0.031802 3.662571 0
M  V30 46 H -5.659517 0.050359 2.622224 0
M  V30 47 H -4.460736 1.146440 3.494463 0
M  V30 48 H -3.936845 -1.783255 2.769898 0
M  V30 49 H -4.366550 -1.226260 4.399351 0
M  V30 50 H -2.438347 0.028929 4.728159 0
M  V30 51 H -1.881298 -1.482118 3.927867 0
M  V30 52 H -2.219327 2.530177 0.444781 0
M  V30 53 H -2.054852 2.405403 -2.242603 0
M  V30 54 H -2.549668 0.370029 -3.930240 0
M  V30 55 H 1.422255 -3.895648 -6.250183 0
M  V30 56 H -0.987951 -2.792260 -5.124781 0
M  V30 END ATOM
M  V30 BEGIN BOND
M  V30 1 1 1 2
M  V30 2 1 2 3
M  V30 3 1 3 4
M  V30 4 2 4 5
M  V30 5 1 4 6
M  V30 6 1 6 7
M  V30 7 1 7 8
M  V30 8 2 8 9
M  V30 9 1 9 10
M  V30 10 1 10 11
M  V30 11 1 11 12
M  V30 12 2 12 13
M  V30 13 1 13 14
M  V30 14 2 14 15
M  V30 15 1 14 16
M  V30 16 1 16 17
M  V30 17 1 17 18
M  V30 18 1 13 19
M  V30 19 1 19 20
M  V30 20 2 20 21
M  V30 21 1 21 22
M  V30 22 2 22 23
M  V30 23 1 23 24
M  V30 24 1 24 25
M  V30 25 2 25 26
M  V30 26 1 26 27
M  V30 27 2 27 28
M  V30 28 1 28 29
M  V30 29 1 28 30
M  V30 30 1 30 31
M  V30 31 2 30 32
M  V30 32 1 32 33
M  V30 33 1 32 34
M  V30 34 2 34 35
M  V30 35 1 35 36
M  V30 36 1 23 37
M  V30 37 2 10 6
M  V30 38 1 18 12
M  V30 39 1 37 20
M  V30 40 1 19 9
M  V30 41 1 36 25
M  V30 42 1 35 27
M  V30 43 1 1 38
M  V30 44 1 1 39
M  V30 45 1 1 40
M  V30 46 1 2 41
M  V30 47 1 2 42
M  V30 48 1 7 43
M  V30 49 1 8 44
M  V30 50 1 11 45
M  V30 51 1 16 46
M  V30 52 1 16 47
M  V30 53 1 17 48
M  V30 54 1 17 49
M  V30 55 1 18 50
M  V30 56 1 18 51
M  V30 57 1 19 52
M  V30 58 1 21 53
M  V30 59 1 22 54
M  V30 60 1 34 55
M  V30 61 1 36 56
M  V30 END BOND
M  V30 END CTAB
M  END
>  <Dataset>  (729) 
ChEMBL_Kinases

>  <Ligand_Instance>  (729) 
nan

>  <PDB_ID>  (729) 
nan

>  <Standardized_SMILES>  (729) 
CCOC(=O)c1[nH]cc2c1NC1=C(C(=O)CCC1)C2c1ccc(Sc2nc3c(F)c(F)c(F)cc3[nH]2)o1

>  <Name>  (729) 
nan

>  <Pocket>  (729) 
nan

>  <ATP_Site>  (729) 
nan

>  <Peripheral>  (729) 
nan

>  <Num_H_Atoms_ProtBoundConf>  (729) 
nan

>  <Num_Resolved_Atoms>  (729) 
nan

>  <Num_Not_Resolved_Atoms>  (729) 
nan

$$$$
CHEMBL3393479
     RDKit          3D

  0  0  0  0  0  0  0  0  0  0999 V3000
M  V30 BEGIN CTAB
M  V30 COUNTS 56 61 0 0 0
M  V30 BEGIN ATOM
M  V30 1 C 0.615129 -0.235531 6.743608 0
M  V30 2 C 1.765438 -1.172664 6.400926 0
M  V30 3 O 1.955111 -1.077193 5.002892 0
M  V30 4 C 2.907160 -1.784223 4.304603 0
M  V30 5 O 3.581488 -2.518674 5.070333 0
M  V30 6 C 3.100327 -1.689229 2.863973 0
M  V30 7 N 4.009205 -2.356718 2.135827 0
M  V30 8 C 3.846507 -1.974375 0.834022 0
M  V30 9 C 2.807636 -1.046729 0.766449 0
M  V30 10 C 2.338547 -0.870211 2.061225 0
M  V30 11 N 1.274787 0.056496 2.161595 0
M  V30 12 C 0.739235 0.743506 1.023836 0
M  V30 13 C 1.227790 0.530574 -0.180381 0
M  V30 14 C 0.605634 1.287058 -1.278656 0
M  V30 15 O 1.280514 1.565250 -2.317921 0
M  V30 16 C -0.800691 1.676873 -1.080561 0
M  V30 17 C -1.043500 2.311433 0.267519 0
M  V30 18 C -0.355060 1.647657 1.408155 0
M  V30 19 C 2.355160 -0.415591 -0.498097 0
M  V30 20 C 1.838925 -1.487734 -1.421251 0
M  V30 21 C 2.732335 -2.299434 -2.114407 0
M  V30 22 C 2.036854 -3.209690 -2.900243 0
M  V30 23 C 0.699103 -2.886031 -2.629143 0
M  V30 24 S -0.777155 -3.669497 -3.311928 0
M  V30 25 C -2.258578 -2.862766 -2.721383 0
M  V30 26 N -3.141246 -2.954234 -1.686958 0
M  V30 27 C -4.088023 -1.984184 -1.849932 0
M  V30 28 C -5.185823 -1.656918 -1.086774 0
M  V30 29 C -6.050669 -0.613964 -1.420277 0
M  V30 30 C -5.752958 0.088600 -2.570040 0
M  V30 31 C -4.649425 -0.227730 -3.352515 0
M  V30 32 Cl -4.288745 0.681969 -4.814151 0
M  V30 33 C -3.788059 -1.269743 -3.016030 0
M  V30 34 N -2.661263 -1.834592 -3.524768 0
M  V30 35 O 0.671879 -1.904502 -1.785566 0
M  V30 36 H -0.143913 -0.343129 5.914223 0
M  V30 37 H 0.152261 -0.490881 7.720766 0
M  V30 38 H 0.992664 0.798133 6.679770 0
M  V30 39 H 2.653754 -0.922533 6.987957 0
M  V30 40 H 1.407958 -2.211126 6.655125 0
M  V30 41 H 4.680101 -3.027252 2.576656 0
M  V30 42 H 4.533364 -2.448517 0.123449 0
M  V30 43 H 0.940430 0.168266 3.165783 0
M  V30 44 H -1.209340 2.328985 -1.877690 0
M  V30 45 H -1.422911 0.737303 -1.143768 0
M  V30 46 H -0.765953 3.398855 0.224272 0
M  V30 47 H -2.148625 2.308767 0.474324 0
M  V30 48 H 0.125353 2.446686 2.047237 0
M  V30 49 H -1.071792 1.148201 2.125304 0
M  V30 50 H 3.193654 0.142449 -0.919951 0
M  V30 51 H 3.831975 -2.373723 -2.170317 0
M  V30 52 H 2.295053 -4.002970 -3.578079 0
M  V30 53 H -5.365623 -2.242491 -0.202912 0
M  V30 54 H -6.911043 -0.349653 -0.828758 0
M  V30 55 H -6.367467 0.928226 -2.921931 0
M  V30 56 H -2.323964 -1.386720 -4.412594 0
M  V30 END ATOM
M  V30 BEGIN BOND
M  V30 1 1 1 2
M  V30 2 1 2 3
M  V30 3 1 3 4
M  V30 4 2 4 5
M  V30 5 1 4 6
M  V30 6 1 6 7
M  V30 7 1 7 8
M  V30 8 2 8 9
M  V30 9 1 9 10
M  V30 10 1 10 11
M  V30 11 1 11 12
M  V30 12 2 12 13
M  V30 13 1 13 14
M  V30 14 2 14 15
M  V30 15 1 14 16
M  V30 16 1 16 17
M  V30 17 1 17 18
M  V30 18 1 13 19
M  V30 19 1 19 20
M  V30 20 2 20 21
M  V30 21 1 21 22
M  V30 22 2 22 23
M  V30 23 1 23 24
M  V30 24 1 24 25
M  V30 25 2 25 26
M  V30 26 1 26 27
M  V30 27 2 27 28
M  V30 28 1 28 29
M  V30 29 2 29 30
M  V30 30 1 30 31
M  V30 31 1 31 32
M  V30 32 2 31 33
M  V30 33 1 33 34
M  V30 34 1 23 35
M  V30 35 2 10 6
M  V30 36 1 18 12
M  V30 37 1 35 20
M  V30 38 1 19 9
M  V30 39 1 34 25
M  V30 40 1 33 27
M  V30 41 1 1 36
M  V30 42 1 1 37
M  V30 43 1 1 38
M  V30 44 1 2 39
M  V30 45 1 2 40
M  V30 46 1 7 41
M  V30 47 1 8 42
M  V30 48 1 11 43
M  V30 49 1 16 44
M  V30 50 1 16 45
M  V30 51 1 17 46
M  V30 52 1 17 47
M  V30 53 1 18 48
M  V30 54 1 18 49
M  V30 55 1 19 50
M  V30 56 1 21 51
M  V30 57 1 22 52
M  V30 58 1 28 53
M  V30 59 1 29 54
M  V30 60 1 30 55
M  V30 61 1 34 56
M  V30 END BOND
M  V30 END CTAB
M  END
>  <Dataset>  (730) 
ChEMBL_Kinases

>  <Ligand_Instance>  (730) 
nan

>  <PDB_ID>  (730) 
nan

>  <Standardized_SMILES>  (730) 
CCOC(=O)c1[nH]cc2c1NC1=C(C(=O)CCC1)C2c1ccc(Sc2nc3cccc(Cl)c3[nH]2)o1

>  <Name>  (730) 
nan

>  <Pocket>  (730) 
nan

>  <ATP_Site>  (730) 
nan

>  <Peripheral>  (730) 
nan

>  <Num_H_Atoms_ProtBoundConf>  (730) 
nan

>  <Num_Resolved_Atoms>  (730) 
nan

>  <Num_Not_Resolved_Atoms>  (730) 
nan

$$$$
CHEMBL3393469
     RDKit          3D

  0  0  0  0  0  0  0  0  0  0999 V3000
M  V30 BEGIN CTAB
M  V30 COUNTS 56 61 0 0 0
M  V30 BEGIN ATOM
M  V30 1 C 5.607278 0.885844 5.220540 0
M  V30 2 C 6.156194 0.620313 3.843874 0
M  V30 3 O 5.163119 0.014144 3.026310 0
M  V30 4 C 3.963692 0.618357 2.741923 0
M  V30 5 O 3.869150 1.747550 3.288499 0
M  V30 6 C 2.932409 0.016773 1.907613 0
M  V30 7 N 2.869339 -1.167631 1.252841 0
M  V30 8 C 1.689930 -1.273394 0.604983 0
M  V30 9 C 0.956713 -0.135731 0.835313 0
M  V30 10 C 1.728829 0.668384 1.646048 0
M  V30 11 N 1.182783 1.905961 2.022869 0
M  V30 12 C -0.104671 2.356610 1.613411 0
M  V30 13 C -0.811710 1.554291 0.836267 0
M  V30 14 C -2.135112 1.977884 0.394510 0
M  V30 15 O -2.750051 1.385289 -0.505714 0
M  V30 16 C -2.791856 3.152682 1.024434 0
M  V30 17 C -1.707964 4.208746 1.223304 0
M  V30 18 C -0.573439 3.685302 2.077002 0
M  V30 19 C -0.378111 0.224314 0.354488 0
M  V30 20 C -1.381726 -0.822305 0.681881 0
M  V30 21 C -2.090184 -0.809949 1.842854 0
M  V30 22 C -2.917091 -1.930966 1.792428 0
M  V30 23 C -2.653586 -2.559298 0.588503 0
M  V30 24 S -3.524036 -4.055748 0.143755 0
M  V30 25 C -2.995976 -4.657888 -1.455732 0
M  V30 26 N -2.030274 -5.501200 -1.870804 0
M  V30 27 C -2.064311 -5.610348 -3.208539 0
M  V30 28 C -1.309265 -6.329077 -4.111570 0
M  V30 29 C -1.613479 -6.215732 -5.464128 0
M  V30 30 C -2.638725 -5.413550 -5.930213 0
M  V30 31 C -3.380329 -4.703929 -5.007523 0
M  V30 32 C -3.106356 -4.790631 -3.639595 0
M  V30 33 N -3.675781 -4.206219 -2.546103 0
M  V30 34 O -1.726368 -1.869419 -0.056972 0
M  V30 35 H 6.146936 0.263394 5.958579 0
M  V30 36 H 4.527842 0.606884 5.300471 0
M  V30 37 H 5.731239 1.952744 5.498209 0
M  V30 38 H 6.484521 1.558973 3.338820 0
M  V30 39 H 6.995966 -0.111683 3.899638 0
M  V30 40 H 3.659336 -1.856790 1.286962 0
M  V30 41 H 1.483690 -2.177432 0.025807 0
M  V30 42 H 1.759743 2.522728 2.637088 0
M  V30 43 H -3.558516 3.607915 0.371780 0
M  V30 44 H -3.195559 2.862775 2.023721 0
M  V30 45 H -2.125887 5.114131 1.706528 0
M  V30 46 H -1.316756 4.503105 0.235344 0
M  V30 47 H 0.238280 4.435636 2.025678 0
M  V30 48 H -0.870158 3.601817 3.142507 0
M  V30 49 H -0.308721 0.302376 -0.768903 0
M  V30 50 H -2.049613 -0.101495 2.654264 0
M  V30 51 H -3.621046 -2.210043 2.585408 0
M  V30 52 H -0.513706 -6.951735 -3.751837 0
M  V30 53 H -1.047333 -6.761482 -6.207879 0
M  V30 54 H -2.876663 -5.324507 -6.984037 0
M  V30 55 H -4.194245 -4.064418 -5.351239 0
M  V30 56 H -4.484881 -3.548186 -2.670819 0
M  V30 END ATOM
M  V30 BEGIN BOND
M  V30 1 1 1 2
M  V30 2 1 2 3
M  V30 3 1 3 4
M  V30 4 2 4 5
M  V30 5 1 4 6
M  V30 6 1 6 7
M  V30 7 1 7 8
M  V30 8 2 8 9
M  V30 9 1 9 10
M  V30 10 1 10 11
M  V30 11 1 11 12
M  V30 12 2 12 13
M  V30 13 1 13 14
M  V30 14 2 14 15
M  V30 15 1 14 16
M  V30 16 1 16 17
M  V30 17 1 17 18
M  V30 18 1 13 19
M  V30 19 1 19 20
M  V30 20 2 20 21
M  V30 21 1 21 22
M  V30 22 2 22 23
M  V30 23 1 23 24
M  V30 24 1 24 25
M  V30 25 2 25 26
M  V30 26 1 26 27
M  V30 27 2 27 28
M  V30 28 1 28 29
M  V30 29 2 29 30
M  V30 30 1 30 31
M  V30 31 2 31 32
M  V30 32 1 32 33
M  V30 33 1 23 34
M  V30 34 2 10 6
M  V30 35 1 18 12
M  V30 36 1 34 20
M  V30 37 1 19 9
M  V30 38 1 33 25
M  V30 39 1 32 27
M  V30 40 1 1 35
M  V30 41 1 1 36
M  V30 42 1 1 37
M  V30 43 1 2 38
M  V30 44 1 2 39
M  V30 45 1 7 40
M  V30 46 1 8 41
M  V30 47 1 11 42
M  V30 48 1 16 43
M  V30 49 1 16 44
M  V30 50 1 17 45
M  V30 51 1 17 46
M  V30 52 1 18 47
M  V30 53 1 18 48
M  V30 54 1 19 49
M  V30 55 1 21 50
M  V30 56 1 22 51
M  V30 57 1 28 52
M  V30 58 1 29 53
M  V30 59 1 30 54
M  V30 60 1 31 55
M  V30 61 1 33 56
M  V30 END BOND
M  V30 END CTAB
M  END
>  <Dataset>  (731) 
ChEMBL_Kinases

>  <Ligand_Instance>  (731) 
nan

>  <PDB_ID>  (731) 
nan

>  <Standardized_SMILES>  (731) 
CCOC(=O)c1[nH]cc2c1NC1=C(C(=O)CCC1)C2c1ccc(Sc2nc3ccccc3[nH]2)o1

>  <Name>  (731) 
nan

>  <Pocket>  (731) 
nan

>  <ATP_Site>  (731) 
nan

>  <Peripheral>  (731) 
nan

>  <Num_H_Atoms_ProtBoundConf>  (731) 
nan

>  <Num_Resolved_Atoms>  (731) 
nan

>  <Num_Not_Resolved_Atoms>  (731) 
nan

$$$$
CHEMBL3675349
     RDKit          3D

  0  0  0  0  0  0  0  0  0  0999 V3000
M  V30 BEGIN CTAB
M  V30 COUNTS 36 38 0 0 0
M  V30 BEGIN ATOM
M  V30 1 N -2.506016 -4.929094 3.478798 0
M  V30 2 C -1.118580 -4.654848 3.461532 0
M  V30 3 O -0.678179 -5.435339 4.317726 0
M  V30 4 C -0.273541 -3.743988 2.711740 0
M  V30 5 C 1.066746 -3.809582 3.013121 0
M  V30 6 C 1.926092 -2.973135 2.339235 0
M  V30 7 C 1.449282 -2.105776 1.398946 0
M  V30 8 C 0.114302 -1.999934 1.059141 0
M  V30 9 C -0.449730 -1.137236 0.110400 0
M  V30 10 N 0.544821 -0.333906 -0.509480 0
M  V30 11 C 1.528132 0.460363 -1.122372 0
M  V30 12 C 1.376892 1.957413 -0.918395 0
M  V30 13 C 0.155254 2.538664 -1.549826 0
M  V30 14 C 0.560018 4.013247 -1.643742 0
M  V30 15 C 2.061888 3.935292 -1.405051 0
M  V30 16 O 2.410121 2.590081 -1.578402 0
M  V30 17 N -1.771833 -1.186887 -0.072272 0
M  V30 18 C -2.574997 -2.004010 0.592292 0
M  V30 19 N -1.993136 -2.801021 1.479652 0
M  V30 20 C -0.702329 -2.859727 1.763445 0
M  V30 21 H -2.929730 -4.025547 3.272100 0
M  V30 22 H -3.065717 -4.039211 3.269310 0
M  V30 23 H 1.468117 -4.487180 3.752328 0
M  V30 24 H 2.987563 -2.993247 2.546965 0
M  V30 25 H 2.146330 -1.470159 0.894072 0
M  V30 26 H -0.122745 0.202291 -1.161190 0
M  V30 27 H 1.742361 0.199173 -2.184343 0
M  V30 28 H 2.546054 0.249533 -0.629474 0
M  V30 29 H 1.348563 2.180442 0.151167 0
M  V30 30 H -0.022905 2.205639 -2.603703 0
M  V30 31 H -0.762616 2.479084 -0.948768 0
M  V30 32 H 0.323819 4.459976 -2.609537 0
M  V30 33 H 0.139063 4.540742 -0.774616 0
M  V30 34 H 2.325799 4.196560 -0.345004 0
M  V30 35 H 2.579850 4.595312 -2.108541 0
M  V30 36 H -3.615349 -1.940858 0.347733 0
M  V30 END ATOM
M  V30 BEGIN BOND
M  V30 1 1 1 2
M  V30 2 2 2 3
M  V30 3 1 2 4
M  V30 4 2 4 5
M  V30 5 1 5 6
M  V30 6 2 6 7
M  V30 7 1 7 8
M  V30 8 2 8 9
M  V30 9 1 9 10
M  V30 10 1 10 11
M  V30 11 1 11 12
M  V30 12 1 12 13
M  V30 13 1 13 14
M  V30 14 1 14 15
M  V30 15 1 15 16
M  V30 16 1 9 17
M  V30 17 2 17 18
M  V30 18 1 18 19
M  V30 19 2 19 20
M  V30 20 1 20 4
M  V30 21 1 20 8
M  V30 22 1 16 12
M  V30 23 1 1 21
M  V30 24 1 1 22
M  V30 25 1 5 23
M  V30 26 1 6 24
M  V30 27 1 7 25
M  V30 28 1 10 26
M  V30 29 1 11 27
M  V30 30 1 11 28
M  V30 31 1 12 29
M  V30 32 1 13 30
M  V30 33 1 13 31
M  V30 34 1 14 32
M  V30 35 1 14 33
M  V30 36 1 15 34
M  V30 37 1 15 35
M  V30 38 1 18 36
M  V30 END BOND
M  V30 END CTAB
M  END
>  <Dataset>  (732) 
ChEMBL_Kinases

>  <Ligand_Instance>  (732) 
nan

>  <PDB_ID>  (732) 
nan

>  <Standardized_SMILES>  (732) 
NC(=O)c1cccc2c(NCC3CCCO3)ncnc12

>  <Name>  (732) 
nan

>  <Pocket>  (732) 
nan

>  <ATP_Site>  (732) 
nan

>  <Peripheral>  (732) 
nan

>  <Num_H_Atoms_ProtBoundConf>  (732) 
nan

>  <Num_Resolved_Atoms>  (732) 
nan

>  <Num_Not_Resolved_Atoms>  (732) 
nan

$$$$
CHEMBL4167646
     RDKit          3D

  0  0  0  0  0  0  0  0  0  0999 V3000
M  V30 BEGIN CTAB
M  V30 COUNTS 54 56 0 0 0
M  V30 BEGIN ATOM
M  V30 1 C 0.519712 -6.519880 4.781351 0
M  V30 2 O 0.217360 -5.248856 4.263281 0
M  V30 3 C 0.876178 -4.790735 3.145489 0
M  V30 4 C 0.594847 -3.551686 2.624121 0
M  V30 5 C 1.282758 -3.143004 1.505335 0
M  V30 6 C 2.248017 -3.863917 0.836792 0
M  V30 7 N 2.936343 -3.405840 -0.315546 0
M  V30 8 C 2.830394 -2.186407 -1.027595 0
M  V30 9 N 3.612310 -2.008342 -2.100733 0
M  V30 10 C 3.579977 -0.889214 -2.831188 0
M  V30 11 C 2.693266 0.067358 -2.410978 0
M  V30 12 C 1.874606 -0.035514 -1.345096 0
M  V30 13 C 0.882294 0.888822 -0.779622 0
M  V30 14 S -0.095278 0.567439 0.651848 0
M  V30 15 C -1.018631 2.218295 0.610540 0
M  V30 16 S -2.255142 2.724804 1.771565 0
M  V30 17 C -3.883044 2.200279 1.217403 0
M  V30 18 C -4.258746 2.929146 -0.051177 0
M  V30 19 N -4.294584 4.347066 0.113595 0
M  V30 20 C -4.662078 5.030499 -1.110215 0
M  V30 21 C -5.045660 4.814795 1.243714 0
M  V30 22 N -0.510780 2.727126 -0.377023 0
M  V30 23 C 0.416229 2.167972 -1.118479 0
M  V30 24 C 0.964683 2.884383 -2.304164 0
M  V30 25 N 2.006142 -1.199011 -0.704642 0
M  V30 26 C 2.499251 -5.118609 1.405550 0
M  V30 27 O 3.463640 -5.946857 0.812614 0
M  V30 28 C 3.749111 -7.220553 1.354124 0
M  V30 29 C 1.827950 -5.549942 2.519830 0
M  V30 30 H 1.483777 -6.551872 5.319214 0
M  V30 31 H -0.272517 -6.802566 5.524335 0
M  V30 32 H 0.517973 -7.292650 3.988115 0
M  V30 33 H -0.155665 -2.942233 3.110040 0
M  V30 34 H 1.001540 -2.161994 1.162906 0
M  V30 35 H 3.639556 -4.118607 -0.678162 0
M  V30 36 H 4.188965 -0.707578 -3.696457 0
M  V30 37 H 2.632679 0.977842 -2.960416 0
M  V30 38 H -4.671558 2.360332 1.967652 0
M  V30 39 H -3.810973 1.109509 0.939439 0
M  V30 40 H -3.418884 2.716072 -0.773152 0
M  V30 41 H -5.170789 2.509617 -0.515811 0
M  V30 42 H -4.853082 6.094728 -0.899612 0
M  V30 43 H -3.800873 4.938416 -1.808070 0
M  V30 44 H -5.530299 4.518368 -1.578052 0
M  V30 45 H -4.718879 4.381039 2.194423 0
M  V30 46 H -6.142947 4.628534 1.139025 0
M  V30 47 H -4.956681 5.935155 1.258249 0
M  V30 48 H 0.457390 3.858536 -2.501120 0
M  V30 49 H 2.036180 3.095296 -2.248278 0
M  V30 50 H 0.763755 2.295915 -3.238397 0
M  V30 51 H 4.655019 -7.600273 0.805835 0
M  V30 52 H 2.895070 -7.908361 1.193161 0
M  V30 53 H 3.986299 -7.210043 2.427585 0
M  V30 54 H 2.084781 -6.536253 2.895552 0
M  V30 END ATOM
M  V30 BEGIN BOND
M  V30 1 1 1 2
M  V30 2 1 2 3
M  V30 3 2 3 4
M  V30 4 1 4 5
M  V30 5 2 5 6
M  V30 6 1 6 7
M  V30 7 1 7 8
M  V30 8 2 8 9
M  V30 9 1 9 10
M  V30 10 2 10 11
M  V30 11 1 11 12
M  V30 12 1 12 13
M  V30 13 1 13 14
M  V30 14 1 14 15
M  V30 15 1 15 16
M  V30 16 1 16 17
M  V30 17 1 17 18
M  V30 18 1 18 19
M  V30 19 1 19 20
M  V30 20 1 19 21
M  V30 21 2 15 22
M  V30 22 1 22 23
M  V30 23 1 23 24
M  V30 24 2 12 25
M  V30 25 1 6 26
M  V30 26 1 26 27
M  V30 27 1 27 28
M  V30 28 2 26 29
M  V30 29 1 29 3
M  V30 30 1 25 8
M  V30 31 2 23 13
M  V30 32 1 1 30
M  V30 33 1 1 31
M  V30 34 1 1 32
M  V30 35 1 4 33
M  V30 36 1 5 34
M  V30 37 1 7 35
M  V30 38 1 10 36
M  V30 39 1 11 37
M  V30 40 1 17 38
M  V30 41 1 17 39
M  V30 42 1 18 40
M  V30 43 1 18 41
M  V30 44 1 20 42
M  V30 45 1 20 43
M  V30 46 1 20 44
M  V30 47 1 21 45
M  V30 48 1 21 46
M  V30 49 1 21 47
M  V30 50 1 24 48
M  V30 51 1 24 49
M  V30 52 1 24 50
M  V30 53 1 28 51
M  V30 54 1 28 52
M  V30 55 1 28 53
M  V30 56 1 29 54
M  V30 END BOND
M  V30 END CTAB
M  END
>  <Dataset>  (733) 
ChEMBL_Kinases

>  <Ligand_Instance>  (733) 
nan

>  <PDB_ID>  (733) 
nan

>  <Standardized_SMILES>  (733) 
COc1ccc(Nc2nccc(-c3sc(SCCN(C)C)nc3C)n2)c(OC)c1

>  <Name>  (733) 
nan

>  <Pocket>  (733) 
nan

>  <ATP_Site>  (733) 
nan

>  <Peripheral>  (733) 
nan

>  <Num_H_Atoms_ProtBoundConf>  (733) 
nan

>  <Num_Resolved_Atoms>  (733) 
nan

>  <Num_Not_Resolved_Atoms>  (733) 
nan

$$$$
CHEMBL4167589
     RDKit          3D

  0  0  0  0  0  0  0  0  0  0999 V3000
M  V30 BEGIN CTAB
M  V30 COUNTS 51 53 0 0 0
M  V30 BEGIN ATOM
M  V30 1 C 1.667492 -5.308436 4.014221 0
M  V30 2 N 1.281093 -3.910699 4.006193 0
M  V30 3 C 0.933664 -3.262296 5.255465 0
M  V30 4 C 1.241379 -3.181743 2.786439 0
M  V30 5 C 0.871956 -1.848071 2.803348 0
M  V30 6 C 0.831862 -1.143697 1.625917 0
M  V30 7 C 1.140645 -1.679473 0.395655 0
M  V30 8 C 1.142121 -1.017157 -0.897878 0
M  V30 9 C 1.639199 0.180163 -1.139150 0
M  V30 10 C 2.307700 1.211990 -0.343032 0
M  V30 11 C 1.594369 2.452632 -0.854799 0
M  V30 12 C 2.353894 3.697708 -0.448110 0
M  V30 13 O 1.811612 4.821106 -1.057532 0
M  V30 14 C 0.174888 2.561204 -0.416433 0
M  V30 15 O -0.582980 1.411110 -0.716393 0
M  V30 16 C -1.915078 1.333825 -0.373837 0
M  V30 17 O -2.272551 2.391975 0.202157 0
M  V30 18 C -2.863728 0.284417 -0.575437 0
M  V30 19 C -4.141291 0.495722 -0.103547 0
M  V30 20 C -5.139768 -0.455359 -0.246508 0
M  V30 21 C -4.908873 -1.677425 -0.874587 0
M  V30 22 Cl -6.087868 -2.925472 -1.101006 0
M  V30 23 C -3.631528 -1.883077 -1.343640 0
M  V30 24 C -2.650874 -0.926610 -1.193107 0
M  V30 25 O 1.635301 2.251762 -2.250523 0
M  V30 26 C 1.611041 0.865946 -2.453150 0
M  V30 27 O 1.569993 0.311856 -3.608489 0
M  V30 28 C 1.508730 -3.028832 0.420472 0
M  V30 29 C 1.566417 -3.793446 1.588757 0
M  V30 30 H 1.455292 -5.801672 4.969901 0
M  V30 31 H 1.115801 -5.840236 3.204346 0
M  V30 32 H 2.744589 -5.445118 3.805663 0
M  V30 33 H 0.616982 -4.034331 6.016963 0
M  V30 34 H -0.006269 -2.654427 5.117952 0
M  V30 35 H 1.736099 -2.689401 5.715978 0
M  V30 36 H 0.603809 -1.305419 3.715995 0
M  V30 37 H 0.534898 -0.113095 1.637047 0
M  V30 38 H 0.690105 -1.567664 -1.736705 0
M  V30 39 H 3.374728 1.346631 -0.695892 0
M  V30 40 H 2.317580 1.096433 0.729558 0
M  V30 41 H 3.417040 3.637121 -0.725323 0
M  V30 42 H 2.195629 3.860786 0.654219 0
M  V30 43 H 0.973585 5.115718 -0.599235 0
M  V30 44 H -0.282965 3.392155 -1.003265 0
M  V30 45 H 0.075465 2.865525 0.646997 0
M  V30 46 H -4.486620 1.401285 0.412170 0
M  V30 47 H -6.150280 -0.311088 0.116405 0
M  V30 48 H -3.337969 -2.802499 -1.850393 0
M  V30 49 H -1.658775 -1.112622 -1.571999 0
M  V30 50 H 1.773561 -3.563683 -0.486806 0
M  V30 51 H 1.856602 -4.830730 1.549620 0
M  V30 END ATOM
M  V30 BEGIN BOND
M  V30 1 1 1 2
M  V30 2 1 2 3
M  V30 3 1 2 4
M  V30 4 2 4 5
M  V30 5 1 5 6
M  V30 6 2 6 7
M  V30 7 1 7 8
M  V30 8 2 8 9
M  V30 9 1 9 10
M  V30 10 1 10 11
M  V30 11 1 11 12
M  V30 12 1 12 13
M  V30 13 1 11 14
M  V30 14 1 14 15
M  V30 15 1 15 16
M  V30 16 2 16 17
M  V30 17 1 16 18
M  V30 18 2 18 19
M  V30 19 1 19 20
M  V30 20 2 20 21
M  V30 21 1 21 22
M  V30 22 1 21 23
M  V30 23 2 23 24
M  V30 24 1 11 25
M  V30 25 1 25 26
M  V30 26 2 26 27
M  V30 27 1 7 28
M  V30 28 2 28 29
M  V30 29 1 29 4
M  V30 30 1 26 9
M  V30 31 1 24 18
M  V30 32 1 1 30
M  V30 33 1 1 31
M  V30 34 1 1 32
M  V30 35 1 3 33
M  V30 36 1 3 34
M  V30 37 1 3 35
M  V30 38 1 5 36
M  V30 39 1 6 37
M  V30 40 1 8 38
M  V30 41 1 10 39
M  V30 42 1 10 40
M  V30 43 1 12 41
M  V30 44 1 12 42
M  V30 45 1 13 43
M  V30 46 1 14 44
M  V30 47 1 14 45
M  V30 48 1 19 46
M  V30 49 1 20 47
M  V30 50 1 23 48
M  V30 51 1 24 49
M  V30 52 1 28 50
M  V30 53 1 29 51
M  V30 END BOND
M  V30 END CTAB
M  END
>  <Dataset>  (734) 
ChEMBL_Kinases

>  <Ligand_Instance>  (734) 
nan

>  <PDB_ID>  (734) 
nan

>  <Standardized_SMILES>  (734) 
CN(C)c1ccc(/C=C2\CC(CO)(COC(=O)c3ccc(Cl)cc3)OC2=O)cc1

>  <Name>  (734) 
nan

>  <Pocket>  (734) 
nan

>  <ATP_Site>  (734) 
nan

>  <Peripheral>  (734) 
nan

>  <Num_H_Atoms_ProtBoundConf>  (734) 
nan

>  <Num_Resolved_Atoms>  (734) 
nan

>  <Num_Not_Resolved_Atoms>  (734) 
nan

$$$$
CHEMBL4167457
     RDKit          3D

  0  0  0  0  0  0  0  0  0  0999 V3000
M  V30 BEGIN CTAB
M  V30 COUNTS 51 53 0 0 0
M  V30 BEGIN ATOM
M  V30 1 C 0.305212 -3.941389 2.227423 0
M  V30 2 N -0.328555 -3.451423 1.002296 0
M  V30 3 N -0.215242 -2.244224 0.486407 0
M  V30 4 C -0.930530 -2.128300 -0.646755 0
M  V30 5 C -1.121357 -1.014760 -1.572914 0
M  V30 6 C -0.131086 -0.223089 -1.887675 0
M  V30 7 C 1.292972 -0.289945 -1.399057 0
M  V30 8 C 1.531657 1.223016 -1.258800 0
M  V30 9 C 2.942941 1.514949 -0.899271 0
M  V30 10 O 3.190310 2.866462 -0.969465 0
M  V30 11 C 0.533056 1.829991 -0.312290 0
M  V30 12 O 0.780377 1.515794 1.042827 0
M  V30 13 C -0.077333 2.009947 2.002901 0
M  V30 14 O -1.046095 2.716206 1.666802 0
M  V30 15 C 0.233950 1.648432 3.395751 0
M  V30 16 C 1.587502 2.190604 3.775167 0
M  V30 17 C 0.196258 0.133265 3.505682 0
M  V30 18 C -0.806185 2.229121 4.311895 0
M  V30 19 O 1.148141 1.627722 -2.561970 0
M  V30 20 C -0.072078 0.951540 -2.788539 0
M  V30 21 O -1.041028 1.169636 -3.572416 0
M  V30 22 C -1.530987 -3.354289 -0.846702 0
M  V30 23 C -2.367185 -3.915612 -1.779462 0
M  V30 24 C -2.820463 -5.215837 -1.721553 0
M  V30 25 C -2.410357 -6.020846 -0.653221 0
M  V30 26 C -1.565274 -5.503926 0.317992 0
M  V30 27 C -1.137712 -4.181464 0.209066 0
M  V30 28 H 1.179028 -4.568816 2.043253 0
M  V30 29 H -0.462221 -4.536152 2.802605 0
M  V30 30 H 0.577343 -3.105524 2.906507 0
M  V30 31 H -2.091783 -0.810694 -2.027094 0
M  V30 32 H 1.892301 -0.641691 -2.246264 0
M  V30 33 H 1.410116 -0.804719 -0.454017 0
M  V30 34 H 3.060899 1.236343 0.188980 0
M  V30 35 H 3.658614 0.900599 -1.445556 0
M  V30 36 H 3.943943 3.145212 -0.361919 0
M  V30 37 H -0.510269 1.545294 -0.545010 0
M  V30 38 H 0.598518 2.940274 -0.440640 0
M  V30 39 H 1.448623 3.288896 3.985288 0
M  V30 40 H 1.912812 1.730193 4.744032 0
M  V30 41 H 2.317102 2.023836 2.960613 0
M  V30 42 H -0.640553 -0.221054 2.891131 0
M  V30 43 H 0.070819 -0.227300 4.534826 0
M  V30 44 H 1.134113 -0.275336 3.051563 0
M  V30 45 H -0.703835 1.781108 5.324156 0
M  V30 46 H -0.673374 3.338861 4.384121 0
M  V30 47 H -1.835571 2.020385 3.932166 0
M  V30 48 H -2.675041 -3.265057 -2.606907 0
M  V30 49 H -3.483433 -5.574987 -2.508813 0
M  V30 50 H -2.764037 -7.051293 -0.597990 0
M  V30 51 H -1.257323 -6.136667 1.135510 0
M  V30 END ATOM
M  V30 BEGIN BOND
M  V30 1 1 1 2
M  V30 2 1 2 3
M  V30 3 2 3 4
M  V30 4 1 4 5
M  V30 5 2 5 6
M  V30 6 1 6 7
M  V30 7 1 7 8
M  V30 8 1 8 9
M  V30 9 1 9 10
M  V30 10 1 8 11
M  V30 11 1 11 12
M  V30 12 1 12 13
M  V30 13 2 13 14
M  V30 14 1 13 15
M  V30 15 1 15 16
M  V30 16 1 15 17
M  V30 17 1 15 18
M  V30 18 1 8 19
M  V30 19 1 19 20
M  V30 20 2 20 21
M  V30 21 1 4 22
M  V30 22 2 22 23
M  V30 23 1 23 24
M  V30 24 2 24 25
M  V30 25 1 25 26
M  V30 26 2 26 27
M  V30 27 1 27 2
M  V30 28 1 20 6
M  V30 29 1 27 22
M  V30 30 1 1 28
M  V30 31 1 1 29
M  V30 32 1 1 30
M  V30 33 1 5 31
M  V30 34 1 7 32
M  V30 35 1 7 33
M  V30 36 1 9 34
M  V30 37 1 9 35
M  V30 38 1 10 36
M  V30 39 1 11 37
M  V30 40 1 11 38
M  V30 41 1 16 39
M  V30 42 1 16 40
M  V30 43 1 16 41
M  V30 44 1 17 42
M  V30 45 1 17 43
M  V30 46 1 17 44
M  V30 47 1 18 45
M  V30 48 1 18 46
M  V30 49 1 18 47
M  V30 50 1 23 48
M  V30 51 1 24 49
M  V30 52 1 25 50
M  V30 53 1 26 51
M  V30 END BOND
M  V30 END CTAB
M  END
>  <Dataset>  (735) 
ChEMBL_Kinases

>  <Ligand_Instance>  (735) 
nan

>  <PDB_ID>  (735) 
nan

>  <Standardized_SMILES>  (735) 
Cn1nc(/C=C2\CC(CO)(COC(=O)C(C)(C)C)OC2=O)c2ccccc21

>  <Name>  (735) 
nan

>  <Pocket>  (735) 
nan

>  <ATP_Site>  (735) 
nan

>  <Peripheral>  (735) 
nan

>  <Num_H_Atoms_ProtBoundConf>  (735) 
nan

>  <Num_Resolved_Atoms>  (735) 
nan

>  <Num_Not_Resolved_Atoms>  (735) 
nan

$$$$
CHEMBL3675348
     RDKit          3D

  0  0  0  0  0  0  0  0  0  0999 V3000
M  V30 BEGIN CTAB
M  V30 COUNTS 39 42 0 0 0
M  V30 BEGIN ATOM
M  V30 1 N -4.152549 -3.063968 0.625416 0
M  V30 2 C -3.212388 -4.126367 0.585631 0
M  V30 3 O -3.566859 -5.350096 0.610112 0
M  V30 4 C -1.778973 -3.864700 0.513975 0
M  V30 5 C -0.890032 -4.906685 0.475204 0
M  V30 6 C 0.462217 -4.646112 0.407427 0
M  V30 7 C 0.885040 -3.336233 0.380371 0
M  V30 8 C 0.026077 -2.258635 0.417520 0
M  V30 9 C 0.551295 -0.983261 0.385925 0
M  V30 10 N 1.929751 -0.675279 0.318571 0
M  V30 11 C 2.342938 0.678459 0.290693 0
M  V30 12 C 1.856353 1.496891 -0.884755 0
M  V30 13 C 2.325643 2.881342 -0.404825 0
M  V30 14 C 1.812965 2.846514 1.013739 0
M  V30 15 C 1.362697 3.803262 1.926806 0
M  V30 16 C 0.961637 3.367984 3.173476 0
M  V30 17 C 0.983092 2.045392 3.559854 0
M  V30 18 C 1.427858 1.101554 2.657542 0
M  V30 19 C 1.836432 1.518287 1.396508 0
M  V30 20 N -0.374006 -0.015678 0.427234 0
M  V30 21 C -1.672943 -0.262253 0.492373 0
M  V30 22 N -2.174599 -1.523172 0.522698 0
M  V30 23 C -1.316774 -2.567247 0.485071 0
M  V30 24 H -4.611224 -3.163380 -0.325202 0
M  V30 25 H -4.618140 -3.151696 -0.318842 0
M  V30 26 H -1.207824 -5.953062 0.495842 0
M  V30 27 H 1.165536 -5.478593 0.376796 0
M  V30 28 H 1.946511 -3.208503 0.327685 0
M  V30 29 H 2.702988 -1.373448 0.285867 0
M  V30 30 H 3.444125 0.805120 0.302006 0
M  V30 31 H 0.752568 1.517400 -0.975562 0
M  V30 32 H 2.332308 1.210901 -1.843083 0
M  V30 33 H 3.422156 2.833042 -0.453663 0
M  V30 34 H 1.858418 3.694624 -0.981953 0
M  V30 35 H 1.355960 4.833878 1.598349 0
M  V30 36 H 0.626535 4.165087 3.824401 0
M  V30 37 H 0.649074 1.763709 4.570802 0
M  V30 38 H 1.441818 0.068950 2.966900 0
M  V30 39 H -2.298713 0.635170 0.519206 0
M  V30 END ATOM
M  V30 BEGIN BOND
M  V30 1 1 1 2
M  V30 2 2 2 3
M  V30 3 1 2 4
M  V30 4 2 4 5
M  V30 5 1 5 6
M  V30 6 2 6 7
M  V30 7 1 7 8
M  V30 8 2 8 9
M  V30 9 1 9 10
M  V30 10 1 10 11
M  V30 11 1 11 12
M  V30 12 1 12 13
M  V30 13 1 13 14
M  V30 14 2 14 15
M  V30 15 1 15 16
M  V30 16 2 16 17
M  V30 17 1 17 18
M  V30 18 2 18 19
M  V30 19 1 9 20
M  V30 20 2 20 21
M  V30 21 1 21 22
M  V30 22 2 22 23
M  V30 23 1 23 4
M  V30 24 1 23 8
M  V30 25 1 19 11
M  V30 26 1 19 14
M  V30 27 1 1 24
M  V30 28 1 1 25
M  V30 29 1 5 26
M  V30 30 1 6 27
M  V30 31 1 7 28
M  V30 32 1 10 29
M  V30 33 1 11 30
M  V30 34 1 12 31
M  V30 35 1 12 32
M  V30 36 1 13 33
M  V30 37 1 13 34
M  V30 38 1 15 35
M  V30 39 1 16 36
M  V30 40 1 17 37
M  V30 41 1 18 38
M  V30 42 1 21 39
M  V30 END BOND
M  V30 END CTAB
M  END
>  <Dataset>  (736) 
ChEMBL_Kinases

>  <Ligand_Instance>  (736) 
nan

>  <PDB_ID>  (736) 
nan

>  <Standardized_SMILES>  (736) 
NC(=O)c1cccc2c(NC3CCc4ccccc43)ncnc12

>  <Name>  (736) 
nan

>  <Pocket>  (736) 
nan

>  <ATP_Site>  (736) 
nan

>  <Peripheral>  (736) 
nan

>  <Num_H_Atoms_ProtBoundConf>  (736) 
nan

>  <Num_Resolved_Atoms>  (736) 
nan

>  <Num_Not_Resolved_Atoms>  (736) 
nan

$$$$
CHEMBL3675347
     RDKit          3D

  0  0  0  0  0  0  0  0  0  0999 V3000
M  V30 BEGIN CTAB
M  V30 COUNTS 39 41 0 0 0
M  V30 BEGIN ATOM
M  V30 1 C -2.608995 -3.506655 -0.852185 0
M  V30 2 O -1.338923 -2.885494 -0.772889 0
M  V30 3 C -0.236830 -3.711961 -0.587538 0
M  V30 4 C -0.241408 -5.067829 -0.472180 0
M  V30 5 C 0.865042 -5.840112 -0.291065 0
M  V30 6 C 2.109336 -5.230723 -0.213685 0
M  V30 7 C 2.149374 -3.838177 -0.328452 0
M  V30 8 C 1.002764 -3.067960 -0.513540 0
M  V30 9 C 1.091477 -1.591644 -0.630599 0
M  V30 10 N 0.675257 -0.890555 0.570963 0
M  V30 11 C 0.705165 0.524330 0.602281 0
M  V30 12 N 1.120129 1.202545 -0.481092 0
M  V30 13 C 1.172369 2.548732 -0.514573 0
M  V30 14 N 0.802868 3.286622 0.559896 0
M  V30 15 C 0.379877 2.643446 1.668363 0
M  V30 16 C -0.006529 3.350878 2.785640 0
M  V30 17 C 0.020727 4.807442 2.831070 0
M  V30 18 N 0.412993 5.747207 1.838658 0
M  V30 19 O -0.315599 5.526453 3.807233 0
M  V30 20 C -0.448955 2.758902 3.949961 0
M  V30 21 C -0.492454 1.365330 3.955196 0
M  V30 22 C -0.106257 0.651521 2.838146 0
M  V30 23 C 0.326860 1.265632 1.701167 0
M  V30 24 H -2.518399 -4.367903 -1.545520 0
M  V30 25 H -2.854045 -3.885187 0.158514 0
M  V30 26 H -3.375629 -2.781812 -1.200810 0
M  V30 27 H -1.204046 -5.554218 -0.531163 0
M  V30 28 H 0.782324 -6.918287 -0.207530 0
M  V30 29 H 3.013816 -5.811531 -0.070044 0
M  V30 30 H 3.131689 -3.354221 -0.267423 0
M  V30 31 H 0.448499 -1.259774 -1.458511 0
M  V30 32 H 2.137878 -1.327901 -0.935471 0
M  V30 33 H 0.377984 -1.527642 1.337840 0
M  V30 34 H 1.523971 2.970026 -1.445090 0
M  V30 35 H 0.918465 5.725279 0.929188 0
M  V30 36 H 0.919856 5.688527 0.937646 0
M  V30 37 H -0.756911 3.293619 4.838403 0
M  V30 38 H -0.834336 0.829353 4.849952 0
M  V30 39 H -0.162440 -0.407059 2.905356 0
M  V30 END ATOM
M  V30 BEGIN BOND
M  V30 1 1 1 2
M  V30 2 1 2 3
M  V30 3 2 3 4
M  V30 4 1 4 5
M  V30 5 2 5 6
M  V30 6 1 6 7
M  V30 7 2 7 8
M  V30 8 1 8 9
M  V30 9 1 9 10
M  V30 10 1 10 11
M  V30 11 2 11 12
M  V30 12 1 12 13
M  V30 13 2 13 14
M  V30 14 1 14 15
M  V30 15 2 15 16
M  V30 16 1 16 17
M  V30 17 1 17 18
M  V30 18 2 17 19
M  V30 19 1 16 20
M  V30 20 2 20 21
M  V30 21 1 21 22
M  V30 22 2 22 23
M  V30 23 1 8 3
M  V30 24 1 23 11
M  V30 25 1 23 15
M  V30 26 1 1 24
M  V30 27 1 1 25
M  V30 28 1 1 26
M  V30 29 1 4 27
M  V30 30 1 5 28
M  V30 31 1 6 29
M  V30 32 1 7 30
M  V30 33 1 9 31
M  V30 34 1 9 32
M  V30 35 1 10 33
M  V30 36 1 13 34
M  V30 37 1 18 35
M  V30 38 1 18 36
M  V30 39 1 20 37
M  V30 40 1 21 38
M  V30 41 1 22 39
M  V30 END BOND
M  V30 END CTAB
M  END
>  <Dataset>  (737) 
ChEMBL_Kinases

>  <Ligand_Instance>  (737) 
nan

>  <PDB_ID>  (737) 
nan

>  <Standardized_SMILES>  (737) 
COc1ccccc1CNc1ncnc2c(C(N)=O)cccc12

>  <Name>  (737) 
nan

>  <Pocket>  (737) 
nan

>  <ATP_Site>  (737) 
nan

>  <Peripheral>  (737) 
nan

>  <Num_H_Atoms_ProtBoundConf>  (737) 
nan

>  <Num_Resolved_Atoms>  (737) 
nan

>  <Num_Not_Resolved_Atoms>  (737) 
nan

$$$$
CHEMBL4167264
     RDKit          3D

  0  0  0  0  0  0  0  0  0  0999 V3000
M  V30 BEGIN CTAB
M  V30 COUNTS 58 60 0 0 0
M  V30 BEGIN ATOM
M  V30 1 C 0.912722 0.676191 5.969361 0
M  V30 2 C 1.097299 0.539873 4.452166 0
M  V30 3 C 2.488785 0.056586 4.127702 0
M  V30 4 C 3.588638 0.936504 4.571349 0
M  V30 5 C 3.683658 2.310319 4.059747 0
M  V30 6 C 3.874652 2.539388 2.609833 0
M  V30 7 C 2.800717 2.090715 1.724220 0
M  V30 8 O 1.807262 2.832888 1.872460 0
M  V30 9 O 2.657350 1.121150 0.837451 0
M  V30 10 C 1.743094 0.616295 -0.034210 0
M  V30 11 C 0.455209 0.062400 0.469451 0
M  V30 12 C -0.534189 1.066480 0.959520 0
M  V30 13 O -0.658365 2.082848 0.009884 0
M  V30 14 C -0.277283 -0.638445 -0.725376 0
M  V30 15 C -0.365299 -2.028038 -0.272824 0
M  V30 16 C -1.203630 -2.941361 -0.778459 0
M  V30 17 C -2.175363 -2.770857 -1.842482 0
M  V30 18 C -3.105655 -1.823212 -2.204191 0
M  V30 19 N -3.771189 -2.132396 -3.327400 0
M  V30 20 C -4.802859 -1.310319 -3.929711 0
M  V30 21 C -3.291732 -3.317135 -3.749770 0
M  V30 22 C -3.655645 -4.053350 -4.859788 0
M  V30 23 C -3.002110 -5.262500 -5.079903 0
M  V30 24 C -2.039480 -5.685249 -4.217151 0
M  V30 25 C -1.677825 -4.943985 -3.106297 0
M  V30 26 C -2.319857 -3.724834 -2.862082 0
M  V30 27 C 0.599564 -2.231933 0.793875 0
M  V30 28 O 1.157800 -3.353483 1.051206 0
M  V30 29 O 0.701701 -0.976127 1.365003 0
M  V30 30 H -0.166276 0.922876 6.088602 0
M  V30 31 H 1.049355 -0.344876 6.409874 0
M  V30 32 H 1.551274 1.446119 6.400541 0
M  V30 33 H 0.386605 -0.251558 4.140016 0
M  V30 34 H 0.799982 1.475199 3.985785 0
M  V30 35 H 2.595784 -0.896999 4.755468 0
M  V30 36 H 2.647096 -0.279932 3.107315 0
M  V30 37 H 4.549067 0.409540 4.255050 0
M  V30 38 H 3.659177 0.916278 5.701484 0
M  V30 39 H 4.599317 2.771202 4.565779 0
M  V30 40 H 2.863511 2.984589 4.435741 0
M  V30 41 H 4.863261 2.067949 2.339920 0
M  V30 42 H 4.041457 3.648705 2.402801 0
M  V30 43 H 1.542330 1.360939 -0.892975 0
M  V30 44 H 2.232445 -0.251717 -0.592034 0
M  V30 45 H -0.409954 1.468551 1.949436 0
M  V30 46 H -1.544118 0.538193 0.989660 0
M  V30 47 H -1.491206 2.616428 0.140417 0
M  V30 48 H 0.401797 -0.567371 -1.629744 0
M  V30 49 H -1.212500 -0.132993 -0.942188 0
M  V30 50 H -1.173946 -3.959891 -0.348868 0
M  V30 51 H -3.279801 -0.929576 -1.629329 0
M  V30 52 H -5.561107 -1.956510 -4.449245 0
M  V30 53 H -5.367882 -0.722057 -3.172753 0
M  V30 54 H -4.340116 -0.678202 -4.699757 0
M  V30 55 H -4.434963 -3.669452 -5.522052 0
M  V30 56 H -3.308100 -5.814562 -5.954617 0
M  V30 57 H -1.529461 -6.633356 -4.392521 0
M  V30 58 H -0.906391 -5.313783 -2.438125 0
M  V30 END ATOM
M  V30 BEGIN BOND
M  V30 1 1 1 2
M  V30 2 1 2 3
M  V30 3 1 3 4
M  V30 4 1 4 5
M  V30 5 1 5 6
M  V30 6 1 6 7
M  V30 7 2 7 8
M  V30 8 1 7 9
M  V30 9 1 9 10
M  V30 10 1 10 11
M  V30 11 1 11 12
M  V30 12 1 12 13
M  V30 13 1 11 14
M  V30 14 1 14 15
M  V30 15 2 15 16
M  V30 16 1 16 17
M  V30 17 2 17 18
M  V30 18 1 18 19
M  V30 19 1 19 20
M  V30 20 1 19 21
M  V30 21 2 21 22
M  V30 22 1 22 23
M  V30 23 2 23 24
M  V30 24 1 24 25
M  V30 25 2 25 26
M  V30 26 1 15 27
M  V30 27 2 27 28
M  V30 28 1 27 29
M  V30 29 1 29 11
M  V30 30 1 26 17
M  V30 31 1 26 21
M  V30 32 1 1 30
M  V30 33 1 1 31
M  V30 34 1 1 32
M  V30 35 1 2 33
M  V30 36 1 2 34
M  V30 37 1 3 35
M  V30 38 1 3 36
M  V30 39 1 4 37
M  V30 40 1 4 38
M  V30 41 1 5 39
M  V30 42 1 5 40
M  V30 43 1 6 41
M  V30 44 1 6 42
M  V30 45 1 10 43
M  V30 46 1 10 44
M  V30 47 1 12 45
M  V30 48 1 12 46
M  V30 49 1 13 47
M  V30 50 1 14 48
M  V30 51 1 14 49
M  V30 52 1 16 50
M  V30 53 1 18 51
M  V30 54 1 20 52
M  V30 55 1 20 53
M  V30 56 1 20 54
M  V30 57 1 22 55
M  V30 58 1 23 56
M  V30 59 1 24 57
M  V30 60 1 25 58
M  V30 END BOND
M  V30 END CTAB
M  END
>  <Dataset>  (738) 
ChEMBL_Kinases

>  <Ligand_Instance>  (738) 
nan

>  <PDB_ID>  (738) 
nan

>  <Standardized_SMILES>  (738) 
CCCCCCC(=O)OCC1(CO)C/C(=C\c2cn(C)c3ccccc23)C(=O)O1

>  <Name>  (738) 
nan

>  <Pocket>  (738) 
nan

>  <ATP_Site>  (738) 
nan

>  <Peripheral>  (738) 
nan

>  <Num_H_Atoms_ProtBoundConf>  (738) 
nan

>  <Num_Resolved_Atoms>  (738) 
nan

>  <Num_Not_Resolved_Atoms>  (738) 
nan

$$$$
CHEMBL4167193
     RDKit          3D

  0  0  0  0  0  0  0  0  0  0999 V3000
M  V30 BEGIN CTAB
M  V30 COUNTS 72 77 0 0 0
M  V30 BEGIN ATOM
M  V30 1 C 6.280633 -2.298662 0.944793 0
M  V30 2 N 5.582601 -2.321055 -0.327527 0
M  V30 3 C 5.220532 -3.702880 -0.588204 0
M  V30 4 C 4.369644 -1.565864 -0.315314 0 CFG=1
M  V30 5 C 4.552335 -0.102852 0.001310 0
M  V30 6 C 3.166305 0.461930 0.264635 0
M  V30 7 C 2.221861 0.339879 -0.868822 0 CFG=1
M  V30 8 C 2.255840 1.647909 -1.649504 0
M  V30 9 C 2.578057 -0.774949 -1.809362 0
M  V30 10 C 1.721400 -1.064569 -2.784377 0
M  V30 11 C 0.461359 -0.284188 -2.904023 0
M  V30 12 C -0.142111 0.067362 -1.591899 0 CFG=1
M  V30 13 C -1.233063 -0.775050 -1.121832 0 CFG=2
M  V30 14 C -2.342757 -1.174316 -1.995142 0
M  V30 15 C -3.357682 -1.670334 -0.952466 0
M  V30 16 C -2.832855 -1.267789 0.372240 0 CFG=2
M  V30 17 C -3.738018 -1.118422 1.479392 0
M  V30 18 C -3.407451 -1.815580 2.652813 0
M  V30 19 C -4.204635 -1.761950 3.805547 0
M  V30 20 C -5.355740 -1.001523 3.798854 0
M  V30 21 C -6.171101 -0.918238 4.908514 0
M  V30 22 C -7.314092 -0.132210 4.826053 0
M  V30 23 N -7.669214 0.559120 3.706158 0
M  V30 24 C -6.871209 0.478487 2.617991 0
M  V30 25 C -5.709760 -0.300007 2.652277 0
M  V30 26 C -4.900691 -0.387198 1.562341 0
M  V30 27 C -1.980141 -0.063754 0.019189 0 CFG=2
M  V30 28 C -2.861939 1.019440 -0.482103 0
M  V30 29 C -1.043078 0.338186 1.097658 0
M  V30 30 C 0.248563 0.957337 0.597790 0
M  V30 31 C 0.830244 0.039271 -0.424510 0 CFG=2
M  V30 32 C 3.818385 -1.586907 -1.739324 0
M  V30 33 H 5.475177 -2.201506 1.721832 0
M  V30 34 H 6.747228 -3.282162 1.118589 0
M  V30 35 H 6.973004 -1.455238 1.038939 0
M  V30 36 H 5.304148 -3.962597 -1.662311 0
M  V30 37 H 5.877868 -4.396689 -0.023872 0
M  V30 38 H 4.181561 -3.887727 -0.206778 0
M  V30 39 H 3.670947 -2.048662 0.393110 0
M  V30 40 H 4.996737 0.422408 -0.867983 0
M  V30 41 H 5.167811 0.082483 0.886106 0
M  V30 42 H 2.836395 -0.021823 1.202928 0
M  V30 43 H 3.344229 1.535545 0.549253 0
M  V30 44 H 1.274447 2.147158 -1.704999 0
M  V30 45 H 2.707108 1.498485 -2.660126 0
M  V30 46 H 2.928579 2.404929 -1.159291 0
M  V30 47 H 1.947146 -1.874026 -3.492618 0
M  V30 48 H 0.567454 0.576501 -3.610767 0
M  V30 49 H -0.276985 -0.964475 -3.420053 0
M  V30 50 H -0.496093 1.132733 -1.698133 0
M  V30 51 H -0.824260 -1.712510 -0.643466 0
M  V30 52 H -1.990249 -2.024324 -2.636603 0
M  V30 53 H -2.718731 -0.336207 -2.580373 0
M  V30 54 H -4.322046 -1.285670 -1.266830 0
M  V30 55 H -3.371905 -2.795918 -1.033380 0
M  V30 56 H -2.054439 -2.052869 0.636975 0
M  V30 57 H -2.510257 -2.446880 2.752310 0
M  V30 58 H -3.918440 -2.312187 4.691057 0
M  V30 59 H -5.932646 -1.445056 5.813768 0
M  V30 60 H -7.954709 -0.069508 5.704575 0
M  V30 61 H -7.112204 1.012840 1.698359 0
M  V30 62 H -5.191944 0.151575 0.702790 0
M  V30 63 H -2.346072 1.764970 -1.122697 0
M  V30 64 H -3.280744 1.547628 0.393352 0
M  V30 65 H -3.700045 0.644387 -1.088869 0
M  V30 66 H -1.532413 1.104910 1.736429 0
M  V30 67 H -0.730520 -0.552858 1.684549 0
M  V30 68 H -0.035770 1.935363 0.117794 0
M  V30 69 H 0.874774 1.178462 1.467575 0
M  V30 70 H 0.879476 -0.970337 0.055100 0
M  V30 71 H 3.673119 -2.640483 -1.982213 0
M  V30 72 H 4.583312 -1.139416 -2.386539 0
M  V30 END ATOM
M  V30 BEGIN BOND
M  V30 1 1 1 2
M  V30 2 1 2 3
M  V30 3 1 2 4
M  V30 4 1 4 5
M  V30 5 1 5 6
M  V30 6 1 6 7
M  V30 7 1 7 8 CFG=3
M  V30 8 1 7 9
M  V30 9 2 9 10
M  V30 10 1 10 11
M  V30 11 1 11 12
M  V30 12 1 12 13
M  V30 13 1 13 14
M  V30 14 1 14 15
M  V30 15 1 15 16
M  V30 16 1 16 17
M  V30 17 2 17 18
M  V30 18 1 18 19
M  V30 19 2 19 20
M  V30 20 1 20 21
M  V30 21 2 21 22
M  V30 22 1 22 23
M  V30 23 2 23 24
M  V30 24 1 24 25
M  V30 25 2 25 26
M  V30 26 1 16 27
M  V30 27 1 27 28 CFG=3
M  V30 28 1 27 29
M  V30 29 1 29 30
M  V30 30 1 30 31
M  V30 31 1 9 32
M  V30 32 1 32 4
M  V30 33 1 31 7
M  V30 34 1 31 12
M  V30 35 1 27 13
M  V30 36 1 26 17
M  V30 37 1 25 20
M  V30 38 1 1 33
M  V30 39 1 1 34
M  V30 40 1 1 35
M  V30 41 1 3 36
M  V30 42 1 3 37
M  V30 43 1 3 38
M  V30 44 1 4 39 CFG=1
M  V30 45 1 5 40
M  V30 46 1 5 41
M  V30 47 1 6 42
M  V30 48 1 6 43
M  V30 49 1 8 44
M  V30 50 1 8 45
M  V30 51 1 8 46
M  V30 52 1 10 47
M  V30 53 1 11 48
M  V30 54 1 11 49
M  V30 55 1 12 50 CFG=3
M  V30 56 1 13 51 CFG=1
M  V30 57 1 14 52
M  V30 58 1 14 53
M  V30 59 1 15 54
M  V30 60 1 15 55
M  V30 61 1 16 56 CFG=1
M  V30 62 1 18 57
M  V30 63 1 19 58
M  V30 64 1 21 59
M  V30 65 1 22 60
M  V30 66 1 24 61
M  V30 67 1 26 62
M  V30 68 1 28 63
M  V30 69 1 28 64
M  V30 70 1 28 65
M  V30 71 1 29 66
M  V30 72 1 29 67
M  V30 73 1 30 68
M  V30 74 1 30 69
M  V30 75 1 31 70 CFG=1
M  V30 76 1 32 71
M  V30 77 1 32 72
M  V30 END BOND
M  V30 END CTAB
M  END
>  <Dataset>  (739) 
ChEMBL_Kinases

>  <Ligand_Instance>  (739) 
nan

>  <PDB_ID>  (739) 
nan

>  <Standardized_SMILES>  (739) 
CN(C)[C@H]1CC[C@@]2(C)C(=CC[C@H]3[C@@H]4CC[C@H](c5ccc6ccncc6c5)[C@@]4(C)CC[C@@H]32)C1

>  <Name>  (739) 
nan

>  <Pocket>  (739) 
nan

>  <ATP_Site>  (739) 
nan

>  <Peripheral>  (739) 
nan

>  <Num_H_Atoms_ProtBoundConf>  (739) 
nan

>  <Num_Resolved_Atoms>  (739) 
nan

>  <Num_Not_Resolved_Atoms>  (739) 
nan

$$$$
CHEMBL3675346
     RDKit          3D

  0  0  0  0  0  0  0  0  0  0999 V3000
M  V30 BEGIN CTAB
M  V30 COUNTS 33 35 0 0 0
M  V30 BEGIN ATOM
M  V30 1 N -1.320128 -4.661108 3.846019 0
M  V30 2 C -1.405084 -4.078934 2.551588 0
M  V30 3 O -2.068852 -4.952946 1.938250 0
M  V30 4 C -0.808192 -2.790085 2.223420 0
M  V30 5 C -0.136200 -2.132824 3.240961 0
M  V30 6 C 0.413587 -0.922350 2.900063 0
M  V30 7 C 0.311136 -0.381041 1.626564 0
M  V30 8 C -0.367530 -1.100218 0.696246 0
M  V30 9 C -0.435060 -0.513953 -0.549311 0
M  V30 10 N 0.093009 0.733168 -0.990215 0
M  V30 11 C -0.317367 2.014388 -0.453027 0
M  V30 12 C 0.896434 2.873681 -0.279420 0
M  V30 13 O 2.096182 2.241006 -0.575987 0
M  V30 14 C 2.096145 1.708406 -1.864966 0
M  V30 15 C 1.082080 0.615157 -2.035652 0
M  V30 16 N -1.103156 -1.188897 -1.531244 0
M  V30 17 C -1.670198 -2.397042 -1.250498 0
M  V30 18 N -1.604851 -2.975735 -0.024105 0
M  V30 19 C -0.956973 -2.323858 0.931812 0
M  V30 20 H -0.730947 -4.467689 4.685890 0
M  V30 21 H -0.715268 -4.453334 4.690567 0
M  V30 22 H -0.072091 -2.576278 4.221619 0
M  V30 23 H 0.944598 -0.386542 3.675690 0
M  V30 24 H 0.762670 0.559312 1.431904 0
M  V30 25 H -0.926999 2.480747 -1.285052 0
M  V30 26 H -0.943023 1.910391 0.448974 0
M  V30 27 H 0.859814 3.800877 -0.902651 0
M  V30 28 H 0.951739 3.119565 0.810798 0
M  V30 29 H 2.050941 2.494246 -2.634219 0
M  V30 30 H 3.115413 1.245408 -1.983057 0
M  V30 31 H 0.530348 0.866456 -2.989653 0
M  V30 32 H 1.527512 -0.385086 -2.123439 0
M  V30 33 H -2.208709 -2.956961 -2.012761 0
M  V30 END ATOM
M  V30 BEGIN BOND
M  V30 1 1 1 2
M  V30 2 2 2 3
M  V30 3 1 2 4
M  V30 4 2 4 5
M  V30 5 1 5 6
M  V30 6 2 6 7
M  V30 7 1 7 8
M  V30 8 2 8 9
M  V30 9 1 9 10
M  V30 10 1 10 11
M  V30 11 1 11 12
M  V30 12 1 12 13
M  V30 13 1 13 14
M  V30 14 1 14 15
M  V30 15 1 9 16
M  V30 16 2 16 17
M  V30 17 1 17 18
M  V30 18 2 18 19
M  V30 19 1 19 4
M  V30 20 1 19 8
M  V30 21 1 15 10
M  V30 22 1 1 20
M  V30 23 1 1 21
M  V30 24 1 5 22
M  V30 25 1 6 23
M  V30 26 1 7 24
M  V30 27 1 11 25
M  V30 28 1 11 26
M  V30 29 1 12 27
M  V30 30 1 12 28
M  V30 31 1 14 29
M  V30 32 1 14 30
M  V30 33 1 15 31
M  V30 34 1 15 32
M  V30 35 1 17 33
M  V30 END BOND
M  V30 END CTAB
M  END
>  <Dataset>  (740) 
ChEMBL_Kinases

>  <Ligand_Instance>  (740) 
nan

>  <PDB_ID>  (740) 
nan

>  <Standardized_SMILES>  (740) 
NC(=O)c1cccc2c(N3CCOCC3)ncnc12

>  <Name>  (740) 
nan

>  <Pocket>  (740) 
nan

>  <ATP_Site>  (740) 
nan

>  <Peripheral>  (740) 
nan

>  <Num_H_Atoms_ProtBoundConf>  (740) 
nan

>  <Num_Resolved_Atoms>  (740) 
nan

>  <Num_Not_Resolved_Atoms>  (740) 
nan

$$$$
CHEMBL3355158
     RDKit          3D

  0  0  0  0  0  0  0  0  0  0999 V3000
M  V30 BEGIN CTAB
M  V30 COUNTS 51 54 0 0 0
M  V30 BEGIN ATOM
M  V30 1 C 3.268734 -2.997990 7.546895 0
M  V30 2 C 3.570426 -2.950167 6.076062 0
M  V30 3 C 4.278623 -1.839160 5.612699 0
M  V30 4 C 4.546011 -1.812111 4.263218 0
M  V30 5 C 4.149885 -2.810363 3.394575 0
M  V30 6 N 4.497158 -2.641568 2.041865 0
M  V30 7 C 3.504263 -1.948926 1.320408 0
M  V30 8 O 2.547596 -1.663016 2.114743 0
M  V30 9 C 3.494989 -1.583541 -0.087796 0
M  V30 10 C 2.373074 -0.899973 -0.516778 0
M  V30 11 C 2.231929 -0.492584 -1.825841 0
M  V30 12 N 1.054724 0.208706 -2.213678 0
M  V30 13 C 0.207188 0.845244 -1.385493 0
M  V30 14 C -0.807032 1.399669 -2.138135 0
M  V30 15 N -1.975894 2.182836 -1.792696 0
M  V30 16 C -3.135374 1.434393 -1.523502 0
M  V30 17 O -2.945150 0.227252 -1.631561 0
M  V30 18 N -4.409134 1.841451 -1.168652 0
M  V30 19 C -5.660146 1.287104 -0.851686 0
M  V30 20 C -6.698632 2.172284 -0.735517 0
M  V30 21 C -7.960532 1.741297 -0.420550 0
M  V30 22 C -8.233491 0.413126 -0.209696 0
M  V30 23 C -7.218957 -0.499598 -0.317044 0
M  V30 24 C -5.969432 -0.025759 -0.634175 0
M  V30 25 Cl -4.781112 -1.292609 -0.709454 0
M  V30 26 C -0.534118 1.070514 -3.449370 0
M  V30 27 N 0.586213 0.358105 -3.458972 0
M  V30 28 C 3.182153 -0.733131 -2.784061 0
M  V30 29 C 4.298037 -1.412428 -2.359709 0
M  V30 30 C 4.434313 -1.812876 -1.068041 0
M  V30 31 F 5.533112 -2.480575 -0.654866 0
M  V30 32 C 3.454318 -3.874299 3.931259 0
M  V30 33 N 3.171920 -3.941259 5.241590 0
M  V30 34 H 3.255951 -4.047669 7.882421 0
M  V30 35 H 4.017865 -2.406252 8.100247 0
M  V30 36 H 2.289439 -2.520974 7.714520 0
M  V30 37 H 4.581646 -1.067984 6.299744 0
M  V30 38 H 5.096409 -0.943130 3.919637 0
M  V30 39 H 5.351082 -2.946372 1.526508 0
M  V30 40 H 1.554316 -0.657212 0.170264 0
M  V30 41 H 0.233211 0.955173 -0.321862 0
M  V30 42 H -2.077504 3.235687 -1.715074 0
M  V30 43 H -4.334667 2.905908 -1.142068 0
M  V30 44 H -6.599257 3.255965 -0.882026 0
M  V30 45 H -8.746719 2.448492 -0.338005 0
M  V30 46 H -9.237035 0.145841 0.031672 0
M  V30 47 H -7.484576 -1.530470 -0.142015 0
M  V30 48 H -1.112502 1.331087 -4.346313 0
M  V30 49 H 3.140491 -0.449366 -3.809038 0
M  V30 50 H 5.112542 -1.652115 -3.050276 0
M  V30 51 H 3.151351 -4.653366 3.220284 0
M  V30 END ATOM
M  V30 BEGIN BOND
M  V30 1 1 1 2
M  V30 2 2 2 3
M  V30 3 1 3 4
M  V30 4 2 4 5
M  V30 5 1 5 6
M  V30 6 1 6 7
M  V30 7 2 7 8
M  V30 8 1 7 9
M  V30 9 2 9 10
M  V30 10 1 10 11
M  V30 11 1 11 12
M  V30 12 1 12 13
M  V30 13 2 13 14
M  V30 14 1 14 15
M  V30 15 1 15 16
M  V30 16 2 16 17
M  V30 17 1 16 18
M  V30 18 1 18 19
M  V30 19 2 19 20
M  V30 20 1 20 21
M  V30 21 2 21 22
M  V30 22 1 22 23
M  V30 23 2 23 24
M  V30 24 1 24 25
M  V30 25 1 14 26
M  V30 26 2 26 27
M  V30 27 2 11 28
M  V30 28 1 28 29
M  V30 29 2 29 30
M  V30 30 1 30 31
M  V30 31 1 5 32
M  V30 32 2 32 33
M  V30 33 1 33 2
M  V30 34 1 30 9
M  V30 35 1 27 12
M  V30 36 1 24 19
M  V30 37 1 1 34
M  V30 38 1 1 35
M  V30 39 1 1 36
M  V30 40 1 3 37
M  V30 41 1 4 38
M  V30 42 1 6 39
M  V30 43 1 10 40
M  V30 44 1 13 41
M  V30 45 1 15 42
M  V30 46 1 18 43
M  V30 47 1 20 44
M  V30 48 1 21 45
M  V30 49 1 22 46
M  V30 50 1 23 47
M  V30 51 1 26 48
M  V30 52 1 28 49
M  V30 53 1 29 50
M  V30 54 1 32 51
M  V30 END BOND
M  V30 END CTAB
M  END
>  <Dataset>  (741) 
ChEMBL_Kinases

>  <Ligand_Instance>  (741) 
nan

>  <PDB_ID>  (741) 
nan

>  <Standardized_SMILES>  (741) 
Cc1ccc(NC(=O)c2cc(-n3cc(NC(=O)Nc4ccccc4Cl)cn3)ccc2F)cn1

>  <Name>  (741) 
nan

>  <Pocket>  (741) 
nan

>  <ATP_Site>  (741) 
nan

>  <Peripheral>  (741) 
nan

>  <Num_H_Atoms_ProtBoundConf>  (741) 
nan

>  <Num_Resolved_Atoms>  (741) 
nan

>  <Num_Not_Resolved_Atoms>  (741) 
nan

$$$$
CHEMBL4166291
     RDKit          3D

  0  0  0  0  0  0  0  0  0  0999 V3000
M  V30 BEGIN CTAB
M  V30 COUNTS 60 64 0 0 0
M  V30 BEGIN ATOM
M  V30 1 C 8.610409 -1.377957 5.213187 0
M  V30 2 C 7.797763 -0.494887 4.341427 0
M  V30 3 C 7.546464 -0.842239 3.039101 0
M  V30 4 C 6.775154 0.017363 2.249934 0
M  V30 5 C 6.275457 1.207307 2.792861 0
M  V30 6 N 5.522722 1.923299 1.821715 0
M  V30 7 C 4.125695 1.826229 1.552771 0
M  V30 8 O 3.229824 1.122616 2.073073 0
M  V30 9 N 3.560512 2.648392 0.512549 0
M  V30 10 C 2.157597 2.499411 0.299858 0
M  V30 11 C 1.108772 3.185056 0.877649 0
M  V30 12 C -0.185145 2.870697 0.520435 0
M  V30 13 C -0.462220 1.884244 -0.403858 0
M  V30 14 C -1.844226 1.574700 -0.762928 0
M  V30 15 C -2.438030 0.490843 0.154151 0
M  V30 16 N -3.763210 0.221957 -0.221593 0
M  V30 17 C -5.128591 -0.053419 -0.608286 0
M  V30 18 N -6.150115 0.812788 -0.615514 0
M  V30 19 C -7.375008 0.496237 -0.986575 0
M  V30 20 N -7.576980 -0.756029 -1.368508 0
M  V30 21 C -6.632439 -1.683484 -1.395446 0
M  V30 22 O -6.717864 -2.939863 -1.750743 0
M  V30 23 C -5.563629 -3.532734 -1.639054 0
M  V30 24 C -5.376475 -4.931198 -1.968633 0
M  V30 25 C -6.467301 -5.653331 -2.414385 0
M  V30 26 C -6.391354 -6.996419 -2.756530 0
M  V30 27 C -5.196357 -7.661956 -2.658466 0
M  V30 28 C -4.079235 -6.984581 -2.218675 0
M  V30 29 C -4.212119 -5.653038 -1.892738 0
M  V30 30 C -4.693784 -2.569177 -1.178120 0
M  V30 31 Cl -3.021718 -2.799131 -0.845545 0
M  V30 32 C -5.352987 -1.353128 -1.008106 0
M  V30 33 C 0.582591 1.195719 -0.984465 0
M  V30 34 C 1.883085 1.498670 -0.637377 0
M  V30 35 C 6.561030 1.502408 4.107042 0
M  V30 36 C 7.316382 0.681017 4.914238 0
M  V30 37 H 7.922394 -1.963836 5.869433 0
M  V30 38 H 9.114370 -2.144863 4.582928 0
M  V30 39 H 9.315252 -0.826330 5.860026 0
M  V30 40 H 7.959447 -1.780751 2.665383 0
M  V30 41 H 6.627316 -0.338929 1.231563 0
M  V30 42 H 6.075779 2.605910 1.235284 0
M  V30 43 H 4.180720 3.312185 -0.042020 0
M  V30 44 H 1.437143 3.931045 1.583426 0
M  V30 45 H -0.963451 3.439994 1.004591 0
M  V30 46 H -2.485442 2.453299 -0.649369 0
M  V30 47 H -1.922665 1.119481 -1.785271 0
M  V30 48 H -1.760171 -0.418204 0.002385 0
M  V30 49 H -2.296998 0.743157 1.237415 0
M  V30 50 H -3.919117 1.246436 0.048792 0
M  V30 51 H -8.124069 1.274321 -0.953776 0
M  V30 52 H -7.470646 -5.247291 -2.537198 0
M  V30 53 H -7.216647 -7.582231 -3.103520 0
M  V30 54 H -5.055068 -8.715041 -2.907541 0
M  V30 55 H -3.101824 -7.474322 -2.124492 0
M  V30 56 H -3.324004 -5.159682 -1.555436 0
M  V30 57 H 0.332709 0.434368 -1.700360 0
M  V30 58 H 2.634210 0.888473 -1.161396 0
M  V30 59 H 6.100044 2.463156 4.381126 0
M  V30 60 H 7.472723 1.018309 5.928451 0
M  V30 END ATOM
M  V30 BEGIN BOND
M  V30 1 1 1 2
M  V30 2 2 2 3
M  V30 3 1 3 4
M  V30 4 2 4 5
M  V30 5 1 5 6
M  V30 6 1 6 7
M  V30 7 2 7 8
M  V30 8 1 7 9
M  V30 9 1 9 10
M  V30 10 2 10 11
M  V30 11 1 11 12
M  V30 12 2 12 13
M  V30 13 1 13 14
M  V30 14 1 14 15
M  V30 15 1 15 16
M  V30 16 1 16 17
M  V30 17 2 17 18
M  V30 18 1 18 19
M  V30 19 2 19 20
M  V30 20 1 20 21
M  V30 21 1 21 22
M  V30 22 1 22 23
M  V30 23 1 23 24
M  V30 24 2 24 25
M  V30 25 1 25 26
M  V30 26 2 26 27
M  V30 27 1 27 28
M  V30 28 2 28 29
M  V30 29 2 23 30
M  V30 30 1 30 31
M  V30 31 1 30 32
M  V30 32 1 13 33
M  V30 33 2 33 34
M  V30 34 1 5 35
M  V30 35 2 35 36
M  V30 36 1 36 2
M  V30 37 1 34 10
M  V30 38 1 32 17
M  V30 39 2 32 21
M  V30 40 1 29 24
M  V30 41 1 1 37
M  V30 42 1 1 38
M  V30 43 1 1 39
M  V30 44 1 3 40
M  V30 45 1 4 41
M  V30 46 1 6 42
M  V30 47 1 9 43
M  V30 48 1 11 44
M  V30 49 1 12 45
M  V30 50 1 14 46
M  V30 51 1 14 47
M  V30 52 1 15 48
M  V30 53 1 15 49
M  V30 54 1 16 50
M  V30 55 1 19 51
M  V30 56 1 25 52
M  V30 57 1 26 53
M  V30 58 1 27 54
M  V30 59 1 28 55
M  V30 60 1 29 56
M  V30 61 1 33 57
M  V30 62 1 34 58
M  V30 63 1 35 59
M  V30 64 1 36 60
M  V30 END BOND
M  V30 END CTAB
M  END
>  <Dataset>  (742) 
ChEMBL_Kinases

>  <Ligand_Instance>  (742) 
nan

>  <PDB_ID>  (742) 
nan

>  <Standardized_SMILES>  (742) 
Cc1ccc(NC(=O)Nc2ccc(CCNc3ncnc4oc(-c5ccccc5)c(Cl)c34)cc2)cc1

>  <Name>  (742) 
nan

>  <Pocket>  (742) 
nan

>  <ATP_Site>  (742) 
nan

>  <Peripheral>  (742) 
nan

>  <Num_H_Atoms_ProtBoundConf>  (742) 
nan

>  <Num_Resolved_Atoms>  (742) 
nan

>  <Num_Not_Resolved_Atoms>  (742) 
nan

$$$$
CHEMBL4166250
     RDKit          3D

  0  0  0  0  0  0  0  0  0  0999 V3000
M  V30 BEGIN CTAB
M  V30 COUNTS 53 56 0 0 0
M  V30 BEGIN ATOM
M  V30 1 C 3.264274 -5.561796 5.345229 0
M  V30 2 C 2.647049 -4.581579 4.374397 0
M  V30 3 C 3.185509 -4.737373 2.975119 0
M  V30 4 N 2.532532 -3.756530 2.128312 0
M  V30 5 C 2.921411 -2.496461 1.858656 0
M  V30 6 C 2.000584 -1.927082 1.006400 0
M  V30 7 C 1.998321 -0.581338 0.437871 0
M  V30 8 C 3.021371 0.297641 0.733889 0
M  V30 9 C 3.103771 1.584375 0.242361 0
M  V30 10 N 2.100934 1.961453 -0.572786 0
M  V30 11 C 1.081571 1.145374 -0.892930 0
M  V30 12 N -0.004504 1.485605 -1.748897 0
M  V30 13 C -1.193271 2.107779 -1.218243 0
M  V30 14 C -1.243137 2.371140 0.137987 0
M  V30 15 C -2.333715 2.966015 0.742488 0
M  V30 16 C -3.420009 3.312302 -0.040355 0
M  V30 17 O -4.467317 3.903345 0.650798 0
M  V30 18 C -5.608468 4.282535 -0.085998 0
M  V30 19 C -3.386526 3.057252 -1.390346 0
M  V30 20 C -2.291732 2.462893 -1.981454 0
M  V30 21 O -2.238681 2.197106 -3.342572 0
M  V30 22 C -3.361063 2.559126 -4.126211 0
M  V30 23 N 1.034112 -0.097720 -0.397114 0
M  V30 24 C 1.022138 -2.877187 0.753179 0
M  V30 25 C -0.140097 -2.940435 0.004702 0
M  V30 26 C -0.931020 -4.072393 -0.047976 0
M  V30 27 C -0.575642 -5.200747 0.662220 0
M  V30 28 C 0.581851 -5.156957 1.415695 0
M  V30 29 C 1.383358 -4.021014 1.473719 0
M  V30 30 H 3.418874 -5.030562 6.318228 0
M  V30 31 H 2.497500 -6.354795 5.564555 0
M  V30 32 H 4.167575 -6.062778 4.963071 0
M  V30 33 H 1.540015 -4.724985 4.317989 0
M  V30 34 H 2.809450 -3.530826 4.683842 0
M  V30 35 H 4.275970 -4.458070 2.943634 0
M  V30 36 H 3.039128 -5.754266 2.572829 0
M  V30 37 H 3.782609 -1.994256 2.221349 0
M  V30 38 H 3.820301 -0.050775 1.403656 0
M  V30 39 H 3.915181 2.261875 0.485466 0
M  V30 40 H -0.029206 1.320112 -2.784662 0
M  V30 41 H -0.385496 2.098311 0.758844 0
M  V30 42 H -2.295397 3.138708 1.809817 0
M  V30 43 H -6.327359 3.449462 -0.213419 0
M  V30 44 H -6.111459 5.078343 0.529772 0
M  V30 45 H -5.369702 4.757224 -1.037310 0
M  V30 46 H -4.248427 3.338738 -1.971666 0
M  V30 47 H -3.176888 2.408272 -5.209326 0
M  V30 48 H -3.584642 3.643738 -4.013702 0
M  V30 49 H -4.246733 2.003714 -3.755328 0
M  V30 50 H -0.427602 -2.061721 -0.555484 0
M  V30 51 H -1.833634 -4.043317 -0.662147 0
M  V30 52 H -1.193819 -6.094038 0.624894 0
M  V30 53 H 0.866224 -6.037422 1.974563 0
M  V30 END ATOM
M  V30 BEGIN BOND
M  V30 1 1 1 2
M  V30 2 1 2 3
M  V30 3 1 3 4
M  V30 4 1 4 5
M  V30 5 2 5 6
M  V30 6 1 6 7
M  V30 7 2 7 8
M  V30 8 1 8 9
M  V30 9 2 9 10
M  V30 10 1 10 11
M  V30 11 1 11 12
M  V30 12 1 12 13
M  V30 13 2 13 14
M  V30 14 1 14 15
M  V30 15 2 15 16
M  V30 16 1 16 17
M  V30 17 1 17 18
M  V30 18 1 16 19
M  V30 19 2 19 20
M  V30 20 1 20 21
M  V30 21 1 21 22
M  V30 22 2 11 23
M  V30 23 1 6 24
M  V30 24 2 24 25
M  V30 25 1 25 26
M  V30 26 2 26 27
M  V30 27 1 27 28
M  V30 28 2 28 29
M  V30 29 1 29 4
M  V30 30 1 23 7
M  V30 31 1 29 24
M  V30 32 1 20 13
M  V30 33 1 1 30
M  V30 34 1 1 31
M  V30 35 1 1 32
M  V30 36 1 2 33
M  V30 37 1 2 34
M  V30 38 1 3 35
M  V30 39 1 3 36
M  V30 40 1 5 37
M  V30 41 1 8 38
M  V30 42 1 9 39
M  V30 43 1 12 40
M  V30 44 1 14 41
M  V30 45 1 15 42
M  V30 46 1 18 43
M  V30 47 1 18 44
M  V30 48 1 18 45
M  V30 49 1 19 46
M  V30 50 1 22 47
M  V30 51 1 22 48
M  V30 52 1 22 49
M  V30 53 1 25 50
M  V30 54 1 26 51
M  V30 55 1 27 52
M  V30 56 1 28 53
M  V30 END BOND
M  V30 END CTAB
M  END
>  <Dataset>  (743) 
ChEMBL_Kinases

>  <Ligand_Instance>  (743) 
nan

>  <PDB_ID>  (743) 
nan

>  <Standardized_SMILES>  (743) 
CCCn1cc(-c2ccnc(Nc3ccc(OC)cc3OC)n2)c2ccccc21

>  <Name>  (743) 
nan

>  <Pocket>  (743) 
nan

>  <ATP_Site>  (743) 
nan

>  <Peripheral>  (743) 
nan

>  <Num_H_Atoms_ProtBoundConf>  (743) 
nan

>  <Num_Resolved_Atoms>  (743) 
nan

>  <Num_Not_Resolved_Atoms>  (743) 
nan

$$$$
CHEMBL3675345
     RDKit          3D

  0  0  0  0  0  0  0  0  0  0999 V3000
M  V30 BEGIN CTAB
M  V30 COUNTS 38 40 0 0 0
M  V30 BEGIN ATOM
M  V30 1 C -1.700480 -3.429444 0.818217 0
M  V30 2 C -0.474444 -4.059299 0.263424 0
M  V30 3 C -0.109617 -5.357076 0.578349 0
M  V30 4 C 1.006052 -6.015549 0.110110 0
M  V30 5 C 1.839912 -5.340576 -0.744533 0
M  V30 6 C 1.524492 -4.045103 -1.091839 0
M  V30 7 C 0.401358 -3.405048 -0.610503 0
M  V30 8 C 0.037163 -2.010483 -0.965022 0
M  V30 9 N 0.362832 -1.157062 0.154491 0
M  V30 10 C 0.071158 0.230158 0.005149 0
M  V30 11 N -0.478036 0.727422 -1.116457 0
M  V30 12 C -0.767700 2.028238 -1.296342 0
M  V30 13 N -0.524142 2.954832 -0.344009 0
M  V30 14 C 0.023588 2.529733 0.802418 0
M  V30 15 C 0.293099 3.433572 1.809598 0
M  V30 16 C -0.024741 4.841875 1.605836 0
M  V30 17 N 0.233020 5.813878 2.614698 0
M  V30 18 O -0.537200 5.297665 0.553339 0
M  V30 19 C 0.855149 3.056083 3.010874 0
M  V30 20 C 1.144117 1.708564 3.170274 0
M  V30 21 C 0.871406 0.818057 2.160728 0
M  V30 22 C 0.316841 1.181568 0.971804 0
M  V30 23 H -2.166866 -2.834973 0.028889 0
M  V30 24 H -1.458990 -2.820455 1.723499 0
M  V30 25 H -2.344071 -4.259985 1.184163 0
M  V30 26 H -0.780042 -5.898124 1.264424 0
M  V30 27 H 1.187562 -7.043105 0.432083 0
M  V30 28 H 2.727041 -5.810580 -1.139598 0
M  V30 29 H 2.127780 -3.441278 -1.760237 0
M  V30 30 H -0.981493 -1.903031 -1.342473 0
M  V30 31 H 0.723794 -1.706771 -1.797681 0
M  V30 32 H 0.786991 -1.574411 1.006028 0
M  V30 33 H -1.213461 2.284450 -2.265307 0
M  V30 34 H 1.206435 5.906524 3.007433 0
M  V30 35 H -0.470257 6.454949 3.007041 0
M  V30 36 H 1.053504 3.780207 3.775449 0
M  V30 37 H 1.586384 1.430091 4.122572 0
M  V30 38 H 1.126579 -0.186646 2.375290 0
M  V30 END ATOM
M  V30 BEGIN BOND
M  V30 1 1 1 2
M  V30 2 2 2 3
M  V30 3 1 3 4
M  V30 4 2 4 5
M  V30 5 1 5 6
M  V30 6 2 6 7
M  V30 7 1 7 8
M  V30 8 1 8 9
M  V30 9 1 9 10
M  V30 10 2 10 11
M  V30 11 1 11 12
M  V30 12 2 12 13
M  V30 13 1 13 14
M  V30 14 2 14 15
M  V30 15 1 15 16
M  V30 16 1 16 17
M  V30 17 2 16 18
M  V30 18 1 15 19
M  V30 19 2 19 20
M  V30 20 1 20 21
M  V30 21 2 21 22
M  V30 22 1 7 2
M  V30 23 1 22 10
M  V30 24 1 22 14
M  V30 25 1 1 23
M  V30 26 1 1 24
M  V30 27 1 1 25
M  V30 28 1 3 26
M  V30 29 1 4 27
M  V30 30 1 5 28
M  V30 31 1 6 29
M  V30 32 1 8 30
M  V30 33 1 8 31
M  V30 34 1 9 32
M  V30 35 1 12 33
M  V30 36 1 17 34
M  V30 37 1 17 35
M  V30 38 1 19 36
M  V30 39 1 20 37
M  V30 40 1 21 38
M  V30 END BOND
M  V30 END CTAB
M  END
>  <Dataset>  (744) 
ChEMBL_Kinases

>  <Ligand_Instance>  (744) 
nan

>  <PDB_ID>  (744) 
nan

>  <Standardized_SMILES>  (744) 
Cc1ccccc1CNc1ncnc2c(C(N)=O)cccc12

>  <Name>  (744) 
nan

>  <Pocket>  (744) 
nan

>  <ATP_Site>  (744) 
nan

>  <Peripheral>  (744) 
nan

>  <Num_H_Atoms_ProtBoundConf>  (744) 
nan

>  <Num_Resolved_Atoms>  (744) 
nan

>  <Num_Not_Resolved_Atoms>  (744) 
nan

$$$$
CHEMBL3675344
     RDKit          3D

  0  0  0  0  0  0  0  0  0  0999 V3000
M  V30 BEGIN CTAB
M  V30 COUNTS 38 40 0 0 0
M  V30 BEGIN ATOM
M  V30 1 N -0.804676 -5.022119 2.464768 0
M  V30 2 C 0.416415 -5.286237 1.769334 0
M  V30 3 O 0.949699 -6.405693 1.980639 0
M  V30 4 C 0.996196 -4.298741 0.868317 0
M  V30 5 C 2.162974 -4.592182 0.224884 0
M  V30 6 C 2.684155 -3.627785 -0.624415 0
M  V30 7 C 2.012215 -2.436681 -0.778132 0
M  V30 8 C 0.834828 -2.115426 -0.141752 0
M  V30 9 C 0.207350 -0.905063 -0.335536 0
M  V30 10 N 0.717751 0.077908 -1.192046 0
M  V30 11 C 0.140735 1.379218 -1.464330 0
M  V30 12 C 0.089348 2.174263 -0.209644 0
M  V30 13 C 1.259552 2.878161 0.110202 0
M  V30 14 C 1.434676 3.684735 1.213064 0
M  V30 15 C 0.375352 3.819326 2.084682 0
M  V30 16 C -0.787258 3.137336 1.792559 0
M  V30 17 C -1.985720 3.237529 2.700229 0
M  V30 18 F -2.000052 2.103083 3.492547 0
M  V30 19 F -1.782900 4.305963 3.545855 0
M  V30 20 F -3.153443 3.299993 2.002110 0
M  V30 21 C -0.938357 2.336847 0.683260 0
M  V30 22 N -0.922865 -0.770423 0.364553 0
M  V30 23 C -1.439525 -1.684305 1.184884 0
M  V30 24 N -0.796715 -2.854787 1.347770 0
M  V30 25 C 0.365894 -3.107254 0.686073 0
M  V30 26 H -1.745844 -5.391982 2.202771 0
M  V30 27 H -1.616246 -5.504401 2.011526 0
M  V30 28 H 2.633644 -5.535188 0.388300 0
M  V30 29 H 3.604573 -3.873544 -1.124666 0
M  V30 30 H 2.500156 -1.764372 -1.454900 0
M  V30 31 H 1.595158 -0.072588 -1.718045 0
M  V30 32 H 0.725277 1.948645 -2.189592 0
M  V30 33 H -0.926686 1.266960 -1.798318 0
M  V30 34 H 2.139119 2.811744 -0.545297 0
M  V30 35 H 2.345334 4.194622 1.404961 0
M  V30 36 H 0.389619 4.419851 2.979478 0
M  V30 37 H -1.834299 1.817190 0.449602 0
M  V30 38 H -2.370715 -1.465736 1.706485 0
M  V30 END ATOM
M  V30 BEGIN BOND
M  V30 1 1 1 2
M  V30 2 2 2 3
M  V30 3 1 2 4
M  V30 4 2 4 5
M  V30 5 1 5 6
M  V30 6 2 6 7
M  V30 7 1 7 8
M  V30 8 2 8 9
M  V30 9 1 9 10
M  V30 10 1 10 11
M  V30 11 1 11 12
M  V30 12 2 12 13
M  V30 13 1 13 14
M  V30 14 2 14 15
M  V30 15 1 15 16
M  V30 16 1 16 17
M  V30 17 1 17 18
M  V30 18 1 17 19
M  V30 19 1 17 20
M  V30 20 2 16 21
M  V30 21 1 9 22
M  V30 22 2 22 23
M  V30 23 1 23 24
M  V30 24 2 24 25
M  V30 25 1 25 4
M  V30 26 1 25 8
M  V30 27 1 21 12
M  V30 28 1 1 26
M  V30 29 1 1 27
M  V30 30 1 5 28
M  V30 31 1 6 29
M  V30 32 1 7 30
M  V30 33 1 10 31
M  V30 34 1 11 32
M  V30 35 1 11 33
M  V30 36 1 13 34
M  V30 37 1 14 35
M  V30 38 1 15 36
M  V30 39 1 21 37
M  V30 40 1 23 38
M  V30 END BOND
M  V30 END CTAB
M  END
>  <Dataset>  (745) 
ChEMBL_Kinases

>  <Ligand_Instance>  (745) 
nan

>  <PDB_ID>  (745) 
nan

>  <Standardized_SMILES>  (745) 
NC(=O)c1cccc2c(NCc3cccc(C(F)(F)F)c3)ncnc12

>  <Name>  (745) 
nan

>  <Pocket>  (745) 
nan

>  <ATP_Site>  (745) 
nan

>  <Peripheral>  (745) 
nan

>  <Num_H_Atoms_ProtBoundConf>  (745) 
nan

>  <Num_Resolved_Atoms>  (745) 
nan

>  <Num_Not_Resolved_Atoms>  (745) 
nan

$$$$
CHEMBL4166079
     RDKit          3D

  0  0  0  0  0  0  0  0  0  0999 V3000
M  V30 BEGIN CTAB
M  V30 COUNTS 75 80 0 0 0
M  V30 BEGIN ATOM
M  V30 1 O 1.989535 -1.145367 2.901543 0
M  V30 2 C 2.497785 -2.128462 3.538949 0
M  V30 3 N 2.354511 -3.348710 2.813439 0
M  V30 4 C 1.683964 -3.161428 1.546468 0
M  V30 5 C 2.466305 -2.960009 0.416797 0
M  V30 6 C 1.820128 -2.769808 -0.804978 0
M  V30 7 C 0.441196 -2.795675 -0.803882 0
M  V30 8 C -0.219134 -2.597881 -2.138812 0
M  V30 9 C -0.503699 -3.891207 -2.820454 0
M  V30 10 N -1.137473 -3.645481 -4.110047 0
M  V30 11 C -2.425909 -3.048739 -4.181575 0
M  V30 12 N -3.099192 -2.705466 -3.073746 0
M  V30 13 C -4.314148 -2.151984 -3.190389 0
M  V30 14 N -4.912862 -1.914632 -4.368386 0
M  V30 15 C -4.243718 -2.256120 -5.484384 0
M  V30 16 O -4.601283 -2.131446 -6.728504 0
M  V30 17 C -3.670906 -2.584361 -7.534049 0
M  V30 18 C -3.843691 -2.551687 -8.973144 0
M  V30 19 C -5.003802 -2.018945 -9.498603 0
M  V30 20 C -5.252664 -1.952411 -10.864639 0
M  V30 21 C -4.327632 -2.428712 -11.777029 0
M  V30 22 C -3.182093 -2.955642 -11.274320 0
M  V30 23 C -2.964995 -3.007222 -9.925442 0
M  V30 24 C -2.642050 -3.031110 -6.738293 0
M  V30 25 Cl -1.165150 -3.728054 -7.299234 0
M  V30 26 C -2.987986 -2.829740 -5.419914 0
M  V30 27 C -0.352908 -2.994624 0.310364 0
M  V30 28 C 0.295837 -3.182264 1.517182 0
M  V30 29 N 3.129031 -2.088697 4.794599 0
M  V30 30 C 3.234431 -0.839920 5.495934 0
M  V30 31 C 4.172439 0.162043 5.464147 0
M  V30 32 C 4.000197 1.258012 6.278324 0
M  V30 33 C 2.923424 1.392173 7.126825 0
M  V30 34 C 2.759279 2.579242 7.988720 0
M  V30 35 N 1.977628 3.621155 7.353683 0
M  V30 36 C 2.600413 4.078274 6.129555 0
M  V30 37 C 1.795221 5.180959 5.475224 0
M  V30 38 C 0.343034 4.790753 5.273738 0
M  V30 39 C -0.179528 4.367862 6.643457 0
M  V30 40 C 0.613027 3.191158 7.114894 0
M  V30 41 C 1.972582 0.389858 7.167930 0
M  V30 42 C 2.130259 -0.722070 6.353853 0
M  V30 43 H 2.740694 -4.228977 3.267701 0
M  V30 44 H 3.551845 -2.951931 0.488152 0
M  V30 45 H 2.370978 -2.608980 -1.720622 0
M  V30 46 H -1.142645 -2.007644 -2.045279 0
M  V30 47 H 0.448949 -2.017940 -2.820798 0
M  V30 48 H -1.158901 -4.552587 -2.190663 0
M  V30 49 H 0.435652 -4.463151 -2.944574 0
M  V30 50 H -0.570021 -3.941802 -4.923915 0
M  V30 51 H -4.868504 -1.869848 -2.291622 0
M  V30 52 H -5.825039 -1.605432 -8.895270 0
M  V30 53 H -6.167244 -1.529670 -11.265221 0
M  V30 54 H -4.548710 -2.364676 -12.829144 0
M  V30 55 H -2.416881 -3.349506 -11.963426 0
M  V30 56 H -2.034097 -3.439796 -9.602641 0
M  V30 57 H -1.439886 -2.994778 0.191764 0
M  V30 58 H -0.308087 -3.337534 2.398638 0
M  V30 59 H 3.518711 -2.980856 5.207204 0
M  V30 60 H 4.951712 -0.065953 4.768816 0
M  V30 61 H 4.771874 2.008661 6.201013 0
M  V30 62 H 3.762548 2.971825 8.263840 0
M  V30 63 H 2.300464 2.237827 8.938205 0
M  V30 64 H 3.578140 4.516515 6.402369 0
M  V30 65 H 2.666010 3.251149 5.402231 0
M  V30 66 H 1.874038 6.106155 6.077271 0
M  V30 67 H 2.230433 5.348724 4.471834 0
M  V30 68 H 0.308927 3.986065 4.537393 0
M  V30 69 H -0.189544 5.717802 4.975139 0
M  V30 70 H -1.272210 4.185545 6.628282 0
M  V30 71 H 0.101138 5.223795 7.319796 0
M  V30 72 H 0.227429 2.789511 8.052959 0
M  V30 73 H 0.649717 2.354762 6.370355 0
M  V30 74 H 1.136005 0.527778 7.847717 0
M  V30 75 H 1.303220 -1.439784 6.487542 0
M  V30 END ATOM
M  V30 BEGIN BOND
M  V30 1 2 1 2
M  V30 2 1 2 3
M  V30 3 1 3 4
M  V30 4 2 4 5
M  V30 5 1 5 6
M  V30 6 2 6 7
M  V30 7 1 7 8
M  V30 8 1 8 9
M  V30 9 1 9 10
M  V30 10 1 10 11
M  V30 11 2 11 12
M  V30 12 1 12 13
M  V30 13 2 13 14
M  V30 14 1 14 15
M  V30 15 1 15 16
M  V30 16 1 16 17
M  V30 17 1 17 18
M  V30 18 2 18 19
M  V30 19 1 19 20
M  V30 20 2 20 21
M  V30 21 1 21 22
M  V30 22 2 22 23
M  V30 23 2 17 24
M  V30 24 1 24 25
M  V30 25 1 24 26
M  V30 26 1 7 27
M  V30 27 2 27 28
M  V30 28 1 2 29
M  V30 29 1 29 30
M  V30 30 2 30 31
M  V30 31 1 31 32
M  V30 32 2 32 33
M  V30 33 1 33 34
M  V30 34 1 34 35
M  V30 35 1 35 36
M  V30 36 1 36 37
M  V30 37 1 37 38
M  V30 38 1 38 39
M  V30 39 1 39 40
M  V30 40 1 33 41
M  V30 41 2 41 42
M  V30 42 1 28 4
M  V30 43 1 42 30
M  V30 44 1 26 11
M  V30 45 1 40 35
M  V30 46 2 26 15
M  V30 47 1 23 18
M  V30 48 1 3 43
M  V30 49 1 5 44
M  V30 50 1 6 45
M  V30 51 1 8 46
M  V30 52 1 8 47
M  V30 53 1 9 48
M  V30 54 1 9 49
M  V30 55 1 10 50
M  V30 56 1 13 51
M  V30 57 1 19 52
M  V30 58 1 20 53
M  V30 59 1 21 54
M  V30 60 1 22 55
M  V30 61 1 23 56
M  V30 62 1 27 57
M  V30 63 1 28 58
M  V30 64 1 29 59
M  V30 65 1 31 60
M  V30 66 1 32 61
M  V30 67 1 34 62
M  V30 68 1 34 63
M  V30 69 1 36 64
M  V30 70 1 36 65
M  V30 71 1 37 66
M  V30 72 1 37 67
M  V30 73 1 38 68
M  V30 74 1 38 69
M  V30 75 1 39 70
M  V30 76 1 39 71
M  V30 77 1 40 72
M  V30 78 1 40 73
M  V30 79 1 41 74
M  V30 80 1 42 75
M  V30 END BOND
M  V30 END CTAB
M  END
>  <Dataset>  (746) 
ChEMBL_Kinases

>  <Ligand_Instance>  (746) 
nan

>  <PDB_ID>  (746) 
nan

>  <Standardized_SMILES>  (746) 
O=C(Nc1ccc(CCNc2ncnc3oc(-c4ccccc4)c(Cl)c23)cc1)Nc1ccc(CN2CCCCC2)cc1

>  <Name>  (746) 
nan

>  <Pocket>  (746) 
nan

>  <ATP_Site>  (746) 
nan

>  <Peripheral>  (746) 
nan

>  <Num_H_Atoms_ProtBoundConf>  (746) 
nan

>  <Num_Resolved_Atoms>  (746) 
nan

>  <Num_Not_Resolved_Atoms>  (746) 
nan

$$$$
CHEMBL4165841
     RDKit          3D

  0  0  0  0  0  0  0  0  0  0999 V3000
M  V30 BEGIN CTAB
M  V30 COUNTS 47 50 0 0 0
M  V30 BEGIN ATOM
M  V30 1 C 0.263698 -5.944795 1.956808 0
M  V30 2 O -0.669528 -5.547773 0.986011 0
M  V30 3 C -0.611301 -4.334708 0.320314 0
M  V30 4 C 0.353336 -3.344232 0.499671 0
M  V30 5 C 0.243183 -2.198936 -0.258361 0
M  V30 6 C -0.787031 -2.016719 -1.176399 0
M  V30 7 N -0.757687 -0.751189 -1.869641 0
M  V30 8 C 0.246603 0.243093 -1.706679 0
M  V30 9 N 1.083745 0.710880 -2.663430 0
M  V30 10 C 2.003781 1.648029 -2.396904 0
M  V30 11 C 2.134462 2.181959 -1.108108 0
M  V30 12 C 1.278545 1.702014 -0.133821 0
M  V30 13 C 1.352539 2.194677 1.237682 0
M  V30 14 C 2.192325 3.164752 1.744773 0
M  V30 15 N 1.960166 3.337799 3.077433 0
M  V30 16 C 2.624416 4.259174 3.988873 0
M  V30 17 C 0.973586 2.466990 3.379289 0
M  V30 18 C 0.318768 2.179924 4.560923 0
M  V30 19 C -0.688030 1.243520 4.716939 0
M  V30 20 C -1.060628 0.538781 3.574829 0
M  V30 21 C -0.424104 0.801741 2.372552 0
M  V30 22 C 0.568081 1.742263 2.277752 0
M  V30 23 N 0.380679 0.756953 -0.491331 0
M  V30 24 C -1.753486 -3.016498 -1.351927 0
M  V30 25 O -2.671172 -2.637491 -2.296695 0
M  V30 26 C -3.739467 -3.484076 -2.641780 0
M  V30 27 C -1.625024 -4.151944 -0.585385 0
M  V30 28 H 0.173338 -7.035400 2.097929 0
M  V30 29 H 0.076530 -5.492065 2.962057 0
M  V30 30 H 1.287312 -5.650351 1.642004 0
M  V30 31 H 1.122137 -3.557658 1.229196 0
M  V30 32 H 1.031241 -1.488106 -0.056200 0
M  V30 33 H -1.546596 -0.549522 -2.552916 0
M  V30 34 H 2.652604 1.988941 -3.212150 0
M  V30 35 H 2.880031 2.939393 -0.897542 0
M  V30 36 H 2.936839 3.713211 1.156865 0
M  V30 37 H 3.532385 3.740392 4.358992 0
M  V30 38 H 2.969886 5.155467 3.435777 0
M  V30 39 H 1.929079 4.540908 4.796184 0
M  V30 40 H 0.602552 2.729874 5.470349 0
M  V30 41 H -1.144680 1.089885 5.693904 0
M  V30 42 H -1.838588 -0.201161 3.646479 0
M  V30 43 H -0.759934 0.222727 1.527015 0
M  V30 44 H -4.604039 -2.800945 -2.858963 0
M  V30 45 H -3.490162 -3.929001 -3.639238 0
M  V30 46 H -3.997942 -4.243059 -1.899928 0
M  V30 47 H -2.412363 -4.861989 -0.791603 0
M  V30 END ATOM
M  V30 BEGIN BOND
M  V30 1 1 1 2
M  V30 2 1 2 3
M  V30 3 2 3 4
M  V30 4 1 4 5
M  V30 5 2 5 6
M  V30 6 1 6 7
M  V30 7 1 7 8
M  V30 8 2 8 9
M  V30 9 1 9 10
M  V30 10 2 10 11
M  V30 11 1 11 12
M  V30 12 1 12 13
M  V30 13 2 13 14
M  V30 14 1 14 15
M  V30 15 1 15 16
M  V30 16 1 15 17
M  V30 17 2 17 18
M  V30 18 1 18 19
M  V30 19 2 19 20
M  V30 20 1 20 21
M  V30 21 2 21 22
M  V30 22 2 12 23
M  V30 23 1 6 24
M  V30 24 1 24 25
M  V30 25 1 25 26
M  V30 26 2 24 27
M  V30 27 1 27 3
M  V30 28 1 23 8
M  V30 29 1 22 13
M  V30 30 1 22 17
M  V30 31 1 1 28
M  V30 32 1 1 29
M  V30 33 1 1 30
M  V30 34 1 4 31
M  V30 35 1 5 32
M  V30 36 1 7 33
M  V30 37 1 10 34
M  V30 38 1 11 35
M  V30 39 1 14 36
M  V30 40 1 16 37
M  V30 41 1 16 38
M  V30 42 1 16 39
M  V30 43 1 18 40
M  V30 44 1 19 41
M  V30 45 1 20 42
M  V30 46 1 21 43
M  V30 47 1 26 44
M  V30 48 1 26 45
M  V30 49 1 26 46
M  V30 50 1 27 47
M  V30 END BOND
M  V30 END CTAB
M  END
>  <Dataset>  (747) 
ChEMBL_Kinases

>  <Ligand_Instance>  (747) 
nan

>  <PDB_ID>  (747) 
nan

>  <Standardized_SMILES>  (747) 
COc1ccc(Nc2nccc(-c3cn(C)c4ccccc34)n2)c(OC)c1

>  <Name>  (747) 
nan

>  <Pocket>  (747) 
nan

>  <ATP_Site>  (747) 
nan

>  <Peripheral>  (747) 
nan

>  <Num_H_Atoms_ProtBoundConf>  (747) 
nan

>  <Num_Resolved_Atoms>  (747) 
nan

>  <Num_Not_Resolved_Atoms>  (747) 
nan

$$$$
CHEMBL3675343
     RDKit          3D

  0  0  0  0  0  0  0  0  0  0999 V3000
M  V30 BEGIN CTAB
M  V30 COUNTS 35 37 0 0 0
M  V30 BEGIN ATOM
M  V30 1 N 3.006173 -3.047237 3.533225 0
M  V30 2 C 1.944866 -3.910298 3.133522 0
M  V30 3 O 1.858104 -4.999197 3.736516 0
M  V30 4 C 1.003888 -3.554204 2.079197 0
M  V30 5 C 0.014245 -4.459717 1.769356 0
M  V30 6 C -0.863370 -4.102262 0.770205 0
M  V30 7 C -0.719785 -2.886012 0.137952 0
M  V30 8 C 0.259663 -1.967303 0.430531 0
M  V30 9 C 0.346531 -0.768637 -0.240828 0
M  V30 10 N -0.558206 -0.403315 -1.274995 0
M  V30 11 C -0.536890 0.834813 -2.025822 0
M  V30 12 C -0.745949 1.964759 -1.113417 0
M  V30 13 C 0.171124 2.769884 -0.496073 0
M  V30 14 C -0.157284 3.790611 0.351973 0
M  V30 15 C -1.464310 4.085973 0.649874 0
M  V30 16 F -1.715201 5.095939 1.485799 0
M  V30 17 C -2.436625 3.312359 0.060016 0
M  V30 18 C -2.067449 2.300190 -0.782505 0
M  V30 19 N 1.360740 -0.007707 0.181083 0
M  V30 20 C 2.239395 -0.288053 1.133050 0
M  V30 21 N 2.112182 -1.470518 1.758605 0
M  V30 22 C 1.125762 -2.344287 1.431699 0
M  V30 23 H 4.062637 -3.046646 3.492714 0
M  V30 24 H 2.565460 -2.203369 3.981152 0
M  V30 25 H -0.039015 -5.386842 2.300990 0
M  V30 26 H -1.634831 -4.824787 0.539072 0
M  V30 27 H -1.468391 -2.730195 -0.621116 0
M  V30 28 H -1.303961 -1.050208 -1.538697 0
M  V30 29 H -1.387224 0.836811 -2.736536 0
M  V30 30 H 0.406837 0.936128 -2.615155 0
M  V30 31 H 1.200901 2.576964 -0.712471 0
M  V30 32 H 0.652833 4.379132 0.797627 0
M  V30 33 H -3.464503 3.525313 0.278249 0
M  V30 34 H -2.888336 1.732648 -1.210605 0
M  V30 35 H 3.014152 0.437815 1.365103 0
M  V30 END ATOM
M  V30 BEGIN BOND
M  V30 1 1 1 2
M  V30 2 2 2 3
M  V30 3 1 2 4
M  V30 4 2 4 5
M  V30 5 1 5 6
M  V30 6 2 6 7
M  V30 7 1 7 8
M  V30 8 2 8 9
M  V30 9 1 9 10
M  V30 10 1 10 11
M  V30 11 1 11 12
M  V30 12 2 12 13
M  V30 13 1 13 14
M  V30 14 2 14 15
M  V30 15 1 15 16
M  V30 16 1 15 17
M  V30 17 2 17 18
M  V30 18 1 9 19
M  V30 19 2 19 20
M  V30 20 1 20 21
M  V30 21 2 21 22
M  V30 22 1 22 4
M  V30 23 1 22 8
M  V30 24 1 18 12
M  V30 25 1 1 23
M  V30 26 1 1 24
M  V30 27 1 5 25
M  V30 28 1 6 26
M  V30 29 1 7 27
M  V30 30 1 10 28
M  V30 31 1 11 29
M  V30 32 1 11 30
M  V30 33 1 13 31
M  V30 34 1 14 32
M  V30 35 1 17 33
M  V30 36 1 18 34
M  V30 37 1 20 35
M  V30 END BOND
M  V30 END CTAB
M  END
>  <Dataset>  (748) 
ChEMBL_Kinases

>  <Ligand_Instance>  (748) 
nan

>  <PDB_ID>  (748) 
nan

>  <Standardized_SMILES>  (748) 
NC(=O)c1cccc2c(NCc3ccc(F)cc3)ncnc12

>  <Name>  (748) 
nan

>  <Pocket>  (748) 
nan

>  <ATP_Site>  (748) 
nan

>  <Peripheral>  (748) 
nan

>  <Num_H_Atoms_ProtBoundConf>  (748) 
nan

>  <Num_Resolved_Atoms>  (748) 
nan

>  <Num_Not_Resolved_Atoms>  (748) 
nan

$$$$
CHEMBL4165526
     RDKit          3D

  0  0  0  0  0  0  0  0  0  0999 V3000
M  V30 BEGIN CTAB
M  V30 COUNTS 37 40 0 0 0
M  V30 BEGIN ATOM
M  V30 1 O 3.953862 -3.024132 2.197058 0
M  V30 2 C 3.097969 -3.566782 1.245799 0
M  V30 3 C 2.868495 -4.929979 1.134727 0
M  V30 4 C 2.041981 -5.506603 0.222167 0
M  V30 5 C 1.375514 -4.661630 -0.668667 0
M  V30 6 C 1.570170 -3.290897 -0.599818 0
M  V30 7 C 2.423330 -2.788498 0.353167 0
M  V30 8 N 2.610158 -1.382729 0.411667 0
M  V30 9 C 2.083725 -0.298842 -0.345244 0
M  V30 10 N 2.639887 0.245494 -1.465868 0
M  V30 11 C 2.041922 1.273359 -2.096572 0
M  V30 12 C 0.847035 1.801912 -1.621191 0
M  V30 13 C 0.284518 1.250197 -0.486753 0
M  V30 14 C -0.970619 1.762366 0.056004 0
M  V30 15 C -1.733153 2.804388 -0.431515 0
M  V30 16 N -2.814913 2.925051 0.390920 0
M  V30 17 C -2.748186 1.995648 1.368465 0
M  V30 18 C -3.560559 1.678512 2.439789 0
M  V30 19 C -3.266358 0.656032 3.318845 0
M  V30 20 C -2.110248 -0.108080 3.148078 0
M  V30 21 C -1.312835 0.225896 2.071237 0
M  V30 22 C -1.597447 1.254593 1.176978 0
M  V30 23 N 0.940450 0.224109 0.089813 0
M  V30 24 H 3.540983 -2.328281 2.830240 0
M  V30 25 H 3.378041 -5.598425 1.817435 0
M  V30 26 H 1.878838 -6.580543 0.155645 0
M  V30 27 H 0.712484 -5.128167 -1.400012 0
M  V30 28 H 1.025267 -2.689462 -1.317395 0
M  V30 29 H 3.213320 -0.877165 1.073231 0
M  V30 30 H 2.544509 1.646450 -2.975016 0
M  V30 31 H 0.384577 2.625237 -2.141626 0
M  V30 32 H -1.496884 3.399825 -1.304457 0
M  V30 33 H -3.570324 3.642175 0.260074 0
M  V30 34 H -4.469996 2.240331 2.617169 0
M  V30 35 H -3.921047 0.429002 4.150271 0
M  V30 36 H -1.866527 -0.905623 3.820893 0
M  V30 37 H -0.420292 -0.371165 1.947432 0
M  V30 END ATOM
M  V30 BEGIN BOND
M  V30 1 1 1 2
M  V30 2 2 2 3
M  V30 3 1 3 4
M  V30 4 2 4 5
M  V30 5 1 5 6
M  V30 6 2 6 7
M  V30 7 1 7 8
M  V30 8 1 8 9
M  V30 9 2 9 10
M  V30 10 1 10 11
M  V30 11 2 11 12
M  V30 12 1 12 13
M  V30 13 1 13 14
M  V30 14 2 14 15
M  V30 15 1 15 16
M  V30 16 1 16 17
M  V30 17 2 17 18
M  V30 18 1 18 19
M  V30 19 2 19 20
M  V30 20 1 20 21
M  V30 21 2 21 22
M  V30 22 2 13 23
M  V30 23 1 7 2
M  V30 24 1 23 9
M  V30 25 1 22 14
M  V30 26 1 22 17
M  V30 27 1 1 24
M  V30 28 1 3 25
M  V30 29 1 4 26
M  V30 30 1 5 27
M  V30 31 1 6 28
M  V30 32 1 8 29
M  V30 33 1 11 30
M  V30 34 1 12 31
M  V30 35 1 15 32
M  V30 36 1 16 33
M  V30 37 1 18 34
M  V30 38 1 19 35
M  V30 39 1 20 36
M  V30 40 1 21 37
M  V30 END BOND
M  V30 END CTAB
M  END
>  <Dataset>  (749) 
ChEMBL_Kinases

>  <Ligand_Instance>  (749) 
nan

>  <PDB_ID>  (749) 
nan

>  <Standardized_SMILES>  (749) 
Oc1ccccc1Nc1nccc(-c2c[nH]c3ccccc23)n1

>  <Name>  (749) 
nan

>  <Pocket>  (749) 
nan

>  <ATP_Site>  (749) 
nan

>  <Peripheral>  (749) 
nan

>  <Num_H_Atoms_ProtBoundConf>  (749) 
nan

>  <Num_Resolved_Atoms>  (749) 
nan

>  <Num_Not_Resolved_Atoms>  (749) 
nan

$$$$
CHEMBL4165437
     RDKit          3D

  0  0  0  0  0  0  0  0  0  0999 V3000
M  V30 BEGIN CTAB
M  V30 COUNTS 66 70 0 0 0
M  V30 BEGIN ATOM
M  V30 1 C 3.474199 -2.667333 6.007720 0
M  V30 2 C 4.797920 -2.320466 5.323948 0
M  V30 3 C 5.895616 -3.215136 5.860379 0
M  V30 4 C 4.570481 -2.507581 3.872989 0
M  V30 5 C 4.219394 -3.750077 3.389511 0
M  V30 6 C 3.989088 -4.010610 2.052582 0
M  V30 7 C 4.133113 -2.923031 1.188255 0
M  V30 8 C 4.485148 -1.675074 1.669203 0
M  V30 9 N 4.590986 -0.663481 0.643493 0
M  V30 10 C 3.373296 -0.003147 0.428830 0
M  V30 11 O 2.429761 -0.379779 1.130099 0
M  V30 12 N 3.163294 1.023897 -0.500135 0
M  V30 13 C 1.990528 1.761424 -0.806534 0
M  V30 14 C 2.039671 2.738218 -1.775624 0
M  V30 15 C 0.933058 3.485339 -2.114895 0
M  V30 16 C -0.286565 3.301063 -1.506905 0
M  V30 17 C -1.468739 4.099113 -1.868941 0
M  V30 18 C -2.300606 3.506012 -2.975965 0
M  V30 19 N -2.830618 2.205521 -2.697058 0
M  V30 20 C -3.739915 2.004118 -1.627231 0
M  V30 21 N -4.146209 3.012272 -0.841343 0
M  V30 22 C -5.007874 2.878908 0.181311 0
M  V30 23 N -5.523937 1.651171 0.468350 0
M  V30 24 C -5.142958 0.601776 -0.298048 0
M  V30 25 O -5.476553 -0.662940 -0.246073 0
M  V30 26 C -4.881124 -1.365470 -1.178096 0
M  V30 27 C -5.127888 -2.786900 -1.277540 0
M  V30 28 C -5.987263 -3.408170 -0.396589 0
M  V30 29 C -6.267476 -4.770048 -0.438106 0
M  V30 30 C -5.679411 -5.574669 -1.389705 0
M  V30 31 C -4.815093 -4.984334 -2.285510 0
M  V30 32 C -4.572384 -3.630171 -2.200030 0
M  V30 33 C -4.114484 -0.488076 -1.872829 0
M  V30 34 Cl -3.115104 -0.919413 -3.224912 0
M  V30 35 C -4.264331 0.768089 -1.332231 0
M  V30 36 C -0.354837 2.327725 -0.534497 0
M  V30 37 C 0.758777 1.600333 -0.216880 0
M  V30 38 C 4.709238 -1.441313 3.006321 0
M  V30 39 H 3.267923 -3.731209 5.745610 0
M  V30 40 H 2.733998 -1.959234 5.556100 0
M  V30 41 H 3.516538 -2.543502 7.099635 0
M  V30 42 H 5.079366 -1.275000 5.586048 0
M  V30 43 H 5.472718 -4.112358 6.377684 0
M  V30 44 H 6.550454 -3.631337 5.056281 0
M  V30 45 H 6.529840 -2.716063 6.626987 0
M  V30 46 H 4.108424 -4.596760 4.071583 0
M  V30 47 H 3.715616 -4.984780 1.687560 0
M  V30 48 H 3.946422 -3.154200 0.141273 0
M  V30 49 H 5.439233 -0.380700 0.067386 0
M  V30 50 H 4.043776 1.252912 -1.034645 0
M  V30 51 H 2.987562 2.925201 -2.290764 0
M  V30 52 H 1.066833 4.229680 -2.887127 0
M  V30 53 H -1.163641 5.131600 -2.150362 0
M  V30 54 H -2.114744 4.189982 -0.975971 0
M  V30 55 H -1.745850 3.561234 -3.912188 0
M  V30 56 H -3.202583 4.187014 -3.047579 0
M  V30 57 H -2.485764 1.468221 -3.338880 0
M  V30 58 H -5.272185 3.759946 0.756380 0
M  V30 59 H -6.515715 -2.871575 0.405652 0
M  V30 60 H -6.957697 -5.226646 0.281464 0
M  V30 61 H -5.931122 -6.624408 -1.377868 0
M  V30 62 H -4.361843 -5.610736 -3.020715 0
M  V30 63 H -3.893935 -3.265653 -2.931145 0
M  V30 64 H -1.308832 2.171575 -0.047266 0
M  V30 65 H 0.623984 0.872538 0.539612 0
M  V30 66 H 4.977809 -0.457804 3.315180 0
M  V30 END ATOM
M  V30 BEGIN BOND
M  V30 1 1 1 2
M  V30 2 1 2 3
M  V30 3 1 2 4
M  V30 4 2 4 5
M  V30 5 1 5 6
M  V30 6 2 6 7
M  V30 7 1 7 8
M  V30 8 1 8 9
M  V30 9 1 9 10
M  V30 10 2 10 11
M  V30 11 1 10 12
M  V30 12 1 12 13
M  V30 13 2 13 14
M  V30 14 1 14 15
M  V30 15 2 15 16
M  V30 16 1 16 17
M  V30 17 1 17 18
M  V30 18 1 18 19
M  V30 19 1 19 20
M  V30 20 2 20 21
M  V30 21 1 21 22
M  V30 22 2 22 23
M  V30 23 1 23 24
M  V30 24 1 24 25
M  V30 25 1 25 26
M  V30 26 1 26 27
M  V30 27 2 27 28
M  V30 28 1 28 29
M  V30 29 2 29 30
M  V30 30 1 30 31
M  V30 31 2 31 32
M  V30 32 2 26 33
M  V30 33 1 33 34
M  V30 34 1 33 35
M  V30 35 1 16 36
M  V30 36 2 36 37
M  V30 37 2 8 38
M  V30 38 1 38 4
M  V30 39 1 37 13
M  V30 40 1 35 20
M  V30 41 2 35 24
M  V30 42 1 32 27
M  V30 43 1 1 39
M  V30 44 1 1 40
M  V30 45 1 1 41
M  V30 46 1 2 42
M  V30 47 1 3 43
M  V30 48 1 3 44
M  V30 49 1 3 45
M  V30 50 1 5 46
M  V30 51 1 6 47
M  V30 52 1 7 48
M  V30 53 1 9 49
M  V30 54 1 12 50
M  V30 55 1 14 51
M  V30 56 1 15 52
M  V30 57 1 17 53
M  V30 58 1 17 54
M  V30 59 1 18 55
M  V30 60 1 18 56
M  V30 61 1 19 57
M  V30 62 1 22 58
M  V30 63 1 28 59
M  V30 64 1 29 60
M  V30 65 1 30 61
M  V30 66 1 31 62
M  V30 67 1 32 63
M  V30 68 1 36 64
M  V30 69 1 37 65
M  V30 70 1 38 66
M  V30 END BOND
M  V30 END CTAB
M  END
>  <Dataset>  (750) 
ChEMBL_Kinases

>  <Ligand_Instance>  (750) 
nan

>  <PDB_ID>  (750) 
nan

>  <Standardized_SMILES>  (750) 
CC(C)c1cccc(NC(=O)Nc2ccc(CCNc3ncnc4oc(-c5ccccc5)c(Cl)c34)cc2)c1

>  <Name>  (750) 
nan

>  <Pocket>  (750) 
nan

>  <ATP_Site>  (750) 
nan

>  <Peripheral>  (750) 
nan

>  <Num_H_Atoms_ProtBoundConf>  (750) 
nan

>  <Num_Resolved_Atoms>  (750) 
nan

>  <Num_Not_Resolved_Atoms>  (750) 
nan

$$$$
CHEMBL4166554
     RDKit          3D

  0  0  0  0  0  0  0  0  0  0999 V3000
M  V30 BEGIN CTAB
M  V30 COUNTS 32 34 0 0 0
M  V30 BEGIN ATOM
M  V30 1 O 1.519068 -0.205445 3.789330 0
M  V30 2 C 1.918650 -1.052604 2.957626 0
M  V30 3 O 2.659986 -2.039076 3.579863 0
M  V30 4 C 1.659416 -1.035012 1.523505 0
M  V30 5 N 2.218596 -2.066611 0.832186 0
M  V30 6 C 2.050373 -2.137812 -0.485836 0
M  V30 7 C 2.579777 -3.153225 -1.287003 0
M  V30 8 C 2.400589 -3.225336 -2.650381 0
M  V30 9 C 1.650137 -2.216477 -3.210763 0
M  V30 10 C 1.091986 -1.178437 -2.499374 0
M  V30 11 C 1.318017 -1.175049 -1.134261 0
M  V30 12 N 0.789578 -0.180520 -0.407629 0
M  V30 13 C 0.903055 -0.026481 0.912955 0
M  V30 14 N 0.359909 0.976512 1.769097 0
M  V30 15 C -1.040696 0.861584 1.979004 0
M  V30 16 C -1.695247 0.640871 3.174314 0
M  V30 17 C -3.066455 0.540580 3.360558 0
M  V30 18 C -3.818718 0.681486 2.216961 0
M  V30 19 C -3.279675 0.907364 0.966573 0
M  V30 20 C -1.890574 0.992692 0.875824 0
M  V30 21 O -1.453425 1.225634 -0.436047 0
M  V30 22 H 2.689126 -2.238708 4.551785 0
M  V30 23 H 3.146622 -3.884550 -0.720325 0
M  V30 24 H 2.848441 -4.065407 -3.208118 0
M  V30 25 H 1.510266 -2.275739 -4.280809 0
M  V30 26 H 0.518409 -0.433865 -3.025013 0
M  V30 27 H 0.993925 1.705699 2.177740 0
M  V30 28 H -1.083897 0.537084 4.055958 0
M  V30 29 H -3.457392 0.362196 4.359326 0
M  V30 30 H -4.914778 0.606291 2.319308 0
M  V30 31 H -3.953410 1.006223 0.129020 0
M  V30 32 H -1.473775 2.201841 -0.777998 0
M  V30 END ATOM
M  V30 BEGIN BOND
M  V30 1 2 1 2
M  V30 2 1 2 3
M  V30 3 1 2 4
M  V30 4 2 4 5
M  V30 5 1 5 6
M  V30 6 2 6 7
M  V30 7 1 7 8
M  V30 8 2 8 9
M  V30 9 1 9 10
M  V30 10 2 10 11
M  V30 11 1 11 12
M  V30 12 2 12 13
M  V30 13 1 13 14
M  V30 14 1 14 15
M  V30 15 2 15 16
M  V30 16 1 16 17
M  V30 17 2 17 18
M  V30 18 1 18 19
M  V30 19 2 19 20
M  V30 20 1 20 21
M  V30 21 1 13 4
M  V30 22 1 20 15
M  V30 23 1 11 6
M  V30 24 1 3 22
M  V30 25 1 7 23
M  V30 26 1 8 24
M  V30 27 1 9 25
M  V30 28 1 10 26
M  V30 29 1 14 27
M  V30 30 1 16 28
M  V30 31 1 17 29
M  V30 32 1 18 30
M  V30 33 1 19 31
M  V30 34 1 21 32
M  V30 END BOND
M  V30 END CTAB
M  END
>  <Dataset>  (751) 
ChEMBL_Kinases

>  <Ligand_Instance>  (751) 
nan

>  <PDB_ID>  (751) 
nan

>  <Standardized_SMILES>  (751) 
O=C(O)c1nc2ccccc2nc1Nc1ccccc1O

>  <Name>  (751) 
nan

>  <Pocket>  (751) 
nan

>  <ATP_Site>  (751) 
nan

>  <Peripheral>  (751) 
nan

>  <Num_H_Atoms_ProtBoundConf>  (751) 
nan

>  <Num_Resolved_Atoms>  (751) 
nan

>  <Num_Not_Resolved_Atoms>  (751) 
nan

$$$$
CHEMBL3675362
     RDKit          3D

  0  0  0  0  0  0  0  0  0  0999 V3000
M  V30 BEGIN CTAB
M  V30 COUNTS 37 39 0 0 0
M  V30 BEGIN ATOM
M  V30 1 N 2.654481 -2.377560 5.930113 0
M  V30 2 C 1.629078 -2.217456 4.963046 0
M  V30 3 O 0.579561 -2.232029 5.623175 0
M  V30 4 C 1.941946 -2.081101 3.545372 0
M  V30 5 C 3.262733 -2.111107 3.150345 0
M  V30 6 C 3.514728 -1.978863 1.804088 0
M  V30 7 C 2.477661 -1.826367 0.926443 0
M  V30 8 C 1.152451 -1.791730 1.280811 0
M  V30 9 C 0.146278 -1.635411 0.353654 0
M  V30 10 N 0.394709 -1.503940 -1.012951 0
M  V30 11 C -0.563596 -1.333911 -2.074920 0
M  V30 12 C -1.311069 -0.066629 -1.855735 0
M  V30 13 C -2.519541 0.118860 -1.224943 0
M  V30 14 C -3.065263 1.378202 -1.097725 0
M  V30 15 C -2.449951 2.514833 -1.584472 0
M  V30 16 C -1.237973 2.345887 -2.219893 0
M  V30 17 N -0.558281 3.496876 -2.743566 0
M  V30 18 C -0.710287 1.078988 -2.336056 0
M  V30 19 N -1.071012 -1.628019 0.905382 0
M  V30 20 C -1.335939 -1.755377 2.213327 0
M  V30 21 N -0.331988 -1.907382 3.102106 0
M  V30 22 C 0.921892 -1.925744 2.632571 0
M  V30 23 H 3.686502 -2.513188 5.870552 0
M  V30 24 H 3.695886 -2.514385 5.868520 0
M  V30 25 H 4.055097 -2.232305 3.864065 0
M  V30 26 H 4.567136 -2.004312 1.503335 0
M  V30 27 H 2.791327 -1.732731 -0.095138 0
M  V30 28 H 1.363619 -1.520292 -1.393286 0
M  V30 29 H -0.129379 -1.277232 -3.070094 0
M  V30 30 H -1.296692 -2.178867 -2.108211 0
M  V30 31 H -2.997686 -0.768856 -0.856201 0
M  V30 32 H -4.020192 1.418232 -0.584569 0
M  V30 33 H -2.903028 3.489376 -1.469292 0
M  V30 34 H 0.301540 4.027040 -2.422638 0
M  V30 35 H -0.907941 3.981872 -3.618044 0
M  V30 36 H 0.250982 1.039870 -2.852843 0
M  V30 37 H -2.380141 -1.731670 2.526643 0
M  V30 END ATOM
M  V30 BEGIN BOND
M  V30 1 1 1 2
M  V30 2 2 2 3
M  V30 3 1 2 4
M  V30 4 2 4 5
M  V30 5 1 5 6
M  V30 6 2 6 7
M  V30 7 1 7 8
M  V30 8 2 8 9
M  V30 9 1 9 10
M  V30 10 1 10 11
M  V30 11 1 11 12
M  V30 12 2 12 13
M  V30 13 1 13 14
M  V30 14 2 14 15
M  V30 15 1 15 16
M  V30 16 1 16 17
M  V30 17 2 16 18
M  V30 18 1 9 19
M  V30 19 2 19 20
M  V30 20 1 20 21
M  V30 21 2 21 22
M  V30 22 1 22 4
M  V30 23 1 22 8
M  V30 24 1 18 12
M  V30 25 1 1 23
M  V30 26 1 1 24
M  V30 27 1 5 25
M  V30 28 1 6 26
M  V30 29 1 7 27
M  V30 30 1 10 28
M  V30 31 1 11 29
M  V30 32 1 11 30
M  V30 33 1 13 31
M  V30 34 1 14 32
M  V30 35 1 15 33
M  V30 36 1 17 34
M  V30 37 1 17 35
M  V30 38 1 18 36
M  V30 39 1 20 37
M  V30 END BOND
M  V30 END CTAB
M  END
>  <Dataset>  (752) 
ChEMBL_Kinases

>  <Ligand_Instance>  (752) 
nan

>  <PDB_ID>  (752) 
nan

>  <Standardized_SMILES>  (752) 
NC(=O)c1cccc2c(NCc3cccc(N)c3)ncnc12

>  <Name>  (752) 
nan

>  <Pocket>  (752) 
nan

>  <ATP_Site>  (752) 
nan

>  <Peripheral>  (752) 
nan

>  <Num_H_Atoms_ProtBoundConf>  (752) 
nan

>  <Num_Resolved_Atoms>  (752) 
nan

>  <Num_Not_Resolved_Atoms>  (752) 
nan

$$$$
CHEMBL3675361
     RDKit          3D

  0  0  0  0  0  0  0  0  0  0999 V3000
M  V30 BEGIN CTAB
M  V30 COUNTS 49 52 0 0 0
M  V30 BEGIN ATOM
M  V30 1 N 4.722401 -5.479930 4.545365 0
M  V30 2 C 4.116298 -4.952381 3.376080 0
M  V30 3 O 3.453352 -5.742683 2.671099 0
M  V30 4 C 4.286696 -3.530453 3.045675 0
M  V30 5 C 5.029863 -2.715344 3.865578 0
M  V30 6 C 5.144364 -1.375223 3.482066 0
M  V30 7 C 4.517277 -0.958910 2.326753 0
M  V30 8 C 3.777655 -1.763228 1.507844 0
M  V30 9 C 3.182037 -1.269280 0.369236 0
M  V30 10 N 3.292656 0.087584 -0.035685 0
M  V30 11 C 2.700186 0.691670 -1.211413 0
M  V30 12 C 1.222955 0.606573 -1.129500 0
M  V30 13 C 0.621578 1.632576 -0.413768 0
M  V30 14 C -0.747013 1.669787 -0.279140 0
M  V30 15 C -1.598600 0.735676 -0.817889 0
M  V30 16 N -3.010589 0.691272 -0.732622 0
M  V30 17 C -3.902659 1.574144 -0.086163 0
M  V30 18 O -3.432769 2.567547 0.522131 0
M  V30 19 C -5.333069 1.447704 -0.052824 0
M  V30 20 C -6.088778 2.385579 0.618594 0
M  V30 21 C -7.485608 2.313680 0.684656 0
M  V30 22 C -8.157001 1.282329 0.067698 0
M  V30 23 F -9.505580 1.160335 0.097250 0
M  V30 24 C -7.440001 0.322242 -0.615049 0
M  V30 25 C -6.068465 0.444113 -0.646545 0
M  V30 26 C -0.980105 -0.270466 -1.522399 0
M  V30 27 C 0.386253 -0.320392 -1.665378 0
M  V30 28 N 2.491251 -2.179178 -0.328848 0
M  V30 29 C 2.355134 -3.469699 0.000066 0
M  V30 30 N 2.961440 -3.920291 1.137166 0
M  V30 31 C 3.678779 -3.074478 1.903674 0
M  V30 32 H 5.651820 -5.950251 4.525071 0
M  V30 33 H 4.629369 -5.621596 5.558059 0
M  V30 34 H 5.494568 -3.096356 4.752160 0
M  V30 35 H 5.731454 -0.750714 4.137934 0
M  V30 36 H 4.683320 0.088456 2.146895 0
M  V30 37 H 3.848173 0.749312 0.545832 0
M  V30 38 H 3.023881 1.744523 -1.283089 0
M  V30 39 H 3.035280 0.173426 -2.142732 0
M  V30 40 H 1.197313 2.421814 0.053014 0
M  V30 41 H -1.182603 2.480476 0.283222 0
M  V30 42 H -3.533036 -0.081984 -1.193421 0
M  V30 43 H -5.667917 3.249754 1.146995 0
M  V30 44 H -8.066796 3.050300 1.211003 0
M  V30 45 H -7.938909 -0.510422 -1.116642 0
M  V30 46 H -5.545812 -0.325590 -1.189695 0
M  V30 47 H -1.557475 -1.076957 -2.000319 0
M  V30 48 H 0.832968 -1.113414 -2.230296 0
M  V30 49 H 1.767363 -4.129104 -0.642099 0
M  V30 END ATOM
M  V30 BEGIN BOND
M  V30 1 1 1 2
M  V30 2 2 2 3
M  V30 3 1 2 4
M  V30 4 2 4 5
M  V30 5 1 5 6
M  V30 6 2 6 7
M  V30 7 1 7 8
M  V30 8 2 8 9
M  V30 9 1 9 10
M  V30 10 1 10 11
M  V30 11 1 11 12
M  V30 12 2 12 13
M  V30 13 1 13 14
M  V30 14 2 14 15
M  V30 15 1 15 16
M  V30 16 1 16 17
M  V30 17 2 17 18
M  V30 18 1 17 19
M  V30 19 2 19 20
M  V30 20 1 20 21
M  V30 21 2 21 22
M  V30 22 1 22 23
M  V30 23 1 22 24
M  V30 24 2 24 25
M  V30 25 1 15 26
M  V30 26 2 26 27
M  V30 27 1 9 28
M  V30 28 2 28 29
M  V30 29 1 29 30
M  V30 30 2 30 31
M  V30 31 1 31 4
M  V30 32 1 31 8
M  V30 33 1 27 12
M  V30 34 1 25 19
M  V30 35 1 1 32
M  V30 36 1 1 33
M  V30 37 1 5 34
M  V30 38 1 6 35
M  V30 39 1 7 36
M  V30 40 1 10 37
M  V30 41 1 11 38
M  V30 42 1 11 39
M  V30 43 1 13 40
M  V30 44 1 14 41
M  V30 45 1 16 42
M  V30 46 1 20 43
M  V30 47 1 21 44
M  V30 48 1 24 45
M  V30 49 1 25 46
M  V30 50 1 26 47
M  V30 51 1 27 48
M  V30 52 1 29 49
M  V30 END BOND
M  V30 END CTAB
M  END
>  <Dataset>  (753) 
ChEMBL_Kinases

>  <Ligand_Instance>  (753) 
nan

>  <PDB_ID>  (753) 
nan

>  <Standardized_SMILES>  (753) 
NC(=O)c1cccc2c(NCc3ccc(NC(=O)c4ccc(F)cc4)cc3)ncnc12

>  <Name>  (753) 
nan

>  <Pocket>  (753) 
nan

>  <ATP_Site>  (753) 
nan

>  <Peripheral>  (753) 
nan

>  <Num_H_Atoms_ProtBoundConf>  (753) 
nan

>  <Num_Resolved_Atoms>  (753) 
nan

>  <Num_Not_Resolved_Atoms>  (753) 
nan

$$$$
CHEMBL3330230
     RDKit          3D

  0  0  0  0  0  0  0  0  0  0999 V3000
M  V30 BEGIN CTAB
M  V30 COUNTS 45 49 0 0 0
M  V30 BEGIN ATOM
M  V30 1 O 0.431359 -4.534864 1.737040 0
M  V30 2 C 1.078450 -3.561160 1.227095 0
M  V30 3 N 2.350296 -3.855697 0.988052 0
M  V30 4 C 3.197285 -3.050717 0.482640 0
M  V30 5 S 4.944518 -3.123153 0.031498 0
M  V30 6 C 5.027096 -1.407324 -0.585602 0
M  V30 7 Br 6.606829 -0.625391 -1.288153 0
M  V30 8 C 3.741671 -0.939452 -0.397142 0
M  V30 9 C 2.801073 -1.773814 0.148521 0
M  V30 10 C 1.469498 -1.375196 0.368901 0
M  V30 11 N 0.966255 -0.066520 0.092277 0
M  V30 12 C 0.475728 1.208879 -0.177292 0
M  V30 13 C 1.363457 2.093879 -1.009444 0
M  V30 14 C 2.364118 2.880175 -0.218414 0
M  V30 15 C 2.200376 2.817652 1.258436 0
M  V30 16 N 0.823742 2.933674 1.575882 0
M  V30 17 C -0.045895 1.947232 1.045914 0
M  V30 18 C 0.604148 -2.286142 0.913376 0
M  V30 19 C -0.814049 -2.173893 1.194185 0
M  V30 20 N -1.590280 -3.127315 1.749320 0
M  V30 21 C -2.857624 -2.784706 1.875728 0
M  V30 22 C -3.863582 -3.565054 2.408014 0
M  V30 23 C -5.111268 -2.932751 2.410860 0
M  V30 24 C -5.314655 -1.657815 1.929993 0
M  V30 25 C -4.229742 -0.955151 1.413020 0
M  V30 26 C -2.975834 -1.514894 1.379018 0
M  V30 27 N -1.730218 -1.231283 0.999768 0
M  V30 28 H 2.751483 -4.786052 1.202687 0
M  V30 29 H 3.665471 0.083093 -0.731335 0
M  V30 30 H 1.783798 0.436667 -0.179812 0
M  V30 31 H -0.446156 1.080637 -0.832462 0
M  V30 32 H 1.947538 1.469232 -1.717425 0
M  V30 33 H 0.769971 2.793395 -1.634616 0
M  V30 34 H 2.321303 3.971481 -0.502204 0
M  V30 35 H 3.429121 2.605397 -0.456391 0
M  V30 36 H 2.713978 3.708679 1.702023 0
M  V30 37 H 2.678209 1.949498 1.751567 0
M  V30 38 H 0.435539 3.862796 1.715726 0
M  V30 39 H -0.204418 1.174307 1.839172 0
M  V30 40 H -1.039826 2.408834 0.872269 0
M  V30 41 H -3.704419 -4.564842 2.785357 0
M  V30 42 H -5.976493 -3.474280 2.815403 0
M  V30 43 H -6.284402 -1.180156 1.937749 0
M  V30 44 H -4.298110 0.064229 1.008514 0
M  V30 45 H -1.626505 -0.315117 0.590434 0
M  V30 END ATOM
M  V30 BEGIN BOND
M  V30 1 2 1 2
M  V30 2 1 2 3
M  V30 3 1 3 4
M  V30 4 1 4 5
M  V30 5 1 5 6
M  V30 6 1 6 7
M  V30 7 2 6 8
M  V30 8 1 8 9
M  V30 9 1 9 10
M  V30 10 1 10 11
M  V30 11 1 11 12
M  V30 12 1 12 13
M  V30 13 1 13 14
M  V30 14 1 14 15
M  V30 15 1 15 16
M  V30 16 1 16 17
M  V30 17 2 10 18
M  V30 18 1 18 19
M  V30 19 2 19 20
M  V30 20 1 20 21
M  V30 21 2 21 22
M  V30 22 1 22 23
M  V30 23 2 23 24
M  V30 24 1 24 25
M  V30 25 2 25 26
M  V30 26 1 26 27
M  V30 27 1 18 2
M  V30 28 1 27 19
M  V30 29 2 9 4
M  V30 30 1 17 12
M  V30 31 1 26 21
M  V30 32 1 3 28
M  V30 33 1 8 29
M  V30 34 1 11 30
M  V30 35 1 12 31
M  V30 36 1 13 32
M  V30 37 1 13 33
M  V30 38 1 14 34
M  V30 39 1 14 35
M  V30 40 1 15 36
M  V30 41 1 15 37
M  V30 42 1 16 38
M  V30 43 1 17 39
M  V30 44 1 17 40
M  V30 45 1 22 41
M  V30 46 1 23 42
M  V30 47 1 24 43
M  V30 48 1 25 44
M  V30 49 1 27 45
M  V30 END BOND
M  V30 END CTAB
M  END
>  <Dataset>  (754) 
ChEMBL_Kinases

>  <Ligand_Instance>  (754) 
nan

>  <PDB_ID>  (754) 
nan

>  <Standardized_SMILES>  (754) 
O=c1[nH]c2sc(Br)cc2c(NC2CCCNC2)c1-c1nc2ccccc2[nH]1

>  <Name>  (754) 
nan

>  <Pocket>  (754) 
nan

>  <ATP_Site>  (754) 
nan

>  <Peripheral>  (754) 
nan

>  <Num_H_Atoms_ProtBoundConf>  (754) 
nan

>  <Num_Resolved_Atoms>  (754) 
nan

>  <Num_Not_Resolved_Atoms>  (754) 
nan

$$$$
CHEMBL3675360
     RDKit          3D

  0  0  0  0  0  0  0  0  0  0999 V3000
M  V30 BEGIN CTAB
M  V30 COUNTS 37 39 0 0 0
M  V30 BEGIN ATOM
M  V30 1 N 1.797994 -4.393795 5.020542 0
M  V30 2 C 0.970055 -3.783287 4.055979 0
M  V30 3 O -0.220468 -3.878577 4.440244 0
M  V30 4 C 1.567040 -3.189163 2.868937 0
M  V30 5 C 2.924020 -3.215305 2.673501 0
M  V30 6 C 3.414827 -2.632384 1.526386 0
M  V30 7 C 2.534173 -2.056445 0.637475 0
M  V30 8 C 1.171635 -2.011262 0.799284 0
M  V30 9 C 0.328750 -1.423940 -0.116910 0
M  V30 10 N 0.804971 -0.832379 -1.284662 0
M  V30 11 C 0.035090 -0.184419 -2.320502 0
M  V30 12 C -0.662442 0.980891 -1.720702 0
M  V30 13 C -1.925543 1.059724 -1.223549 0
M  V30 14 C -2.435599 2.218666 -0.679733 0
M  V30 15 C -1.691205 3.375178 -0.607107 0
M  V30 16 N -2.228655 4.561343 -0.044656 0
M  V30 17 C -0.386914 3.358269 -1.101398 0
M  V30 18 C 0.066865 2.174049 -1.631513 0
M  V30 19 N -0.950448 -1.491003 0.234097 0
M  V30 20 C -1.417364 -2.061261 1.353891 0
M  V30 21 N -0.583579 -2.631289 2.240284 0
M  V30 22 C 0.727517 -2.606176 1.959850 0
M  V30 23 H 2.325601 -5.205515 4.581060 0
M  V30 24 H 2.399850 -4.835441 5.727079 0
M  V30 25 H 3.532169 -3.689118 3.425600 0
M  V30 26 H 4.490096 -2.648989 1.363940 0
M  V30 27 H 3.009316 -1.627998 -0.225977 0
M  V30 28 H 1.817740 -0.806153 -1.523609 0
M  V30 29 H 0.639079 0.225977 -3.152913 0
M  V30 30 H -0.704187 -0.884298 -2.780977 0
M  V30 31 H -2.521342 0.171862 -1.281256 0
M  V30 32 H -3.463236 2.184126 -0.304825 0
M  V30 33 H -1.893966 4.469717 0.942346 0
M  V30 34 H -2.716312 4.989413 -0.873718 0
M  V30 35 H 0.243531 4.230209 -1.072812 0
M  V30 36 H 1.098524 2.195452 -2.011969 0
M  V30 37 H -2.499937 -2.063101 1.551262 0
M  V30 END ATOM
M  V30 BEGIN BOND
M  V30 1 1 1 2
M  V30 2 2 2 3
M  V30 3 1 2 4
M  V30 4 2 4 5
M  V30 5 1 5 6
M  V30 6 2 6 7
M  V30 7 1 7 8
M  V30 8 2 8 9
M  V30 9 1 9 10
M  V30 10 1 10 11
M  V30 11 1 11 12
M  V30 12 2 12 13
M  V30 13 1 13 14
M  V30 14 2 14 15
M  V30 15 1 15 16
M  V30 16 1 15 17
M  V30 17 2 17 18
M  V30 18 1 9 19
M  V30 19 2 19 20
M  V30 20 1 20 21
M  V30 21 2 21 22
M  V30 22 1 22 4
M  V30 23 1 22 8
M  V30 24 1 18 12
M  V30 25 1 1 23
M  V30 26 1 1 24
M  V30 27 1 5 25
M  V30 28 1 6 26
M  V30 29 1 7 27
M  V30 30 1 10 28
M  V30 31 1 11 29
M  V30 32 1 11 30
M  V30 33 1 13 31
M  V30 34 1 14 32
M  V30 35 1 16 33
M  V30 36 1 16 34
M  V30 37 1 17 35
M  V30 38 1 18 36
M  V30 39 1 20 37
M  V30 END BOND
M  V30 END CTAB
M  END
>  <Dataset>  (755) 
ChEMBL_Kinases

>  <Ligand_Instance>  (755) 
nan

>  <PDB_ID>  (755) 
nan

>  <Standardized_SMILES>  (755) 
NC(=O)c1cccc2c(NCc3ccc(N)cc3)ncnc12

>  <Name>  (755) 
nan

>  <Pocket>  (755) 
nan

>  <ATP_Site>  (755) 
nan

>  <Peripheral>  (755) 
nan

>  <Num_H_Atoms_ProtBoundConf>  (755) 
nan

>  <Num_Resolved_Atoms>  (755) 
nan

>  <Num_Not_Resolved_Atoms>  (755) 
nan

$$$$
CHEMBL3675359
     RDKit          3D

  0  0  0  0  0  0  0  0  0  0999 V3000
M  V30 BEGIN CTAB
M  V30 COUNTS 36 38 0 0 0
M  V30 BEGIN ATOM
M  V30 1 N -4.619775 -2.020830 0.768805 0
M  V30 2 C -3.800613 -3.196171 0.733316 0
M  V30 3 O -4.913508 -3.635315 1.041474 0
M  V30 4 C -2.384429 -3.238261 0.418904 0
M  V30 5 C -1.793225 -4.481815 0.437412 0
M  V30 6 C -0.425020 -4.493116 0.134767 0
M  V30 7 C 0.193492 -3.287094 -0.147826 0
M  V30 8 C -0.457803 -2.093714 -0.146933 0
M  V30 9 C 0.230623 -0.912051 -0.440598 0
M  V30 10 N 1.613011 -0.898488 -0.753326 0
M  V30 11 C 2.396787 0.293423 -1.065162 0
M  V30 12 C 2.481753 1.258946 0.036943 0
M  V30 13 C 1.726043 2.365787 0.355405 0
M  V30 14 C 1.961766 3.148355 1.456747 0
M  V30 15 C 3.018655 2.766984 2.252824 0
M  V30 16 O 3.306847 3.528475 3.391714 0
M  V30 17 C 3.838128 1.675470 2.022686 0
M  V30 18 C 3.546265 0.915064 0.881307 0
M  V30 19 N -0.499539 0.194582 -0.410430 0
M  V30 20 C -1.808790 0.242400 -0.125635 0
M  V30 21 N -2.503065 -0.882023 0.162395 0
M  V30 22 C -1.804928 -2.020513 0.143320 0
M  V30 23 H -4.628093 -1.048455 1.211604 0
M  V30 24 H -4.720863 -1.064486 1.152197 0
M  V30 25 H -2.369580 -5.367059 0.672892 0
M  V30 26 H 0.084783 -5.435266 0.135053 0
M  V30 27 H 1.244862 -3.397160 -0.367647 0
M  V30 28 H 2.201173 -1.730763 -0.789651 0
M  V30 29 H 1.805503 0.796293 -1.876722 0
M  V30 30 H 3.372138 0.080791 -1.518478 0
M  V30 31 H 0.942079 2.544577 -0.359289 0
M  V30 32 H 1.336155 3.987707 1.639242 0
M  V30 33 H 2.979473 4.502597 3.427723 0
M  V30 34 H 4.647851 1.445952 2.699923 0
M  V30 35 H 4.244379 0.069510 0.774819 0
M  V30 36 H -2.228870 1.258796 -0.154791 0
M  V30 END ATOM
M  V30 BEGIN BOND
M  V30 1 1 1 2
M  V30 2 2 2 3
M  V30 3 1 2 4
M  V30 4 2 4 5
M  V30 5 1 5 6
M  V30 6 2 6 7
M  V30 7 1 7 8
M  V30 8 2 8 9
M  V30 9 1 9 10
M  V30 10 1 10 11
M  V30 11 1 11 12
M  V30 12 2 12 13
M  V30 13 1 13 14
M  V30 14 2 14 15
M  V30 15 1 15 16
M  V30 16 1 15 17
M  V30 17 2 17 18
M  V30 18 1 9 19
M  V30 19 2 19 20
M  V30 20 1 20 21
M  V30 21 2 21 22
M  V30 22 1 22 4
M  V30 23 1 22 8
M  V30 24 1 18 12
M  V30 25 1 1 23
M  V30 26 1 1 24
M  V30 27 1 5 25
M  V30 28 1 6 26
M  V30 29 1 7 27
M  V30 30 1 10 28
M  V30 31 1 11 29
M  V30 32 1 11 30
M  V30 33 1 13 31
M  V30 34 1 14 32
M  V30 35 1 16 33
M  V30 36 1 17 34
M  V30 37 1 18 35
M  V30 38 1 20 36
M  V30 END BOND
M  V30 END CTAB
M  END
>  <Dataset>  (756) 
ChEMBL_Kinases

>  <Ligand_Instance>  (756) 
nan

>  <PDB_ID>  (756) 
nan

>  <Standardized_SMILES>  (756) 
NC(=O)c1cccc2c(NCc3ccc(O)cc3)ncnc12

>  <Name>  (756) 
nan

>  <Pocket>  (756) 
nan

>  <ATP_Site>  (756) 
nan

>  <Peripheral>  (756) 
nan

>  <Num_H_Atoms_ProtBoundConf>  (756) 
nan

>  <Num_Resolved_Atoms>  (756) 
nan

>  <Num_Not_Resolved_Atoms>  (756) 
nan

$$$$
CHEMBL3675358
     RDKit          3D

  0  0  0  0  0  0  0  0  0  0999 V3000
M  V30 BEGIN CTAB
M  V30 COUNTS 52 54 0 0 0
M  V30 BEGIN ATOM
M  V30 1 C 2.974716 -2.697468 6.435481 0
M  V30 2 C 2.375625 -2.379042 5.091263 0
M  V30 3 C 1.051923 -1.650921 5.210863 0
M  V30 4 C 2.081643 -3.689970 4.397209 0
M  V30 5 O 3.228627 -1.548098 4.316238 0
M  V30 6 C 2.901236 -1.126214 3.062766 0
M  V30 7 O 1.802772 -1.491808 2.585961 0
M  V30 8 N 3.699834 -0.298491 2.232970 0
M  V30 9 C 3.135664 -0.000938 0.972041 0
M  V30 10 C 2.354984 1.138449 0.941583 0
M  V30 11 C 1.728988 1.575031 -0.206742 0
M  V30 12 C 1.856942 0.882838 -1.391052 0
M  V30 13 C 1.304442 1.107451 -2.732238 0
M  V30 14 N 0.073581 0.403671 -2.981229 0
M  V30 15 C -1.135111 0.601414 -2.261731 0
M  V30 16 N -1.276535 1.467723 -1.269978 0
M  V30 17 C -2.382875 1.702614 -0.557331 0
M  V30 18 N -3.514072 1.002711 -0.841110 0
M  V30 19 C -3.474760 0.085121 -1.845664 0
M  V30 20 C -4.607224 -0.637628 -2.153486 0
M  V30 21 C -5.822635 -0.396936 -1.389200 0
M  V30 22 N -5.896275 0.551358 -0.337125 0
M  V30 23 O -6.899020 -1.012705 -1.605238 0
M  V30 24 C -4.628503 -1.574120 -3.153187 0
M  V30 25 C -3.454393 -1.777294 -3.859827 0
M  V30 26 C -2.338797 -1.038466 -3.527678 0
M  V30 27 C -2.292997 -0.095450 -2.531144 0
M  V30 28 C 2.643671 -0.266611 -1.364090 0
M  V30 29 C 3.278985 -0.710522 -0.201371 0
M  V30 30 H 3.510452 -3.651384 6.364705 0
M  V30 31 H 2.128676 -2.775276 7.144728 0
M  V30 32 H 3.640051 -1.890636 6.809339 0
M  V30 33 H 1.170750 -0.560673 4.972022 0
M  V30 34 H 0.319417 -2.024395 4.447859 0
M  V30 35 H 0.589329 -1.713706 6.200754 0
M  V30 36 H 3.002052 -4.211189 4.069453 0
M  V30 37 H 1.636377 -4.341077 5.184487 0
M  V30 38 H 1.305987 -3.601584 3.612907 0
M  V30 39 H 4.630308 0.024707 2.608546 0
M  V30 40 H 2.168051 1.776795 1.795440 0
M  V30 41 H 1.111566 2.455057 -0.311323 0
M  V30 42 H 1.050622 2.209734 -2.845542 0
M  V30 43 H 2.036704 0.923829 -3.526597 0
M  V30 44 H 0.139318 -0.287560 -3.756348 0
M  V30 45 H -2.367739 2.436040 0.226261 0
M  V30 46 H -5.526222 0.111129 0.534109 0
M  V30 47 H -6.183098 1.528602 -0.106837 0
M  V30 48 H -5.546801 -2.105684 -3.344098 0
M  V30 49 H -3.481909 -2.518891 -4.647043 0
M  V30 50 H -1.487602 -1.281598 -4.143135 0
M  V30 51 H 2.857900 -0.939513 -2.204619 0
M  V30 52 H 3.889713 -1.584968 -0.138337 0
M  V30 END ATOM
M  V30 BEGIN BOND
M  V30 1 1 1 2
M  V30 2 1 2 3
M  V30 3 1 2 4
M  V30 4 1 2 5
M  V30 5 1 5 6
M  V30 6 2 6 7
M  V30 7 1 6 8
M  V30 8 1 8 9
M  V30 9 2 9 10
M  V30 10 1 10 11
M  V30 11 2 11 12
M  V30 12 1 12 13
M  V30 13 1 13 14
M  V30 14 1 14 15
M  V30 15 2 15 16
M  V30 16 1 16 17
M  V30 17 2 17 18
M  V30 18 1 18 19
M  V30 19 2 19 20
M  V30 20 1 20 21
M  V30 21 1 21 22
M  V30 22 2 21 23
M  V30 23 1 20 24
M  V30 24 2 24 25
M  V30 25 1 25 26
M  V30 26 2 26 27
M  V30 27 1 12 28
M  V30 28 2 28 29
M  V30 29 1 29 9
M  V30 30 1 27 15
M  V30 31 1 27 19
M  V30 32 1 1 30
M  V30 33 1 1 31
M  V30 34 1 1 32
M  V30 35 1 3 33
M  V30 36 1 3 34
M  V30 37 1 3 35
M  V30 38 1 4 36
M  V30 39 1 4 37
M  V30 40 1 4 38
M  V30 41 1 8 39
M  V30 42 1 10 40
M  V30 43 1 11 41
M  V30 44 1 13 42
M  V30 45 1 13 43
M  V30 46 1 14 44
M  V30 47 1 17 45
M  V30 48 1 22 46
M  V30 49 1 22 47
M  V30 50 1 24 48
M  V30 51 1 25 49
M  V30 52 1 26 50
M  V30 53 1 28 51
M  V30 54 1 29 52
M  V30 END BOND
M  V30 END CTAB
M  END
>  <Dataset>  (757) 
ChEMBL_Kinases

>  <Ligand_Instance>  (757) 
nan

>  <PDB_ID>  (757) 
nan

>  <Standardized_SMILES>  (757) 
CC(C)(C)OC(=O)Nc1ccc(CNc2ncnc3c(C(N)=O)cccc23)cc1

>  <Name>  (757) 
nan

>  <Pocket>  (757) 
nan

>  <ATP_Site>  (757) 
nan

>  <Peripheral>  (757) 
nan

>  <Num_H_Atoms_ProtBoundConf>  (757) 
nan

>  <Num_Resolved_Atoms>  (757) 
nan

>  <Num_Not_Resolved_Atoms>  (757) 
nan

$$$$
CHEMBL3675357
     RDKit          3D

  0  0  0  0  0  0  0  0  0  0999 V3000
M  V30 BEGIN CTAB
M  V30 COUNTS 35 37 0 0 0
M  V30 BEGIN ATOM
M  V30 1 N 3.002693 -4.209320 3.907269 0
M  V30 2 C 2.586794 -3.119548 3.096151 0
M  V30 3 O 3.250052 -2.165044 3.593912 0
M  V30 4 C 1.656374 -3.126881 2.002855 0
M  V30 5 C 0.991061 -4.246466 1.550619 0
M  V30 6 C 0.121046 -4.122683 0.487713 0
M  V30 7 C -0.053071 -2.884431 -0.085383 0
M  V30 8 C 0.590761 -1.762402 0.340720 0
M  V30 9 C 0.351410 -0.565560 -0.298578 0
M  V30 10 N -0.535331 -0.390866 -1.397032 0
M  V30 11 C -0.743568 0.899111 -2.027399 0
M  V30 12 C -1.273721 1.894562 -1.059274 0
M  V30 13 C -0.458467 2.889049 -0.569239 0
M  V30 14 C -0.941995 3.827615 0.327363 0
M  V30 15 C -2.254502 3.803455 0.763136 0
M  V30 16 C -3.060366 2.800024 0.262885 0
M  V30 17 C -2.587146 1.848868 -0.639872 0
M  V30 18 F -3.418674 0.876871 -1.105654 0
M  V30 19 N 1.032653 0.480685 0.193481 0
M  V30 20 C 1.891954 0.426830 1.223330 0
M  V30 21 N 2.075327 -0.757325 1.792529 0
M  V30 22 C 1.463332 -1.887128 1.407080 0
M  V30 23 H 2.664589 -4.685473 4.773857 0
M  V30 24 H 3.867485 -4.785738 3.700541 0
M  V30 25 H 1.209870 -5.166624 2.080374 0
M  V30 26 H -0.367578 -5.046337 0.185705 0
M  V30 27 H -0.751285 -2.893090 -0.906877 0
M  V30 28 H -1.081537 -1.177326 -1.806816 0
M  V30 29 H -1.471608 0.810775 -2.845846 0
M  V30 30 H 0.197277 1.277665 -2.485774 0
M  V30 31 H 0.571456 3.016010 -0.834296 0
M  V30 32 H -0.322042 4.633149 0.738755 0
M  V30 33 H -2.640653 4.533108 1.462793 0
M  V30 34 H -4.084743 2.801629 0.619352 0
M  V30 35 H 2.416317 1.301382 1.580910 0
M  V30 END ATOM
M  V30 BEGIN BOND
M  V30 1 1 1 2
M  V30 2 2 2 3
M  V30 3 1 2 4
M  V30 4 2 4 5
M  V30 5 1 5 6
M  V30 6 2 6 7
M  V30 7 1 7 8
M  V30 8 2 8 9
M  V30 9 1 9 10
M  V30 10 1 10 11
M  V30 11 1 11 12
M  V30 12 2 12 13
M  V30 13 1 13 14
M  V30 14 2 14 15
M  V30 15 1 15 16
M  V30 16 2 16 17
M  V30 17 1 17 18
M  V30 18 1 9 19
M  V30 19 2 19 20
M  V30 20 1 20 21
M  V30 21 2 21 22
M  V30 22 1 22 4
M  V30 23 1 22 8
M  V30 24 1 17 12
M  V30 25 1 1 23
M  V30 26 1 1 24
M  V30 27 1 5 25
M  V30 28 1 6 26
M  V30 29 1 7 27
M  V30 30 1 10 28
M  V30 31 1 11 29
M  V30 32 1 11 30
M  V30 33 1 13 31
M  V30 34 1 14 32
M  V30 35 1 15 33
M  V30 36 1 16 34
M  V30 37 1 20 35
M  V30 END BOND
M  V30 END CTAB
M  END
>  <Dataset>  (758) 
ChEMBL_Kinases

>  <Ligand_Instance>  (758) 
nan

>  <PDB_ID>  (758) 
nan

>  <Standardized_SMILES>  (758) 
NC(=O)c1cccc2c(NCc3ccccc3F)ncnc12

>  <Name>  (758) 
nan

>  <Pocket>  (758) 
nan

>  <ATP_Site>  (758) 
nan

>  <Peripheral>  (758) 
nan

>  <Num_H_Atoms_ProtBoundConf>  (758) 
nan

>  <Num_Resolved_Atoms>  (758) 
nan

>  <Num_Not_Resolved_Atoms>  (758) 
nan

$$$$
CHEMBL3330232
     RDKit          3D

  0  0  0  0  0  0  0  0  0  0999 V3000
M  V30 BEGIN CTAB
M  V30 COUNTS 49 53 0 0 0
M  V30 BEGIN ATOM
M  V30 1 C -1.018415 -6.153652 5.541174 0
M  V30 2 O -0.257383 -4.955466 5.720342 0
M  V30 3 C -0.119637 -4.018049 4.706208 0
M  V30 4 C 0.643147 -2.915092 5.027533 0
M  V30 5 C 0.819649 -1.934766 4.049077 0
M  V30 6 C 0.251133 -2.065513 2.805654 0
M  V30 7 N 0.158660 -1.424315 1.639351 0
M  V30 8 C -0.554030 -2.006252 0.687200 0
M  V30 9 C -0.870918 -1.653275 -0.679930 0
M  V30 10 C -0.530515 -0.545519 -1.410991 0
M  V30 11 N 0.199510 0.473524 -0.759590 0
M  V30 12 C 0.914720 1.470185 -0.118586 0 CFG=1
M  V30 13 C 1.411456 2.599143 -1.027303 0
M  V30 14 C 2.215953 3.602779 -0.292389 0
M  V30 15 C 2.179172 3.345288 1.175796 0
M  V30 16 N 0.833140 3.177848 1.619778 0
M  V30 17 C 0.045552 2.224501 0.916325 0
M  V30 18 C -0.948761 -0.490857 -2.741331 0
M  V30 19 C -0.678717 0.539512 -3.574949 0
M  V30 20 C -1.072055 0.612444 -4.870379 0
M  V30 21 Cl -1.020482 1.569749 -6.243703 0
M  V30 22 S -1.998191 -1.038300 -5.013343 0
M  V30 23 C -1.698717 -1.555013 -3.292393 0
M  V30 24 N -1.987514 -2.569802 -2.549611 0
M  V30 25 C -1.616358 -2.670711 -1.288877 0
M  V30 26 O -2.030773 -3.769535 -0.787191 0
M  V30 27 N -0.939353 -3.121510 1.336425 0
M  V30 28 C -0.490566 -3.197713 2.579736 0
M  V30 29 C -0.733390 -4.228545 3.464448 0
M  V30 30 H -1.351657 -6.564720 6.508045 0
M  V30 31 H -1.974715 -5.840826 5.029198 0
M  V30 32 H -0.515972 -6.882682 4.876672 0
M  V30 33 H 1.096270 -2.790432 5.989055 0
M  V30 34 H 1.401774 -1.035259 4.210827 0
M  V30 35 H 0.663421 -0.550745 1.621040 0
M  V30 36 H 0.281078 1.175339 -1.479048 0
M  V30 37 H 1.777834 1.116223 0.509872 0
M  V30 38 H 0.466887 3.107679 -1.381366 0
M  V30 39 H 1.892849 2.234221 -1.941786 0
M  V30 40 H 3.282077 3.646296 -0.602647 0
M  V30 41 H 1.845355 4.654995 -0.446604 0
M  V30 42 H 2.843271 2.527256 1.519618 0
M  V30 43 H 2.560292 4.278878 1.668500 0
M  V30 44 H 0.346012 4.074869 1.835325 0
M  V30 45 H -0.729348 2.792287 0.334581 0
M  V30 46 H -0.415599 1.530210 1.633389 0
M  V30 47 H -0.135345 1.457077 -3.409870 0
M  V30 48 H -2.532102 -3.246274 -3.098803 0
M  V30 49 H -1.315797 -5.092932 3.251120 0
M  V30 END ATOM
M  V30 BEGIN BOND
M  V30 1 1 1 2
M  V30 2 1 2 3
M  V30 3 2 3 4
M  V30 4 1 4 5
M  V30 5 2 5 6
M  V30 6 1 6 7
M  V30 7 1 7 8
M  V30 8 1 8 9
M  V30 9 2 9 10
M  V30 10 1 10 11
M  V30 11 1 11 12
M  V30 12 1 12 13
M  V30 13 1 13 14
M  V30 14 1 14 15
M  V30 15 1 15 16
M  V30 16 1 16 17
M  V30 17 1 10 18
M  V30 18 1 18 19
M  V30 19 2 19 20
M  V30 20 1 20 21
M  V30 21 1 20 22
M  V30 22 1 22 23
M  V30 23 1 23 24
M  V30 24 1 24 25
M  V30 25 2 25 26
M  V30 26 2 8 27
M  V30 27 1 27 28
M  V30 28 2 28 29
M  V30 29 1 29 3
M  V30 30 1 28 6
M  V30 31 1 25 9
M  V30 32 1 17 12
M  V30 33 2 23 18
M  V30 34 1 1 30
M  V30 35 1 1 31
M  V30 36 1 1 32
M  V30 37 1 4 33
M  V30 38 1 5 34
M  V30 39 1 7 35
M  V30 40 1 11 36
M  V30 41 1 12 37 CFG=1
M  V30 42 1 13 38
M  V30 43 1 13 39
M  V30 44 1 14 40
M  V30 45 1 14 41
M  V30 46 1 15 42
M  V30 47 1 15 43
M  V30 48 1 16 44
M  V30 49 1 17 45
M  V30 50 1 17 46
M  V30 51 1 19 47
M  V30 52 1 24 48
M  V30 53 1 29 49
M  V30 END BOND
M  V30 END CTAB
M  END
>  <Dataset>  (759) 
ChEMBL_Kinases

>  <Ligand_Instance>  (759) 
nan

>  <PDB_ID>  (759) 
nan

>  <Standardized_SMILES>  (759) 
COc1ccc2[nH]c(-c3c(N[C@H]4CCCNC4)c4cc(Cl)sc4[nH]c3=O)nc2c1

>  <Name>  (759) 
nan

>  <Pocket>  (759) 
nan

>  <ATP_Site>  (759) 
nan

>  <Peripheral>  (759) 
nan

>  <Num_H_Atoms_ProtBoundConf>  (759) 
nan

>  <Num_Resolved_Atoms>  (759) 
nan

>  <Num_Not_Resolved_Atoms>  (759) 
nan

$$$$
CHEMBL3330233
     RDKit          3D

  0  0  0  0  0  0  0  0  0  0999 V3000
M  V30 BEGIN CTAB
M  V30 COUNTS 53 58 0 0 0
M  V30 BEGIN ATOM
M  V30 1 C 2.793785 1.016709 5.320294 0
M  V30 2 O 3.124797 -0.347067 5.452727 0
M  V30 3 C 2.638081 -1.269070 4.539408 0
M  V30 4 C 2.984565 -2.606753 4.700085 0
M  V30 5 C 2.504593 -3.543162 3.792744 0
M  V30 6 C 1.695165 -3.172526 2.741242 0
M  V30 7 N 1.079461 -3.780710 1.722860 0
M  V30 8 C 0.384972 -2.937194 0.949635 0
M  V30 9 C -0.405983 -3.224909 -0.237052 0
M  V30 10 C -1.082475 -2.266882 -0.954369 0
M  V30 11 N -1.059372 -0.929933 -0.552103 0
M  V30 12 C -0.919687 0.336327 0.006084 0
M  V30 13 C 0.445921 0.976771 -0.049778 0
M  V30 14 N 0.338023 2.388368 -0.348443 0
M  V30 15 C -0.488513 3.121891 0.577180 0
M  V30 16 C -1.840389 2.442392 0.779669 0
M  V30 17 C -1.939499 1.413366 -0.323124 0
M  V30 18 C -1.621903 2.101606 -1.634739 0
M  V30 19 C -0.161832 2.490026 -1.715816 0
M  V30 20 C -1.799502 -2.694494 -2.085319 0
M  V30 21 C -2.524242 -1.908656 -2.914199 0
M  V30 22 C -3.182712 -2.387120 -3.973103 0
M  V30 23 Cl -4.179144 -1.844515 -5.250663 0
M  V30 24 S -2.801450 -4.210516 -3.898629 0
M  V30 25 C -1.769290 -4.042070 -2.387864 0
M  V30 26 N -1.097257 -4.907612 -1.652707 0
M  V30 27 C -0.404631 -4.556314 -0.576346 0
M  V30 28 O 0.126947 -5.572925 -0.079762 0
M  V30 29 N 0.617466 -1.779795 1.561946 0
M  V30 30 C 1.388276 -1.848165 2.633181 0
M  V30 31 C 1.830175 -0.861601 3.499096 0
M  V30 32 H 1.683539 1.101643 5.418919 0
M  V30 33 H 3.252056 1.584906 6.169619 0
M  V30 34 H 3.118345 1.381604 4.343491 0
M  V30 35 H 3.620323 -2.957208 5.511407 0
M  V30 36 H 2.755754 -4.607525 3.885959 0
M  V30 37 H 1.213410 -4.809878 1.659495 0
M  V30 38 H -1.535255 -0.363605 -1.270647 0
M  V30 39 H -1.095093 0.197709 1.139703 0
M  V30 40 H 1.011395 0.903802 0.886951 0
M  V30 41 H 1.013529 0.542098 -0.918894 0
M  V30 42 H 0.038055 3.292639 1.515535 0
M  V30 43 H -0.723122 4.090833 0.100288 0
M  V30 44 H -1.750350 1.849347 1.733951 0
M  V30 45 H -2.678581 3.134139 0.831519 0
M  V30 46 H -2.962899 0.998240 -0.411789 0
M  V30 47 H -1.907438 1.400819 -2.452287 0
M  V30 48 H -2.218002 3.011615 -1.720669 0
M  V30 49 H 0.352014 1.697801 -2.307021 0
M  V30 50 H 0.027471 3.457771 -2.183718 0
M  V30 51 H -2.680909 -0.840131 -2.862573 0
M  V30 52 H -1.199084 -5.861397 -2.041914 0
M  V30 53 H 1.576562 0.185334 3.398148 0
M  V30 END ATOM
M  V30 BEGIN BOND
M  V30 1 1 1 2
M  V30 2 1 2 3
M  V30 3 2 3 4
M  V30 4 1 4 5
M  V30 5 2 5 6
M  V30 6 1 6 7
M  V30 7 1 7 8
M  V30 8 1 8 9
M  V30 9 2 9 10
M  V30 10 1 10 11
M  V30 11 1 11 12
M  V30 12 1 12 13
M  V30 13 1 13 14
M  V30 14 1 14 15
M  V30 15 1 15 16
M  V30 16 1 16 17
M  V30 17 1 17 18
M  V30 18 1 18 19
M  V30 19 1 10 20
M  V30 20 1 20 21
M  V30 21 2 21 22
M  V30 22 1 22 23
M  V30 23 1 22 24
M  V30 24 1 24 25
M  V30 25 1 25 26
M  V30 26 1 26 27
M  V30 27 2 27 28
M  V30 28 2 8 29
M  V30 29 1 29 30
M  V30 30 2 30 31
M  V30 31 1 31 3
M  V30 32 1 30 6
M  V30 33 1 27 9
M  V30 34 1 17 12
M  V30 35 2 25 20
M  V30 36 1 19 14
M  V30 37 1 1 32
M  V30 38 1 1 33
M  V30 39 1 1 34
M  V30 40 1 4 35
M  V30 41 1 5 36
M  V30 42 1 7 37
M  V30 43 1 11 38
M  V30 44 1 12 39
M  V30 45 1 13 40
M  V30 46 1 13 41
M  V30 47 1 15 42
M  V30 48 1 15 43
M  V30 49 1 16 44
M  V30 50 1 16 45
M  V30 51 1 17 46
M  V30 52 1 18 47
M  V30 53 1 18 48
M  V30 54 1 19 49
M  V30 55 1 19 50
M  V30 56 1 21 51
M  V30 57 1 26 52
M  V30 58 1 31 53
M  V30 END BOND
M  V30 END CTAB
M  END
>  <Dataset>  (760) 
ChEMBL_Kinases

>  <Ligand_Instance>  (760) 
nan

>  <PDB_ID>  (760) 
nan

>  <Standardized_SMILES>  (760) 
COc1ccc2[nH]c(-c3c(NC4CN5CCC4CC5)c4cc(Cl)sc4[nH]c3=O)nc2c1

>  <Name>  (760) 
nan

>  <Pocket>  (760) 
nan

>  <ATP_Site>  (760) 
nan

>  <Peripheral>  (760) 
nan

>  <Num_H_Atoms_ProtBoundConf>  (760) 
nan

>  <Num_Resolved_Atoms>  (760) 
nan

>  <Num_Not_Resolved_Atoms>  (760) 
nan

$$$$
CHEMBL4167900
     RDKit          3D

  0  0  0  0  0  0  0  0  0  0999 V3000
M  V30 BEGIN CTAB
M  V30 COUNTS 61 63 0 0 0
M  V30 BEGIN ATOM
M  V30 1 C -0.820523 0.944750 7.334734 0
M  V30 2 C -0.112774 0.157238 6.256876 0
M  V30 3 C 0.416439 -1.153687 6.767485 0
M  V30 4 C -0.989054 0.063590 5.062098 0
M  V30 5 N -0.338686 -0.699427 3.980048 0
M  V30 6 C 0.449646 -0.168061 3.028792 0
M  V30 7 C 0.866058 -1.187228 2.216558 0
M  V30 8 C 1.711399 -1.258403 1.026068 0
M  V30 9 C 1.590423 -0.317032 0.110612 0
M  V30 10 C 0.746570 0.901988 -0.040746 0
M  V30 11 C 0.439688 0.841517 -1.563853 0
M  V30 12 C 0.079220 2.213299 -2.060617 0
M  V30 13 O -0.038132 2.160450 -3.439585 0
M  V30 14 C -0.719022 -0.078524 -1.766771 0
M  V30 15 O -1.091841 -0.347823 -3.076148 0
M  V30 16 C -0.254250 -0.975380 -3.960554 0
M  V30 17 O 0.897679 -1.395497 -3.800208 0
M  V30 18 C -0.512586 -1.321679 -5.364315 0
M  V30 19 C 0.687560 -2.014288 -5.970856 0
M  V30 20 C -1.743727 -2.194959 -5.398777 0
M  V30 21 C -0.695232 -0.028703 -6.146434 0
M  V30 22 O 1.650411 0.428157 -2.130989 0
M  V30 23 C 2.367765 -0.278544 -1.135536 0
M  V30 24 O 3.522834 -0.782806 -1.366224 0
M  V30 25 C 0.293122 -2.364076 2.718757 0
M  V30 26 C 0.335548 -3.693943 2.333984 0
M  V30 27 C -0.361939 -4.678660 3.043825 0
M  V30 28 C -1.098330 -4.336319 4.132889 0
M  V30 29 C -1.170822 -3.005290 4.559311 0
M  V30 30 C -0.477890 -2.047485 3.849246 0
M  V30 31 H -1.922080 0.878931 7.250899 0
M  V30 32 H -0.567252 0.560088 8.354198 0
M  V30 33 H -0.573853 2.045950 7.269061 0
M  V30 34 H 0.800898 0.777758 6.008637 0
M  V30 35 H 1.170250 -0.954571 7.587483 0
M  V30 36 H 0.963076 -1.729676 6.021771 0
M  V30 37 H -0.413228 -1.676851 7.274958 0
M  V30 38 H -1.975557 -0.401056 5.250954 0
M  V30 39 H -1.227136 1.109274 4.714789 0
M  V30 40 H 0.749785 0.850237 2.863125 0
M  V30 41 H 2.426722 -2.054888 0.876865 0
M  V30 42 H 1.290929 1.823739 0.218941 0
M  V30 43 H -0.217614 0.858086 0.447924 0
M  V30 44 H 0.815081 2.998939 -1.810824 0
M  V30 45 H -0.924769 2.479937 -1.655470 0
M  V30 46 H -0.769488 2.721956 -3.803548 0
M  V30 47 H -1.618702 0.232423 -1.190047 0
M  V30 48 H -0.465407 -1.085442 -1.297662 0
M  V30 49 H 0.430461 -2.235565 -7.032981 0
M  V30 50 H 1.565498 -1.355996 -5.879657 0
M  V30 51 H 0.890645 -2.928096 -5.379342 0
M  V30 52 H -1.420222 -3.255677 -5.409905 0
M  V30 53 H -2.401569 -2.028388 -4.495996 0
M  V30 54 H -2.323535 -1.934867 -6.301889 0
M  V30 55 H -0.937773 -0.326315 -7.192026 0
M  V30 56 H -1.459055 0.608111 -5.701728 0
M  V30 57 H 0.305188 0.472341 -6.139637 0
M  V30 58 H 0.924334 -3.991205 1.456913 0
M  V30 59 H -0.338455 -5.720006 2.754686 0
M  V30 60 H -1.671858 -5.040053 4.743894 0
M  V30 61 H -1.762687 -2.742910 5.431374 0
M  V30 END ATOM
M  V30 BEGIN BOND
M  V30 1 1 1 2
M  V30 2 1 2 3
M  V30 3 1 2 4
M  V30 4 1 4 5
M  V30 5 1 5 6
M  V30 6 2 6 7
M  V30 7 1 7 8
M  V30 8 2 8 9
M  V30 9 1 9 10
M  V30 10 1 10 11
M  V30 11 1 11 12
M  V30 12 1 12 13
M  V30 13 1 11 14
M  V30 14 1 14 15
M  V30 15 1 15 16
M  V30 16 2 16 17
M  V30 17 1 16 18
M  V30 18 1 18 19
M  V30 19 1 18 20
M  V30 20 1 18 21
M  V30 21 1 11 22
M  V30 22 1 22 23
M  V30 23 2 23 24
M  V30 24 1 7 25
M  V30 25 2 25 26
M  V30 26 1 26 27
M  V30 27 2 27 28
M  V30 28 1 28 29
M  V30 29 2 29 30
M  V30 30 1 30 5
M  V30 31 1 23 9
M  V30 32 1 30 25
M  V30 33 1 1 31
M  V30 34 1 1 32
M  V30 35 1 1 33
M  V30 36 1 2 34
M  V30 37 1 3 35
M  V30 38 1 3 36
M  V30 39 1 3 37
M  V30 40 1 4 38
M  V30 41 1 4 39
M  V30 42 1 6 40
M  V30 43 1 8 41
M  V30 44 1 10 42
M  V30 45 1 10 43
M  V30 46 1 12 44
M  V30 47 1 12 45
M  V30 48 1 13 46
M  V30 49 1 14 47
M  V30 50 1 14 48
M  V30 51 1 19 49
M  V30 52 1 19 50
M  V30 53 1 19 51
M  V30 54 1 20 52
M  V30 55 1 20 53
M  V30 56 1 20 54
M  V30 57 1 21 55
M  V30 58 1 21 56
M  V30 59 1 21 57
M  V30 60 1 26 58
M  V30 61 1 27 59
M  V30 62 1 28 60
M  V30 63 1 29 61
M  V30 END BOND
M  V30 END CTAB
M  END
>  <Dataset>  (761) 
ChEMBL_Kinases

>  <Ligand_Instance>  (761) 
nan

>  <PDB_ID>  (761) 
nan

>  <Standardized_SMILES>  (761) 
CC(C)Cn1cc(/C=C2\CC(CO)(COC(=O)C(C)(C)C)OC2=O)c2ccccc21

>  <Name>  (761) 
nan

>  <Pocket>  (761) 
nan

>  <ATP_Site>  (761) 
nan

>  <Peripheral>  (761) 
nan

>  <Num_H_Atoms_ProtBoundConf>  (761) 
nan

>  <Num_Resolved_Atoms>  (761) 
nan

>  <Num_Not_Resolved_Atoms>  (761) 
nan

$$$$
CHEMBL4168968
     RDKit          3D

  0  0  0  0  0  0  0  0  0  0999 V3000
M  V30 BEGIN CTAB
M  V30 COUNTS 50 53 0 0 0
M  V30 BEGIN ATOM
M  V30 1 C -2.824832 -1.874653 -0.606632 0
M  V30 2 N -1.607768 -2.566316 -0.203721 0
M  V30 3 C -0.558173 -2.082517 0.499376 0
M  V30 4 C 0.403905 -3.071778 0.676895 0
M  V30 5 C 1.668145 -2.887885 1.377631 0
M  V30 6 C 2.480790 -1.881859 1.186174 0
M  V30 7 C 2.454088 -0.691321 0.301431 0
M  V30 8 C 3.046374 0.360869 1.181417 0
M  V30 9 C 3.591987 1.459500 0.289082 0
M  V30 10 O 4.303068 2.397166 0.994750 0
M  V30 11 C 2.032751 0.882199 2.146829 0
M  V30 12 O 0.957038 1.542466 1.506642 0
M  V30 13 C -0.049952 2.089279 2.279984 0
M  V30 14 O 0.330030 1.813700 3.431813 0
M  V30 15 C -1.163846 2.764948 1.644093 0
M  V30 16 C -1.227058 2.847284 0.272379 0
M  V30 17 C -2.321850 3.505763 -0.249397 0
M  V30 18 C -3.323142 4.066518 0.515780 0
M  V30 19 Cl -4.652416 4.872899 -0.326984 0
M  V30 20 C -3.226246 3.964830 1.881014 0
M  V30 21 C -2.149625 3.316555 2.434487 0
M  V30 22 O 4.091777 -0.319708 1.848165 0
M  V30 23 C 3.729798 -1.677344 1.902199 0
M  V30 24 O 4.471783 -2.504219 2.518846 0
M  V30 25 C -0.126381 -4.188843 0.036114 0
M  V30 26 C 0.438027 -5.447602 -0.087694 0
M  V30 27 C -0.302528 -6.396019 -0.787028 0
M  V30 28 C -1.547582 -6.076555 -1.328638 0
M  V30 29 C -2.096450 -4.816084 -1.196424 0
M  V30 30 C -1.357686 -3.866930 -0.497537 0
M  V30 31 H -3.506796 -2.552233 -1.109642 0
M  V30 32 H -2.595689 -1.036061 -1.327102 0
M  V30 33 H -3.251349 -1.374279 0.290372 0
M  V30 34 H -0.602502 -1.049605 0.823587 0
M  V30 35 H 1.917207 -3.658688 2.096859 0
M  V30 36 H 1.469065 -0.377224 -0.032394 0
M  V30 37 H 3.125349 -0.900521 -0.591130 0
M  V30 38 H 4.198116 0.929387 -0.481870 0
M  V30 39 H 2.730341 1.930800 -0.212272 0
M  V30 40 H 4.700302 3.061147 0.392115 0
M  V30 41 H 2.490976 1.569066 2.896014 0
M  V30 42 H 1.587846 0.037518 2.699762 0
M  V30 43 H -0.452711 2.413908 -0.369019 0
M  V30 44 H -2.370169 3.568426 -1.332140 0
M  V30 45 H -4.071485 4.441976 2.384204 0
M  V30 46 H -2.135902 3.272525 3.513622 0
M  V30 47 H 1.396884 -5.730566 0.319968 0
M  V30 48 H 0.020601 -7.414286 -0.954603 0
M  V30 49 H -2.169070 -6.785688 -1.885575 0
M  V30 50 H -3.043520 -4.521385 -1.592539 0
M  V30 END ATOM
M  V30 BEGIN BOND
M  V30 1 1 1 2
M  V30 2 1 2 3
M  V30 3 2 3 4
M  V30 4 1 4 5
M  V30 5 2 5 6
M  V30 6 1 6 7
M  V30 7 1 7 8
M  V30 8 1 8 9
M  V30 9 1 9 10
M  V30 10 1 8 11
M  V30 11 1 11 12
M  V30 12 1 12 13
M  V30 13 2 13 14
M  V30 14 1 13 15
M  V30 15 2 15 16
M  V30 16 1 16 17
M  V30 17 2 17 18
M  V30 18 1 18 19
M  V30 19 1 18 20
M  V30 20 2 20 21
M  V30 21 1 8 22
M  V30 22 1 22 23
M  V30 23 2 23 24
M  V30 24 1 4 25
M  V30 25 2 25 26
M  V30 26 1 26 27
M  V30 27 2 27 28
M  V30 28 1 28 29
M  V30 29 2 29 30
M  V30 30 1 30 2
M  V30 31 1 23 6
M  V30 32 1 30 25
M  V30 33 1 21 15
M  V30 34 1 1 31
M  V30 35 1 1 32
M  V30 36 1 1 33
M  V30 37 1 3 34
M  V30 38 1 5 35
M  V30 39 1 7 36
M  V30 40 1 7 37
M  V30 41 1 9 38
M  V30 42 1 9 39
M  V30 43 1 10 40
M  V30 44 1 11 41
M  V30 45 1 11 42
M  V30 46 1 16 43
M  V30 47 1 17 44
M  V30 48 1 20 45
M  V30 49 1 21 46
M  V30 50 1 26 47
M  V30 51 1 27 48
M  V30 52 1 28 49
M  V30 53 1 29 50
M  V30 END BOND
M  V30 END CTAB
M  END
>  <Dataset>  (762) 
ChEMBL_Kinases

>  <Ligand_Instance>  (762) 
nan

>  <PDB_ID>  (762) 
nan

>  <Standardized_SMILES>  (762) 
Cn1cc(/C=C2\CC(CO)(COC(=O)c3ccc(Cl)cc3)OC2=O)c2ccccc21

>  <Name>  (762) 
nan

>  <Pocket>  (762) 
nan

>  <ATP_Site>  (762) 
nan

>  <Peripheral>  (762) 
nan

>  <Num_H_Atoms_ProtBoundConf>  (762) 
nan

>  <Num_Resolved_Atoms>  (762) 
nan

>  <Num_Not_Resolved_Atoms>  (762) 
nan

$$$$
CHEMBL4168951
     RDKit          3D

  0  0  0  0  0  0  0  0  0  0999 V3000
M  V30 BEGIN CTAB
M  V30 COUNTS 60 64 0 0 0
M  V30 BEGIN ATOM
M  V30 1 C 8.479319 0.941642 3.890985 0
M  V30 2 C 7.467630 2.048683 3.614095 0
M  V30 3 N 6.284876 1.493258 2.979304 0
M  V30 4 C 5.155905 2.305039 2.599015 0
M  V30 5 O 5.350894 3.509798 2.890833 0
M  V30 6 C 3.971844 1.736101 1.961361 0
M  V30 7 C 3.768561 0.407617 1.644511 0
M  V30 8 C 2.589175 0.023381 1.040159 0
M  V30 9 C 1.581050 0.914486 0.729053 0
M  V30 10 C 1.780552 2.249224 1.045226 0
M  V30 11 C 0.618067 2.860402 0.616346 0
M  V30 12 C -0.235852 1.922708 0.067668 0
M  V30 13 N 0.368393 0.719697 0.141418 0
M  V30 14 C -0.086673 -0.581586 -0.286052 0
M  V30 15 N 0.832927 -1.472326 -0.760825 0
M  V30 16 C 0.422952 -2.708530 -1.170348 0
M  V30 17 C -0.924829 -2.946687 -1.061596 0
M  V30 18 C -1.858037 -2.045075 -0.580440 0
M  V30 19 N -1.377746 -0.851225 -0.197549 0
M  V30 20 N -3.239431 -2.326250 -0.479951 0
M  V30 21 C -4.129184 -1.536533 0.297580 0
M  V30 22 C -3.918415 -0.436795 1.098866 0
M  V30 23 C -5.093095 0.007114 1.665228 0
M  V30 24 N -6.021178 -0.836512 1.198405 0
M  V30 25 C -7.451647 -0.875806 1.444239 0
M  V30 26 N -5.459947 -1.727966 0.407715 0
M  V30 27 C -3.773222 -3.473829 -1.199795 0
M  V30 28 C -4.265971 -2.993126 -2.545503 0
M  V30 29 C -3.161170 -2.377788 -3.349881 0
M  V30 30 C -2.740872 -4.517565 -1.404655 0
M  V30 31 O -3.137710 -5.723762 -1.498929 0
M  V30 32 N -1.338557 -4.243580 -1.500823 0
M  V30 33 C -0.387920 -5.229746 -2.016627 0
M  V30 34 C 2.968930 2.633940 1.653772 0
M  V30 35 H 9.518325 1.284708 3.651491 0
M  V30 36 H 8.265807 0.018943 3.293498 0
M  V30 37 H 8.481461 0.616356 4.941181 0
M  V30 38 H 7.218440 2.556322 4.568662 0
M  V30 39 H 7.938116 2.738540 2.881358 0
M  V30 40 H 6.253753 0.447268 2.789189 0
M  V30 41 H 4.562824 -0.262913 1.894927 0
M  V30 42 H 2.540975 -1.037407 0.839364 0
M  V30 43 H 0.433231 3.926683 0.711436 0
M  V30 44 H -1.221065 2.075497 -0.357335 0
M  V30 45 H 1.121407 -3.437506 -1.550895 0
M  V30 46 H -2.969499 0.037858 1.280376 0
M  V30 47 H -5.282040 0.824936 2.327717 0
M  V30 48 H -7.924294 -0.358823 0.559572 0
M  V30 49 H -7.652456 -0.243732 2.318481 0
M  V30 50 H -7.850528 -1.884073 1.577684 0
M  V30 51 H -4.603512 -3.862363 -0.571872 0
M  V30 52 H -4.653820 -3.870619 -3.111439 0
M  V30 53 H -5.098318 -2.268804 -2.441275 0
M  V30 54 H -2.380843 -3.148810 -3.556831 0
M  V30 55 H -3.571973 -2.091171 -4.344862 0
M  V30 56 H -2.709505 -1.503722 -2.828678 0
M  V30 57 H 0.065434 -4.913140 -2.967127 0
M  V30 58 H -0.976641 -6.145601 -2.228711 0
M  V30 59 H 0.366221 -5.399239 -1.210188 0
M  V30 60 H 3.045558 3.687449 1.866342 0
M  V30 END ATOM
M  V30 BEGIN BOND
M  V30 1 1 1 2
M  V30 2 1 2 3
M  V30 3 1 3 4
M  V30 4 2 4 5
M  V30 5 1 4 6
M  V30 6 2 6 7
M  V30 7 1 7 8
M  V30 8 2 8 9
M  V30 9 1 9 10
M  V30 10 1 10 11
M  V30 11 2 11 12
M  V30 12 1 12 13
M  V30 13 1 13 14
M  V30 14 2 14 15
M  V30 15 1 15 16
M  V30 16 2 16 17
M  V30 17 1 17 18
M  V30 18 2 18 19
M  V30 19 1 18 20
M  V30 20 1 20 21
M  V30 21 1 21 22
M  V30 22 2 22 23
M  V30 23 1 23 24
M  V30 24 1 24 25
M  V30 25 1 24 26
M  V30 26 1 20 27
M  V30 27 1 27 28
M  V30 28 1 28 29
M  V30 29 1 27 30
M  V30 30 2 30 31
M  V30 31 1 30 32
M  V30 32 1 32 33
M  V30 33 2 10 34
M  V30 34 1 34 6
M  V30 35 1 13 9
M  V30 36 1 19 14
M  V30 37 2 26 21
M  V30 38 1 32 17
M  V30 39 1 1 35
M  V30 40 1 1 36
M  V30 41 1 1 37
M  V30 42 1 2 38
M  V30 43 1 2 39
M  V30 44 1 3 40
M  V30 45 1 7 41
M  V30 46 1 8 42
M  V30 47 1 11 43
M  V30 48 1 12 44
M  V30 49 1 16 45
M  V30 50 1 22 46
M  V30 51 1 23 47
M  V30 52 1 25 48
M  V30 53 1 25 49
M  V30 54 1 25 50
M  V30 55 1 27 51
M  V30 56 1 28 52
M  V30 57 1 28 53
M  V30 58 1 29 54
M  V30 59 1 29 55
M  V30 60 1 29 56
M  V30 61 1 33 57
M  V30 62 1 33 58
M  V30 63 1 33 59
M  V30 64 1 34 60
M  V30 END BOND
M  V30 END CTAB
M  END
>  <Dataset>  (763) 
ChEMBL_Kinases

>  <Ligand_Instance>  (763) 
nan

>  <PDB_ID>  (763) 
nan

>  <Standardized_SMILES>  (763) 
CCNC(=O)c1ccc2c(ccn2-c2ncc3c(n2)N(c2ccn(C)n2)C(CC)C(=O)N3C)c1

>  <Name>  (763) 
nan

>  <Pocket>  (763) 
nan

>  <ATP_Site>  (763) 
nan

>  <Peripheral>  (763) 
nan

>  <Num_H_Atoms_ProtBoundConf>  (763) 
nan

>  <Num_Resolved_Atoms>  (763) 
nan

>  <Num_Not_Resolved_Atoms>  (763) 
nan

$$$$
CHEMBL3330236
     RDKit          3D

  0  0  0  0  0  0  0  0  0  0999 V3000
M  V30 BEGIN CTAB
M  V30 COUNTS 45 49 0 0 0
M  V30 BEGIN ATOM
M  V30 1 O -1.036667 -3.526259 3.042546 0
M  V30 2 C 0.020202 -2.985642 2.540729 0
M  V30 3 N 1.178376 -3.462034 2.949204 0
M  V30 4 C 2.345140 -2.979534 2.497072 0
M  V30 5 C 3.538760 -3.472844 2.911942 0
M  V30 6 C 4.676140 -2.848268 2.322530 0
M  V30 7 S 3.869957 -1.569438 1.191808 0
M  V30 8 C 2.270903 -1.969270 1.590751 0
M  V30 9 C 1.042411 -1.488986 1.179387 0
M  V30 10 N 1.092651 -0.445438 0.230336 0
M  V30 11 C 2.125063 0.324356 -0.373450 0
M  V30 12 C 1.629798 1.207880 -1.503685 0
M  V30 13 C 2.714900 2.164570 -1.904165 0
M  V30 14 C 3.032091 3.131853 -0.776338 0
M  V30 15 N 2.366251 2.657817 0.420765 0
M  V30 16 C 2.802127 1.263303 0.615868 0
M  V30 17 C -0.164413 -1.953586 1.618206 0
M  V30 18 C -1.498455 -1.515643 1.325328 0
M  V30 19 N -2.566114 -2.125104 1.853837 0
M  V30 20 C -3.728893 -1.594465 1.514061 0
M  V30 21 C -4.990001 -1.999194 1.896602 0
M  V30 22 C -6.039406 -1.234901 1.371425 0
M  V30 23 C -5.785390 -0.153314 0.528254 0
M  V30 24 C -4.472043 0.183229 0.194930 0
M  V30 25 C -3.432223 -0.555084 0.700741 0
M  V30 26 N -2.102463 -0.567511 0.634164 0
M  V30 27 H 1.095026 -4.251604 3.659773 0
M  V30 28 H 3.812686 -4.252817 3.607016 0
M  V30 29 H 5.784014 -3.083065 2.506802 0
M  V30 30 H 0.254256 -0.092919 -0.205467 0
M  V30 31 H 2.902799 -0.354521 -0.766688 0
M  V30 32 H 1.462787 0.517573 -2.363061 0
M  V30 33 H 0.692748 1.672961 -1.198480 0
M  V30 34 H 2.373851 2.723307 -2.800850 0
M  V30 35 H 3.615032 1.568659 -2.137017 0
M  V30 36 H 4.106470 3.208946 -0.551589 0
M  V30 37 H 2.680842 4.156846 -1.039108 0
M  V30 38 H 1.345365 2.720939 0.410360 0
M  V30 39 H 2.581847 1.037085 1.665162 0
M  V30 40 H 3.895581 1.299127 0.443977 0
M  V30 41 H -5.127366 -2.845674 2.552887 0
M  V30 42 H -7.051786 -1.506143 1.637414 0
M  V30 43 H -6.593530 0.438371 0.121450 0
M  V30 44 H -4.214773 1.022479 -0.462764 0
M  V30 45 H -1.675719 0.160952 0.067478 0
M  V30 END ATOM
M  V30 BEGIN BOND
M  V30 1 2 1 2
M  V30 2 1 2 3
M  V30 3 1 3 4
M  V30 4 1 4 5
M  V30 5 2 5 6
M  V30 6 1 6 7
M  V30 7 1 7 8
M  V30 8 1 8 9
M  V30 9 1 9 10
M  V30 10 1 10 11
M  V30 11 1 11 12
M  V30 12 1 12 13
M  V30 13 1 13 14
M  V30 14 1 14 15
M  V30 15 1 15 16
M  V30 16 2 9 17
M  V30 17 1 17 18
M  V30 18 2 18 19
M  V30 19 1 19 20
M  V30 20 2 20 21
M  V30 21 1 21 22
M  V30 22 2 22 23
M  V30 23 1 23 24
M  V30 24 2 24 25
M  V30 25 1 25 26
M  V30 26 1 17 2
M  V30 27 1 26 18
M  V30 28 2 8 4
M  V30 29 1 16 11
M  V30 30 1 25 20
M  V30 31 1 3 27
M  V30 32 1 5 28
M  V30 33 1 6 29
M  V30 34 1 10 30
M  V30 35 1 11 31
M  V30 36 1 12 32
M  V30 37 1 12 33
M  V30 38 1 13 34
M  V30 39 1 13 35
M  V30 40 1 14 36
M  V30 41 1 14 37
M  V30 42 1 15 38
M  V30 43 1 16 39
M  V30 44 1 16 40
M  V30 45 1 21 41
M  V30 46 1 22 42
M  V30 47 1 23 43
M  V30 48 1 24 44
M  V30 49 1 26 45
M  V30 END BOND
M  V30 END CTAB
M  END
>  <Dataset>  (764) 
ChEMBL_Kinases

>  <Ligand_Instance>  (764) 
nan

>  <PDB_ID>  (764) 
nan

>  <Standardized_SMILES>  (764) 
O=c1[nH]c2ccsc2c(NC2CCCNC2)c1-c1nc2ccccc2[nH]1

>  <Name>  (764) 
nan

>  <Pocket>  (764) 
nan

>  <ATP_Site>  (764) 
nan

>  <Peripheral>  (764) 
nan

>  <Num_H_Atoms_ProtBoundConf>  (764) 
nan

>  <Num_Resolved_Atoms>  (764) 
nan

>  <Num_Not_Resolved_Atoms>  (764) 
nan

$$$$
CHEMBL4168905
     RDKit          3D

  0  0  0  0  0  0  0  0  0  0999 V3000
M  V30 BEGIN CTAB
M  V30 COUNTS 51 54 0 0 0
M  V30 BEGIN ATOM
M  V30 1 C -0.979601 -3.852178 5.246836 0
M  V30 2 C -0.139384 -3.889634 4.042625 0
M  V30 3 C 0.009827 -3.089552 2.936918 0
M  V30 4 C 0.964879 -3.627838 2.106766 0
M  V30 5 N 1.430010 -3.129983 0.862732 0
M  V30 6 C 0.975687 -1.920823 0.269452 0
M  V30 7 C 1.689005 -0.772623 0.426356 0
M  V30 8 C 1.159548 0.329973 -0.186854 0
M  V30 9 N 1.810222 1.586164 -0.100274 0
M  V30 10 C 3.096268 1.851717 0.495050 0
M  V30 11 C 2.809235 2.468364 1.853408 0
M  V30 12 N 1.942681 3.577456 1.663795 0
M  V30 13 C 2.423790 4.691265 2.453640 0
M  V30 14 C 1.667717 3.990009 0.332320 0
M  V30 15 C 1.275974 2.867522 -0.595078 0
M  V30 16 N 0.023581 0.272838 -0.887011 0
M  V30 17 C -0.689196 -0.858421 -1.047875 0
M  V30 18 N -1.879558 -0.838621 -1.817595 0
M  V30 19 C -2.807794 -1.893128 -2.017401 0
M  V30 20 C -2.746419 -3.045273 -1.266635 0
M  V30 21 C -3.692664 -4.024705 -1.541847 0
M  V30 22 C -4.648035 -3.864148 -2.513377 0
M  V30 23 C -4.726558 -2.704775 -3.283992 0
M  V30 24 F -5.647250 -2.522271 -4.239635 0
M  V30 25 C -3.769061 -1.747049 -2.985439 0
M  V30 26 N -0.156641 -1.926648 -0.441381 0
M  V30 27 N 1.388076 -4.748852 2.715055 0
M  V30 28 N 0.736876 -4.908141 3.863370 0
M  V30 29 H -0.444862 -4.214754 6.149030 0
M  V30 30 H -1.469558 -2.886119 5.385395 0
M  V30 31 H -1.809591 -4.600059 5.083270 0
M  V30 32 H -0.566879 -2.190217 2.803650 0
M  V30 33 H 2.146774 -3.661940 0.324449 0
M  V30 34 H 2.600021 -0.730794 0.988546 0
M  V30 35 H 3.686972 2.549223 -0.127416 0
M  V30 36 H 3.726367 0.942155 0.580891 0
M  V30 37 H 3.745929 2.785122 2.358577 0
M  V30 38 H 2.258456 1.707659 2.484597 0
M  V30 39 H 1.889273 4.730181 3.438901 0
M  V30 40 H 2.202370 5.671036 1.984947 0
M  V30 41 H 3.523545 4.678756 2.616616 0
M  V30 42 H 2.511227 4.582866 -0.085216 0
M  V30 43 H 0.809352 4.693592 0.362487 0
M  V30 44 H 1.788525 3.043380 -1.563205 0
M  V30 45 H 0.204139 2.851413 -0.766360 0
M  V30 46 H -2.091180 0.074573 -2.294479 0
M  V30 47 H -2.038900 -3.255463 -0.490726 0
M  V30 48 H -3.688186 -4.962327 -0.970341 0
M  V30 49 H -5.396513 -4.618433 -2.743909 0
M  V30 50 H -3.826044 -0.847098 -3.582791 0
M  V30 51 H 0.965248 -5.740103 4.443819 0
M  V30 END ATOM
M  V30 BEGIN BOND
M  V30 1 1 1 2
M  V30 2 2 2 3
M  V30 3 1 3 4
M  V30 4 1 4 5
M  V30 5 1 5 6
M  V30 6 2 6 7
M  V30 7 1 7 8
M  V30 8 1 8 9
M  V30 9 1 9 10
M  V30 10 1 10 11
M  V30 11 1 11 12
M  V30 12 1 12 13
M  V30 13 1 12 14
M  V30 14 1 14 15
M  V30 15 2 8 16
M  V30 16 1 16 17
M  V30 17 1 17 18
M  V30 18 1 18 19
M  V30 19 2 19 20
M  V30 20 1 20 21
M  V30 21 2 21 22
M  V30 22 1 22 23
M  V30 23 1 23 24
M  V30 24 2 23 25
M  V30 25 2 17 26
M  V30 26 2 4 27
M  V30 27 1 27 28
M  V30 28 1 28 2
M  V30 29 1 26 6
M  V30 30 1 15 9
M  V30 31 1 25 19
M  V30 32 1 1 29
M  V30 33 1 1 30
M  V30 34 1 1 31
M  V30 35 1 3 32
M  V30 36 1 5 33
M  V30 37 1 7 34
M  V30 38 1 10 35
M  V30 39 1 10 36
M  V30 40 1 11 37
M  V30 41 1 11 38
M  V30 42 1 13 39
M  V30 43 1 13 40
M  V30 44 1 13 41
M  V30 45 1 14 42
M  V30 46 1 14 43
M  V30 47 1 15 44
M  V30 48 1 15 45
M  V30 49 1 18 46
M  V30 50 1 20 47
M  V30 51 1 21 48
M  V30 52 1 22 49
M  V30 53 1 25 50
M  V30 54 1 28 51
M  V30 END BOND
M  V30 END CTAB
M  END
>  <Dataset>  (765) 
ChEMBL_Kinases

>  <Ligand_Instance>  (765) 
nan

>  <PDB_ID>  (765) 
nan

>  <Standardized_SMILES>  (765) 
Cc1cc(Nc2cc(N3CCN(C)CC3)nc(Nc3cccc(F)c3)n2)n[nH]1

>  <Name>  (765) 
nan

>  <Pocket>  (765) 
nan

>  <ATP_Site>  (765) 
nan

>  <Peripheral>  (765) 
nan

>  <Num_H_Atoms_ProtBoundConf>  (765) 
nan

>  <Num_Resolved_Atoms>  (765) 
nan

>  <Num_Not_Resolved_Atoms>  (765) 
nan

$$$$
CHEMBL4168861
     RDKit          3D

  0  0  0  0  0  0  0  0  0  0999 V3000
M  V30 BEGIN CTAB
M  V30 COUNTS 60 64 0 0 0
M  V30 BEGIN ATOM
M  V30 1 C 7.929895 -1.133932 0.713801 0
M  V30 2 C 7.930176 0.113680 1.554926 0
M  V30 3 C 9.117662 0.650051 2.008199 0
M  V30 4 C 9.044819 1.793829 2.773989 0
M  V30 5 C 7.842649 2.390118 3.083416 0
M  V30 6 C 6.651270 1.879807 2.647415 0
M  V30 7 N 5.446992 2.539280 2.998679 0
M  V30 8 C 4.106862 2.221503 2.684269 0
M  V30 9 O 3.869783 1.221584 1.996595 0
M  V30 10 N 2.980061 2.949435 3.086434 0
M  V30 11 C 1.785412 2.316885 2.572758 0
M  V30 12 C 1.251001 2.646659 1.333265 0
M  V30 13 C 0.104445 2.005473 0.893318 0
M  V30 14 C -0.503350 1.045726 1.680167 0
M  V30 15 C -1.752015 0.315428 1.251066 0
M  V30 16 C -1.286931 -0.903138 0.516711 0
M  V30 17 N -2.345280 -1.748560 0.017424 0
M  V30 18 C -3.262226 -1.186799 -0.937430 0
M  V30 19 N -3.122663 0.073450 -1.341239 0
M  V30 20 C -3.970443 0.586738 -2.225537 0
M  V30 21 N -4.992953 -0.155514 -2.735993 0
M  V30 22 C -5.142877 -1.431432 -2.334028 0
M  V30 23 O -6.021058 -2.320796 -2.669486 0
M  V30 24 C -5.827199 -3.465754 -2.047361 0
M  V30 25 C -6.689094 -4.585711 -2.275652 0
M  V30 26 C -7.744356 -4.481056 -3.158481 0
M  V30 27 C -8.620107 -5.519231 -3.431554 0
M  V30 28 C -8.463935 -6.737790 -2.809471 0
M  V30 29 C -7.425730 -6.895093 -1.918710 0
M  V30 30 C -6.585909 -5.824413 -1.687564 0
M  V30 31 C -4.723109 -3.251824 -1.256198 0
M  V30 32 Cl -4.031469 -4.446164 -0.217385 0
M  V30 33 C -4.267335 -1.981527 -1.412537 0
M  V30 34 C 0.025907 0.705411 2.930429 0
M  V30 35 C 1.183958 1.358619 3.365565 0
M  V30 36 C 6.753476 0.739287 1.886131 0
M  V30 37 H 8.809428 -1.764504 0.879247 0
M  V30 38 H 7.834103 -0.811767 -0.347769 0
M  V30 39 H 6.977924 -1.661062 0.969258 0
M  V30 40 H 10.061510 0.189249 1.770172 0
M  V30 41 H 9.939354 2.262032 3.158842 0
M  V30 42 H 7.839929 3.288447 3.689010 0
M  V30 43 H 5.502377 3.407304 3.584910 0
M  V30 44 H 3.124760 3.820954 3.681000 0
M  V30 45 H 1.739774 3.401407 0.728490 0
M  V30 46 H -0.323865 2.251242 -0.069958 0
M  V30 47 H -2.309959 0.002267 2.169701 0
M  V30 48 H -2.322218 1.039251 0.664008 0
M  V30 49 H -0.668226 -1.485451 1.222410 0
M  V30 50 H -0.630442 -0.603659 -0.327137 0
M  V30 51 H -2.387303 -2.710000 0.372237 0
M  V30 52 H -3.824661 1.627003 -2.534535 0
M  V30 53 H -7.967814 -3.556239 -3.713779 0
M  V30 54 H -9.440080 -5.416111 -4.126367 0
M  V30 55 H -9.142806 -7.551763 -3.017494 0
M  V30 56 H -7.290593 -7.845636 -1.422916 0
M  V30 57 H -5.808012 -6.016480 -0.989750 0
M  V30 58 H -0.438278 -0.042460 3.555591 0
M  V30 59 H 1.564478 1.073994 4.330431 0
M  V30 60 H 5.870969 0.272789 1.503334 0
M  V30 END ATOM
M  V30 BEGIN BOND
M  V30 1 1 1 2
M  V30 2 2 2 3
M  V30 3 1 3 4
M  V30 4 2 4 5
M  V30 5 1 5 6
M  V30 6 1 6 7
M  V30 7 1 7 8
M  V30 8 2 8 9
M  V30 9 1 8 10
M  V30 10 1 10 11
M  V30 11 2 11 12
M  V30 12 1 12 13
M  V30 13 2 13 14
M  V30 14 1 14 15
M  V30 15 1 15 16
M  V30 16 1 16 17
M  V30 17 1 17 18
M  V30 18 2 18 19
M  V30 19 1 19 20
M  V30 20 2 20 21
M  V30 21 1 21 22
M  V30 22 1 22 23
M  V30 23 1 23 24
M  V30 24 1 24 25
M  V30 25 2 25 26
M  V30 26 1 26 27
M  V30 27 2 27 28
M  V30 28 1 28 29
M  V30 29 2 29 30
M  V30 30 2 24 31
M  V30 31 1 31 32
M  V30 32 1 31 33
M  V30 33 1 14 34
M  V30 34 2 34 35
M  V30 35 2 6 36
M  V30 36 1 36 2
M  V30 37 1 35 11
M  V30 38 1 33 18
M  V30 39 2 33 22
M  V30 40 1 30 25
M  V30 41 1 1 37
M  V30 42 1 1 38
M  V30 43 1 1 39
M  V30 44 1 3 40
M  V30 45 1 4 41
M  V30 46 1 5 42
M  V30 47 1 7 43
M  V30 48 1 10 44
M  V30 49 1 12 45
M  V30 50 1 13 46
M  V30 51 1 15 47
M  V30 52 1 15 48
M  V30 53 1 16 49
M  V30 54 1 16 50
M  V30 55 1 17 51
M  V30 56 1 20 52
M  V30 57 1 26 53
M  V30 58 1 27 54
M  V30 59 1 28 55
M  V30 60 1 29 56
M  V30 61 1 30 57
M  V30 62 1 34 58
M  V30 63 1 35 59
M  V30 64 1 36 60
M  V30 END BOND
M  V30 END CTAB
M  END
>  <Dataset>  (766) 
ChEMBL_Kinases

>  <Ligand_Instance>  (766) 
nan

>  <PDB_ID>  (766) 
nan

>  <Standardized_SMILES>  (766) 
Cc1cccc(NC(=O)Nc2ccc(CCNc3ncnc4oc(-c5ccccc5)c(Cl)c34)cc2)c1

>  <Name>  (766) 
nan

>  <Pocket>  (766) 
nan

>  <ATP_Site>  (766) 
nan

>  <Peripheral>  (766) 
nan

>  <Num_H_Atoms_ProtBoundConf>  (766) 
nan

>  <Num_Resolved_Atoms>  (766) 
nan

>  <Num_Not_Resolved_Atoms>  (766) 
nan

$$$$
CHEMBL3675354
     RDKit          3D

  0  0  0  0  0  0  0  0  0  0999 V3000
M  V30 BEGIN CTAB
M  V30 COUNTS 39 41 0 0 0
M  V30 BEGIN ATOM
M  V30 1 C -2.014974 -5.648839 0.906252 0
M  V30 2 O -0.664921 -6.081471 0.749487 0
M  V30 3 C 0.244956 -5.164819 0.254431 0
M  V30 4 C 1.558675 -5.589289 0.103000 0
M  V30 5 C 2.557937 -4.746243 -0.387946 0
M  V30 6 C 2.225424 -3.442044 -0.735323 0
M  V30 7 C 0.917339 -3.005945 -0.588875 0
M  V30 8 C 0.474036 -1.632025 -0.934406 0
M  V30 9 N 0.614413 -0.789154 0.231989 0
M  V30 10 C 0.234703 0.569707 0.086703 0
M  V30 11 N -0.234556 1.062877 -1.073945 0
M  V30 12 C -0.605254 2.343292 -1.253981 0
M  V30 13 N -0.536023 3.255859 -0.267748 0
M  V30 14 C -0.076516 2.834874 0.919999 0
M  V30 15 C 0.012129 3.735114 1.960890 0
M  V30 16 C -0.395940 5.117957 1.740670 0
M  V30 17 N -0.318745 6.075464 2.790490 0
M  V30 18 O -0.824440 5.529472 0.648904 0
M  V30 19 C 0.476795 3.360809 3.204473 0
M  V30 20 C 0.853957 2.041901 3.374289 0
M  V30 21 C 0.756718 1.160580 2.320307 0
M  V30 22 C 0.298628 1.518895 1.085482 0
M  V30 23 C -0.050396 -3.867104 -0.099008 0
M  V30 24 H -2.088835 -4.772440 1.578872 0
M  V30 25 H -2.633190 -6.445559 1.338313 0
M  V30 26 H -2.386390 -5.411767 -0.114993 0
M  V30 27 H 1.855777 -6.606911 0.365786 0
M  V30 28 H 3.576212 -5.125348 -0.489176 0
M  V30 29 H 2.965183 -2.769663 -1.114328 0
M  V30 30 H -0.532937 -1.597462 -1.381059 0
M  V30 31 H 1.178791 -1.247485 -1.714712 0
M  V30 32 H 0.980277 -1.205133 1.110888 0
M  V30 33 H -0.950302 2.508943 -2.270329 0
M  V30 34 H 0.399124 6.093803 3.574910 0
M  V30 35 H -1.002585 6.871179 2.864894 0
M  V30 36 H 0.540776 4.086517 4.018575 0
M  V30 37 H 1.214372 1.774855 4.358129 0
M  V30 38 H 1.066082 0.172355 2.537049 0
M  V30 39 H -1.099337 -3.606558 0.047164 0
M  V30 END ATOM
M  V30 BEGIN BOND
M  V30 1 1 1 2
M  V30 2 1 2 3
M  V30 3 2 3 4
M  V30 4 1 4 5
M  V30 5 2 5 6
M  V30 6 1 6 7
M  V30 7 1 7 8
M  V30 8 1 8 9
M  V30 9 1 9 10
M  V30 10 2 10 11
M  V30 11 1 11 12
M  V30 12 2 12 13
M  V30 13 1 13 14
M  V30 14 2 14 15
M  V30 15 1 15 16
M  V30 16 1 16 17
M  V30 17 2 16 18
M  V30 18 1 15 19
M  V30 19 2 19 20
M  V30 20 1 20 21
M  V30 21 2 21 22
M  V30 22 2 7 23
M  V30 23 1 23 3
M  V30 24 1 22 10
M  V30 25 1 22 14
M  V30 26 1 1 24
M  V30 27 1 1 25
M  V30 28 1 1 26
M  V30 29 1 4 27
M  V30 30 1 5 28
M  V30 31 1 6 29
M  V30 32 1 8 30
M  V30 33 1 8 31
M  V30 34 1 9 32
M  V30 35 1 12 33
M  V30 36 1 17 34
M  V30 37 1 17 35
M  V30 38 1 19 36
M  V30 39 1 20 37
M  V30 40 1 21 38
M  V30 41 1 23 39
M  V30 END BOND
M  V30 END CTAB
M  END
>  <Dataset>  (767) 
ChEMBL_Kinases

>  <Ligand_Instance>  (767) 
nan

>  <PDB_ID>  (767) 
nan

>  <Standardized_SMILES>  (767) 
COc1cccc(CNc2ncnc3c(C(N)=O)cccc23)c1

>  <Name>  (767) 
nan

>  <Pocket>  (767) 
nan

>  <ATP_Site>  (767) 
nan

>  <Peripheral>  (767) 
nan

>  <Num_H_Atoms_ProtBoundConf>  (767) 
nan

>  <Num_Resolved_Atoms>  (767) 
nan

>  <Num_Not_Resolved_Atoms>  (767) 
nan

$$$$
CHEMBL4168177
     RDKit          3D

  0  0  0  0  0  0  0  0  0  0999 V3000
M  V30 BEGIN CTAB
M  V30 COUNTS 51 54 0 0 0
M  V30 BEGIN ATOM
M  V30 1 C -2.517588 -1.726276 6.012079 0
M  V30 2 C -1.077339 -1.979202 5.735592 0
M  V30 3 C -0.428074 -1.949561 4.509952 0
M  V30 4 C 0.915308 -2.239138 4.618136 0
M  V30 5 N 1.881843 -2.296908 3.578503 0
M  V30 6 C 1.357706 -1.969151 2.297522 0
M  V30 7 C 1.514728 -0.663919 1.893135 0
M  V30 8 C 1.013484 -0.324722 0.658544 0
M  V30 9 N 1.122810 1.001066 0.151318 0
M  V30 10 C 2.206344 1.386495 -0.766938 0
M  V30 11 C 2.626147 2.811194 -0.487995 0
M  V30 12 N 1.507007 3.690321 -0.547807 0
M  V30 13 C 1.156160 4.124098 -1.876689 0
M  V30 14 C 0.386236 3.369577 0.255576 0
M  V30 15 C 0.135946 1.945403 0.566474 0
M  V30 16 N 0.410586 -1.270797 -0.067124 0
M  V30 17 C 0.236892 -2.548028 0.287055 0
M  V30 18 N -0.411721 -3.548316 -0.481500 0
M  V30 19 C -1.013635 -3.402621 -1.736784 0
M  V30 20 C -1.133031 -2.253366 -2.477833 0
M  V30 21 C -1.732712 -2.154603 -3.709160 0
M  V30 22 C -2.271985 -3.286363 -4.279684 0
M  V30 23 F -2.868654 -3.218232 -5.486693 0
M  V30 24 C -2.181652 -4.467831 -3.580813 0
M  V30 25 Cl -2.864091 -5.919569 -4.294035 0
M  V30 26 C -1.568160 -4.543001 -2.332133 0
M  V30 27 N 0.734642 -2.826184 1.479481 0
M  V30 28 N 1.064394 -2.445822 5.952621 0
M  V30 29 N -0.084524 -2.294750 6.586598 0
M  V30 30 H -2.674119 -0.776411 6.533561 0
M  V30 31 H -3.042711 -1.648954 5.028817 0
M  V30 32 H -2.976952 -2.598860 6.517213 0
M  V30 33 H -0.987611 -1.715907 3.594640 0
M  V30 34 H 2.866461 -2.573434 3.867921 0
M  V30 35 H 1.998766 0.116775 2.461989 0
M  V30 36 H 1.914232 1.304138 -1.815982 0
M  V30 37 H 3.110916 0.752784 -0.613435 0
M  V30 38 H 3.170786 2.924780 0.478025 0
M  V30 39 H 3.329122 3.116596 -1.285801 0
M  V30 40 H 1.978690 4.018048 -2.597854 0
M  V30 41 H 0.832229 5.194371 -1.801196 0
M  V30 42 H 0.252556 3.562347 -2.195509 0
M  V30 43 H 0.481921 3.958739 1.215550 0
M  V30 44 H -0.513661 3.819755 -0.251305 0
M  V30 45 H -0.042318 1.800404 1.645576 0
M  V30 46 H -0.828033 1.620569 0.074867 0
M  V30 47 H -0.433107 -4.510316 -0.039706 0
M  V30 48 H -0.737705 -1.352941 -2.088211 0
M  V30 49 H -1.792391 -1.205712 -4.238418 0
M  V30 50 H -1.549483 -5.530257 -1.855504 0
M  V30 51 H -0.226948 -2.403015 7.632023 0
M  V30 END ATOM
M  V30 BEGIN BOND
M  V30 1 1 1 2
M  V30 2 2 2 3
M  V30 3 1 3 4
M  V30 4 1 4 5
M  V30 5 1 5 6
M  V30 6 2 6 7
M  V30 7 1 7 8
M  V30 8 1 8 9
M  V30 9 1 9 10
M  V30 10 1 10 11
M  V30 11 1 11 12
M  V30 12 1 12 13
M  V30 13 1 12 14
M  V30 14 1 14 15
M  V30 15 2 8 16
M  V30 16 1 16 17
M  V30 17 1 17 18
M  V30 18 1 18 19
M  V30 19 2 19 20
M  V30 20 1 20 21
M  V30 21 2 21 22
M  V30 22 1 22 23
M  V30 23 1 22 24
M  V30 24 1 24 25
M  V30 25 2 24 26
M  V30 26 2 17 27
M  V30 27 2 4 28
M  V30 28 1 28 29
M  V30 29 1 29 2
M  V30 30 1 27 6
M  V30 31 1 15 9
M  V30 32 1 26 19
M  V30 33 1 1 30
M  V30 34 1 1 31
M  V30 35 1 1 32
M  V30 36 1 3 33
M  V30 37 1 5 34
M  V30 38 1 7 35
M  V30 39 1 10 36
M  V30 40 1 10 37
M  V30 41 1 11 38
M  V30 42 1 11 39
M  V30 43 1 13 40
M  V30 44 1 13 41
M  V30 45 1 13 42
M  V30 46 1 14 43
M  V30 47 1 14 44
M  V30 48 1 15 45
M  V30 49 1 15 46
M  V30 50 1 18 47
M  V30 51 1 20 48
M  V30 52 1 21 49
M  V30 53 1 26 50
M  V30 54 1 29 51
M  V30 END BOND
M  V30 END CTAB
M  END
>  <Dataset>  (768) 
ChEMBL_Kinases

>  <Ligand_Instance>  (768) 
nan

>  <PDB_ID>  (768) 
nan

>  <Standardized_SMILES>  (768) 
Cc1cc(Nc2cc(N3CCN(C)CC3)nc(Nc3ccc(F)c(Cl)c3)n2)n[nH]1

>  <Name>  (768) 
nan

>  <Pocket>  (768) 
nan

>  <ATP_Site>  (768) 
nan

>  <Peripheral>  (768) 
nan

>  <Num_H_Atoms_ProtBoundConf>  (768) 
nan

>  <Num_Resolved_Atoms>  (768) 
nan

>  <Num_Not_Resolved_Atoms>  (768) 
nan

$$$$
CHEMBL3675351
     RDKit          3D

  0  0  0  0  0  0  0  0  0  0999 V3000
M  V30 BEGIN CTAB
M  V30 COUNTS 34 36 0 0 0
M  V30 BEGIN ATOM
M  V30 1 N -1.332493 -2.744049 4.562066 0
M  V30 2 C -0.997476 -3.814489 3.678269 0
M  V30 3 O -1.233709 -5.025202 3.929703 0
M  V30 4 C -0.338537 -3.510862 2.395602 0
M  V30 5 C -0.023023 -4.560216 1.555552 0
M  V30 6 C 0.591945 -4.239618 0.365519 0
M  V30 7 C 0.866968 -2.928191 0.054157 0
M  V30 8 C 0.564976 -1.877334 0.866988 0
M  V30 9 C 0.861272 -0.578249 0.510034 0
M  V30 10 N 1.490127 -0.244077 -0.699547 0
M  V30 11 C 1.829390 1.090177 -1.140447 0
M  V30 12 C 0.649635 1.978031 -1.312170 0
M  V30 13 C 0.038563 2.868750 -0.464875 0
M  V30 14 C -1.071190 3.561532 -0.899919 0
M  V30 15 C -1.595582 3.395731 -2.158924 0
M  V30 16 C -0.960498 2.495256 -2.986578 0
M  V30 17 N 0.135818 1.814493 -2.548574 0
M  V30 18 N 0.496104 0.328738 1.424155 0
M  V30 19 C -0.102338 0.016847 2.582226 0
M  V30 20 N -0.397719 -1.252657 2.942911 0
M  V30 21 C -0.050951 -2.204271 2.057776 0
M  V30 22 H -2.184104 -2.259604 4.233373 0
M  V30 23 H -0.751462 -2.536658 5.405679 0
M  V30 24 H -0.246178 -5.569294 1.818599 0
M  V30 25 H 0.831939 -5.070052 -0.279547 0
M  V30 26 H 1.340853 -2.793952 -0.884242 0
M  V30 27 H 1.770446 -0.948554 -1.398162 0
M  V30 28 H 2.500831 1.122123 -1.998904 0
M  V30 29 H 2.436293 1.538478 -0.290128 0
M  V30 30 H 0.532745 2.925597 0.490941 0
M  V30 31 H -1.476760 4.237629 -0.155537 0
M  V30 32 H -2.465744 3.974183 -2.424757 0
M  V30 33 H -1.386741 2.378056 -3.972808 0
M  V30 34 H -0.325006 0.888222 3.199814 0
M  V30 END ATOM
M  V30 BEGIN BOND
M  V30 1 1 1 2
M  V30 2 2 2 3
M  V30 3 1 2 4
M  V30 4 2 4 5
M  V30 5 1 5 6
M  V30 6 2 6 7
M  V30 7 1 7 8
M  V30 8 2 8 9
M  V30 9 1 9 10
M  V30 10 1 10 11
M  V30 11 1 11 12
M  V30 12 2 12 13
M  V30 13 1 13 14
M  V30 14 2 14 15
M  V30 15 1 15 16
M  V30 16 2 16 17
M  V30 17 1 9 18
M  V30 18 2 18 19
M  V30 19 1 19 20
M  V30 20 2 20 21
M  V30 21 1 21 4
M  V30 22 1 21 8
M  V30 23 1 17 12
M  V30 24 1 1 22
M  V30 25 1 1 23
M  V30 26 1 5 24
M  V30 27 1 6 25
M  V30 28 1 7 26
M  V30 29 1 10 27
M  V30 30 1 11 28
M  V30 31 1 11 29
M  V30 32 1 13 30
M  V30 33 1 14 31
M  V30 34 1 15 32
M  V30 35 1 16 33
M  V30 36 1 19 34
M  V30 END BOND
M  V30 END CTAB
M  END
>  <Dataset>  (769) 
ChEMBL_Kinases

>  <Ligand_Instance>  (769) 
nan

>  <PDB_ID>  (769) 
nan

>  <Standardized_SMILES>  (769) 
NC(=O)c1cccc2c(NCc3ccccn3)ncnc12

>  <Name>  (769) 
nan

>  <Pocket>  (769) 
nan

>  <ATP_Site>  (769) 
nan

>  <Peripheral>  (769) 
nan

>  <Num_H_Atoms_ProtBoundConf>  (769) 
nan

>  <Num_Resolved_Atoms>  (769) 
nan

>  <Num_Not_Resolved_Atoms>  (769) 
nan

$$$$
CHEMBL3675350
     RDKit          3D

  0  0  0  0  0  0  0  0  0  0999 V3000
M  V30 BEGIN CTAB
M  V30 COUNTS 35 37 0 0 0
M  V30 BEGIN ATOM
M  V30 1 N 3.239335 -3.080735 3.726745 0
M  V30 2 C 2.202783 -3.719274 3.018234 0
M  V30 3 O 2.229238 -4.852293 3.577018 0
M  V30 4 C 1.249490 -3.437800 1.958000 0
M  V30 5 C 0.412002 -4.468133 1.631318 0
M  V30 6 C -0.494713 -4.197689 0.620303 0
M  V30 7 C -0.527906 -2.958493 0.000246 0
M  V30 8 C 0.327140 -1.944700 0.351858 0
M  V30 9 C 0.238253 -0.737961 -0.307680 0
M  V30 10 N -0.693929 -0.447736 -1.353589 0
M  V30 11 C -0.697161 0.864673 -1.979969 0
M  V30 12 C -0.988079 1.961043 -1.018653 0
M  V30 13 C -0.062910 2.855185 -0.528966 0
M  V30 14 C -0.342391 3.873314 0.354370 0
M  V30 15 C -1.631520 4.032559 0.796601 0
M  V30 16 C -2.596439 3.173531 0.344525 0
M  V30 17 C -2.273751 2.156205 -0.548598 0
M  V30 18 Cl -3.606863 1.110988 -1.059722 0
M  V30 19 N 1.115617 0.174972 0.113072 0
M  V30 20 C 2.027001 0.005468 1.080723 0
M  V30 21 N 2.071212 -1.207323 1.699640 0
M  V30 22 C 1.234133 -2.198137 1.355117 0
M  V30 23 H 3.171953 -2.509405 4.590973 0
M  V30 24 H 4.260243 -3.047811 3.538279 0
M  V30 25 H 0.430906 -5.430247 2.105923 0
M  V30 26 H -1.177375 -4.985539 0.329216 0
M  V30 27 H -1.271092 -2.861809 -0.768443 0
M  V30 28 H -1.383203 -1.139553 -1.696379 0
M  V30 29 H -1.437295 0.846780 -2.797298 0
M  V30 30 H 0.300322 1.062304 -2.437763 0
M  V30 31 H 0.962620 2.765930 -0.857847 0
M  V30 32 H 0.444579 4.528320 0.685990 0
M  V30 33 H -1.903572 4.817828 1.491327 0
M  V30 34 H -3.617392 3.291495 0.687665 0
M  V30 35 H 2.682927 0.832588 1.327056 0
M  V30 END ATOM
M  V30 BEGIN BOND
M  V30 1 1 1 2
M  V30 2 2 2 3
M  V30 3 1 2 4
M  V30 4 2 4 5
M  V30 5 1 5 6
M  V30 6 2 6 7
M  V30 7 1 7 8
M  V30 8 2 8 9
M  V30 9 1 9 10
M  V30 10 1 10 11
M  V30 11 1 11 12
M  V30 12 2 12 13
M  V30 13 1 13 14
M  V30 14 2 14 15
M  V30 15 1 15 16
M  V30 16 2 16 17
M  V30 17 1 17 18
M  V30 18 1 9 19
M  V30 19 2 19 20
M  V30 20 1 20 21
M  V30 21 2 21 22
M  V30 22 1 22 4
M  V30 23 1 22 8
M  V30 24 1 17 12
M  V30 25 1 1 23
M  V30 26 1 1 24
M  V30 27 1 5 25
M  V30 28 1 6 26
M  V30 29 1 7 27
M  V30 30 1 10 28
M  V30 31 1 11 29
M  V30 32 1 11 30
M  V30 33 1 13 31
M  V30 34 1 14 32
M  V30 35 1 15 33
M  V30 36 1 16 34
M  V30 37 1 20 35
M  V30 END BOND
M  V30 END CTAB
M  END
>  <Dataset>  (770) 
ChEMBL_Kinases

>  <Ligand_Instance>  (770) 
nan

>  <PDB_ID>  (770) 
nan

>  <Standardized_SMILES>  (770) 
NC(=O)c1cccc2c(NCc3ccccc3Cl)ncnc12

>  <Name>  (770) 
nan

>  <Pocket>  (770) 
nan

>  <ATP_Site>  (770) 
nan

>  <Peripheral>  (770) 
nan

>  <Num_H_Atoms_ProtBoundConf>  (770) 
nan

>  <Num_Resolved_Atoms>  (770) 
nan

>  <Num_Not_Resolved_Atoms>  (770) 
nan

$$$$
CHEMBL3675356
     RDKit          3D

  0  0  0  0  0  0  0  0  0  0999 V3000
M  V30 BEGIN CTAB
M  V30 COUNTS 38 40 0 0 0
M  V30 BEGIN ATOM
M  V30 1 C 0.110244 -4.267336 3.705034 0
M  V30 2 C 0.920230 -3.785706 2.536427 0
M  V30 3 C 1.010131 -4.586275 1.425620 0
M  V30 4 C 1.773770 -4.098906 0.361413 0
M  V30 5 C 2.416296 -2.882963 0.391717 0
M  V30 6 C 2.295453 -2.111529 1.534908 0
M  V30 7 C 3.000779 -0.781708 1.562217 0
M  V30 8 N 2.230413 0.305362 1.083180 0
M  V30 9 C 1.456846 1.397392 0.602077 0
M  V30 10 N 1.818663 2.684937 0.526539 0
M  V30 11 C 1.093395 3.701968 0.080852 0
M  V30 12 N -0.122874 3.354205 -0.325817 0
M  V30 13 C -0.622735 2.115981 -0.311286 0
M  V30 14 C -1.916586 1.987557 -0.785659 0
M  V30 15 C -2.678525 3.135130 -1.265208 0
M  V30 16 N -3.991967 2.940173 -1.741825 0
M  V30 17 O -2.149418 4.272931 -1.244029 0
M  V30 18 C -2.459284 0.718948 -0.784275 0
M  V30 19 C -1.716860 -0.349207 -0.323786 0
M  V30 20 C -0.443075 -0.098211 0.122789 0
M  V30 21 C 0.182342 1.111040 0.162906 0
M  V30 22 C 1.542976 -2.562625 2.617093 0
M  V30 23 H -0.959885 -4.353457 3.420275 0
M  V30 24 H 0.470961 -5.285998 3.975304 0
M  V30 25 H 0.195831 -3.564030 4.552970 0
M  V30 26 H 0.530016 -5.553151 1.335857 0
M  V30 27 H 1.846399 -4.732728 -0.520726 0
M  V30 28 H 2.992038 -2.552562 -0.452960 0
M  V30 29 H 3.259559 -0.684217 2.667483 0
M  V30 30 H 3.981315 -0.955995 1.040834 0
M  V30 31 H 3.103904 0.884463 1.313866 0
M  V30 32 H 1.521371 4.694603 0.079487 0
M  V30 33 H -4.813310 3.000164 -1.100773 0
M  V30 34 H -4.385137 2.727534 -2.681632 0
M  V30 35 H -3.467929 0.582502 -1.148143 0
M  V30 36 H -2.121939 -1.350220 -0.313921 0
M  V30 37 H 0.108195 -0.945951 0.473366 0
M  V30 38 H 1.463115 -1.933248 3.510005 0
M  V30 END ATOM
M  V30 BEGIN BOND
M  V30 1 1 1 2
M  V30 2 2 2 3
M  V30 3 1 3 4
M  V30 4 2 4 5
M  V30 5 1 5 6
M  V30 6 1 6 7
M  V30 7 1 7 8
M  V30 8 1 8 9
M  V30 9 2 9 10
M  V30 10 1 10 11
M  V30 11 2 11 12
M  V30 12 1 12 13
M  V30 13 2 13 14
M  V30 14 1 14 15
M  V30 15 1 15 16
M  V30 16 2 15 17
M  V30 17 1 14 18
M  V30 18 2 18 19
M  V30 19 1 19 20
M  V30 20 2 20 21
M  V30 21 2 6 22
M  V30 22 1 22 2
M  V30 23 1 21 9
M  V30 24 1 21 13
M  V30 25 1 1 23
M  V30 26 1 1 24
M  V30 27 1 1 25
M  V30 28 1 3 26
M  V30 29 1 4 27
M  V30 30 1 5 28
M  V30 31 1 7 29
M  V30 32 1 7 30
M  V30 33 1 8 31
M  V30 34 1 11 32
M  V30 35 1 16 33
M  V30 36 1 16 34
M  V30 37 1 18 35
M  V30 38 1 19 36
M  V30 39 1 20 37
M  V30 40 1 22 38
M  V30 END BOND
M  V30 END CTAB
M  END
>  <Dataset>  (771) 
ChEMBL_Kinases

>  <Ligand_Instance>  (771) 
nan

>  <PDB_ID>  (771) 
nan

>  <Standardized_SMILES>  (771) 
Cc1cccc(CNc2ncnc3c(C(N)=O)cccc23)c1

>  <Name>  (771) 
nan

>  <Pocket>  (771) 
nan

>  <ATP_Site>  (771) 
nan

>  <Peripheral>  (771) 
nan

>  <Num_H_Atoms_ProtBoundConf>  (771) 
nan

>  <Num_Resolved_Atoms>  (771) 
nan

>  <Num_Not_Resolved_Atoms>  (771) 
nan

$$$$
CHEMBL3675331
     RDKit          3D

  0  0  0  0  0  0  0  0  0  0999 V3000
M  V30 BEGIN CTAB
M  V30 COUNTS 48 50 0 0 0
M  V30 BEGIN ATOM
M  V30 1 C -0.207387 -5.056060 4.128510 0
M  V30 2 O -0.287852 -4.843920 2.737700 0
M  V30 3 C 0.378837 -3.749980 2.206230 0
M  V30 4 C 1.087676 -2.924643 3.073735 0
M  V30 5 C 1.775301 -1.819209 2.622711 0
M  V30 6 C 1.794466 -1.476864 1.287418 0
M  V30 7 C 2.429416 -0.381049 0.551791 0
M  V30 8 C 3.034539 0.693587 1.411817 0
M  V30 9 N 4.066199 0.184900 2.276687 0
M  V30 10 N 1.504766 0.235258 -0.407335 0
M  V30 11 C 0.313205 0.791744 0.131708 0
M  V30 12 N 0.043004 0.756166 1.446591 0
M  V30 13 C -1.072130 1.269838 1.991640 0
M  V30 14 N -1.993024 1.864033 1.184909 0
M  V30 15 C -1.710209 1.892218 -0.122508 0
M  V30 16 C -2.629197 2.487826 -0.950466 0
M  V30 17 C -3.885751 3.095059 -0.557462 0
M  V30 18 N -4.069922 2.987624 0.867655 0
M  V30 19 O -4.970500 3.638605 -0.353043 0
M  V30 20 C -2.487168 2.599790 -2.335436 0
M  V30 21 C -1.337498 2.075943 -2.941573 0
M  V30 22 C -0.446362 1.489359 -2.071081 0
M  V30 23 C -0.593234 1.385506 -0.726086 0
M  V30 24 C 1.081689 -2.305755 0.410200 0
M  V30 25 C 0.389475 -3.420077 0.872491 0
M  V30 26 O -0.326260 -4.265190 0.049024 0
M  V30 27 C -0.419723 -4.072535 -1.352151 0
M  V30 28 H -0.793455 -5.953503 4.446620 0
M  V30 29 H 0.857265 -5.283628 4.427184 0
M  V30 30 H -0.579234 -4.120887 4.618965 0
M  V30 31 H 1.146540 -3.093179 4.155767 0
M  V30 32 H 2.347791 -1.125186 3.219000 0
M  V30 33 H 3.297819 -0.819540 -0.024834 0
M  V30 34 H 2.296768 1.282150 1.992266 0
M  V30 35 H 3.530371 1.417160 0.716341 0
M  V30 36 H 4.830403 -0.197772 1.668059 0
M  V30 37 H 4.501355 0.924929 2.865201 0
M  V30 38 H 1.783585 0.221198 -1.396085 0
M  V30 39 H -1.143654 1.159224 3.085215 0
M  V30 40 H -4.211938 2.790696 1.897858 0
M  V30 41 H -4.214878 2.496782 1.802072 0
M  V30 42 H -3.213214 3.069420 -2.982335 0
M  V30 43 H -1.156039 2.123474 -4.002826 0
M  V30 44 H 0.429391 1.091160 -2.533253 0
M  V30 45 H 0.984726 -2.189528 -0.682472 0
M  V30 46 H -0.878251 -4.975404 -1.843395 0
M  V30 47 H 0.589432 -3.887529 -1.768712 0
M  V30 48 H -1.123116 -3.229423 -1.599586 0
M  V30 END ATOM
M  V30 BEGIN BOND
M  V30 1 1 1 2
M  V30 2 1 2 3
M  V30 3 2 3 4
M  V30 4 1 4 5
M  V30 5 2 5 6
M  V30 6 1 6 7
M  V30 7 1 7 8
M  V30 8 1 8 9
M  V30 9 1 7 10
M  V30 10 1 10 11
M  V30 11 2 11 12
M  V30 12 1 12 13
M  V30 13 2 13 14
M  V30 14 1 14 15
M  V30 15 2 15 16
M  V30 16 1 16 17
M  V30 17 1 17 18
M  V30 18 2 17 19
M  V30 19 1 16 20
M  V30 20 2 20 21
M  V30 21 1 21 22
M  V30 22 2 22 23
M  V30 23 1 6 24
M  V30 24 2 24 25
M  V30 25 1 25 26
M  V30 26 1 26 27
M  V30 27 1 25 3
M  V30 28 1 23 11
M  V30 29 1 23 15
M  V30 30 1 1 28
M  V30 31 1 1 29
M  V30 32 1 1 30
M  V30 33 1 4 31
M  V30 34 1 5 32
M  V30 35 1 7 33
M  V30 36 1 8 34
M  V30 37 1 8 35
M  V30 38 1 9 36
M  V30 39 1 9 37
M  V30 40 1 10 38
M  V30 41 1 13 39
M  V30 42 1 18 40
M  V30 43 1 18 41
M  V30 44 1 20 42
M  V30 45 1 21 43
M  V30 46 1 22 44
M  V30 47 1 24 45
M  V30 48 1 27 46
M  V30 49 1 27 47
M  V30 50 1 27 48
M  V30 END BOND
M  V30 END CTAB
M  END
>  <Dataset>  (772) 
ChEMBL_Kinases

>  <Ligand_Instance>  (772) 
nan

>  <PDB_ID>  (772) 
nan

>  <Standardized_SMILES>  (772) 
COc1ccc(C(CN)Nc2ncnc3c(C(N)=O)cccc23)cc1OC

>  <Name>  (772) 
nan

>  <Pocket>  (772) 
nan

>  <ATP_Site>  (772) 
nan

>  <Peripheral>  (772) 
nan

>  <Num_H_Atoms_ProtBoundConf>  (772) 
nan

>  <Num_Resolved_Atoms>  (772) 
nan

>  <Num_Not_Resolved_Atoms>  (772) 
nan

$$$$
CHEMBL4164402
     RDKit          3D

  0  0  0  0  0  0  0  0  0  0999 V3000
M  V30 BEGIN CTAB
M  V30 COUNTS 48 50 0 0 0
M  V30 BEGIN ATOM
M  V30 1 C 1.494382 -4.069170 2.856853 0
M  V30 2 C 1.087171 -2.916993 1.954329 0
M  V30 3 C -0.171924 -2.234613 2.384618 0
M  V30 4 C 0.816892 -3.532395 0.572826 0
M  V30 5 C 2.253884 -1.993277 1.841448 0
M  V30 6 O 3.422512 -2.049410 2.320693 0
M  V30 7 O 2.102080 -0.824335 1.078049 0
M  V30 8 C 3.174175 0.111755 0.917766 0
M  V30 9 C 2.643362 1.230863 0.064868 0
M  V30 10 C 3.738896 2.248731 -0.220371 0
M  V30 11 O 4.776931 1.595916 -0.892454 0
M  V30 12 C 1.449922 1.877260 0.720660 0
M  V30 13 C 0.317065 1.294256 -0.002661 0
M  V30 14 C -0.984099 1.443113 0.166727 0
M  V30 15 C -2.081737 0.864542 -0.555393 0
M  V30 16 C -2.432370 0.650364 -1.871029 0
M  V30 17 O -3.591222 0.028785 -1.960543 0
M  V30 18 C -4.073607 -0.204708 -0.772074 0
M  V30 19 C -5.208222 -0.801313 -0.264957 0
M  V30 20 C -5.493411 -0.926217 1.087663 0
M  V30 21 C -4.588842 -0.423620 1.998927 0
M  V30 22 C -3.446370 0.177754 1.514292 0
M  V30 23 C -3.158805 0.304051 0.149305 0
M  V30 24 C 0.861138 0.413227 -1.022371 0
M  V30 25 O 0.228398 -0.467301 -1.647552 0
M  V30 26 O 2.222945 0.734678 -1.172531 0
M  V30 27 H 1.041033 -5.001844 2.475551 0
M  V30 28 H 2.612841 -4.177248 2.817557 0
M  V30 29 H 1.220716 -3.887347 3.930271 0
M  V30 30 H -0.699134 -2.897394 3.107131 0
M  V30 31 H -0.852572 -2.020028 1.515468 0
M  V30 32 H 0.005803 -1.267102 2.897771 0
M  V30 33 H 1.763582 -4.056601 0.276738 0
M  V30 34 H 0.543161 -2.704202 -0.100316 0
M  V30 35 H -0.014636 -4.260647 0.698549 0
M  V30 36 H 3.977530 -0.417962 0.365844 0
M  V30 37 H 3.549294 0.485191 1.894030 0
M  V30 38 H 3.368155 3.038702 -0.899578 0
M  V30 39 H 4.128441 2.694185 0.701018 0
M  V30 40 H 4.578319 1.529539 -1.877064 0
M  V30 41 H 1.460750 1.686057 1.805820 0
M  V30 42 H 1.507385 2.967959 0.543570 0
M  V30 43 H -1.211985 2.126498 1.001264 0
M  V30 44 H -1.793513 0.977052 -2.672559 0
M  V30 45 H -5.906364 -1.189455 -0.991360 0
M  V30 46 H -6.408940 -1.408982 1.423745 0
M  V30 47 H -4.743905 -0.484931 3.070168 0
M  V30 48 H -2.741077 0.569406 2.264022 0
M  V30 END ATOM
M  V30 BEGIN BOND
M  V30 1 1 1 2
M  V30 2 1 2 3
M  V30 3 1 2 4
M  V30 4 1 2 5
M  V30 5 2 5 6
M  V30 6 1 5 7
M  V30 7 1 7 8
M  V30 8 1 8 9
M  V30 9 1 9 10
M  V30 10 1 10 11
M  V30 11 1 9 12
M  V30 12 1 12 13
M  V30 13 2 13 14
M  V30 14 1 14 15
M  V30 15 2 15 16
M  V30 16 1 16 17
M  V30 17 1 17 18
M  V30 18 2 18 19
M  V30 19 1 19 20
M  V30 20 2 20 21
M  V30 21 1 21 22
M  V30 22 2 22 23
M  V30 23 1 13 24
M  V30 24 2 24 25
M  V30 25 1 24 26
M  V30 26 1 26 9
M  V30 27 1 23 15
M  V30 28 1 23 18
M  V30 29 1 1 27
M  V30 30 1 1 28
M  V30 31 1 1 29
M  V30 32 1 3 30
M  V30 33 1 3 31
M  V30 34 1 3 32
M  V30 35 1 4 33
M  V30 36 1 4 34
M  V30 37 1 4 35
M  V30 38 1 8 36
M  V30 39 1 8 37
M  V30 40 1 10 38
M  V30 41 1 10 39
M  V30 42 1 11 40
M  V30 43 1 12 41
M  V30 44 1 12 42
M  V30 45 1 14 43
M  V30 46 1 16 44
M  V30 47 1 19 45
M  V30 48 1 20 46
M  V30 49 1 21 47
M  V30 50 1 22 48
M  V30 END BOND
M  V30 END CTAB
M  END
>  <Dataset>  (773) 
ChEMBL_Kinases

>  <Ligand_Instance>  (773) 
nan

>  <PDB_ID>  (773) 
nan

>  <Standardized_SMILES>  (773) 
CC(C)(C)C(=O)OCC1(CO)C/C(=C/c2coc3ccccc23)C(=O)O1

>  <Name>  (773) 
nan

>  <Pocket>  (773) 
nan

>  <ATP_Site>  (773) 
nan

>  <Peripheral>  (773) 
nan

>  <Num_H_Atoms_ProtBoundConf>  (773) 
nan

>  <Num_Resolved_Atoms>  (773) 
nan

>  <Num_Not_Resolved_Atoms>  (773) 
nan

$$$$
CHEMBL3675327
     RDKit          3D

  0  0  0  0  0  0  0  0  0  0999 V3000
M  V30 BEGIN CTAB
M  V30 COUNTS 39 41 0 0 0
M  V30 BEGIN ATOM
M  V30 1 N -1.869220 -4.804808 3.005545 0
M  V30 2 C -0.559582 -5.010007 2.510294 0
M  V30 3 O -0.069736 -6.058993 2.950662 0
M  V30 4 C 0.125377 -4.111710 1.604180 0
M  V30 5 C 1.393352 -4.423628 1.197526 0
M  V30 6 C 2.046022 -3.548924 0.322068 0
M  V30 7 C 1.364110 -2.419613 -0.077957 0
M  V30 8 C 0.100718 -2.079104 0.308099 0
M  V30 9 C -0.491107 -0.923192 -0.152144 0
M  V30 10 N 0.142749 -0.021828 -1.043446 0
M  V30 11 C -0.510167 1.188170 -1.504310 0
M  V30 12 C -0.774696 2.103136 -0.324906 0
M  V30 13 O -1.400848 3.280769 -0.745371 0
M  V30 14 C 0.438747 2.384187 0.446087 0
M  V30 15 C 1.361118 3.319062 0.044488 0
M  V30 16 C 2.519185 3.602366 0.759662 0
M  V30 17 C 2.782025 2.927102 1.934734 0
M  V30 18 C 1.884047 1.971485 2.387972 0
M  V30 19 C 0.737140 1.723545 1.635002 0
M  V30 20 N -1.723798 -0.746380 0.324613 0
M  V30 21 C -2.369709 -1.566135 1.161492 0
M  V30 22 N -1.759829 -2.699986 1.598882 0
M  V30 23 C -0.505798 -2.966404 1.169560 0
M  V30 24 H -2.439895 -4.267352 3.672174 0
M  V30 25 H -1.780507 -4.062361 3.733040 0
M  V30 26 H 1.857143 -5.337890 1.563656 0
M  V30 27 H 3.040526 -3.820970 0.020753 0
M  V30 28 H 1.942762 -1.805706 -0.750065 0
M  V30 29 H 1.099362 -0.153117 -1.426307 0
M  V30 30 H 0.070538 1.715565 -2.279455 0
M  V30 31 H -1.509425 0.912237 -1.958025 0
M  V30 32 H -1.480389 1.586173 0.351565 0
M  V30 33 H -1.855506 3.068675 -1.594629 0
M  V30 34 H 1.212907 3.874438 -0.857219 0
M  V30 35 H 3.239345 4.326321 0.454279 0
M  V30 36 H 3.635620 3.053558 2.574661 0
M  V30 37 H 2.031741 1.398931 3.312713 0
M  V30 38 H 0.039809 0.979371 1.989826 0
M  V30 39 H -3.377165 -1.227787 1.426414 0
M  V30 END ATOM
M  V30 BEGIN BOND
M  V30 1 1 1 2
M  V30 2 2 2 3
M  V30 3 1 2 4
M  V30 4 2 4 5
M  V30 5 1 5 6
M  V30 6 2 6 7
M  V30 7 1 7 8
M  V30 8 2 8 9
M  V30 9 1 9 10
M  V30 10 1 10 11
M  V30 11 1 11 12
M  V30 12 1 12 13
M  V30 13 1 12 14
M  V30 14 2 14 15
M  V30 15 1 15 16
M  V30 16 2 16 17
M  V30 17 1 17 18
M  V30 18 2 18 19
M  V30 19 1 9 20
M  V30 20 2 20 21
M  V30 21 1 21 22
M  V30 22 2 22 23
M  V30 23 1 23 4
M  V30 24 1 23 8
M  V30 25 1 19 14
M  V30 26 1 1 24
M  V30 27 1 1 25
M  V30 28 1 5 26
M  V30 29 1 6 27
M  V30 30 1 7 28
M  V30 31 1 10 29
M  V30 32 1 11 30
M  V30 33 1 11 31
M  V30 34 1 12 32
M  V30 35 1 13 33
M  V30 36 1 15 34
M  V30 37 1 16 35
M  V30 38 1 17 36
M  V30 39 1 18 37
M  V30 40 1 19 38
M  V30 41 1 21 39
M  V30 END BOND
M  V30 END CTAB
M  END
>  <Dataset>  (774) 
ChEMBL_Kinases

>  <Ligand_Instance>  (774) 
nan

>  <PDB_ID>  (774) 
nan

>  <Standardized_SMILES>  (774) 
NC(=O)c1cccc2c(NCC(O)c3ccccc3)ncnc12

>  <Name>  (774) 
nan

>  <Pocket>  (774) 
nan

>  <ATP_Site>  (774) 
nan

>  <Peripheral>  (774) 
nan

>  <Num_H_Atoms_ProtBoundConf>  (774) 
nan

>  <Num_Resolved_Atoms>  (774) 
nan

>  <Num_Not_Resolved_Atoms>  (774) 
nan

$$$$
CHEMBL3675326
     RDKit          3D

  0  0  0  0  0  0  0  0  0  0999 V3000
M  V30 BEGIN CTAB
M  V30 COUNTS 40 42 0 0 0
M  V30 BEGIN ATOM
M  V30 1 N 0.489734 -4.901353 1.071532 0
M  V30 2 C 1.004927 -3.546280 1.065200 0
M  V30 3 C 0.318147 -2.612851 1.994787 0
M  V30 4 N 0.919890 -1.287418 1.912839 0
M  V30 5 C 0.836864 -0.545038 0.701001 0
M  V30 6 N 0.206826 -1.003838 -0.391770 0
M  V30 7 C 0.094948 -0.338682 -1.551318 0
M  V30 8 N 0.647070 0.901882 -1.678007 0
M  V30 9 C 1.308057 1.460400 -0.631379 0
M  V30 10 C 1.873448 2.712417 -0.737820 0
M  V30 11 C 1.739004 3.415848 -2.007179 0
M  V30 12 N 2.293257 4.711787 -2.200567 0
M  V30 13 O 1.115816 2.855435 -2.949426 0
M  V30 14 C 2.546123 3.285341 0.320944 0
M  V30 15 C 2.632347 2.559264 1.490541 0
M  V30 16 C 2.053749 1.309744 1.558419 0
M  V30 17 C 1.376250 0.710241 0.521174 0
M  V30 18 C -1.153926 -2.543069 1.842970 0
M  V30 19 C -1.621814 -1.511897 2.671242 0
M  V30 20 C -2.985132 -1.204966 2.737582 0
M  V30 21 C -3.887862 -1.920967 1.981744 0
M  V30 22 C -3.408541 -2.930312 1.174061 0
M  V30 23 F -4.214308 -3.694414 0.390638 0
M  V30 24 C -2.071836 -3.246322 1.095819 0
M  V30 25 H 0.127803 -5.195530 1.982673 0
M  V30 26 H 1.246216 -5.557619 0.789852 0
M  V30 27 H 1.075408 -3.122043 0.061422 0
M  V30 28 H 2.078439 -3.653164 1.404683 0
M  V30 29 H 0.502577 -2.985167 3.025113 0
M  V30 30 H 1.396929 -0.919808 2.751701 0
M  V30 31 H -0.448221 -0.839016 -2.357914 0
M  V30 32 H 1.674580 5.511578 -1.946364 0
M  V30 33 H 3.163750 5.164189 -2.531293 0
M  V30 34 H 2.961382 4.267471 0.161862 0
M  V30 35 H 3.164231 3.030729 2.303793 0
M  V30 36 H 2.190340 0.846448 2.522419 0
M  V30 37 H -1.067652 -0.842313 3.335380 0
M  V30 38 H -3.426917 -0.433391 3.343835 0
M  V30 39 H -4.953517 -1.761775 1.963432 0
M  V30 40 H -1.594908 -3.993989 0.512207 0
M  V30 END ATOM
M  V30 BEGIN BOND
M  V30 1 1 1 2
M  V30 2 1 2 3
M  V30 3 1 3 4
M  V30 4 1 4 5
M  V30 5 2 5 6
M  V30 6 1 6 7
M  V30 7 2 7 8
M  V30 8 1 8 9
M  V30 9 2 9 10
M  V30 10 1 10 11
M  V30 11 1 11 12
M  V30 12 2 11 13
M  V30 13 1 10 14
M  V30 14 2 14 15
M  V30 15 1 15 16
M  V30 16 2 16 17
M  V30 17 1 3 18
M  V30 18 2 18 19
M  V30 19 1 19 20
M  V30 20 2 20 21
M  V30 21 1 21 22
M  V30 22 1 22 23
M  V30 23 2 22 24
M  V30 24 1 17 5
M  V30 25 1 24 18
M  V30 26 1 17 9
M  V30 27 1 1 25
M  V30 28 1 1 26
M  V30 29 1 2 27
M  V30 30 1 2 28
M  V30 31 1 3 29
M  V30 32 1 4 30
M  V30 33 1 7 31
M  V30 34 1 12 32
M  V30 35 1 12 33
M  V30 36 1 14 34
M  V30 37 1 15 35
M  V30 38 1 16 36
M  V30 39 1 19 37
M  V30 40 1 20 38
M  V30 41 1 21 39
M  V30 42 1 24 40
M  V30 END BOND
M  V30 END CTAB
M  END
>  <Dataset>  (775) 
ChEMBL_Kinases

>  <Ligand_Instance>  (775) 
nan

>  <PDB_ID>  (775) 
nan

>  <Standardized_SMILES>  (775) 
NCC(Nc1ncnc2c(C(N)=O)cccc12)c1cccc(F)c1

>  <Name>  (775) 
nan

>  <Pocket>  (775) 
nan

>  <ATP_Site>  (775) 
nan

>  <Peripheral>  (775) 
nan

>  <Num_H_Atoms_ProtBoundConf>  (775) 
nan

>  <Num_Resolved_Atoms>  (775) 
nan

>  <Num_Not_Resolved_Atoms>  (775) 
nan

$$$$
CHEMBL3337847
     RDKit          3D

  0  0  0  0  0  0  0  0  0  0999 V3000
M  V30 BEGIN CTAB
M  V30 COUNTS 35 38 0 0 0
M  V30 BEGIN ATOM
M  V30 1 C 3.056980 -6.925940 -0.372254 0
M  V30 2 O 2.397304 -5.676249 -0.464363 0
M  V30 3 C 2.429578 -4.795091 0.599910 0
M  V30 4 C 3.082422 -5.031703 1.815821 0
M  V30 5 N 3.054453 -4.104241 2.795435 0
M  V30 6 C 2.393106 -2.926002 2.619259 0
M  V30 7 C 1.738127 -2.658405 1.433363 0
M  V30 8 C 1.053724 -1.373303 1.325197 0
M  V30 9 O 1.102211 -0.598586 2.306489 0
M  V30 10 N 0.339599 -0.950640 0.179705 0
M  V30 11 C -0.310496 0.324150 0.137829 0
M  V30 12 N 0.188381 1.515337 -0.276161 0
M  V30 13 C -0.776227 2.469484 -0.145502 0
M  V30 14 C -0.791242 3.826562 -0.419437 0
M  V30 15 C -1.908380 4.609063 -0.201764 0
M  V30 16 C -3.007144 3.945786 0.306943 0
M  V30 17 C -3.056530 2.598401 0.600708 0
M  V30 18 C -1.900852 1.854874 0.361965 0
M  V30 19 N -1.595430 0.537394 0.529386 0
M  V30 20 O -3.987607 4.942024 0.434363 0
M  V30 21 C -3.333472 6.213374 0.485063 0
M  V30 22 F -4.123495 7.221768 -0.006548 0
M  V30 23 F -2.854353 6.465652 1.753558 0
M  V30 24 O -2.224401 5.963257 -0.373118 0
M  V30 25 C 1.749342 -3.587747 0.413588 0
M  V30 26 H 4.157148 -6.782947 -0.546208 0
M  V30 27 H 2.670434 -7.628035 -1.157774 0
M  V30 28 H 2.898303 -7.409578 0.618303 0
M  V30 29 H 3.588986 -5.975588 1.904239 0
M  V30 30 H 2.416037 -2.221982 3.463120 0
M  V30 31 H 0.286811 -1.580476 -0.648467 0
M  V30 32 H 0.106104 4.316023 -0.824152 0
M  V30 33 H -3.940204 2.121886 0.998121 0
M  V30 34 H -2.242296 -0.189812 0.898130 0
M  V30 35 H 1.237242 -3.380163 -0.515459 0
M  V30 END ATOM
M  V30 BEGIN BOND
M  V30 1 1 1 2
M  V30 2 1 2 3
M  V30 3 2 3 4
M  V30 4 1 4 5
M  V30 5 2 5 6
M  V30 6 1 6 7
M  V30 7 1 7 8
M  V30 8 2 8 9
M  V30 9 1 8 10
M  V30 10 1 10 11
M  V30 11 2 11 12
M  V30 12 1 12 13
M  V30 13 2 13 14
M  V30 14 1 14 15
M  V30 15 2 15 16
M  V30 16 1 16 17
M  V30 17 2 17 18
M  V30 18 1 18 19
M  V30 19 1 16 20
M  V30 20 1 20 21
M  V30 21 1 21 22
M  V30 22 1 21 23
M  V30 23 1 21 24
M  V30 24 2 7 25
M  V30 25 1 25 3
M  V30 26 1 19 11
M  V30 27 1 18 13
M  V30 28 1 24 15
M  V30 29 1 1 26
M  V30 30 1 1 27
M  V30 31 1 1 28
M  V30 32 1 4 29
M  V30 33 1 6 30
M  V30 34 1 10 31
M  V30 35 1 14 32
M  V30 36 1 17 33
M  V30 37 1 19 34
M  V30 38 1 25 35
M  V30 END BOND
M  V30 END CTAB
M  END
>  <Dataset>  (776) 
ChEMBL_Kinases

>  <Ligand_Instance>  (776) 
nan

>  <PDB_ID>  (776) 
nan

>  <Standardized_SMILES>  (776) 
COc1cncc(C(=O)Nc2nc3cc4c(cc3[nH]2)OC(F)(F)O4)c1

>  <Name>  (776) 
nan

>  <Pocket>  (776) 
nan

>  <ATP_Site>  (776) 
nan

>  <Peripheral>  (776) 
nan

>  <Num_H_Atoms_ProtBoundConf>  (776) 
nan

>  <Num_Resolved_Atoms>  (776) 
nan

>  <Num_Not_Resolved_Atoms>  (776) 
nan

$$$$
CHEMBL3675324
     RDKit          3D

  0  0  0  0  0  0  0  0  0  0999 V3000
M  V30 BEGIN CTAB
M  V30 COUNTS 63 66 0 0 0
M  V30 BEGIN ATOM
M  V30 1 N 2.429102 0.786798 6.374501 0
M  V30 2 C 2.815246 1.414454 5.161774 0
M  V30 3 O 3.860004 2.108143 5.168873 0
M  V30 4 C 2.008192 1.246975 3.949385 0
M  V30 5 C 2.353662 1.858880 2.747394 0
M  V30 6 C 1.572395 1.691840 1.588965 0
M  V30 7 O 2.115640 2.386376 0.555956 0
M  V30 8 C 1.741225 2.529461 -0.755666 0
M  V30 9 C 1.718619 1.274581 -1.595090 0
M  V30 10 C 1.278624 1.707551 -2.968304 0
M  V30 11 N 1.175416 0.707015 -3.950027 0
M  V30 12 C 0.755140 1.147296 -5.239549 0
M  V30 13 C -0.708988 1.059043 -5.511922 0
M  V30 14 C -1.498014 0.528785 -4.342791 0
M  V30 15 C -0.843302 -0.715254 -3.792408 0
M  V30 16 C 0.637064 -0.555199 -3.591239 0
M  V30 17 C 0.464596 0.891218 1.744003 0
M  V30 18 C 0.096126 0.279679 2.894046 0
M  V30 19 C -1.037726 -0.501217 2.925074 0
M  V30 20 N -1.891090 -0.724836 1.810131 0
M  V30 21 C -3.091788 -1.533388 1.770745 0
M  V30 22 C -2.725315 -2.941143 2.057171 0
M  V30 23 C -2.294416 -3.636895 0.927872 0
M  V30 24 C -1.912179 -4.961389 0.942299 0
M  V30 25 C -1.947771 -5.664038 2.126506 0
M  V30 26 C -1.552509 -7.089560 2.222300 0
M  V30 27 F -1.686909 -7.702430 1.002536 0
M  V30 28 F -2.329328 -7.746147 3.156098 0
M  V30 29 F -0.229128 -7.210529 2.617970 0
M  V30 30 C -2.371955 -4.982505 3.241155 0
M  V30 31 C -2.752645 -3.662897 3.225476 0
M  V30 32 N -1.296154 -1.053339 4.120855 0
M  V30 33 C -0.542586 -0.885246 5.215342 0
M  V30 34 N 0.565312 -0.123524 5.189147 0
M  V30 35 C 0.878944 0.460659 4.010517 0
M  V30 36 H 1.629107 1.202244 6.915488 0
M  V30 37 H 1.642937 1.149970 6.957917 0
M  V30 38 H 3.264612 2.451532 2.829989 0
M  V30 39 H 0.729472 3.038095 -0.855813 0
M  V30 40 H 2.425118 3.284205 -1.253309 0
M  V30 41 H 2.801271 0.954065 -1.658240 0
M  V30 42 H 1.088897 0.534051 -1.132947 0
M  V30 43 H 2.056195 2.454458 -3.303388 0
M  V30 44 H 0.349937 2.307371 -2.883692 0
M  V30 45 H 1.335356 0.552722 -5.989325 0
M  V30 46 H 1.095197 2.214433 -5.377336 0
M  V30 47 H -1.121108 2.042492 -5.803824 0
M  V30 48 H -0.876744 0.402556 -6.402612 0
M  V30 49 H -2.503668 0.219846 -4.752741 0
M  V30 50 H -1.706216 1.276359 -3.578470 0
M  V30 51 H -1.368545 -0.984055 -2.839165 0
M  V30 52 H -1.117261 -1.540624 -4.490796 0
M  V30 53 H 1.116648 -1.303088 -4.291554 0
M  V30 54 H 0.977355 -0.881049 -2.596417 0
M  V30 55 H -0.083546 0.814624 0.844980 0
M  V30 56 H -1.653972 -0.277033 0.922219 0
M  V30 57 H -3.811940 -1.156476 2.551950 0
M  V30 58 H -3.550826 -1.435829 0.778910 0
M  V30 59 H -2.222366 -3.187806 -0.072756 0
M  V30 60 H -1.579545 -5.494156 0.065158 0
M  V30 61 H -2.421639 -5.488857 4.214078 0
M  V30 62 H -3.095794 -3.111824 4.072720 0
M  V30 63 H -0.807908 -1.360013 6.150178 0
M  V30 END ATOM
M  V30 BEGIN BOND
M  V30 1 1 1 2
M  V30 2 2 2 3
M  V30 3 1 2 4
M  V30 4 2 4 5
M  V30 5 1 5 6
M  V30 6 1 6 7
M  V30 7 1 7 8
M  V30 8 1 8 9
M  V30 9 1 9 10
M  V30 10 1 10 11
M  V30 11 1 11 12
M  V30 12 1 12 13
M  V30 13 1 13 14
M  V30 14 1 14 15
M  V30 15 1 15 16
M  V30 16 2 6 17
M  V30 17 1 17 18
M  V30 18 2 18 19
M  V30 19 1 19 20
M  V30 20 1 20 21
M  V30 21 1 21 22
M  V30 22 2 22 23
M  V30 23 1 23 24
M  V30 24 2 24 25
M  V30 25 1 25 26
M  V30 26 1 26 27
M  V30 27 1 26 28
M  V30 28 1 26 29
M  V30 29 1 25 30
M  V30 30 2 30 31
M  V30 31 1 19 32
M  V30 32 2 32 33
M  V30 33 1 33 34
M  V30 34 2 34 35
M  V30 35 1 35 4
M  V30 36 1 16 11
M  V30 37 1 35 18
M  V30 38 1 31 22
M  V30 39 1 1 36
M  V30 40 1 1 37
M  V30 41 1 5 38
M  V30 42 1 8 39
M  V30 43 1 8 40
M  V30 44 1 9 41
M  V30 45 1 9 42
M  V30 46 1 10 43
M  V30 47 1 10 44
M  V30 48 1 12 45
M  V30 49 1 12 46
M  V30 50 1 13 47
M  V30 51 1 13 48
M  V30 52 1 14 49
M  V30 53 1 14 50
M  V30 54 1 15 51
M  V30 55 1 15 52
M  V30 56 1 16 53
M  V30 57 1 16 54
M  V30 58 1 17 55
M  V30 59 1 20 56
M  V30 60 1 21 57
M  V30 61 1 21 58
M  V30 62 1 23 59
M  V30 63 1 24 60
M  V30 64 1 30 61
M  V30 65 1 31 62
M  V30 66 1 33 63
M  V30 END BOND
M  V30 END CTAB
M  END
>  <Dataset>  (777) 
ChEMBL_Kinases

>  <Ligand_Instance>  (777) 
nan

>  <PDB_ID>  (777) 
nan

>  <Standardized_SMILES>  (777) 
NC(=O)c1cc(OCCCN2CCCCC2)cc2c(NCc3ccc(C(F)(F)F)cc3)ncnc12

>  <Name>  (777) 
nan

>  <Pocket>  (777) 
nan

>  <ATP_Site>  (777) 
nan

>  <Peripheral>  (777) 
nan

>  <Num_H_Atoms_ProtBoundConf>  (777) 
nan

>  <Num_Resolved_Atoms>  (777) 
nan

>  <Num_Not_Resolved_Atoms>  (777) 
nan

$$$$
CHEMBL3337849
     RDKit          3D

  0  0  0  0  0  0  0  0  0  0999 V3000
M  V30 BEGIN CTAB
M  V30 COUNTS 40 43 0 0 0
M  V30 BEGIN ATOM
M  V30 1 C 3.814975 -6.114527 -0.537704 0
M  V30 2 N 2.838755 -5.216363 0.046465 0
M  V30 3 C 1.893722 -5.622772 1.068650 0
M  V30 4 C 2.803900 -3.866902 -0.404242 0
M  V30 5 C 3.667665 -3.399226 -1.373089 0
M  V30 6 C 3.653986 -2.094881 -1.827261 0
M  V30 7 C 2.732226 -1.224455 -1.283548 0
M  V30 8 C 1.837936 -1.621622 -0.311615 0
M  V30 9 C 0.831748 -0.771512 0.317735 0
M  V30 10 O 0.035683 -1.180343 1.202819 0
M  V30 11 N 0.701648 0.591149 -0.049394 0
M  V30 12 C -0.268078 1.473996 0.534438 0
M  V30 13 N -0.091728 2.238340 1.626671 0
M  V30 14 C -1.211767 2.943374 1.893312 0
M  V30 15 C -1.562773 3.857450 2.874983 0
M  V30 16 C -2.821150 4.447195 2.912351 0
M  V30 17 C -3.719320 4.074313 1.910455 0
M  V30 18 C -3.405034 3.162878 0.910996 0
M  V30 19 C -2.140143 2.606309 0.920376 0
M  V30 20 N -1.542074 1.709617 0.103929 0
M  V30 21 O -4.863485 4.811939 2.205405 0
M  V30 22 C -4.830136 5.114404 3.608050 0
M  V30 23 F -5.147210 3.959244 4.271078 0
M  V30 24 F -5.602129 6.191526 3.916383 0
M  V30 25 O -3.424440 5.367284 3.756103 0
M  V30 26 C 1.903447 -2.954170 0.104558 0
M  V30 27 H 3.413239 -7.144259 -0.351741 0
M  V30 28 H 3.926500 -6.019490 -1.622987 0
M  V30 29 H 4.794405 -6.074935 0.022066 0
M  V30 30 H 1.950675 -4.934309 1.960037 0
M  V30 31 H 0.845517 -5.585984 0.727306 0
M  V30 32 H 2.189144 -6.649013 1.419815 0
M  V30 33 H 4.406014 -4.046973 -1.826326 0
M  V30 34 H 4.313543 -1.692767 -2.583167 0
M  V30 35 H 2.681523 -0.196174 -1.604551 0
M  V30 36 H 1.296954 1.043729 -0.763852 0
M  V30 37 H -0.833804 4.128172 3.646781 0
M  V30 38 H -4.142105 2.905157 0.151359 0
M  V30 39 H -1.941086 1.240799 -0.733980 0
M  V30 40 H 1.216737 -3.304645 0.867166 0
M  V30 END ATOM
M  V30 BEGIN BOND
M  V30 1 1 1 2
M  V30 2 1 2 3
M  V30 3 1 2 4
M  V30 4 2 4 5
M  V30 5 1 5 6
M  V30 6 2 6 7
M  V30 7 1 7 8
M  V30 8 1 8 9
M  V30 9 2 9 10
M  V30 10 1 9 11
M  V30 11 1 11 12
M  V30 12 2 12 13
M  V30 13 1 13 14
M  V30 14 2 14 15
M  V30 15 1 15 16
M  V30 16 2 16 17
M  V30 17 1 17 18
M  V30 18 2 18 19
M  V30 19 1 19 20
M  V30 20 1 17 21
M  V30 21 1 21 22
M  V30 22 1 22 23
M  V30 23 1 22 24
M  V30 24 1 22 25
M  V30 25 2 8 26
M  V30 26 1 26 4
M  V30 27 1 20 12
M  V30 28 1 19 14
M  V30 29 1 25 16
M  V30 30 1 1 27
M  V30 31 1 1 28
M  V30 32 1 1 29
M  V30 33 1 3 30
M  V30 34 1 3 31
M  V30 35 1 3 32
M  V30 36 1 5 33
M  V30 37 1 6 34
M  V30 38 1 7 35
M  V30 39 1 11 36
M  V30 40 1 15 37
M  V30 41 1 18 38
M  V30 42 1 20 39
M  V30 43 1 26 40
M  V30 END BOND
M  V30 END CTAB
M  END
>  <Dataset>  (778) 
ChEMBL_Kinases

>  <Ligand_Instance>  (778) 
nan

>  <PDB_ID>  (778) 
nan

>  <Standardized_SMILES>  (778) 
CN(C)c1cccc(C(=O)Nc2nc3cc4c(cc3[nH]2)OC(F)(F)O4)c1

>  <Name>  (778) 
nan

>  <Pocket>  (778) 
nan

>  <ATP_Site>  (778) 
nan

>  <Peripheral>  (778) 
nan

>  <Num_H_Atoms_ProtBoundConf>  (778) 
nan

>  <Num_Resolved_Atoms>  (778) 
nan

>  <Num_Not_Resolved_Atoms>  (778) 
nan

$$$$
CHEMBL3337850
     RDKit          3D

  0  0  0  0  0  0  0  0  0  0999 V3000
M  V30 BEGIN CTAB
M  V30 COUNTS 39 42 0 0 0
M  V30 BEGIN ATOM
M  V30 1 C 2.698568 -6.466922 2.665559 0
M  V30 2 N 2.198617 -5.288054 1.981245 0
M  V30 3 C 1.957209 -5.365508 0.568270 0
M  V30 4 C 1.954090 -4.082139 2.699940 0
M  V30 5 C 1.478410 -2.973810 2.026402 0
M  V30 6 C 1.231539 -1.796131 2.685359 0
M  V30 7 C 0.729767 -0.570104 2.070022 0
M  V30 8 O 0.515297 0.489043 2.703457 0
M  V30 9 N 0.436979 -0.470154 0.679947 0
M  V30 10 C -0.054147 0.719597 0.060601 0
M  V30 11 N 0.585822 1.766538 -0.507121 0
M  V30 12 C -0.346548 2.657030 -0.958742 0
M  V30 13 C -0.223236 3.872018 -1.604488 0
M  V30 14 C -1.366298 4.575328 -1.952581 0
M  V30 15 C -2.602161 4.034987 -1.640400 0
M  V30 16 C -2.724799 2.813547 -0.991251 0
M  V30 17 C -1.577698 2.115501 -0.646032 0
M  V30 18 N -1.389477 0.930660 -0.022848 0
M  V30 19 O -3.584983 4.913912 -2.084844 0
M  V30 20 C -2.974808 6.187276 -2.224185 0
M  V30 21 F -3.529411 6.971442 -3.182185 0
M  V30 22 F -2.953211 6.800303 -0.972227 0
M  V30 23 O -1.644317 5.785455 -2.587258 0
M  V30 24 C 1.473028 -1.749388 4.047412 0
M  V30 25 C 1.951882 -2.885406 4.691467 0
M  V30 26 N 2.188131 -4.034096 4.024576 0
M  V30 27 H 3.655736 -6.835181 2.274188 0
M  V30 28 H 2.737401 -6.254867 3.753635 0
M  V30 29 H 1.880628 -7.233306 2.531453 0
M  V30 30 H 1.929438 -6.425388 0.230480 0
M  V30 31 H 2.771372 -4.867432 -0.027029 0
M  V30 32 H 0.980795 -4.906860 0.254084 0
M  V30 33 H 1.288766 -3.000811 0.973028 0
M  V30 34 H 0.584836 -1.305373 0.067273 0
M  V30 35 H 0.732596 4.280909 -1.841155 0
M  V30 36 H -3.684607 2.390690 -0.747098 0
M  V30 37 H -2.184970 0.322471 0.315927 0
M  V30 38 H 1.313369 -0.871009 4.668973 0
M  V30 39 H 2.153361 -2.885572 5.762258 0
M  V30 END ATOM
M  V30 BEGIN BOND
M  V30 1 1 1 2
M  V30 2 1 2 3
M  V30 3 1 2 4
M  V30 4 2 4 5
M  V30 5 1 5 6
M  V30 6 1 6 7
M  V30 7 2 7 8
M  V30 8 1 7 9
M  V30 9 1 9 10
M  V30 10 2 10 11
M  V30 11 1 11 12
M  V30 12 2 12 13
M  V30 13 1 13 14
M  V30 14 2 14 15
M  V30 15 1 15 16
M  V30 16 2 16 17
M  V30 17 1 17 18
M  V30 18 1 15 19
M  V30 19 1 19 20
M  V30 20 1 20 21
M  V30 21 1 20 22
M  V30 22 1 20 23
M  V30 23 2 6 24
M  V30 24 1 24 25
M  V30 25 2 25 26
M  V30 26 1 26 4
M  V30 27 1 18 10
M  V30 28 1 17 12
M  V30 29 1 23 14
M  V30 30 1 1 27
M  V30 31 1 1 28
M  V30 32 1 1 29
M  V30 33 1 3 30
M  V30 34 1 3 31
M  V30 35 1 3 32
M  V30 36 1 5 33
M  V30 37 1 9 34
M  V30 38 1 13 35
M  V30 39 1 16 36
M  V30 40 1 18 37
M  V30 41 1 24 38
M  V30 42 1 25 39
M  V30 END BOND
M  V30 END CTAB
M  END
>  <Dataset>  (779) 
ChEMBL_Kinases

>  <Ligand_Instance>  (779) 
nan

>  <PDB_ID>  (779) 
nan

>  <Standardized_SMILES>  (779) 
CN(C)c1cc(C(=O)Nc2nc3cc4c(cc3[nH]2)OC(F)(F)O4)ccn1

>  <Name>  (779) 
nan

>  <Pocket>  (779) 
nan

>  <ATP_Site>  (779) 
nan

>  <Peripheral>  (779) 
nan

>  <Num_H_Atoms_ProtBoundConf>  (779) 
nan

>  <Num_Resolved_Atoms>  (779) 
nan

>  <Num_Not_Resolved_Atoms>  (779) 
nan

$$$$
CHEMBL3337851
     RDKit          3D

  0  0  0  0  0  0  0  0  0  0999 V3000
M  V30 BEGIN CTAB
M  V30 COUNTS 36 39 0 0 0
M  V30 BEGIN ATOM
M  V30 1 O -1.780111 0.042764 0.766513 0
M  V30 2 C -1.312207 -1.078526 0.413750 0
M  V30 3 N 0.094963 -1.190930 0.475734 0
M  V30 4 C 0.918027 -0.103975 0.909046 0
M  V30 5 N 1.354202 0.229106 2.147571 0
M  V30 6 C 2.113615 1.345731 2.075105 0
M  V30 7 C 2.801960 2.123017 2.984738 0
M  V30 8 C 3.497894 3.234191 2.553409 0
M  V30 9 C 3.518675 3.587908 1.209395 0
M  V30 10 C 2.819634 2.790844 0.317602 0
M  V30 11 C 2.114050 1.672982 0.718705 0
M  V30 12 N 1.381624 0.784199 0.007200 0
M  V30 13 O 4.290641 4.749952 1.023838 0
M  V30 14 C 4.427938 5.306327 2.319849 0
M  V30 15 F 3.448991 6.259793 2.568168 0
M  V30 16 F 5.690596 5.858187 2.392931 0
M  V30 17 O 4.273589 4.199453 3.207470 0
M  V30 18 C -2.235104 -2.124364 -0.012553 0
M  V30 19 C -3.578120 -1.801770 0.002564 0
M  V30 20 C -4.431936 -2.821976 -0.409967 0
M  V30 21 C -3.995796 -4.084753 -0.813839 0
M  V30 22 C -2.618802 -4.342001 -0.804013 0
M  V30 23 O -2.304817 -5.626871 -1.224233 0
M  V30 24 C -1.030480 -6.176359 -1.322444 0
M  V30 25 F -0.976183 -7.273278 -0.458693 0
M  V30 26 F -0.738742 -6.571669 -2.628603 0
M  V30 27 C -1.744884 -3.353466 -0.400956 0
M  V30 28 H 0.515445 -2.102011 0.191991 0
M  V30 29 H 2.779847 1.840005 4.027143 0
M  V30 30 H 2.842581 3.076586 -0.731126 0
M  V30 31 H 1.246244 0.836422 -1.023416 0
M  V30 32 H -3.972088 -0.843231 0.304627 0
M  V30 33 H -5.513721 -2.648353 -0.427495 0
M  V30 34 H -4.740141 -4.814984 -1.118634 0
M  V30 35 H -0.231889 -5.493855 -1.030240 0
M  V30 36 H -0.711828 -3.611964 -0.416151 0
M  V30 END ATOM
M  V30 BEGIN BOND
M  V30 1 2 1 2
M  V30 2 1 2 3
M  V30 3 1 3 4
M  V30 4 2 4 5
M  V30 5 1 5 6
M  V30 6 2 6 7
M  V30 7 1 7 8
M  V30 8 2 8 9
M  V30 9 1 9 10
M  V30 10 2 10 11
M  V30 11 1 11 12
M  V30 12 1 9 13
M  V30 13 1 13 14
M  V30 14 1 14 15
M  V30 15 1 14 16
M  V30 16 1 14 17
M  V30 17 1 2 18
M  V30 18 2 18 19
M  V30 19 1 19 20
M  V30 20 2 20 21
M  V30 21 1 21 22
M  V30 22 1 22 23
M  V30 23 1 23 24
M  V30 24 1 24 25
M  V30 25 1 24 26
M  V30 26 2 22 27
M  V30 27 1 12 4
M  V30 28 1 27 18
M  V30 29 1 11 6
M  V30 30 1 17 8
M  V30 31 1 3 28
M  V30 32 1 7 29
M  V30 33 1 10 30
M  V30 34 1 12 31
M  V30 35 1 19 32
M  V30 36 1 20 33
M  V30 37 1 21 34
M  V30 38 1 24 35
M  V30 39 1 27 36
M  V30 END BOND
M  V30 END CTAB
M  END
>  <Dataset>  (780) 
ChEMBL_Kinases

>  <Ligand_Instance>  (780) 
nan

>  <PDB_ID>  (780) 
nan

>  <Standardized_SMILES>  (780) 
O=C(Nc1nc2cc3c(cc2[nH]1)OC(F)(F)O3)c1cccc(OC(F)F)c1

>  <Name>  (780) 
nan

>  <Pocket>  (780) 
nan

>  <ATP_Site>  (780) 
nan

>  <Peripheral>  (780) 
nan

>  <Num_H_Atoms_ProtBoundConf>  (780) 
nan

>  <Num_Resolved_Atoms>  (780) 
nan

>  <Num_Not_Resolved_Atoms>  (780) 
nan

$$$$
CHEMBL3675342
     RDKit          3D

  0  0  0  0  0  0  0  0  0  0999 V3000
M  V30 BEGIN CTAB
M  V30 COUNTS 38 40 0 0 0
M  V30 BEGIN ATOM
M  V30 1 C -1.922425 -2.651298 1.438211 0
M  V30 2 C -1.811755 -1.331074 2.146919 0 CFG=2
M  V30 3 N -1.615466 -0.303328 1.148064 0
M  V30 4 C -0.460237 -0.425916 0.327807 0
M  V30 5 N 0.411698 -1.441240 0.465552 0
M  V30 6 C 1.515929 -1.596947 -0.286625 0
M  V30 7 N 1.841892 -0.726574 -1.259997 0
M  V30 8 C 1.015357 0.316471 -1.456653 0
M  V30 9 C 1.312046 1.233398 -2.444934 0
M  V30 10 C 2.513457 1.049526 -3.251351 0
M  V30 11 N 3.376777 -0.060189 -3.028816 0
M  V30 12 O 2.840235 1.848376 -4.167116 0
M  V30 13 C 0.504859 2.324428 -2.696419 0
M  V30 14 C -0.632300 2.465329 -1.905880 0
M  V30 15 C -0.899943 1.531725 -0.927054 0
M  V30 16 C -0.110095 0.455633 -0.674001 0
M  V30 17 C -0.793079 -1.328365 3.212125 0
M  V30 18 C -0.442961 -0.111239 3.764757 0
M  V30 19 C 0.512440 -0.143551 4.758377 0
M  V30 20 C 1.121683 -1.304263 5.217118 0
M  V30 21 C 0.746029 -2.501054 4.640915 0
M  V30 22 C -0.207221 -2.480847 3.647685 0
M  V30 23 H -0.980154 -3.185889 1.290012 0
M  V30 24 H -2.666221 -3.307892 1.961765 0
M  V30 25 H -2.349378 -2.459893 0.432303 0
M  V30 26 H -2.793632 -1.153980 2.626330 0
M  V30 27 H -2.307423 0.467927 1.067926 0
M  V30 28 H 2.167873 -2.447865 -0.108415 0
M  V30 29 H 3.575434 -1.003821 -3.474858 0
M  V30 30 H 3.634739 -1.000177 -3.401859 0
M  V30 31 H 0.792972 3.002772 -3.482231 0
M  V30 32 H -1.270015 3.317955 -2.096906 0
M  V30 33 H -1.788171 1.721380 -0.374832 0
M  V30 34 H -0.853792 0.833797 3.480323 0
M  V30 35 H 0.854954 0.751439 5.253654 0
M  V30 36 H 1.868370 -1.301203 5.998022 0
M  V30 37 H 1.224622 -3.424526 4.999473 0
M  V30 38 H -0.452380 -3.450159 3.242786 0
M  V30 END ATOM
M  V30 BEGIN BOND
M  V30 1 1 1 2
M  V30 2 1 2 3
M  V30 3 1 3 4
M  V30 4 2 4 5
M  V30 5 1 5 6
M  V30 6 2 6 7
M  V30 7 1 7 8
M  V30 8 2 8 9
M  V30 9 1 9 10
M  V30 10 1 10 11
M  V30 11 2 10 12
M  V30 12 1 9 13
M  V30 13 2 13 14
M  V30 14 1 14 15
M  V30 15 2 15 16
M  V30 16 1 2 17
M  V30 17 2 17 18
M  V30 18 1 18 19
M  V30 19 2 19 20
M  V30 20 1 20 21
M  V30 21 2 21 22
M  V30 22 1 16 4
M  V30 23 1 22 17
M  V30 24 1 16 8
M  V30 25 1 1 23
M  V30 26 1 1 24
M  V30 27 1 1 25
M  V30 28 1 2 26 CFG=1
M  V30 29 1 3 27
M  V30 30 1 6 28
M  V30 31 1 11 29
M  V30 32 1 11 30
M  V30 33 1 13 31
M  V30 34 1 14 32
M  V30 35 1 15 33
M  V30 36 1 18 34
M  V30 37 1 19 35
M  V30 38 1 20 36
M  V30 39 1 21 37
M  V30 40 1 22 38
M  V30 END BOND
M  V30 END CTAB
M  END
>  <Dataset>  (781) 
ChEMBL_Kinases

>  <Ligand_Instance>  (781) 
nan

>  <PDB_ID>  (781) 
nan

>  <Standardized_SMILES>  (781) 
C[C@H](Nc1ncnc2c(C(N)=O)cccc12)c1ccccc1

>  <Name>  (781) 
nan

>  <Pocket>  (781) 
nan

>  <ATP_Site>  (781) 
nan

>  <Peripheral>  (781) 
nan

>  <Num_H_Atoms_ProtBoundConf>  (781) 
nan

>  <Num_Resolved_Atoms>  (781) 
nan

>  <Num_Not_Resolved_Atoms>  (781) 
nan

$$$$
CHEMBL3337853
     RDKit          3D

  0  0  0  0  0  0  0  0  0  0999 V3000
M  V30 BEGIN CTAB
M  V30 COUNTS 37 41 0 0 0
M  V30 BEGIN ATOM
M  V30 1 O 0.760924 -1.856543 0.115704 0
M  V30 2 C -0.340157 -1.655521 0.726879 0
M  V30 3 N -0.461471 -0.420753 1.404100 0
M  V30 4 C 0.528290 0.595619 1.456805 0
M  V30 5 N 1.578303 0.924474 2.259612 0
M  V30 6 C 2.157739 2.047371 1.764353 0
M  V30 7 C 3.253145 2.738909 2.254567 0
M  V30 8 C 3.686961 3.870934 1.593425 0
M  V30 9 C 3.011925 4.276868 0.462032 0
M  V30 10 C 1.925206 3.559291 0.007124 0
M  V30 11 C 1.457264 2.423802 0.634971 0
M  V30 12 N 0.472394 1.518892 0.476436 0
M  V30 13 O 3.644650 5.429883 -0.005862 0
M  V30 14 C 4.428914 5.986942 1.057860 0
M  V30 15 F 3.708020 6.876075 1.797668 0
M  V30 16 F 5.566059 6.526295 0.483396 0
M  V30 17 O 4.724107 4.794821 1.789337 0
M  V30 18 C -1.407045 -2.652019 0.719933 0
M  V30 19 C -2.623922 -2.510164 1.355049 0
M  V30 20 C -3.596838 -3.487540 1.314194 0
M  V30 21 C -3.313538 -4.636143 0.605223 0
M  V30 22 C -2.108957 -4.848596 -0.059706 0
M  V30 23 C -1.852960 -6.080832 -0.798083 0
M  V30 24 N -2.720323 -7.091013 -0.904317 0
M  V30 25 N -2.135302 -8.014708 -1.639945 0
M  V30 26 N -0.930114 -7.637813 -2.008749 0
M  V30 27 N -0.742588 -6.422793 -1.484517 0
M  V30 28 C -1.200018 -3.830342 0.031352 0
M  V30 29 H -1.329676 -0.175761 1.929504 0
M  V30 30 H 3.774871 2.410839 3.143304 0
M  V30 31 H 1.385205 3.881035 -0.894979 0
M  V30 32 H -0.155792 1.675910 -0.356417 0
M  V30 33 H -2.798144 -1.591515 1.897814 0
M  V30 34 H -4.545019 -3.358813 1.818218 0
M  V30 35 H -4.059561 -5.439846 0.546600 0
M  V30 36 H 0.106874 -5.808728 -1.569230 0
M  V30 37 H -0.251778 -3.974936 -0.480684 0
M  V30 END ATOM
M  V30 BEGIN BOND
M  V30 1 2 1 2
M  V30 2 1 2 3
M  V30 3 1 3 4
M  V30 4 2 4 5
M  V30 5 1 5 6
M  V30 6 2 6 7
M  V30 7 1 7 8
M  V30 8 2 8 9
M  V30 9 1 9 10
M  V30 10 2 10 11
M  V30 11 1 11 12
M  V30 12 1 9 13
M  V30 13 1 13 14
M  V30 14 1 14 15
M  V30 15 1 14 16
M  V30 16 1 14 17
M  V30 17 1 2 18
M  V30 18 2 18 19
M  V30 19 1 19 20
M  V30 20 2 20 21
M  V30 21 1 21 22
M  V30 22 1 22 23
M  V30 23 2 23 24
M  V30 24 1 24 25
M  V30 25 2 25 26
M  V30 26 1 26 27
M  V30 27 2 22 28
M  V30 28 1 12 4
M  V30 29 1 28 18
M  V30 30 1 11 6
M  V30 31 1 27 23
M  V30 32 1 17 8
M  V30 33 1 3 29
M  V30 34 1 7 30
M  V30 35 1 10 31
M  V30 36 1 12 32
M  V30 37 1 19 33
M  V30 38 1 20 34
M  V30 39 1 21 35
M  V30 40 1 27 36
M  V30 41 1 28 37
M  V30 END BOND
M  V30 END CTAB
M  END
>  <Dataset>  (782) 
ChEMBL_Kinases

>  <Ligand_Instance>  (782) 
nan

>  <PDB_ID>  (782) 
nan

>  <Standardized_SMILES>  (782) 
O=C(Nc1nc2cc3c(cc2[nH]1)OC(F)(F)O3)c1cccc(-c2nnn[nH]2)c1

>  <Name>  (782) 
nan

>  <Pocket>  (782) 
nan

>  <ATP_Site>  (782) 
nan

>  <Peripheral>  (782) 
nan

>  <Num_H_Atoms_ProtBoundConf>  (782) 
nan

>  <Num_Resolved_Atoms>  (782) 
nan

>  <Num_Not_Resolved_Atoms>  (782) 
nan

$$$$
CHEMBL3675322
     RDKit          3D

  0  0  0  0  0  0  0  0  0  0999 V3000
M  V30 BEGIN CTAB
M  V30 COUNTS 67 70 0 0 0
M  V30 BEGIN ATOM
M  V30 1 C 5.760945 -1.504399 3.636385 0
M  V30 2 O 6.157218 -2.817427 3.594273 0
M  V30 3 C 6.172514 -3.405474 2.358253 0
M  V30 4 C 4.815084 -3.411487 1.708821 0 CFG=2
M  V30 5 C 3.853155 -4.180817 2.570756 0
M  V30 6 C 3.464557 -5.412610 1.780660 0
M  V30 7 C 4.390182 -5.383992 0.567239 0
M  V30 8 N 4.820262 -4.045538 0.407421 0
M  V30 9 C 4.211671 -3.276622 -0.611717 0
M  V30 10 C 2.766730 -2.935552 -0.385476 0
M  V30 11 C 2.209395 -2.117971 -1.528879 0
M  V30 12 O 0.882644 -1.732078 -1.402570 0
M  V30 13 C 0.358025 -0.913119 -0.470882 0
M  V30 14 C 0.914019 -0.211840 0.574843 0
M  V30 15 C 0.251057 0.585333 1.453220 0
M  V30 16 C 0.981033 1.251228 2.490212 0
M  V30 17 N 0.273045 2.066448 3.391117 0
M  V30 18 O 2.220917 1.159354 2.657034 0
M  V30 19 C -1.108396 0.717647 1.298523 0
M  V30 20 N -1.761911 1.518696 2.188871 0
M  V30 21 C -3.091843 1.686628 2.090983 0
M  V30 22 N -3.704139 1.033646 1.091779 0
M  V30 23 C -3.121790 0.240472 0.194838 0
M  V30 24 N -3.869004 -0.399534 -0.828016 0
M  V30 25 C -5.298860 -0.299150 -1.036321 0
M  V30 26 C -5.771571 1.081152 -1.288563 0
M  V30 27 C -5.724558 1.575233 -2.580129 0
M  V30 28 C -6.147692 2.838396 -2.940200 0
M  V30 29 C -6.649399 3.663376 -1.956845 0
M  V30 30 C -7.150924 5.064833 -2.180116 0
M  V30 31 F -6.291451 5.999972 -1.616219 0
M  V30 32 F -8.385694 5.188365 -1.531627 0
M  V30 33 F -7.369143 5.305760 -3.519455 0
M  V30 34 C -6.720314 3.229743 -0.662001 0
M  V30 35 C -6.283708 1.957640 -0.356778 0
M  V30 36 C -1.738866 0.046567 0.272372 0
M  V30 37 C -1.028098 -0.740342 -0.580776 0
M  V30 38 H 4.729610 -1.371756 3.265251 0
M  V30 39 H 5.809813 -1.178781 4.715600 0
M  V30 40 H 6.473039 -0.867478 3.052744 0
M  V30 41 H 6.910141 -2.861659 1.708326 0
M  V30 42 H 6.527934 -4.464522 2.443830 0
M  V30 43 H 4.515990 -2.354258 1.538454 0
M  V30 44 H 4.287043 -4.464560 3.563824 0
M  V30 45 H 2.943200 -3.561342 2.678791 0
M  V30 46 H 3.633074 -6.302720 2.421823 0
M  V30 47 H 2.399481 -5.379404 1.473280 0
M  V30 48 H 5.260159 -6.030308 0.837465 0
M  V30 49 H 3.868681 -5.854995 -0.259268 0
M  V30 50 H 4.293985 -3.828911 -1.568286 0
M  V30 51 H 4.769242 -2.326480 -0.736268 0
M  V30 52 H 2.228494 -3.940047 -0.459352 0
M  V30 53 H 2.522191 -2.467878 0.549452 0
M  V30 54 H 2.332971 -2.659991 -2.506711 0
M  V30 55 H 2.824803 -1.184897 -1.676567 0
M  V30 56 H 1.973825 -0.278529 0.705422 0
M  V30 57 H -0.116119 2.564301 4.209466 0
M  V30 58 H -0.418795 2.775961 3.695700 0
M  V30 59 H -3.683134 2.301473 2.754472 0
M  V30 60 H -3.461301 -1.008800 -1.539602 0
M  V30 61 H -5.741899 -0.558737 -0.021376 0
M  V30 62 H -5.689437 -1.023536 -1.752953 0
M  V30 63 H -5.332892 0.934715 -3.355482 0
M  V30 64 H -6.114071 3.232008 -3.938547 0
M  V30 65 H -7.111812 3.848189 0.152174 0
M  V30 66 H -6.353078 1.626184 0.656697 0
M  V30 67 H -1.555466 -1.235995 -1.354619 0
M  V30 END ATOM
M  V30 BEGIN BOND
M  V30 1 1 1 2
M  V30 2 1 2 3
M  V30 3 1 3 4
M  V30 4 1 4 5
M  V30 5 1 5 6
M  V30 6 1 6 7
M  V30 7 1 7 8
M  V30 8 1 8 9
M  V30 9 1 9 10
M  V30 10 1 10 11
M  V30 11 1 11 12
M  V30 12 1 12 13
M  V30 13 2 13 14
M  V30 14 1 14 15
M  V30 15 1 15 16
M  V30 16 1 16 17
M  V30 17 2 16 18
M  V30 18 2 15 19
M  V30 19 1 19 20
M  V30 20 2 20 21
M  V30 21 1 21 22
M  V30 22 2 22 23
M  V30 23 1 23 24
M  V30 24 1 24 25
M  V30 25 1 25 26
M  V30 26 2 26 27
M  V30 27 1 27 28
M  V30 28 2 28 29
M  V30 29 1 29 30
M  V30 30 1 30 31
M  V30 31 1 30 32
M  V30 32 1 30 33
M  V30 33 1 29 34
M  V30 34 2 34 35
M  V30 35 1 23 36
M  V30 36 2 36 37
M  V30 37 1 8 4
M  V30 38 1 37 13
M  V30 39 1 36 19
M  V30 40 1 35 26
M  V30 41 1 1 38
M  V30 42 1 1 39
M  V30 43 1 1 40
M  V30 44 1 3 41
M  V30 45 1 3 42
M  V30 46 1 4 43 CFG=3
M  V30 47 1 5 44
M  V30 48 1 5 45
M  V30 49 1 6 46
M  V30 50 1 6 47
M  V30 51 1 7 48
M  V30 52 1 7 49
M  V30 53 1 9 50
M  V30 54 1 9 51
M  V30 55 1 10 52
M  V30 56 1 10 53
M  V30 57 1 11 54
M  V30 58 1 11 55
M  V30 59 1 14 56
M  V30 60 1 17 57
M  V30 61 1 17 58
M  V30 62 1 21 59
M  V30 63 1 24 60
M  V30 64 1 25 61
M  V30 65 1 25 62
M  V30 66 1 27 63
M  V30 67 1 28 64
M  V30 68 1 34 65
M  V30 69 1 35 66
M  V30 70 1 37 67
M  V30 END BOND
M  V30 END CTAB
M  END
>  <Dataset>  (783) 
ChEMBL_Kinases

>  <Ligand_Instance>  (783) 
nan

>  <PDB_ID>  (783) 
nan

>  <Standardized_SMILES>  (783) 
COC[C@@H]1CCCN1CCCOc1cc(C(N)=O)c2ncnc(NCc3ccc(C(F)(F)F)cc3)c2c1

>  <Name>  (783) 
nan

>  <Pocket>  (783) 
nan

>  <ATP_Site>  (783) 
nan

>  <Peripheral>  (783) 
nan

>  <Num_H_Atoms_ProtBoundConf>  (783) 
nan

>  <Num_Resolved_Atoms>  (783) 
nan

>  <Num_Not_Resolved_Atoms>  (783) 
nan

$$$$
CHEMBL3675319
     RDKit          3D

  0  0  0  0  0  0  0  0  0  0999 V3000
M  V30 BEGIN CTAB
M  V30 COUNTS 60 62 0 0 0
M  V30 BEGIN ATOM
M  V30 1 C 2.417559 0.901782 5.188513 0
M  V30 2 N 1.228867 1.257135 4.394639 0
M  V30 3 C 1.086867 2.699526 4.571287 0
M  V30 4 C 2.253634 3.357459 3.875519 0
M  V30 5 O 2.141967 4.746519 4.028819 0
M  V30 6 C 0.139294 0.534835 4.992431 0
M  V30 7 C -1.188590 0.724741 4.342602 0
M  V30 8 C -1.211947 0.292431 2.892993 0
M  V30 9 O -0.260543 1.071456 2.197013 0
M  V30 10 C -0.044320 0.901843 0.818699 0
M  V30 11 C 0.891354 1.679417 0.168858 0
M  V30 12 C 1.079187 1.481935 -1.202208 0
M  V30 13 C 2.060149 2.277804 -1.955760 0
M  V30 14 N 2.830050 3.273192 -1.257377 0
M  V30 15 O 2.205167 2.067030 -3.208817 0
M  V30 16 C 0.333586 0.527847 -1.858015 0
M  V30 17 N 0.513565 0.333368 -3.187858 0
M  V30 18 C -0.205882 -0.598418 -3.858602 0
M  V30 19 N -1.103481 -1.333464 -3.198672 0
M  V30 20 C -1.360426 -1.223525 -1.886811 0
M  V30 21 N -2.314860 -2.016396 -1.247584 0
M  V30 22 C -3.116348 -3.023228 -1.875044 0
M  V30 23 C -2.399508 -4.161055 -2.459349 0
M  V30 24 C -2.175276 -5.178401 -1.518963 0
M  V30 25 C -1.526935 -6.357422 -1.825584 0
M  V30 26 C -1.064794 -6.575751 -3.111480 0
M  V30 27 C -0.368138 -7.841463 -3.443045 0
M  V30 28 F 0.262351 -7.674324 -4.652486 0
M  V30 29 F -1.229507 -8.906100 -3.419143 0
M  V30 30 F 0.618170 -8.130592 -2.491392 0
M  V30 31 C -1.283449 -5.577958 -4.038479 0
M  V30 32 C -1.930536 -4.396171 -3.742249 0
M  V30 33 C -0.607842 -0.264030 -1.238157 0
M  V30 34 C -0.759151 -0.034619 0.112567 0
M  V30 35 H 2.393012 1.536483 6.094159 0
M  V30 36 H 3.343782 1.060613 4.637915 0
M  V30 37 H 2.303366 -0.144332 5.544800 0
M  V30 38 H 0.127710 3.095452 4.224817 0
M  V30 39 H 1.230247 2.914750 5.663269 0
M  V30 40 H 2.335593 3.116353 2.802159 0
M  V30 41 H 3.197615 3.068163 4.391777 0
M  V30 42 H 2.698680 5.065978 4.787112 0
M  V30 43 H 0.046474 0.880990 6.043717 0
M  V30 44 H 0.384990 -0.545402 5.004162 0
M  V30 45 H -1.439683 1.817076 4.348426 0
M  V30 46 H -1.950538 0.160571 4.930007 0
M  V30 47 H -0.968398 -0.803533 2.840584 0
M  V30 48 H -2.222592 0.434463 2.472909 0
M  V30 49 H 1.483875 2.432930 0.669057 0
M  V30 50 H 2.081018 3.965551 -1.471631 0
M  V30 51 H 3.559275 2.529198 -1.068394 0
M  V30 52 H -0.060575 -0.751798 -4.920351 0
M  V30 53 H -2.544449 -1.957620 -0.233172 0
M  V30 54 H -3.612507 -2.490575 -2.750387 0
M  V30 55 H -3.969743 -3.392589 -1.286399 0
M  V30 56 H -2.487154 -5.138922 -0.463027 0
M  V30 57 H -1.350267 -7.144192 -1.112339 0
M  V30 58 H -0.939965 -5.699483 -5.064214 0
M  V30 59 H -2.134275 -3.596529 -4.406849 0
M  V30 60 H -1.459051 -0.593960 0.679897 0
M  V30 END ATOM
M  V30 BEGIN BOND
M  V30 1 1 1 2
M  V30 2 1 2 3
M  V30 3 1 3 4
M  V30 4 1 4 5
M  V30 5 1 2 6
M  V30 6 1 6 7
M  V30 7 1 7 8
M  V30 8 1 8 9
M  V30 9 1 9 10
M  V30 10 2 10 11
M  V30 11 1 11 12
M  V30 12 1 12 13
M  V30 13 1 13 14
M  V30 14 2 13 15
M  V30 15 2 12 16
M  V30 16 1 16 17
M  V30 17 2 17 18
M  V30 18 1 18 19
M  V30 19 2 19 20
M  V30 20 1 20 21
M  V30 21 1 21 22
M  V30 22 1 22 23
M  V30 23 2 23 24
M  V30 24 1 24 25
M  V30 25 2 25 26
M  V30 26 1 26 27
M  V30 27 1 27 28
M  V30 28 1 27 29
M  V30 29 1 27 30
M  V30 30 1 26 31
M  V30 31 2 31 32
M  V30 32 1 20 33
M  V30 33 2 33 34
M  V30 34 1 34 10
M  V30 35 1 33 16
M  V30 36 1 32 23
M  V30 37 1 1 35
M  V30 38 1 1 36
M  V30 39 1 1 37
M  V30 40 1 3 38
M  V30 41 1 3 39
M  V30 42 1 4 40
M  V30 43 1 4 41
M  V30 44 1 5 42
M  V30 45 1 6 43
M  V30 46 1 6 44
M  V30 47 1 7 45
M  V30 48 1 7 46
M  V30 49 1 8 47
M  V30 50 1 8 48
M  V30 51 1 11 49
M  V30 52 1 14 50
M  V30 53 1 14 51
M  V30 54 1 18 52
M  V30 55 1 21 53
M  V30 56 1 22 54
M  V30 57 1 22 55
M  V30 58 1 24 56
M  V30 59 1 25 57
M  V30 60 1 31 58
M  V30 61 1 32 59
M  V30 62 1 34 60
M  V30 END BOND
M  V30 END CTAB
M  END
>  <Dataset>  (784) 
ChEMBL_Kinases

>  <Ligand_Instance>  (784) 
nan

>  <PDB_ID>  (784) 
nan

>  <Standardized_SMILES>  (784) 
CN(CCO)CCCOc1cc(C(N)=O)c2ncnc(NCc3ccc(C(F)(F)F)cc3)c2c1

>  <Name>  (784) 
nan

>  <Pocket>  (784) 
nan

>  <ATP_Site>  (784) 
nan

>  <Peripheral>  (784) 
nan

>  <Num_H_Atoms_ProtBoundConf>  (784) 
nan

>  <Num_Resolved_Atoms>  (784) 
nan

>  <Num_Not_Resolved_Atoms>  (784) 
nan

$$$$
CHEMBL3753782
     RDKit          3D

  0  0  0  0  0  0  0  0  0  0999 V3000
M  V30 BEGIN CTAB
M  V30 COUNTS 34 36 0 0 0
M  V30 BEGIN ATOM
M  V30 1 C -0.949823 -3.754008 -1.276033 0
M  V30 2 O -0.310230 -2.827755 -0.453326 0
M  V30 3 C 0.794827 -3.039193 0.294265 0
M  V30 4 C 1.414506 -4.266059 0.303286 0
M  V30 5 C 2.564140 -4.505540 1.074364 0
M  V30 6 C 3.085964 -3.485992 1.841077 0
M  V30 7 C 2.417412 -2.278455 1.787798 0
M  V30 8 N 2.691742 -1.120904 2.416670 0
M  V30 9 C 1.793444 -0.178065 2.091230 0
M  V30 10 C 0.880993 -0.721718 1.211072 0
M  V30 11 C -0.217688 0.042500 0.664616 0
M  V30 12 C -1.271754 -0.295441 -0.236317 0
M  V30 13 N -2.117255 -0.564350 -0.984457 0
M  V30 14 C -0.300906 1.327170 1.023990 0
M  V30 15 C -1.297963 2.291257 0.620409 0
M  V30 16 C -0.979693 3.581003 0.182803 0
M  V30 17 C -1.934640 4.531964 -0.192629 0
M  V30 18 C -3.262184 4.145255 -0.116003 0
M  V30 19 N -3.616843 2.902487 0.303884 0
M  V30 20 C -2.644280 2.010646 0.659649 0
M  V30 21 C 1.306092 -2.015449 1.054909 0
M  V30 22 H -0.852615 -3.500947 -2.363633 0
M  V30 23 H -0.611122 -4.797297 -1.156290 0
M  V30 24 H -2.057499 -3.801075 -1.087983 0
M  V30 25 H 1.111633 -5.138895 -0.248024 0
M  V30 26 H 3.086867 -5.461712 1.112149 0
M  V30 27 H 3.983544 -3.626540 2.460133 0
M  V30 28 H 3.493082 -0.991592 3.063294 0
M  V30 29 H 1.884919 0.823874 2.525752 0
M  V30 30 H 0.384166 1.841393 1.687339 0
M  V30 31 H 0.081049 3.816012 0.147302 0
M  V30 32 H -1.583765 5.500530 -0.516054 0
M  V30 33 H -3.919547 4.947526 -0.426316 0
M  V30 34 H -3.048177 1.065885 0.989318 0
M  V30 END ATOM
M  V30 BEGIN BOND
M  V30 1 1 1 2
M  V30 2 1 2 3
M  V30 3 2 3 4
M  V30 4 1 4 5
M  V30 5 2 5 6
M  V30 6 1 6 7
M  V30 7 1 7 8
M  V30 8 1 8 9
M  V30 9 2 9 10
M  V30 10 1 10 11
M  V30 11 1 11 12
M  V30 12 3 12 13
M  V30 13 2 11 14
M  V30 14 1 14 15
M  V30 15 2 15 16
M  V30 16 1 16 17
M  V30 17 2 17 18
M  V30 18 1 18 19
M  V30 19 2 19 20
M  V30 20 1 10 21
M  V30 21 1 21 3
M  V30 22 2 21 7
M  V30 23 1 20 15
M  V30 24 1 1 22
M  V30 25 1 1 23
M  V30 26 1 1 24
M  V30 27 1 4 25
M  V30 28 1 5 26
M  V30 29 1 6 27
M  V30 30 1 8 28
M  V30 31 1 9 29
M  V30 32 1 14 30
M  V30 33 1 16 31
M  V30 34 1 17 32
M  V30 35 1 18 33
M  V30 36 1 20 34
M  V30 END BOND
M  V30 END CTAB
M  END
>  <Dataset>  (785) 
ChEMBL_Kinases

>  <Ligand_Instance>  (785) 
nan

>  <PDB_ID>  (785) 
nan

>  <Standardized_SMILES>  (785) 
COc1cccc2[nH]cc(/C(C#N)=C/c3cccnc3)c12

>  <Name>  (785) 
nan

>  <Pocket>  (785) 
nan

>  <ATP_Site>  (785) 
nan

>  <Peripheral>  (785) 
nan

>  <Num_H_Atoms_ProtBoundConf>  (785) 
nan

>  <Num_Resolved_Atoms>  (785) 
nan

>  <Num_Not_Resolved_Atoms>  (785) 
nan

$$$$
CHEMBL3753970
     RDKit          3D

  0  0  0  0  0  0  0  0  0  0999 V3000
M  V30 BEGIN CTAB
M  V30 COUNTS 34 36 0 0 0
M  V30 BEGIN ATOM
M  V30 1 C -2.551459 -4.637847 4.030975 0
M  V30 2 O -2.813369 -4.521722 2.632305 0
M  V30 3 C -2.168865 -3.529984 1.904754 0
M  V30 4 C -1.268119 -2.603259 2.384690 0
M  V30 5 C -0.698363 -1.668406 1.551907 0
M  V30 6 C -1.012556 -1.634108 0.220171 0
M  V30 7 C -0.544275 -0.783148 -0.742833 0
M  V30 8 C 0.358532 0.339786 -0.821992 0
M  V30 9 C 0.615503 0.921787 -2.138371 0
M  V30 10 N 0.819666 1.373571 -3.210346 0
M  V30 11 C 1.063587 0.991901 0.060513 0
M  V30 12 C 1.966577 2.102695 0.040662 0
M  V30 13 C 3.163727 2.160120 0.742363 0
M  V30 14 C 3.974788 3.273246 0.680109 0
M  V30 15 C 3.619558 4.362762 -0.081660 0
M  V30 16 N 2.455542 4.325435 -0.772351 0
M  V30 17 C 1.667386 3.218950 -0.699566 0
M  V30 18 C -1.213251 -1.234365 -1.880693 0
M  V30 19 N -1.997020 -2.267950 -1.551970 0
M  V30 20 C -1.911485 -2.563345 -0.245907 0
M  V30 21 C -2.504439 -3.516052 0.554449 0
M  V30 22 H -1.504535 -5.040352 4.108324 0
M  V30 23 H -2.538000 -3.632473 4.515590 0
M  V30 24 H -3.287943 -5.260793 4.542628 0
M  V30 25 H -1.049901 -2.666122 3.429704 0
M  V30 26 H -0.005192 -0.974451 1.966586 0
M  V30 27 H 0.981890 0.663840 1.072487 0
M  V30 28 H 3.443585 1.294559 1.345451 0
M  V30 29 H 4.919724 3.333344 1.225837 0
M  V30 30 H 4.264152 5.216763 -0.116603 0
M  V30 31 H 0.785602 3.356352 -1.297010 0
M  V30 32 H -1.201749 -0.901216 -2.927269 0
M  V30 33 H -2.623145 -2.823277 -2.182267 0
M  V30 34 H -3.207761 -4.219725 0.117574 0
M  V30 END ATOM
M  V30 BEGIN BOND
M  V30 1 1 1 2
M  V30 2 1 2 3
M  V30 3 2 3 4
M  V30 4 1 4 5
M  V30 5 2 5 6
M  V30 6 1 6 7
M  V30 7 1 7 8
M  V30 8 1 8 9
M  V30 9 3 9 10
M  V30 10 2 8 11
M  V30 11 1 11 12
M  V30 12 2 12 13
M  V30 13 1 13 14
M  V30 14 2 14 15
M  V30 15 1 15 16
M  V30 16 2 16 17
M  V30 17 2 7 18
M  V30 18 1 18 19
M  V30 19 1 19 20
M  V30 20 2 20 21
M  V30 21 1 21 3
M  V30 22 1 20 6
M  V30 23 1 17 12
M  V30 24 1 1 22
M  V30 25 1 1 23
M  V30 26 1 1 24
M  V30 27 1 4 25
M  V30 28 1 5 26
M  V30 29 1 11 27
M  V30 30 1 13 28
M  V30 31 1 14 29
M  V30 32 1 15 30
M  V30 33 1 17 31
M  V30 34 1 18 32
M  V30 35 1 19 33
M  V30 36 1 21 34
M  V30 END BOND
M  V30 END CTAB
M  END
>  <Dataset>  (786) 
ChEMBL_Kinases

>  <Ligand_Instance>  (786) 
nan

>  <PDB_ID>  (786) 
nan

>  <Standardized_SMILES>  (786) 
COc1ccc2c(/C(C#N)=C/c3cccnc3)c[nH]c2c1

>  <Name>  (786) 
nan

>  <Pocket>  (786) 
nan

>  <ATP_Site>  (786) 
nan

>  <Peripheral>  (786) 
nan

>  <Num_H_Atoms_ProtBoundConf>  (786) 
nan

>  <Num_Resolved_Atoms>  (786) 
nan

>  <Num_Not_Resolved_Atoms>  (786) 
nan

$$$$
CHEMBL375428
     RDKit          3D

  0  0  0  0  0  0  0  0  0  0999 V3000
M  V30 BEGIN CTAB
M  V30 COUNTS 36 38 0 0 0
M  V30 BEGIN ATOM
M  V30 1 C -0.684703 -2.749360 3.489735 0
M  V30 2 C 0.589274 -2.856440 2.667641 0
M  V30 3 C 0.440022 -3.797552 1.501588 0
M  V30 4 C 1.003212 -1.523853 2.223912 0
M  V30 5 N 1.864602 -0.731565 2.905085 0
M  V30 6 O 2.049444 0.396234 2.286818 0
M  V30 7 C 1.353527 0.452854 1.180705 0
M  V30 8 C 1.309107 1.571989 0.218906 0
M  V30 9 C 1.775746 1.297423 -1.070388 0
M  V30 10 C 1.747297 2.329597 -2.001274 0
M  V30 11 C 1.262158 3.552368 -1.592368 0
M  V30 12 F 1.226675 4.582241 -2.495700 0
M  V30 13 C 0.809373 3.792605 -0.314687 0
M  V30 14 C 0.826670 2.786707 0.626965 0
M  V30 15 C 0.678050 -0.768354 1.125423 0
M  V30 16 C -0.218739 -1.117090 0.060199 0
M  V30 17 C -1.484233 -0.557108 0.261532 0
M  V30 18 C -2.519321 -0.743619 -0.635047 0
M  V30 19 N -2.292365 -1.488736 -1.733703 0
M  V30 20 C -1.095316 -2.052036 -1.979223 0
M  V30 21 C -0.057232 -1.873443 -1.093514 0
M  V30 22 H -0.512132 -3.123451 4.508680 0
M  V30 23 H -1.504877 -3.292198 2.999394 0
M  V30 24 H -0.965131 -1.670427 3.598641 0
M  V30 25 H 1.384212 -3.289916 3.318548 0
M  V30 26 H -0.562779 -3.684547 1.085341 0
M  V30 27 H 1.266866 -3.608196 0.790398 0
M  V30 28 H 0.504432 -4.852484 1.903455 0
M  V30 29 H 2.146102 0.289206 -1.310935 0
M  V30 30 H 2.101982 2.152673 -3.011051 0
M  V30 31 H 0.424621 4.751582 0.019895 0
M  V30 32 H 0.495613 2.887565 1.638430 0
M  V30 33 H -1.787699 0.057409 1.102802 0
M  V30 34 H -3.516711 -0.320813 -0.508287 0
M  V30 35 H -0.813750 -2.664133 -2.823374 0
M  V30 36 H 0.969669 -2.262004 -1.149555 0
M  V30 END ATOM
M  V30 BEGIN BOND
M  V30 1 1 1 2
M  V30 2 1 2 3
M  V30 3 1 2 4
M  V30 4 2 4 5
M  V30 5 1 5 6
M  V30 6 1 6 7
M  V30 7 1 7 8
M  V30 8 2 8 9
M  V30 9 1 9 10
M  V30 10 2 10 11
M  V30 11 1 11 12
M  V30 12 1 11 13
M  V30 13 2 13 14
M  V30 14 2 7 15
M  V30 15 1 15 16
M  V30 16 2 16 17
M  V30 17 1 17 18
M  V30 18 2 18 19
M  V30 19 1 19 20
M  V30 20 2 20 21
M  V30 21 1 15 4
M  V30 22 1 21 16
M  V30 23 1 14 8
M  V30 24 1 1 22
M  V30 25 1 1 23
M  V30 26 1 1 24
M  V30 27 1 2 25
M  V30 28 1 3 26
M  V30 29 1 3 27
M  V30 30 1 3 28
M  V30 31 1 9 29
M  V30 32 1 10 30
M  V30 33 1 13 31
M  V30 34 1 14 32
M  V30 35 1 17 33
M  V30 36 1 18 34
M  V30 37 1 20 35
M  V30 38 1 21 36
M  V30 END BOND
M  V30 END CTAB
M  END
>  <Dataset>  (787) 
ChEMBL_Kinases

>  <Ligand_Instance>  (787) 
nan

>  <PDB_ID>  (787) 
nan

>  <Standardized_SMILES>  (787) 
CC(C)c1noc(-c2ccc(F)cc2)c1-c1ccncc1

>  <Name>  (787) 
nan

>  <Pocket>  (787) 
nan

>  <ATP_Site>  (787) 
nan

>  <Peripheral>  (787) 
nan

>  <Num_H_Atoms_ProtBoundConf>  (787) 
nan

>  <Num_Resolved_Atoms>  (787) 
nan

>  <Num_Not_Resolved_Atoms>  (787) 
nan

$$$$
CHEMBL375544
     RDKit          3D

  0  0  0  0  0  0  0  0  0  0999 V3000
M  V30 BEGIN CTAB
M  V30 COUNTS 48 51 0 0 0
M  V30 BEGIN ATOM
M  V30 1 O 2.368171 -0.295652 3.099644 0
M  V30 2 C 1.605091 0.144432 2.230584 0
M  V30 3 N 2.198140 0.857732 1.133067 0
M  V30 4 C 3.611092 1.029508 1.084735 0
M  V30 5 C 4.072975 2.449228 1.049915 0
M  V30 6 O 3.599406 3.060853 2.219481 0
M  V30 7 C 4.116650 0.355864 -0.143485 0
M  V30 8 C 5.242818 -0.460885 -0.140716 0
M  V30 9 C 5.722719 -1.090564 -1.268058 0
M  V30 10 C 5.024219 -0.874652 -2.434684 0
M  V30 11 Cl 5.575535 -1.646204 -3.922848 0
M  V30 12 C 3.899575 -0.077946 -2.513477 0
M  V30 13 C 3.449568 0.538120 -1.353618 0
M  V30 14 C 0.138050 -0.003921 2.230514 0
M  V30 15 C -0.832653 0.426381 1.341486 0
M  V30 16 C -2.072144 0.022595 1.810395 0
M  V30 17 C -3.338322 0.295061 1.136786 0
M  V30 18 N -3.810767 1.549060 0.893068 0
M  V30 19 N -4.973217 1.431869 0.271832 0
M  V30 20 C -5.259112 0.135858 0.110503 0
M  V30 21 C -4.237622 -0.615207 0.650662 0
M  V30 22 C -4.148213 -2.071166 0.688711 0
M  V30 23 C -5.212732 -2.597799 1.417761 0
M  V30 24 C -5.350463 -3.973615 1.598368 0
M  V30 25 C -4.400134 -4.819898 1.034324 0
M  V30 26 C -3.341605 -4.276262 0.308042 0
M  V30 27 Cl -2.111843 -5.267880 -0.428796 0
M  V30 28 C -3.209581 -2.915363 0.132179 0
M  V30 29 C -1.858654 -0.666834 3.006812 0
M  V30 30 N -0.516110 -0.653469 3.212418 0
M  V30 31 H 1.579047 1.249273 0.370116 0
M  V30 32 H 4.080832 0.553114 1.964486 0
M  V30 33 H 5.180549 2.451229 1.131403 0
M  V30 34 H 3.812390 3.014715 0.144485 0
M  V30 35 H 3.817447 2.405527 2.956632 0
M  V30 36 H 5.738037 -0.578682 0.828092 0
M  V30 37 H 6.592394 -1.707434 -1.210029 0
M  V30 38 H 3.363029 0.077777 -3.450908 0
M  V30 39 H 2.573481 1.156854 -1.422655 0
M  V30 40 H -0.562302 0.979543 0.456557 0
M  V30 41 H -3.390621 2.490307 1.123538 0
M  V30 42 H -6.154300 -0.208231 -0.369613 0
M  V30 43 H -6.016234 -2.058025 1.906208 0
M  V30 44 H -6.150408 -4.443019 2.151051 0
M  V30 45 H -4.473674 -5.907712 1.154034 0
M  V30 46 H -2.451939 -2.392807 -0.396501 0
M  V30 47 H -2.619918 -1.111474 3.625716 0
M  V30 48 H -0.124623 -1.127411 4.076509 0
M  V30 END ATOM
M  V30 BEGIN BOND
M  V30 1 2 1 2
M  V30 2 1 2 3
M  V30 3 1 3 4
M  V30 4 1 4 5
M  V30 5 1 5 6
M  V30 6 1 4 7
M  V30 7 2 7 8
M  V30 8 1 8 9
M  V30 9 2 9 10
M  V30 10 1 10 11
M  V30 11 1 10 12
M  V30 12 2 12 13
M  V30 13 1 2 14
M  V30 14 2 14 15
M  V30 15 1 15 16
M  V30 16 1 16 17
M  V30 17 1 17 18
M  V30 18 1 18 19
M  V30 19 2 19 20
M  V30 20 1 20 21
M  V30 21 1 21 22
M  V30 22 2 22 23
M  V30 23 1 23 24
M  V30 24 2 24 25
M  V30 25 1 25 26
M  V30 26 1 26 27
M  V30 27 2 26 28
M  V30 28 2 16 29
M  V30 29 1 29 30
M  V30 30 1 13 7
M  V30 31 1 30 14
M  V30 32 2 21 17
M  V30 33 1 28 22
M  V30 34 1 3 31
M  V30 35 1 4 32
M  V30 36 1 5 33
M  V30 37 1 5 34
M  V30 38 1 6 35
M  V30 39 1 8 36
M  V30 40 1 9 37
M  V30 41 1 12 38
M  V30 42 1 13 39
M  V30 43 1 15 40
M  V30 44 1 18 41
M  V30 45 1 20 42
M  V30 46 1 23 43
M  V30 47 1 24 44
M  V30 48 1 25 45
M  V30 49 1 28 46
M  V30 50 1 29 47
M  V30 51 1 30 48
M  V30 END BOND
M  V30 END CTAB
M  END
>  <Dataset>  (788) 
ChEMBL_Kinases

>  <Ligand_Instance>  (788) 
nan

>  <PDB_ID>  (788) 
nan

>  <Standardized_SMILES>  (788) 
O=C(NC(CO)c1ccc(Cl)cc1)c1cc(-c2[nH]ncc2-c2cccc(Cl)c2)c[nH]1

>  <Name>  (788) 
nan

>  <Pocket>  (788) 
nan

>  <ATP_Site>  (788) 
nan

>  <Peripheral>  (788) 
nan

>  <Num_H_Atoms_ProtBoundConf>  (788) 
nan

>  <Num_Resolved_Atoms>  (788) 
nan

>  <Num_Not_Resolved_Atoms>  (788) 
nan

$$$$
CHEMBL375795
     RDKit          3D

  0  0  0  0  0  0  0  0  0  0999 V3000
M  V30 BEGIN CTAB
M  V30 COUNTS 52 54 0 0 0
M  V30 BEGIN ATOM
M  V30 1 C 4.867061 -4.296583 2.586741 0
M  V30 2 S 5.627591 -3.660536 1.132922 0
M  V30 3 O 6.998020 -3.089404 1.395033 0
M  V30 4 O 5.784700 -4.800213 0.154946 0
M  V30 5 C 4.625792 -2.446265 0.352344 0
M  V30 6 C 4.855358 -1.160546 0.793889 0
M  V30 7 C 4.130897 -0.120952 0.253087 0
M  V30 8 C 3.172860 -0.306085 -0.722844 0
M  V30 9 C 2.336693 0.739685 -1.369268 0
M  V30 10 N 1.113229 0.845155 -0.598785 0
M  V30 11 C 0.932934 1.479315 0.653667 0
M  V30 12 O 1.898096 2.032350 1.216395 0
M  V30 13 C -0.380247 1.498588 1.309161 0
M  V30 14 C -0.532481 2.113474 2.533536 0
M  V30 15 C -1.731007 2.170842 3.209381 0
M  V30 16 N -1.871869 2.809073 4.473189 0
M  V30 17 C -2.800062 1.565708 2.582302 0
M  V30 18 C -4.104143 1.559147 3.188881 0
M  V30 19 N -5.172949 1.572503 3.682896 0
M  V30 20 C -2.685201 0.937946 1.351562 0
M  V30 21 N -3.806331 0.307035 0.701212 0
M  V30 22 C -3.668904 -0.336684 -0.574253 0
M  V30 23 C -5.047515 -0.888314 -0.950181 0
M  V30 24 C -4.871991 -2.324982 -1.310835 0
M  V30 25 C -3.375468 -2.435440 -1.588124 0
M  V30 26 C -2.831987 -1.600203 -0.437492 0
M  V30 27 N -1.473733 0.921285 0.745956 0
M  V30 28 C 2.966417 -1.614342 -1.145327 0
M  V30 29 C 3.680016 -2.685938 -0.620718 0
M  V30 30 H 5.239929 -3.777263 3.515445 0
M  V30 31 H 3.763509 -4.206518 2.498663 0
M  V30 32 H 5.147761 -5.364005 2.694121 0
M  V30 33 H 5.577110 -0.887758 1.551722 0
M  V30 34 H 4.288721 0.882790 0.572639 0
M  V30 35 H 2.873757 1.716626 -1.415235 0
M  V30 36 H 2.085851 0.444924 -2.399316 0
M  V30 37 H 0.229851 0.404417 -0.992690 0
M  V30 38 H 0.355115 2.563916 2.956674 0
M  V30 39 H -1.737256 2.383308 5.431284 0
M  V30 40 H -2.127546 3.741000 4.110784 0
M  V30 41 H -4.725932 0.354695 1.229791 0
M  V30 42 H -3.236115 0.305691 -1.344312 0
M  V30 43 H -5.767327 -0.801391 -0.096703 0
M  V30 44 H -5.418961 -0.261828 -1.798757 0
M  V30 45 H -5.073114 -2.936211 -0.407142 0
M  V30 46 H -5.478887 -2.639237 -2.181839 0
M  V30 47 H -3.158769 -2.011090 -2.576894 0
M  V30 48 H -3.037404 -3.485656 -1.513224 0
M  V30 49 H -3.120713 -2.141742 0.488293 0
M  V30 50 H -1.752035 -1.420843 -0.530333 0
M  V30 51 H 2.238391 -1.829634 -1.899104 0
M  V30 52 H 3.562632 -3.716358 -0.909450 0
M  V30 END ATOM
M  V30 BEGIN BOND
M  V30 1 1 1 2
M  V30 2 2 2 3
M  V30 3 2 2 4
M  V30 4 1 2 5
M  V30 5 2 5 6
M  V30 6 1 6 7
M  V30 7 2 7 8
M  V30 8 1 8 9
M  V30 9 1 9 10
M  V30 10 1 10 11
M  V30 11 2 11 12
M  V30 12 1 11 13
M  V30 13 2 13 14
M  V30 14 1 14 15
M  V30 15 1 15 16
M  V30 16 2 15 17
M  V30 17 1 17 18
M  V30 18 3 18 19
M  V30 19 1 17 20
M  V30 20 1 20 21
M  V30 21 1 21 22
M  V30 22 1 22 23
M  V30 23 1 23 24
M  V30 24 1 24 25
M  V30 25 1 25 26
M  V30 26 2 20 27
M  V30 27 1 8 28
M  V30 28 2 28 29
M  V30 29 1 29 5
M  V30 30 1 27 13
M  V30 31 1 26 22
M  V30 32 1 1 30
M  V30 33 1 1 31
M  V30 34 1 1 32
M  V30 35 1 6 33
M  V30 36 1 7 34
M  V30 37 1 9 35
M  V30 38 1 9 36
M  V30 39 1 10 37
M  V30 40 1 14 38
M  V30 41 1 16 39
M  V30 42 1 16 40
M  V30 43 1 21 41
M  V30 44 1 22 42
M  V30 45 1 23 43
M  V30 46 1 23 44
M  V30 47 1 24 45
M  V30 48 1 24 46
M  V30 49 1 25 47
M  V30 50 1 25 48
M  V30 51 1 26 49
M  V30 52 1 26 50
M  V30 53 1 28 51
M  V30 54 1 29 52
M  V30 END BOND
M  V30 END CTAB
M  END
>  <Dataset>  (789) 
ChEMBL_Kinases

>  <Ligand_Instance>  (789) 
nan

>  <PDB_ID>  (789) 
nan

>  <Standardized_SMILES>  (789) 
CS(=O)(=O)c1ccc(CNC(=O)c2cc(N)c(C#N)c(NC3CCCC3)n2)cc1

>  <Name>  (789) 
nan

>  <Pocket>  (789) 
nan

>  <ATP_Site>  (789) 
nan

>  <Peripheral>  (789) 
nan

>  <Num_H_Atoms_ProtBoundConf>  (789) 
nan

>  <Num_Resolved_Atoms>  (789) 
nan

>  <Num_Not_Resolved_Atoms>  (789) 
nan

$$$$
CHEMBL3758270
     RDKit          3D

  0  0  0  0  0  0  0  0  0  0999 V3000
M  V30 BEGIN CTAB
M  V30 COUNTS 53 56 0 0 0
M  V30 BEGIN ATOM
M  V30 1 C 10.327214 -1.888760 -0.071843 0
M  V30 2 O 9.606581 -0.791019 0.441164 0
M  V30 3 C 8.240728 -0.605568 0.347391 0
M  V30 4 C 7.767685 0.551892 0.932646 0
M  V30 5 C 6.410598 0.873945 0.918306 0
M  V30 6 C 5.475932 0.044251 0.314204 0
M  V30 7 C 4.072783 0.438200 0.348688 0
M  V30 8 O 3.780429 1.510903 0.932627 0
M  V30 9 N 3.137824 -0.412298 -0.274021 0
M  V30 10 C 1.656768 -0.133928 -0.305245 0
M  V30 11 N 0.833474 0.359438 -0.864293 0
M  V30 12 C -0.418883 0.370026 -0.514527 0
M  V30 13 C -1.044443 -0.122779 0.467339 0
M  V30 14 C -1.764828 -0.709652 1.629580 0
M  V30 15 C -1.590363 -1.439019 2.756160 0
M  V30 16 C -2.613735 -1.765180 3.612834 0
M  V30 17 C -3.882551 -1.336618 3.325469 0
M  V30 18 C -4.869431 -1.748746 4.312037 0
M  V30 19 O -4.574254 -2.425674 5.322523 0
M  V30 20 O -6.230014 -1.478530 4.303183 0
M  V30 21 C -4.131247 -0.592889 2.199416 0
M  V30 22 C -3.088367 -0.258637 1.321478 0
M  V30 23 O -3.474522 0.465242 0.271919 0
M  V30 24 C -4.614775 0.986850 -0.228177 0
M  V30 25 C -5.705484 0.056579 -0.616511 0
M  V30 26 C -5.430842 -0.474556 -1.875735 0
M  V30 27 C -6.285013 -1.362464 -2.517407 0
M  V30 28 C -7.471147 -1.766949 -1.920835 0
M  V30 29 C -7.731887 -1.238287 -0.682432 0
M  V30 30 C -6.888287 -0.363490 -0.053462 0
M  V30 31 S 0.596494 -0.797424 1.079918 0
M  V30 32 C 5.957964 -1.104520 -0.265636 0
M  V30 33 C 7.305434 -1.418093 -0.247646 0
M  V30 34 H 11.154981 -1.526246 -0.740945 0
M  V30 35 H 10.759464 -2.453558 0.794231 0
M  V30 36 H 9.696148 -2.588725 -0.626348 0
M  V30 37 H 8.442480 1.265372 1.432426 0
M  V30 38 H 6.100910 1.805504 1.401796 0
M  V30 39 H 3.306179 -1.289854 -0.771365 0
M  V30 40 H -1.348193 0.808492 -0.955697 0
M  V30 41 H -0.578620 -1.740165 2.916239 0
M  V30 42 H -2.264327 -2.349411 4.449896 0
M  V30 43 H -6.825172 -1.403902 5.102744 0
M  V30 44 H -5.179369 -0.364583 2.190908 0
M  V30 45 H -5.068471 1.712499 0.518683 0
M  V30 46 H -4.377157 1.677611 -1.096927 0
M  V30 47 H -4.563652 -0.287693 -2.511214 0
M  V30 48 H -6.118979 -1.803784 -3.496662 0
M  V30 49 H -8.217987 -2.445236 -2.302428 0
M  V30 50 H -8.612267 -1.456494 -0.095335 0
M  V30 51 H -7.036690 0.094498 0.903346 0
M  V30 52 H 5.264458 -1.778100 -0.746670 0
M  V30 53 H 7.692495 -2.312452 -0.698186 0
M  V30 END ATOM
M  V30 BEGIN BOND
M  V30 1 1 1 2
M  V30 2 1 2 3
M  V30 3 2 3 4
M  V30 4 1 4 5
M  V30 5 2 5 6
M  V30 6 1 6 7
M  V30 7 2 7 8
M  V30 8 1 7 9
M  V30 9 1 9 10
M  V30 10 2 10 11
M  V30 11 1 11 12
M  V30 12 2 12 13
M  V30 13 1 13 14
M  V30 14 2 14 15
M  V30 15 1 15 16
M  V30 16 2 16 17
M  V30 17 1 17 18
M  V30 18 2 18 19
M  V30 19 1 18 20
M  V30 20 1 17 21
M  V30 21 2 21 22
M  V30 22 1 22 23
M  V30 23 1 23 24
M  V30 24 1 24 25
M  V30 25 2 25 26
M  V30 26 1 26 27
M  V30 27 2 27 28
M  V30 28 1 28 29
M  V30 29 2 29 30
M  V30 30 1 13 31
M  V30 31 1 6 32
M  V30 32 2 32 33
M  V30 33 1 33 3
M  V30 34 1 31 10
M  V30 35 1 22 14
M  V30 36 1 30 25
M  V30 37 1 1 34
M  V30 38 1 1 35
M  V30 39 1 1 36
M  V30 40 1 4 37
M  V30 41 1 5 38
M  V30 42 1 9 39
M  V30 43 1 12 40
M  V30 44 1 15 41
M  V30 45 1 16 42
M  V30 46 1 20 43
M  V30 47 1 21 44
M  V30 48 1 24 45
M  V30 49 1 24 46
M  V30 50 1 26 47
M  V30 51 1 27 48
M  V30 52 1 28 49
M  V30 53 1 29 50
M  V30 54 1 30 51
M  V30 55 1 32 52
M  V30 56 1 33 53
M  V30 END BOND
M  V30 END CTAB
M  END
>  <Dataset>  (790) 
ChEMBL_Kinases

>  <Ligand_Instance>  (790) 
nan

>  <PDB_ID>  (790) 
nan

>  <Standardized_SMILES>  (790) 
COc1ccc(C(=O)Nc2ncc(-c3ccc(C(=O)O)cc3OCc3ccccc3)s2)cc1

>  <Name>  (790) 
nan

>  <Pocket>  (790) 
nan

>  <ATP_Site>  (790) 
nan

>  <Peripheral>  (790) 
nan

>  <Num_H_Atoms_ProtBoundConf>  (790) 
nan

>  <Num_Resolved_Atoms>  (790) 
nan

>  <Num_Not_Resolved_Atoms>  (790) 
nan

$$$$
CHEMBL3337852
     RDKit          3D

  0  0  0  0  0  0  0  0  0  0999 V3000
M  V30 BEGIN CTAB
M  V30 COUNTS 38 41 0 0 0
M  V30 BEGIN ATOM
M  V30 1 C 6.171001 -1.976567 3.822864 0
M  V30 2 O 5.233217 -1.187237 3.119169 0
M  V30 3 C 5.476947 0.159023 2.819158 0
M  V30 4 O 6.514681 0.754630 3.140592 0
M  V30 5 C 4.438006 0.885100 2.085736 0
M  V30 6 C 4.629384 2.213380 1.765780 0
M  V30 7 C 3.673434 2.950265 1.069512 0
M  V30 8 C 2.505742 2.299788 0.701643 0
M  V30 9 C 2.277267 0.971618 1.003444 0
M  V30 10 C 1.066796 0.241506 0.639489 0
M  V30 11 O 0.905135 -0.984724 0.942218 0
M  V30 12 N 0.000254 0.850772 -0.071074 0
M  V30 13 C -1.169779 0.105259 -0.410445 0
M  V30 14 N -2.175598 0.126809 0.512544 0
M  V30 15 C -3.204518 -0.613615 0.058574 0
M  V30 16 C -4.451541 -0.940660 0.554207 0
M  V30 17 C -5.319957 -1.743792 -0.155724 0
M  V30 18 C -4.892597 -2.218085 -1.400820 0
M  V30 19 C -3.651468 -1.923491 -1.950784 0
M  V30 20 C -2.826372 -1.109468 -1.182836 0
M  V30 21 N -1.586009 -0.653539 -1.436273 0
M  V30 22 O -5.933815 -3.004502 -1.928312 0
M  V30 23 C -6.772365 -3.387773 -0.843905 0
M  V30 24 F -6.267398 -4.538534 -0.298691 0
M  V30 25 F -8.036031 -3.559751 -1.314311 0
M  V30 26 O -6.612018 -2.271611 0.011310 0
M  V30 27 C 3.257179 0.289061 1.694505 0
M  V30 28 H 7.134848 -2.098539 3.314347 0
M  V30 29 H 6.302400 -1.541844 4.856670 0
M  V30 30 H 5.662577 -2.946515 4.009748 0
M  V30 31 H 5.529783 2.761225 2.035046 0
M  V30 32 H 3.782807 3.992152 0.798651 0
M  V30 33 H 1.743008 2.841629 0.160454 0
M  V30 34 H 0.042999 1.840382 -0.358244 0
M  V30 35 H -4.785002 -0.580920 1.506764 0
M  V30 36 H -3.337076 -2.289192 -2.897531 0
M  V30 37 H -0.950328 -0.783046 -2.232108 0
M  V30 38 H 3.099127 -0.750329 1.940815 0
M  V30 END ATOM
M  V30 BEGIN BOND
M  V30 1 1 1 2
M  V30 2 1 2 3
M  V30 3 2 3 4
M  V30 4 1 3 5
M  V30 5 2 5 6
M  V30 6 1 6 7
M  V30 7 2 7 8
M  V30 8 1 8 9
M  V30 9 1 9 10
M  V30 10 2 10 11
M  V30 11 1 10 12
M  V30 12 1 12 13
M  V30 13 2 13 14
M  V30 14 1 14 15
M  V30 15 2 15 16
M  V30 16 1 16 17
M  V30 17 2 17 18
M  V30 18 1 18 19
M  V30 19 2 19 20
M  V30 20 1 20 21
M  V30 21 1 18 22
M  V30 22 1 22 23
M  V30 23 1 23 24
M  V30 24 1 23 25
M  V30 25 1 23 26
M  V30 26 2 9 27
M  V30 27 1 27 5
M  V30 28 1 21 13
M  V30 29 1 20 15
M  V30 30 1 26 17
M  V30 31 1 1 28
M  V30 32 1 1 29
M  V30 33 1 1 30
M  V30 34 1 6 31
M  V30 35 1 7 32
M  V30 36 1 8 33
M  V30 37 1 12 34
M  V30 38 1 16 35
M  V30 39 1 19 36
M  V30 40 1 21 37
M  V30 41 1 27 38
M  V30 END BOND
M  V30 END CTAB
M  END
>  <Dataset>  (791) 
ChEMBL_Kinases

>  <Ligand_Instance>  (791) 
nan

>  <PDB_ID>  (791) 
nan

>  <Standardized_SMILES>  (791) 
COC(=O)c1cccc(C(=O)Nc2nc3cc4c(cc3[nH]2)OC(F)(F)O4)c1

>  <Name>  (791) 
nan

>  <Pocket>  (791) 
nan

>  <ATP_Site>  (791) 
nan

>  <Peripheral>  (791) 
nan

>  <Num_H_Atoms_ProtBoundConf>  (791) 
nan

>  <Num_Resolved_Atoms>  (791) 
nan

>  <Num_Not_Resolved_Atoms>  (791) 
nan

$$$$
CHEMBL4165288
     RDKit          3D

  0  0  0  0  0  0  0  0  0  0999 V3000
M  V30 BEGIN CTAB
M  V30 COUNTS 42 46 0 0 0
M  V30 BEGIN ATOM
M  V30 1 O 1.047847 -3.889581 -0.017060 0
M  V30 2 C 0.828311 -3.653720 1.197733 0
M  V30 3 N 0.153332 -2.463406 1.537922 0
M  V30 4 C -0.380995 -1.380640 0.781976 0
M  V30 5 C 0.379559 -0.270556 0.476791 0
M  V30 6 C -0.105073 0.812859 -0.261648 0
M  V30 7 C 0.843262 1.897037 -0.486102 0
M  V30 8 C 2.108446 1.529915 -0.871559 0
M  V30 9 C 3.116285 2.467191 -1.120563 0
M  V30 10 C 2.859451 3.821522 -0.981898 0
M  V30 11 C 1.582195 4.164679 -0.594054 0
M  V30 12 N 1.011712 5.361194 -0.371495 0
M  V30 13 C -0.286532 5.219497 -0.000375 0
M  V30 14 C -0.572850 3.865240 0.018957 0
M  V30 15 C 0.581053 3.242236 -0.346299 0
M  V30 16 C -1.420696 0.717814 -0.684588 0
M  V30 17 C -2.179750 -0.369525 -0.390711 0
M  V30 18 N -3.468674 -0.617048 -0.724622 0
M  V30 19 N -3.759513 -1.809409 -0.207898 0
M  V30 20 C -2.717566 -2.334122 0.439624 0
M  V30 21 C -1.686358 -1.430402 0.339140 0
M  V30 22 C 1.226144 -4.532700 2.291952 0
M  V30 23 C 1.884425 -5.689187 1.927505 0
M  V30 24 C 2.269215 -6.536779 2.966994 0
M  V30 25 C 2.014772 -6.252458 4.295488 0
M  V30 26 C 1.350381 -5.074692 4.586350 0
M  V30 27 N 0.978141 -4.255236 3.584348 0
M  V30 28 H -0.064138 -2.201024 2.531550 0
M  V30 29 H 1.401101 -0.292487 0.855054 0
M  V30 30 H 2.418388 0.493180 -1.010684 0
M  V30 31 H 4.114548 2.192474 -1.423997 0
M  V30 32 H 3.605435 4.580394 -1.163135 0
M  V30 33 H 1.451376 6.305485 -0.454825 0
M  V30 34 H -1.016944 5.980345 0.248140 0
M  V30 35 H -1.515607 3.411189 0.271936 0
M  V30 36 H -1.756804 1.572914 -1.250907 0
M  V30 37 H -4.097610 0.018818 -1.281738 0
M  V30 38 H -2.656865 -3.280725 0.954557 0
M  V30 39 H 2.114077 -5.972683 0.924596 0
M  V30 40 H 2.790338 -7.462241 2.751025 0
M  V30 41 H 2.315537 -6.913719 5.098916 0
M  V30 42 H 1.105534 -4.764188 5.595315 0
M  V30 END ATOM
M  V30 BEGIN BOND
M  V30 1 2 1 2
M  V30 2 1 2 3
M  V30 3 1 3 4
M  V30 4 2 4 5
M  V30 5 1 5 6
M  V30 6 1 6 7
M  V30 7 2 7 8
M  V30 8 1 8 9
M  V30 9 2 9 10
M  V30 10 1 10 11
M  V30 11 1 11 12
M  V30 12 1 12 13
M  V30 13 2 13 14
M  V30 14 1 14 15
M  V30 15 2 6 16
M  V30 16 1 16 17
M  V30 17 1 17 18
M  V30 18 1 18 19
M  V30 19 2 19 20
M  V30 20 1 20 21
M  V30 21 1 2 22
M  V30 22 2 22 23
M  V30 23 1 23 24
M  V30 24 2 24 25
M  V30 25 1 25 26
M  V30 26 2 26 27
M  V30 27 1 21 4
M  V30 28 1 27 22
M  V30 29 1 15 7
M  V30 30 2 21 17
M  V30 31 2 15 11
M  V30 32 1 3 28
M  V30 33 1 5 29
M  V30 34 1 8 30
M  V30 35 1 9 31
M  V30 36 1 10 32
M  V30 37 1 12 33
M  V30 38 1 13 34
M  V30 39 1 14 35
M  V30 40 1 16 36
M  V30 41 1 18 37
M  V30 42 1 20 38
M  V30 43 1 23 39
M  V30 44 1 24 40
M  V30 45 1 25 41
M  V30 46 1 26 42
M  V30 END BOND
M  V30 END CTAB
M  END
>  <Dataset>  (792) 
ChEMBL_Kinases

>  <Ligand_Instance>  (792) 
nan

>  <PDB_ID>  (792) 
nan

>  <Standardized_SMILES>  (792) 
O=C(Nc1cc(-c2cccc3[nH]ccc23)cc2[nH]ncc12)c1ccccn1

>  <Name>  (792) 
nan

>  <Pocket>  (792) 
nan

>  <ATP_Site>  (792) 
nan

>  <Peripheral>  (792) 
nan

>  <Num_H_Atoms_ProtBoundConf>  (792) 
nan

>  <Num_Resolved_Atoms>  (792) 
nan

>  <Num_Not_Resolved_Atoms>  (792) 
nan

$$$$
CHEMBL3334979
     RDKit          3D

  0  0  0  0  0  0  0  0  0  0999 V3000
M  V30 BEGIN CTAB
M  V30 COUNTS 52 55 0 0 0
M  V30 BEGIN ATOM
M  V30 1 C -3.865127 -6.121467 0.379354 0
M  V30 2 O -2.602203 -5.579507 0.626875 0
M  V30 3 C -2.117305 -4.462960 -0.022595 0
M  V30 4 C -2.823184 -3.755509 -0.990127 0
M  V30 5 C -2.267226 -2.631475 -1.606258 0
M  V30 6 C -0.998575 -2.210301 -1.254796 0
M  V30 7 C -0.408755 -1.018073 -1.911321 0
M  V30 8 C -0.801728 -0.828874 -3.217221 0
M  V30 9 N -0.251823 0.256180 -3.783307 0
M  V30 10 C 0.582062 1.035062 -3.105067 0
M  V30 11 S 1.403729 2.510076 -3.684753 0
M  V30 12 C 2.282489 2.812685 -2.048660 0
M  V30 13 C 1.862228 1.753648 -1.213244 0
M  V30 14 N 2.368597 1.714519 0.115844 0
M  V30 15 C 1.542801 2.415340 1.030887 0
M  V30 16 O 0.549915 2.899623 0.397201 0
M  V30 17 C 1.928472 2.472067 2.462343 0
M  V30 18 C 2.042693 1.105935 3.102309 0
M  V30 19 C 0.755291 0.373625 3.235991 0
M  V30 20 C -0.469848 1.100735 2.818466 0
M  V30 21 C -0.477201 2.571785 3.052074 0
M  V30 22 C 0.861445 3.194566 3.285008 0
M  V30 23 C 0.996301 0.876594 -1.801200 0
M  V30 24 C 0.451870 -0.231932 -1.179779 0
M  V30 25 C -0.316948 -2.926157 -0.293833 0
M  V30 26 C -0.837388 -4.038200 0.331824 0
M  V30 27 O -0.116813 -4.748819 1.309251 0
M  V30 28 C 1.178170 -4.275300 1.631083 0
M  V30 29 H -4.659134 -5.651092 1.004611 0
M  V30 30 H -3.823817 -7.212771 0.599088 0
M  V30 31 H -4.108869 -6.032737 -0.698086 0
M  V30 32 H -3.815058 -4.093683 -1.257051 0
M  V30 33 H -2.860873 -2.122988 -2.349096 0
M  V30 34 H -1.484230 -1.498152 -3.715967 0
M  V30 35 H 3.052160 3.665759 -1.654504 0
M  V30 36 H 3.263640 1.215753 0.384743 0
M  V30 37 H 2.868359 3.016922 2.613285 0
M  V30 38 H 2.464635 1.309867 4.130456 0
M  V30 39 H 2.857864 0.504016 2.613386 0
M  V30 40 H 0.825668 -0.537034 2.590258 0
M  V30 41 H 0.625818 0.013261 4.274511 0
M  V30 42 H -1.335841 0.657046 3.397093 0
M  V30 43 H -0.755983 0.908602 1.758924 0
M  V30 44 H -1.135166 2.836068 3.930081 0
M  V30 45 H -0.945682 3.111237 2.183768 0
M  V30 46 H 1.133615 2.980611 4.361201 0
M  V30 47 H 0.871615 4.269049 3.119514 0
M  V30 48 H 0.647898 -0.533417 -0.159379 0
M  V30 49 H 0.665073 -2.573264 -0.043874 0
M  V30 50 H 1.118364 -3.227211 2.014838 0
M  V30 51 H 1.597123 -4.892247 2.458572 0
M  V30 52 H 1.845219 -4.274002 0.760962 0
M  V30 END ATOM
M  V30 BEGIN BOND
M  V30 1 1 1 2
M  V30 2 1 2 3
M  V30 3 2 3 4
M  V30 4 1 4 5
M  V30 5 2 5 6
M  V30 6 1 6 7
M  V30 7 2 7 8
M  V30 8 1 8 9
M  V30 9 2 9 10
M  V30 10 1 10 11
M  V30 11 1 11 12
M  V30 12 2 12 13
M  V30 13 1 13 14
M  V30 14 1 14 15
M  V30 15 2 15 16
M  V30 16 1 15 17
M  V30 17 1 17 18
M  V30 18 1 18 19
M  V30 19 1 19 20
M  V30 20 1 20 21
M  V30 21 1 21 22
M  V30 22 1 13 23
M  V30 23 2 23 24
M  V30 24 1 6 25
M  V30 25 2 25 26
M  V30 26 1 26 27
M  V30 27 1 27 28
M  V30 28 1 26 3
M  V30 29 1 24 7
M  V30 30 1 23 10
M  V30 31 1 22 17
M  V30 32 1 1 29
M  V30 33 1 1 30
M  V30 34 1 1 31
M  V30 35 1 4 32
M  V30 36 1 5 33
M  V30 37 1 8 34
M  V30 38 1 12 35
M  V30 39 1 14 36
M  V30 40 1 17 37
M  V30 41 1 18 38
M  V30 42 1 18 39
M  V30 43 1 19 40
M  V30 44 1 19 41
M  V30 45 1 20 42
M  V30 46 1 20 43
M  V30 47 1 21 44
M  V30 48 1 21 45
M  V30 49 1 22 46
M  V30 50 1 22 47
M  V30 51 1 24 48
M  V30 52 1 25 49
M  V30 53 1 28 50
M  V30 54 1 28 51
M  V30 55 1 28 52
M  V30 END BOND
M  V30 END CTAB
M  END
>  <Dataset>  (793) 
ChEMBL_Kinases

>  <Ligand_Instance>  (793) 
nan

>  <PDB_ID>  (793) 
nan

>  <Standardized_SMILES>  (793) 
COc1ccc(-c2cnc3scc(NC(=O)C4CCCCC4)c3c2)cc1OC

>  <Name>  (793) 
nan

>  <Pocket>  (793) 
nan

>  <ATP_Site>  (793) 
nan

>  <Peripheral>  (793) 
nan

>  <Num_H_Atoms_ProtBoundConf>  (793) 
nan

>  <Num_Resolved_Atoms>  (793) 
nan

>  <Num_Not_Resolved_Atoms>  (793) 
nan

$$$$
CHEMBL3334980
     RDKit          3D

  0  0  0  0  0  0  0  0  0  0999 V3000
M  V30 BEGIN CTAB
M  V30 COUNTS 51 54 0 0 0
M  V30 BEGIN ATOM
M  V30 1 C -4.031223 -5.974531 -0.414629 0
M  V30 2 O -3.072689 -5.190947 0.225159 0
M  V30 3 C -2.380992 -4.136888 -0.349838 0
M  V30 4 C -2.540811 -3.707629 -1.645916 0
M  V30 5 C -1.843110 -2.665289 -2.181501 0
M  V30 6 C -0.921869 -1.970962 -1.440314 0
M  V30 7 C -0.171792 -0.858237 -2.012539 0
M  V30 8 C -0.407961 -0.521527 -3.325890 0
M  V30 9 N 0.313832 0.504968 -3.798223 0
M  V30 10 C 1.178942 1.125926 -3.034452 0
M  V30 11 S 2.285857 2.513787 -3.365087 0
M  V30 12 C 3.016601 2.528734 -1.611306 0
M  V30 13 C 2.351648 1.477704 -0.936723 0
M  V30 14 N 2.749076 1.305874 0.406810 0
M  V30 15 C 2.007285 2.080263 1.352563 0
M  V30 16 O 1.135063 2.755839 0.705830 0
M  V30 17 C 2.321177 1.998974 2.788615 0
M  V30 18 C 2.178770 0.646853 3.398784 0
M  V30 19 C 0.828389 0.116294 3.100382 0
M  V30 20 C -0.278186 1.057024 2.899379 0
M  V30 21 C -0.051462 2.489092 3.214225 0
M  V30 22 C 1.342314 2.880579 3.535890 0
M  V30 23 C 1.446686 0.820379 -1.711186 0
M  V30 24 N 0.712758 -0.224737 -1.227778 0
M  V30 25 C -0.754231 -2.392863 -0.140779 0
M  V30 26 C -1.449747 -3.450228 0.431754 0
M  V30 27 O -1.281129 -3.875209 1.739505 0
M  V30 28 C -0.347221 -3.200779 2.555371 0
M  V30 29 H -3.503711 -6.882751 -0.819714 0
M  V30 30 H -4.789666 -6.393548 0.286522 0
M  V30 31 H -4.564292 -5.501876 -1.246311 0
M  V30 32 H -3.270583 -4.266755 -2.214675 0
M  V30 33 H -2.086437 -2.457757 -3.207143 0
M  V30 34 H -1.085707 -0.966472 -4.015060 0
M  V30 35 H 3.813724 3.247726 -1.236137 0
M  V30 36 H 3.535349 0.653571 0.686909 0
M  V30 37 H 3.368188 2.333099 2.996730 0
M  V30 38 H 2.284108 0.760576 4.498371 0
M  V30 39 H 2.966686 -0.066815 3.090016 0
M  V30 40 H 0.949791 -0.549951 2.211763 0
M  V30 41 H 0.602468 -0.624903 3.924587 0
M  V30 42 H -0.648753 0.994618 1.834825 0
M  V30 43 H -1.166745 0.699402 3.478269 0
M  V30 44 H -0.682664 2.811588 4.096231 0
M  V30 45 H -0.415438 3.165363 2.403579 0
M  V30 46 H 1.501441 2.721037 4.642729 0
M  V30 47 H 1.548643 3.942462 3.298094 0
M  V30 48 H -0.034245 -1.860003 0.461276 0
M  V30 49 H 0.597398 -2.976431 2.037457 0
M  V30 50 H -0.821414 -2.245012 2.874195 0
M  V30 51 H -0.186411 -3.796338 3.484040 0
M  V30 END ATOM
M  V30 BEGIN BOND
M  V30 1 1 1 2
M  V30 2 1 2 3
M  V30 3 2 3 4
M  V30 4 1 4 5
M  V30 5 2 5 6
M  V30 6 1 6 7
M  V30 7 2 7 8
M  V30 8 1 8 9
M  V30 9 2 9 10
M  V30 10 1 10 11
M  V30 11 1 11 12
M  V30 12 2 12 13
M  V30 13 1 13 14
M  V30 14 1 14 15
M  V30 15 2 15 16
M  V30 16 1 15 17
M  V30 17 1 17 18
M  V30 18 1 18 19
M  V30 19 1 19 20
M  V30 20 1 20 21
M  V30 21 1 21 22
M  V30 22 1 13 23
M  V30 23 2 23 24
M  V30 24 1 6 25
M  V30 25 2 25 26
M  V30 26 1 26 27
M  V30 27 1 27 28
M  V30 28 1 26 3
M  V30 29 1 24 7
M  V30 30 1 23 10
M  V30 31 1 22 17
M  V30 32 1 1 29
M  V30 33 1 1 30
M  V30 34 1 1 31
M  V30 35 1 4 32
M  V30 36 1 5 33
M  V30 37 1 8 34
M  V30 38 1 12 35
M  V30 39 1 14 36
M  V30 40 1 17 37
M  V30 41 1 18 38
M  V30 42 1 18 39
M  V30 43 1 19 40
M  V30 44 1 19 41
M  V30 45 1 20 42
M  V30 46 1 20 43
M  V30 47 1 21 44
M  V30 48 1 21 45
M  V30 49 1 22 46
M  V30 50 1 22 47
M  V30 51 1 25 48
M  V30 52 1 28 49
M  V30 53 1 28 50
M  V30 54 1 28 51
M  V30 END BOND
M  V30 END CTAB
M  END
>  <Dataset>  (794) 
ChEMBL_Kinases

>  <Ligand_Instance>  (794) 
nan

>  <PDB_ID>  (794) 
nan

>  <Standardized_SMILES>  (794) 
COc1ccc(-c2cnc3scc(NC(=O)C4CCCCC4)c3n2)cc1OC

>  <Name>  (794) 
nan

>  <Pocket>  (794) 
nan

>  <ATP_Site>  (794) 
nan

>  <Peripheral>  (794) 
nan

>  <Num_H_Atoms_ProtBoundConf>  (794) 
nan

>  <Num_Resolved_Atoms>  (794) 
nan

>  <Num_Not_Resolved_Atoms>  (794) 
nan

$$$$
CHEMBL3334981
     RDKit          3D

  0  0  0  0  0  0  0  0  0  0999 V3000
M  V30 BEGIN CTAB
M  V30 COUNTS 53 56 0 0 0
M  V30 BEGIN ATOM
M  V30 1 C -3.662332 -5.272218 1.578985 0
M  V30 2 O -2.605796 -5.606029 0.664406 0
M  V30 3 C -1.763077 -4.624119 0.161335 0
M  V30 4 C -1.970058 -3.320841 0.565200 0
M  V30 5 C -1.095609 -2.369359 0.031019 0
M  V30 6 C -0.080429 -2.731542 -0.855350 0
M  V30 7 C 0.799972 -1.689600 -1.378187 0
M  V30 8 C 1.388438 -1.733359 -2.635703 0
M  V30 9 N 2.196046 -0.717657 -3.042153 0
M  V30 10 C 2.452022 0.350768 -2.255464 0
M  V30 11 N 3.198013 1.467808 -2.411448 0
M  V30 12 C 3.114098 2.221979 -1.314758 0
M  V30 13 C 2.298448 1.624123 -0.379529 0
M  V30 14 N 1.916698 2.061332 0.937042 0
M  V30 15 C 0.756411 2.866103 1.160383 0
M  V30 16 O 0.230599 3.062224 0.045206 0
M  V30 17 C 0.605973 3.166904 2.606756 0
M  V30 18 C 0.460299 1.927657 3.446395 0
M  V30 19 C -0.717156 1.075892 3.095320 0
M  V30 20 C -1.858638 1.938178 2.610491 0
M  V30 21 C -1.753272 3.273966 3.317459 0
M  V30 22 C -0.565429 4.071959 2.879002 0
M  V30 23 C 1.899409 0.454049 -0.998308 0
M  V30 24 C 1.081118 -0.579346 -0.591727 0
M  V30 25 C 0.057520 -4.058852 -1.207753 0
M  V30 26 C -0.777470 -5.039029 -0.710700 0
M  V30 27 O -0.657437 -6.376954 -1.050698 0
M  V30 28 C 0.363643 -6.774870 -1.948659 0
M  V30 29 H -3.237900 -4.988918 2.564761 0
M  V30 30 H -4.272000 -6.176973 1.766219 0
M  V30 31 H -4.263279 -4.417664 1.223923 0
M  V30 32 H -2.752681 -3.047774 1.247246 0
M  V30 33 H -1.264480 -1.344041 0.353668 0
M  V30 34 H 1.159353 -2.592341 -3.220403 0
M  V30 35 H 3.752472 1.708749 -3.250340 0
M  V30 36 H 3.611138 3.187344 -1.147297 0
M  V30 37 H 2.662465 1.650787 1.563565 0
M  V30 38 H 1.526552 3.676048 2.923740 0
M  V30 39 H 0.283020 2.293459 4.492312 0
M  V30 40 H 1.430562 1.385597 3.406675 0
M  V30 41 H -1.071341 0.505510 4.003589 0
M  V30 42 H -0.416228 0.286591 2.381949 0
M  V30 43 H -1.848944 2.017114 1.511003 0
M  V30 44 H -2.846952 1.513084 2.935508 0
M  V30 45 H -2.720162 3.804102 3.101297 0
M  V30 46 H -1.726736 3.039461 4.409068 0
M  V30 47 H -0.839826 4.682231 1.986810 0
M  V30 48 H -0.288480 4.757064 3.713854 0
M  V30 49 H 0.636446 -0.525982 0.383942 0
M  V30 50 H 0.850155 -4.346232 -1.900772 0
M  V30 51 H 1.354455 -6.846707 -1.482033 0
M  V30 52 H 0.117994 -7.788897 -2.380068 0
M  V30 53 H 0.438458 -6.114763 -2.839175 0
M  V30 END ATOM
M  V30 BEGIN BOND
M  V30 1 1 1 2
M  V30 2 1 2 3
M  V30 3 2 3 4
M  V30 4 1 4 5
M  V30 5 2 5 6
M  V30 6 1 6 7
M  V30 7 2 7 8
M  V30 8 1 8 9
M  V30 9 2 9 10
M  V30 10 1 10 11
M  V30 11 1 11 12
M  V30 12 2 12 13
M  V30 13 1 13 14
M  V30 14 1 14 15
M  V30 15 2 15 16
M  V30 16 1 15 17
M  V30 17 1 17 18
M  V30 18 1 18 19
M  V30 19 1 19 20
M  V30 20 1 20 21
M  V30 21 1 21 22
M  V30 22 1 13 23
M  V30 23 2 23 24
M  V30 24 1 6 25
M  V30 25 2 25 26
M  V30 26 1 26 27
M  V30 27 1 27 28
M  V30 28 1 26 3
M  V30 29 1 24 7
M  V30 30 1 23 10
M  V30 31 1 22 17
M  V30 32 1 1 29
M  V30 33 1 1 30
M  V30 34 1 1 31
M  V30 35 1 4 32
M  V30 36 1 5 33
M  V30 37 1 8 34
M  V30 38 1 11 35
M  V30 39 1 12 36
M  V30 40 1 14 37
M  V30 41 1 17 38
M  V30 42 1 18 39
M  V30 43 1 18 40
M  V30 44 1 19 41
M  V30 45 1 19 42
M  V30 46 1 20 43
M  V30 47 1 20 44
M  V30 48 1 21 45
M  V30 49 1 21 46
M  V30 50 1 22 47
M  V30 51 1 22 48
M  V30 52 1 24 49
M  V30 53 1 25 50
M  V30 54 1 28 51
M  V30 55 1 28 52
M  V30 56 1 28 53
M  V30 END BOND
M  V30 END CTAB
M  END
>  <Dataset>  (795) 
ChEMBL_Kinases

>  <Ligand_Instance>  (795) 
nan

>  <PDB_ID>  (795) 
nan

>  <Standardized_SMILES>  (795) 
COc1ccc(-c2cnc3[nH]cc(NC(=O)C4CCCCC4)c3c2)cc1OC

>  <Name>  (795) 
nan

>  <Pocket>  (795) 
nan

>  <ATP_Site>  (795) 
nan

>  <Peripheral>  (795) 
nan

>  <Num_H_Atoms_ProtBoundConf>  (795) 
nan

>  <Num_Resolved_Atoms>  (795) 
nan

>  <Num_Not_Resolved_Atoms>  (795) 
nan

$$$$
CHEMBL4165117
     RDKit          3D

  0  0  0  0  0  0  0  0  0  0999 V3000
M  V30 BEGIN CTAB
M  V30 COUNTS 48 50 0 0 0
M  V30 BEGIN ATOM
M  V30 1 C 2.746452 -5.073847 3.199660 0
M  V30 2 C 2.530210 -4.440374 1.843484 0
M  V30 3 C 1.199875 -4.959713 1.331905 0
M  V30 4 C 3.662570 -4.842830 0.946111 0
M  V30 5 C 2.509753 -2.937936 1.926604 0
M  V30 6 O 2.653562 -2.276314 2.977570 0
M  V30 7 O 2.307543 -2.462980 0.667192 0
M  V30 8 C 2.208869 -1.124521 0.294298 0
M  V30 9 C 1.011049 -0.481044 0.887774 0
M  V30 10 C -0.202099 -1.243606 0.359821 0
M  V30 11 O -0.135291 -1.180811 -1.030710 0
M  V30 12 C 0.780237 0.957811 0.446857 0
M  V30 13 C -0.074890 1.493180 1.552544 0
M  V30 14 C -1.081642 2.351535 1.548088 0
M  V30 15 C -1.459414 2.899644 0.250329 0
M  V30 16 C -0.714636 3.362369 -0.815219 0
M  V30 17 O -1.552221 3.730739 -1.779275 0
M  V30 18 C -2.802155 3.534872 -1.403191 0
M  V30 19 C -4.019641 3.762758 -2.057683 0
M  V30 20 C -5.197693 3.456642 -1.408614 0
M  V30 21 C -5.238132 2.933144 -0.136738 0
M  V30 22 C -4.023968 2.720181 0.482352 0
M  V30 23 C -2.788894 3.006899 -0.116592 0
M  V30 24 C 0.513128 0.771702 2.707377 0
M  V30 25 O 0.497834 1.247676 3.898227 0
M  V30 26 O 1.061571 -0.465958 2.272903 0
M  V30 27 H 2.667889 -6.154080 3.088218 0
M  V30 28 H 3.737691 -4.780705 3.623680 0
M  V30 29 H 1.901797 -4.778890 3.886087 0
M  V30 30 H 1.013287 -4.720069 0.268677 0
M  V30 31 H 1.226795 -6.057917 1.421071 0
M  V30 32 H 0.385625 -4.580970 1.964279 0
M  V30 33 H 3.406843 -4.792688 -0.149775 0
M  V30 34 H 4.537845 -4.216936 1.163114 0
M  V30 35 H 3.961426 -5.913214 1.103335 0
M  V30 36 H 2.247909 -1.042268 -0.816589 0
M  V30 37 H 3.102486 -0.588354 0.741571 0
M  V30 38 H -0.193113 -2.295417 0.653201 0
M  V30 39 H -1.163720 -0.758032 0.652773 0
M  V30 40 H -0.839642 -0.597523 -1.409595 0
M  V30 41 H 1.706267 1.546353 0.407791 0
M  V30 42 H 0.226113 1.026330 -0.498500 0
M  V30 43 H -1.555867 2.592506 2.486248 0
M  V30 44 H 0.370422 3.395261 -0.807369 0
M  V30 45 H -4.061830 4.177070 -3.068315 0
M  V30 46 H -6.135301 3.638852 -1.934750 0
M  V30 47 H -6.174348 2.687511 0.384280 0
M  V30 48 H -4.016527 2.306750 1.490219 0
M  V30 END ATOM
M  V30 BEGIN BOND
M  V30 1 1 1 2
M  V30 2 1 2 3
M  V30 3 1 2 4
M  V30 4 1 2 5
M  V30 5 2 5 6
M  V30 6 1 5 7
M  V30 7 1 7 8
M  V30 8 1 8 9
M  V30 9 1 9 10
M  V30 10 1 10 11
M  V30 11 1 9 12
M  V30 12 1 12 13
M  V30 13 2 13 14
M  V30 14 1 14 15
M  V30 15 2 15 16
M  V30 16 1 16 17
M  V30 17 1 17 18
M  V30 18 2 18 19
M  V30 19 1 19 20
M  V30 20 2 20 21
M  V30 21 1 21 22
M  V30 22 2 22 23
M  V30 23 1 13 24
M  V30 24 2 24 25
M  V30 25 1 24 26
M  V30 26 1 26 9
M  V30 27 1 23 15
M  V30 28 1 23 18
M  V30 29 1 1 27
M  V30 30 1 1 28
M  V30 31 1 1 29
M  V30 32 1 3 30
M  V30 33 1 3 31
M  V30 34 1 3 32
M  V30 35 1 4 33
M  V30 36 1 4 34
M  V30 37 1 4 35
M  V30 38 1 8 36
M  V30 39 1 8 37
M  V30 40 1 10 38
M  V30 41 1 10 39
M  V30 42 1 11 40
M  V30 43 1 12 41
M  V30 44 1 12 42
M  V30 45 1 14 43
M  V30 46 1 16 44
M  V30 47 1 19 45
M  V30 48 1 20 46
M  V30 49 1 21 47
M  V30 50 1 22 48
M  V30 END BOND
M  V30 END CTAB
M  END
>  <Dataset>  (796) 
ChEMBL_Kinases

>  <Ligand_Instance>  (796) 
nan

>  <PDB_ID>  (796) 
nan

>  <Standardized_SMILES>  (796) 
CC(C)(C)C(=O)OCC1(CO)C/C(=C\c2coc3ccccc23)C(=O)O1

>  <Name>  (796) 
nan

>  <Pocket>  (796) 
nan

>  <ATP_Site>  (796) 
nan

>  <Peripheral>  (796) 
nan

>  <Num_H_Atoms_ProtBoundConf>  (796) 
nan

>  <Num_Resolved_Atoms>  (796) 
nan

>  <Num_Not_Resolved_Atoms>  (796) 
nan

$$$$
CHEMBL4165059
     RDKit          3D

  0  0  0  0  0  0  0  0  0  0999 V3000
M  V30 BEGIN CTAB
M  V30 COUNTS 59 62 0 0 0
M  V30 BEGIN ATOM
M  V30 1 C 2.297339 -1.723402 7.092268 0
M  V30 2 O 2.004397 -2.755458 6.205874 0
M  V30 3 C 1.832181 -2.597770 4.830262 0
M  V30 4 C 1.933996 -1.365032 4.200142 0
M  V30 5 C 1.766753 -1.208200 2.847231 0
M  V30 6 C 1.488493 -2.333324 2.101828 0
M  V30 7 N 1.271149 -2.344155 0.699335 0
M  V30 8 C 0.982297 -1.320018 -0.236654 0
M  V30 9 N 1.825925 -0.385384 -0.779571 0
M  V30 10 C 1.364958 0.482931 -1.670535 0
M  V30 11 N 2.158501 1.491687 -2.270861 0
M  V30 12 C 1.994912 2.644398 -1.427928 0
M  V30 13 C 2.732382 3.151795 -0.373083 0
M  V30 14 C 2.138886 4.290216 0.114037 0
M  V30 15 C 2.638475 5.124163 1.253365 0
M  V30 16 N 1.044913 4.473193 -0.643594 0
M  V30 17 N 0.959281 3.512002 -1.545385 0
M  V30 18 C 0.036982 0.503925 -2.103167 0
M  V30 19 C -0.805657 -0.437084 -1.555716 0
M  V30 20 N -2.190562 -0.568565 -1.881919 0
M  V30 21 C -2.975796 -1.585318 -1.201653 0
M  V30 22 C -4.384684 -1.686154 -1.655717 0
M  V30 23 N -4.463933 -1.847543 -3.084534 0
M  V30 24 C -4.092787 -3.158176 -3.541130 0
M  V30 25 C -3.778472 -0.768511 -3.744799 0
M  V30 26 C -3.024199 0.122000 -2.792832 0
M  V30 27 N -0.286575 -1.286386 -0.661584 0
M  V30 28 C 1.390381 -3.540725 2.729776 0
M  V30 29 C 1.548024 -3.743487 4.076047 0
M  V30 30 O 1.452862 -4.945541 4.755532 0
M  V30 31 C 1.159199 -6.168129 4.129860 0
M  V30 32 H 1.875424 -0.741488 6.867466 0
M  V30 33 H 2.006636 -2.051376 8.118289 0
M  V30 34 H 3.411659 -1.557451 7.156999 0
M  V30 35 H 2.159137 -0.553881 4.864883 0
M  V30 36 H 1.847240 -0.264950 2.363236 0
M  V30 37 H 1.313544 -3.211027 0.131175 0
M  V30 38 H 2.801381 1.768188 -3.042946 0
M  V30 39 H 3.627683 2.644675 -0.063550 0
M  V30 40 H 2.123891 4.885814 2.199468 0
M  V30 41 H 2.493284 6.225486 1.051695 0
M  V30 42 H 3.747927 4.950855 1.311352 0
M  V30 43 H 0.424346 5.302318 -0.446789 0
M  V30 44 H -0.384538 1.182086 -2.818780 0
M  V30 45 H -2.928344 -1.486995 -0.102353 0
M  V30 46 H -2.463753 -2.553961 -1.480815 0
M  V30 47 H -4.921623 -0.739791 -1.410986 0
M  V30 48 H -4.864858 -2.518486 -1.105467 0
M  V30 49 H -4.115253 -3.204447 -4.649967 0
M  V30 50 H -3.066457 -3.447283 -3.239671 0
M  V30 51 H -4.793991 -3.929102 -3.161924 0
M  V30 52 H -3.140970 -1.207577 -4.533634 0
M  V30 53 H -4.554834 -0.155802 -4.254019 0
M  V30 54 H -2.429901 0.846064 -3.379216 0
M  V30 55 H -3.755979 0.752143 -2.209923 0
M  V30 56 H 1.175627 -4.438233 2.153372 0
M  V30 57 H 0.507682 -6.820282 4.776355 0
M  V30 58 H 0.505762 -5.967576 3.239607 0
M  V30 59 H 2.048525 -6.750806 3.810791 0
M  V30 END ATOM
M  V30 BEGIN BOND
M  V30 1 1 1 2
M  V30 2 1 2 3
M  V30 3 2 3 4
M  V30 4 1 4 5
M  V30 5 2 5 6
M  V30 6 1 6 7
M  V30 7 1 7 8
M  V30 8 2 8 9
M  V30 9 1 9 10
M  V30 10 1 10 11
M  V30 11 1 11 12
M  V30 12 1 12 13
M  V30 13 2 13 14
M  V30 14 1 14 15
M  V30 15 1 14 16
M  V30 16 1 16 17
M  V30 17 2 10 18
M  V30 18 1 18 19
M  V30 19 1 19 20
M  V30 20 1 20 21
M  V30 21 1 21 22
M  V30 22 1 22 23
M  V30 23 1 23 24
M  V30 24 1 23 25
M  V30 25 1 25 26
M  V30 26 2 19 27
M  V30 27 1 6 28
M  V30 28 2 28 29
M  V30 29 1 29 30
M  V30 30 1 30 31
M  V30 31 1 29 3
M  V30 32 1 27 8
M  V30 33 2 17 12
M  V30 34 1 26 20
M  V30 35 1 1 32
M  V30 36 1 1 33
M  V30 37 1 1 34
M  V30 38 1 4 35
M  V30 39 1 5 36
M  V30 40 1 7 37
M  V30 41 1 11 38
M  V30 42 1 13 39
M  V30 43 1 15 40
M  V30 44 1 15 41
M  V30 45 1 15 42
M  V30 46 1 16 43
M  V30 47 1 18 44
M  V30 48 1 21 45
M  V30 49 1 21 46
M  V30 50 1 22 47
M  V30 51 1 22 48
M  V30 52 1 24 49
M  V30 53 1 24 50
M  V30 54 1 24 51
M  V30 55 1 25 52
M  V30 56 1 25 53
M  V30 57 1 26 54
M  V30 58 1 26 55
M  V30 59 1 28 56
M  V30 60 1 31 57
M  V30 61 1 31 58
M  V30 62 1 31 59
M  V30 END BOND
M  V30 END CTAB
M  END
>  <Dataset>  (797) 
ChEMBL_Kinases

>  <Ligand_Instance>  (797) 
nan

>  <PDB_ID>  (797) 
nan

>  <Standardized_SMILES>  (797) 
COc1ccc(Nc2nc(Nc3cc(C)[nH]n3)cc(N3CCN(C)CC3)n2)cc1OC

>  <Name>  (797) 
nan

>  <Pocket>  (797) 
nan

>  <ATP_Site>  (797) 
nan

>  <Peripheral>  (797) 
nan

>  <Num_H_Atoms_ProtBoundConf>  (797) 
nan

>  <Num_Resolved_Atoms>  (797) 
nan

>  <Num_Not_Resolved_Atoms>  (797) 
nan

$$$$
CHEMBL4164991
     RDKit          3D

  0  0  0  0  0  0  0  0  0  0999 V3000
M  V30 BEGIN CTAB
M  V30 COUNTS 53 57 0 0 0
M  V30 BEGIN ATOM
M  V30 1 C -2.491738 -0.189335 3.436934 0
M  V30 2 C -2.662444 -1.596145 2.958219 0
M  V30 3 C -1.437834 -2.286688 2.484619 0 CFG=2
M  V30 4 C -0.473697 -2.320053 3.645587 0
M  V30 5 O -0.225778 -3.213751 4.491487 0
M  V30 6 N 0.291852 -1.109371 3.802338 0
M  V30 7 C 0.878822 -0.741491 5.097180 0
M  V30 8 C 0.538804 -0.181446 2.726560 0
M  V30 9 C 1.258349 0.956848 2.876076 0
M  V30 10 N 1.413293 1.740366 1.779100 0
M  V30 11 C 0.875415 1.403017 0.590269 0
M  V30 12 N 1.057180 2.253898 -0.553502 0
M  V30 13 C 0.710429 3.516686 -0.799629 0
M  V30 14 C 1.120655 3.875628 -2.067311 0
M  V30 15 C 1.747624 2.759890 -2.604548 0
M  V30 16 C 2.350462 2.541316 -3.839780 0
M  V30 17 C 2.923630 1.302634 -4.146942 0
M  V30 18 C 2.874498 0.297883 -3.185980 0
M  V30 19 C 2.274522 0.537897 -1.975522 0
M  V30 20 C 1.696868 1.760152 -1.643975 0
M  V30 21 N 0.168388 0.272512 0.468545 0
M  V30 22 C -0.034996 -0.572827 1.524388 0
M  V30 23 N -0.810645 -1.777282 1.310270 0
M  V30 24 C -0.869203 -2.354355 -0.004916 0
M  V30 25 C -2.222566 -2.485337 -0.607625 0
M  V30 26 C -2.216620 -3.837805 -1.336198 0
M  V30 27 C -1.383831 -4.688899 -0.390738 0
M  V30 28 C -0.257389 -3.738957 -0.046849 0
M  V30 29 H -3.523355 0.122063 3.796279 0
M  V30 30 H -2.251176 0.495845 2.603202 0
M  V30 31 H -1.850151 -0.060237 4.316584 0
M  V30 32 H -3.497960 -1.568124 2.211161 0
M  V30 33 H -3.136603 -2.150158 3.829846 0
M  V30 34 H -1.718067 -3.377852 2.362178 0
M  V30 35 H 1.942122 -0.475105 4.993833 0
M  V30 36 H 0.858309 -1.665436 5.710854 0
M  V30 37 H 0.259368 0.010143 5.622304 0
M  V30 38 H 1.675430 1.194395 3.848315 0
M  V30 39 H 0.182126 4.127725 -0.070050 0
M  V30 40 H 0.980916 4.846141 -2.554860 0
M  V30 41 H 2.402785 3.304332 -4.604883 0
M  V30 42 H 3.401673 1.095786 -5.098273 0
M  V30 43 H 3.318175 -0.679214 -3.408393 0
M  V30 44 H 2.252491 -0.273914 -1.240674 0
M  V30 45 H -0.288410 -1.669588 -0.692270 0
M  V30 46 H -3.078448 -2.394126 0.055429 0
M  V30 47 H -2.412815 -1.742681 -1.437760 0
M  V30 48 H -1.585221 -3.712495 -2.243981 0
M  V30 49 H -3.216160 -4.224590 -1.528574 0
M  V30 50 H -0.929997 -5.570273 -0.885851 0
M  V30 51 H -1.958195 -4.999480 0.503822 0
M  V30 52 H 0.430535 -3.766742 -0.915274 0
M  V30 53 H 0.234645 -4.005382 0.906582 0
M  V30 END ATOM
M  V30 BEGIN BOND
M  V30 1 1 1 2
M  V30 2 1 2 3
M  V30 3 1 3 4
M  V30 4 2 4 5
M  V30 5 1 4 6
M  V30 6 1 6 7
M  V30 7 1 6 8
M  V30 8 2 8 9
M  V30 9 1 9 10
M  V30 10 2 10 11
M  V30 11 1 11 12
M  V30 12 1 12 13
M  V30 13 2 13 14
M  V30 14 1 14 15
M  V30 15 2 15 16
M  V30 16 1 16 17
M  V30 17 2 17 18
M  V30 18 1 18 19
M  V30 19 2 19 20
M  V30 20 1 11 21
M  V30 21 2 21 22
M  V30 22 1 22 23
M  V30 23 1 23 24
M  V30 24 1 24 25
M  V30 25 1 25 26
M  V30 26 1 26 27
M  V30 27 1 27 28
M  V30 28 1 23 3
M  V30 29 1 28 24
M  V30 30 1 22 8
M  V30 31 1 20 12
M  V30 32 1 20 15
M  V30 33 1 1 29
M  V30 34 1 1 30
M  V30 35 1 1 31
M  V30 36 1 2 32
M  V30 37 1 2 33
M  V30 38 1 3 34 CFG=3
M  V30 39 1 7 35
M  V30 40 1 7 36
M  V30 41 1 7 37
M  V30 42 1 9 38
M  V30 43 1 13 39
M  V30 44 1 14 40
M  V30 45 1 16 41
M  V30 46 1 17 42
M  V30 47 1 18 43
M  V30 48 1 19 44
M  V30 49 1 24 45
M  V30 50 1 25 46
M  V30 51 1 25 47
M  V30 52 1 26 48
M  V30 53 1 26 49
M  V30 54 1 27 50
M  V30 55 1 27 51
M  V30 56 1 28 52
M  V30 57 1 28 53
M  V30 END BOND
M  V30 END CTAB
M  END
>  <Dataset>  (798) 
ChEMBL_Kinases

>  <Ligand_Instance>  (798) 
nan

>  <PDB_ID>  (798) 
nan

>  <Standardized_SMILES>  (798) 
CC[C@@H]1C(=O)N(C)c2cnc(-n3ccc4ccccc43)nc2N1C1CCCC1

>  <Name>  (798) 
nan

>  <Pocket>  (798) 
nan

>  <ATP_Site>  (798) 
nan

>  <Peripheral>  (798) 
nan

>  <Num_H_Atoms_ProtBoundConf>  (798) 
nan

>  <Num_Resolved_Atoms>  (798) 
nan

>  <Num_Not_Resolved_Atoms>  (798) 
nan

$$$$
CHEMBL4164736
     RDKit          3D

  0  0  0  0  0  0  0  0  0  0999 V3000
M  V30 BEGIN CTAB
M  V30 COUNTS 57 60 0 0 0
M  V30 BEGIN ATOM
M  V30 1 C 4.352785 -2.736971 6.744410 0
M  V30 2 O 3.756622 -2.453531 5.475911 0
M  V30 3 C 4.223297 -3.017236 4.303203 0
M  V30 4 O 5.181279 -3.810358 4.211096 0
M  V30 5 C 3.551428 -2.669987 3.036803 0
M  V30 6 C 2.476753 -1.808218 3.028726 0
M  V30 7 C 1.805295 -1.438677 1.878465 0
M  V30 8 C 2.225006 -1.953729 0.670237 0
M  V30 9 N 1.582425 -1.622930 -0.572549 0
M  V30 10 C 0.393302 -0.861812 -0.659552 0
M  V30 11 N 0.237722 0.489658 -0.618580 0
M  V30 12 C -1.007533 1.029476 -0.729624 0
M  V30 13 N -1.139916 2.443618 -0.679911 0
M  V30 14 C 0.014178 3.257648 -0.512672 0
M  V30 15 C 0.468517 3.600829 0.765936 0
M  V30 16 C 1.597407 4.393307 0.610267 0
M  V30 17 C 2.431722 5.000623 1.699102 0
M  V30 18 N 1.800012 4.511549 -0.735349 0
M  V30 19 N 0.864063 3.840169 -1.396349 0
M  V30 20 C -2.107518 0.209570 -0.882520 0
M  V30 21 C -1.938888 -1.158289 -0.922355 0
M  V30 22 N -3.093280 -1.984469 -1.082494 0
M  V30 23 C -4.418637 -1.399579 -1.109322 0
M  V30 24 C -5.343130 -2.493721 -1.644127 0
M  V30 25 N -4.773661 -3.150548 -2.789673 0
M  V30 26 C -4.782718 -2.284362 -3.946544 0
M  V30 27 C -3.522954 -3.796916 -2.567045 0
M  V30 28 C -2.935660 -3.424272 -1.221775 0
M  V30 29 N -0.704776 -1.632079 -0.810328 0
M  V30 30 C 3.298549 -2.813693 0.687602 0
M  V30 31 C 3.974081 -3.187673 1.830115 0
M  V30 32 F 5.028729 -4.044505 1.794712 0
M  V30 33 H 3.624342 -2.563987 7.566961 0
M  V30 34 H 4.841195 -3.710063 6.783682 0
M  V30 35 H 5.132271 -1.926170 6.869584 0
M  V30 36 H 2.123643 -1.386047 3.983801 0
M  V30 37 H 0.950247 -0.755370 1.859221 0
M  V30 38 H 2.029820 -1.973344 -1.464551 0
M  V30 39 H -2.095375 2.848450 -0.768657 0
M  V30 40 H 0.032995 3.309361 1.711057 0
M  V30 41 H 3.485250 4.637168 1.551588 0
M  V30 42 H 2.393389 6.088263 1.713840 0
M  V30 43 H 2.103336 4.517597 2.656303 0
M  V30 44 H 2.558939 5.038736 -1.213412 0
M  V30 45 H -3.055206 0.723610 -0.962376 0
M  V30 46 H -4.726611 -1.251348 -0.041913 0
M  V30 47 H -4.499634 -0.486382 -1.716988 0
M  V30 48 H -6.274060 -2.001599 -1.990723 0
M  V30 49 H -5.604690 -3.233878 -0.886468 0
M  V30 50 H -3.809278 -2.333074 -4.506715 0
M  V30 51 H -5.041017 -1.233798 -3.694084 0
M  V30 52 H -5.550292 -2.677155 -4.643462 0
M  V30 53 H -2.801781 -3.412223 -3.347196 0
M  V30 54 H -3.560078 -4.896526 -2.708880 0
M  V30 55 H -1.834194 -3.673495 -1.227939 0
M  V30 56 H -3.478528 -3.984307 -0.431030 0
M  V30 57 H 3.622835 -3.211062 -0.256368 0
M  V30 END ATOM
M  V30 BEGIN BOND
M  V30 1 1 1 2
M  V30 2 1 2 3
M  V30 3 2 3 4
M  V30 4 1 3 5
M  V30 5 2 5 6
M  V30 6 1 6 7
M  V30 7 2 7 8
M  V30 8 1 8 9
M  V30 9 1 9 10
M  V30 10 2 10 11
M  V30 11 1 11 12
M  V30 12 1 12 13
M  V30 13 1 13 14
M  V30 14 1 14 15
M  V30 15 2 15 16
M  V30 16 1 16 17
M  V30 17 1 16 18
M  V30 18 1 18 19
M  V30 19 2 12 20
M  V30 20 1 20 21
M  V30 21 1 21 22
M  V30 22 1 22 23
M  V30 23 1 23 24
M  V30 24 1 24 25
M  V30 25 1 25 26
M  V30 26 1 25 27
M  V30 27 1 27 28
M  V30 28 2 21 29
M  V30 29 1 8 30
M  V30 30 2 30 31
M  V30 31 1 31 32
M  V30 32 1 31 5
M  V30 33 1 29 10
M  V30 34 2 19 14
M  V30 35 1 28 22
M  V30 36 1 1 33
M  V30 37 1 1 34
M  V30 38 1 1 35
M  V30 39 1 6 36
M  V30 40 1 7 37
M  V30 41 1 9 38
M  V30 42 1 13 39
M  V30 43 1 15 40
M  V30 44 1 17 41
M  V30 45 1 17 42
M  V30 46 1 17 43
M  V30 47 1 18 44
M  V30 48 1 20 45
M  V30 49 1 23 46
M  V30 50 1 23 47
M  V30 51 1 24 48
M  V30 52 1 24 49
M  V30 53 1 26 50
M  V30 54 1 26 51
M  V30 55 1 26 52
M  V30 56 1 27 53
M  V30 57 1 27 54
M  V30 58 1 28 55
M  V30 59 1 28 56
M  V30 60 1 30 57
M  V30 END BOND
M  V30 END CTAB
M  END
>  <Dataset>  (799) 
ChEMBL_Kinases

>  <Ligand_Instance>  (799) 
nan

>  <PDB_ID>  (799) 
nan

>  <Standardized_SMILES>  (799) 
COC(=O)c1ccc(Nc2nc(Nc3cc(C)[nH]n3)cc(N3CCN(C)CC3)n2)cc1F

>  <Name>  (799) 
nan

>  <Pocket>  (799) 
nan

>  <ATP_Site>  (799) 
nan

>  <Peripheral>  (799) 
nan

>  <Num_H_Atoms_ProtBoundConf>  (799) 
nan

>  <Num_Resolved_Atoms>  (799) 
nan

>  <Num_Not_Resolved_Atoms>  (799) 
nan

$$$$
CHEMBL4164598
     RDKit          3D

  0  0  0  0  0  0  0  0  0  0999 V3000
M  V30 BEGIN CTAB
M  V30 COUNTS 63 66 0 0 0
M  V30 BEGIN ATOM
M  V30 1 C -1.842403 -4.467198 5.442222 0
M  V30 2 O -1.499853 -3.115533 5.750558 0
M  V30 3 C -1.068034 -2.334879 4.689282 0
M  V30 4 C -0.966862 -2.813601 3.400533 0
M  V30 5 C -0.525171 -1.942251 2.429679 0
M  V30 6 C -0.166969 -0.623773 2.604272 0
M  V30 7 N 0.281733 0.240244 1.590056 0
M  V30 8 C 0.461268 -0.008389 0.223019 0
M  V30 9 N 0.913282 0.980532 -0.568648 0
M  V30 10 C 1.126659 0.875504 -1.884412 0
M  V30 11 N 1.606168 1.960891 -2.662960 0
M  V30 12 C 1.884156 3.221605 -2.067761 0
M  V30 13 C 1.072050 4.321380 -1.875576 0
M  V30 14 C 1.822869 5.287643 -1.253057 0
M  V30 15 C 1.351943 6.629708 -0.857383 0
M  V30 16 N 3.050420 4.764915 -1.083721 0
M  V30 17 N 3.102238 3.520012 -1.570012 0
M  V30 18 C 0.862253 -0.339631 -2.470398 0
M  V30 19 C 0.398098 -1.390462 -1.715778 0
M  V30 20 N 0.111178 -2.665078 -2.275017 0
M  V30 21 C -0.388591 -3.836277 -1.621868 0
M  V30 22 C -1.625124 -4.418631 -2.274045 0
M  V30 23 N -1.476824 -4.684289 -3.671322 0
M  V30 24 C -0.718829 -5.868615 -3.930360 0
M  V30 25 C -1.001899 -3.496824 -4.317172 0
M  V30 26 C 0.274140 -3.033203 -3.645888 0
M  V30 27 N 0.225734 -1.162950 -0.417716 0
M  V30 28 C -0.291791 -0.201740 3.929523 0
M  V30 29 O 0.036889 1.111278 4.252131 0
M  V30 30 C -0.929130 2.147763 4.208854 0
M  V30 31 C -0.726527 -1.023832 4.940767 0
M  V30 32 O -0.822038 -0.527153 6.227308 0
M  V30 33 C -1.980773 0.082558 6.749512 0
M  V30 34 H -2.638612 -4.497627 4.646256 0
M  V30 35 H -0.977732 -5.015233 5.007685 0
M  V30 36 H -2.230171 -5.007955 6.318476 0
M  V30 37 H -1.232029 -3.840287 3.192220 0
M  V30 38 H -0.470255 -2.380952 1.450754 0
M  V30 39 H 0.512648 1.221646 1.936316 0
M  V30 40 H 1.757779 1.835473 -3.685273 0
M  V30 41 H 0.020889 4.339600 -2.193949 0
M  V30 42 H 1.861328 7.390992 -1.492885 0
M  V30 43 H 0.259971 6.694388 -0.959274 0
M  V30 44 H 1.594775 6.881837 0.192755 0
M  V30 45 H 3.882090 5.216595 -0.643791 0
M  V30 46 H 1.035435 -0.417376 -3.526644 0
M  V30 47 H 0.406573 -4.635561 -1.671328 0
M  V30 48 H -0.669021 -3.626831 -0.571983 0
M  V30 49 H -1.880346 -5.360411 -1.751872 0
M  V30 50 H -2.501867 -3.737209 -2.131382 0
M  V30 51 H -1.401724 -6.754211 -4.015039 0
M  V30 52 H -0.066730 -5.825137 -4.821705 0
M  V30 53 H -0.050629 -6.095098 -3.052388 0
M  V30 54 H -1.790008 -2.722767 -4.246777 0
M  V30 55 H -0.729940 -3.676578 -5.388128 0
M  V30 56 H 0.990364 -3.890859 -3.762088 0
M  V30 57 H 0.687478 -2.242770 -4.301524 0
M  V30 58 H -0.938869 2.690900 3.250160 0
M  V30 59 H -1.928382 1.641538 4.260704 0
M  V30 60 H -0.828390 2.850136 5.064084 0
M  V30 61 H -2.843419 0.015050 6.048055 0
M  V30 62 H -2.299629 -0.333884 7.708689 0
M  V30 63 H -1.737299 1.160303 6.885542 0
M  V30 END ATOM
M  V30 BEGIN BOND
M  V30 1 1 1 2
M  V30 2 1 2 3
M  V30 3 2 3 4
M  V30 4 1 4 5
M  V30 5 2 5 6
M  V30 6 1 6 7
M  V30 7 1 7 8
M  V30 8 2 8 9
M  V30 9 1 9 10
M  V30 10 1 10 11
M  V30 11 1 11 12
M  V30 12 1 12 13
M  V30 13 2 13 14
M  V30 14 1 14 15
M  V30 15 1 14 16
M  V30 16 1 16 17
M  V30 17 2 10 18
M  V30 18 1 18 19
M  V30 19 1 19 20
M  V30 20 1 20 21
M  V30 21 1 21 22
M  V30 22 1 22 23
M  V30 23 1 23 24
M  V30 24 1 23 25
M  V30 25 1 25 26
M  V30 26 2 19 27
M  V30 27 1 6 28
M  V30 28 1 28 29
M  V30 29 1 29 30
M  V30 30 2 28 31
M  V30 31 1 31 32
M  V30 32 1 32 33
M  V30 33 1 31 3
M  V30 34 1 27 8
M  V30 35 2 17 12
M  V30 36 1 26 20
M  V30 37 1 1 34
M  V30 38 1 1 35
M  V30 39 1 1 36
M  V30 40 1 4 37
M  V30 41 1 5 38
M  V30 42 1 7 39
M  V30 43 1 11 40
M  V30 44 1 13 41
M  V30 45 1 15 42
M  V30 46 1 15 43
M  V30 47 1 15 44
M  V30 48 1 16 45
M  V30 49 1 18 46
M  V30 50 1 21 47
M  V30 51 1 21 48
M  V30 52 1 22 49
M  V30 53 1 22 50
M  V30 54 1 24 51
M  V30 55 1 24 52
M  V30 56 1 24 53
M  V30 57 1 25 54
M  V30 58 1 25 55
M  V30 59 1 26 56
M  V30 60 1 26 57
M  V30 61 1 30 58
M  V30 62 1 30 59
M  V30 63 1 30 60
M  V30 64 1 33 61
M  V30 65 1 33 62
M  V30 66 1 33 63
M  V30 END BOND
M  V30 END CTAB
M  END
>  <Dataset>  (800) 
ChEMBL_Kinases

>  <Ligand_Instance>  (800) 
nan

>  <PDB_ID>  (800) 
nan

>  <Standardized_SMILES>  (800) 
COc1ccc(Nc2nc(Nc3cc(C)[nH]n3)cc(N3CCN(C)CC3)n2)c(OC)c1OC

>  <Name>  (800) 
nan

>  <Pocket>  (800) 
nan

>  <ATP_Site>  (800) 
nan

>  <Peripheral>  (800) 
nan

>  <Num_H_Atoms_ProtBoundConf>  (800) 
nan

>  <Num_Resolved_Atoms>  (800) 
nan

>  <Num_Not_Resolved_Atoms>  (800) 
nan

$$$$
CHEMBL3675332
     RDKit          3D

  0  0  0  0  0  0  0  0  0  0999 V3000
M  V30 BEGIN CTAB
M  V30 COUNTS 46 49 0 0 0
M  V30 BEGIN ATOM
M  V30 1 N 2.401776 -6.583598 -2.217031 0
M  V30 2 C 3.104377 -5.934944 -1.169272 0
M  V30 3 O 3.766328 -6.696495 -0.406572 0
M  V30 4 C 3.145616 -4.512512 -0.880478 0
M  V30 5 C 3.893866 -4.092630 0.197477 0
M  V30 6 C 3.982696 -2.745157 0.536733 0
M  V30 7 C 3.286172 -1.880927 -0.261704 0
M  V30 8 C 2.516011 -2.199453 -1.352964 0
M  V30 9 C 1.858978 -1.242642 -2.091209 0
M  V30 10 N 2.020169 0.093613 -1.635872 0
M  V30 11 C 1.059918 0.776241 -0.836986 0
M  V30 12 C 1.376179 1.998292 -0.230037 0
M  V30 13 C 0.430159 2.652614 0.526882 0
M  V30 14 C -0.824403 2.106969 0.686902 0
M  V30 15 N -1.952002 2.604691 1.437179 0
M  V30 16 C -1.822030 1.965704 2.719214 0
M  V30 17 O -0.838868 1.199191 2.846685 0
M  V30 18 C -2.792544 2.200803 3.812316 0
M  V30 19 C -2.573496 1.407116 4.926822 0
M  V30 20 C -3.418051 1.545885 6.013889 0
M  V30 21 C -4.423234 2.467149 5.914148 0
M  V30 22 C -4.679774 3.286520 4.812660 0
M  V30 23 C -3.795274 3.102363 3.746160 0
M  V30 24 C -1.150859 0.891442 0.087814 0
M  V30 25 C -0.196205 0.222757 -0.680748 0
M  V30 26 N 1.140006 -1.701450 -3.144259 0
M  V30 27 C 1.086850 -3.023733 -3.430528 0
M  V30 28 N 1.735920 -3.955955 -2.698637 0
M  V30 29 C 2.467174 -3.566629 -1.641515 0
M  V30 30 H 1.477894 -6.582704 -1.734585 0
M  V30 31 H 2.800076 -6.916401 -3.146782 0
M  V30 32 H 4.449053 -4.778508 0.833741 0
M  V30 33 H 4.570126 -2.411775 1.382461 0
M  V30 34 H 3.374425 -0.822562 0.027452 0
M  V30 35 H 2.914917 0.459484 -1.973724 0
M  V30 36 H 2.333494 2.446027 -0.334100 0
M  V30 37 H 0.547283 3.593089 1.041965 0
M  V30 38 H -2.745087 3.255295 1.265768 0
M  V30 39 H -1.767332 0.681070 4.983988 0
M  V30 40 H -3.260596 0.933520 6.885471 0
M  V30 41 H -5.128302 2.635128 6.726492 0
M  V30 42 H -5.492381 3.998309 4.790899 0
M  V30 43 H -3.932881 3.704669 2.858261 0
M  V30 44 H -2.112819 0.370468 0.150279 0
M  V30 45 H -0.422295 -0.721348 -1.157051 0
M  V30 46 H 0.477266 -3.275456 -4.299703 0
M  V30 END ATOM
M  V30 BEGIN BOND
M  V30 1 1 1 2
M  V30 2 2 2 3
M  V30 3 1 2 4
M  V30 4 2 4 5
M  V30 5 1 5 6
M  V30 6 2 6 7
M  V30 7 1 7 8
M  V30 8 2 8 9
M  V30 9 1 9 10
M  V30 10 1 10 11
M  V30 11 2 11 12
M  V30 12 1 12 13
M  V30 13 2 13 14
M  V30 14 1 14 15
M  V30 15 1 15 16
M  V30 16 2 16 17
M  V30 17 1 16 18
M  V30 18 2 18 19
M  V30 19 1 19 20
M  V30 20 2 20 21
M  V30 21 1 21 22
M  V30 22 2 22 23
M  V30 23 1 14 24
M  V30 24 2 24 25
M  V30 25 1 9 26
M  V30 26 2 26 27
M  V30 27 1 27 28
M  V30 28 2 28 29
M  V30 29 1 29 4
M  V30 30 1 29 8
M  V30 31 1 25 11
M  V30 32 1 23 18
M  V30 33 1 1 30
M  V30 34 1 1 31
M  V30 35 1 5 32
M  V30 36 1 6 33
M  V30 37 1 7 34
M  V30 38 1 10 35
M  V30 39 1 12 36
M  V30 40 1 13 37
M  V30 41 1 15 38
M  V30 42 1 19 39
M  V30 43 1 20 40
M  V30 44 1 21 41
M  V30 45 1 22 42
M  V30 46 1 23 43
M  V30 47 1 24 44
M  V30 48 1 25 45
M  V30 49 1 27 46
M  V30 END BOND
M  V30 END CTAB
M  END
>  <Dataset>  (801) 
ChEMBL_Kinases

>  <Ligand_Instance>  (801) 
nan

>  <PDB_ID>  (801) 
nan

>  <Standardized_SMILES>  (801) 
NC(=O)c1cccc2c(Nc3ccc(NC(=O)c4ccccc4)cc3)ncnc12

>  <Name>  (801) 
nan

>  <Pocket>  (801) 
nan

>  <ATP_Site>  (801) 
nan

>  <Peripheral>  (801) 
nan

>  <Num_H_Atoms_ProtBoundConf>  (801) 
nan

>  <Num_Resolved_Atoms>  (801) 
nan

>  <Num_Not_Resolved_Atoms>  (801) 
nan

$$$$
CHEMBL3675340
     RDKit          3D

  0  0  0  0  0  0  0  0  0  0999 V3000
M  V30 BEGIN CTAB
M  V30 COUNTS 39 41 0 0 0
M  V30 BEGIN ATOM
M  V30 1 C 0.843043 -7.400050 1.302351 0
M  V30 2 O 1.006127 -6.334375 2.212858 0
M  V30 3 C 0.396593 -5.126997 1.956582 0
M  V30 4 C -0.362360 -4.990513 0.810877 0
M  V30 5 C -1.020796 -3.819298 0.454538 0
M  V30 6 C -0.923126 -2.713344 1.282829 0
M  V30 7 C -1.590646 -1.417722 0.980675 0
M  V30 8 N -0.848705 -0.478523 0.242844 0
M  V30 9 C -0.098197 0.469116 -0.505676 0
M  V30 10 N 0.447845 0.398232 -1.724359 0
M  V30 11 C 1.135523 1.405129 -2.269999 0
M  V30 12 N 1.273941 2.518123 -1.558328 0
M  V30 13 C 0.772880 2.687113 -0.346745 0
M  V30 14 C 0.957117 3.881532 0.346363 0
M  V30 15 C 1.725185 4.859072 -0.396942 0
M  V30 16 N 1.942148 6.074133 0.307990 0
M  V30 17 O 2.379416 5.516628 -1.200389 0
M  V30 18 C 0.462916 4.107715 1.600310 0
M  V30 19 C -0.239307 3.081078 2.157876 0
M  V30 20 C -0.410510 1.912080 1.460029 0
M  V30 21 C 0.062719 1.645888 0.215324 0
M  V30 22 C -0.158991 -2.883658 2.416656 0
M  V30 23 C 0.505851 -4.024115 2.801899 0
M  V30 24 H 1.113602 -7.047064 0.280944 0
M  V30 25 H -0.226695 -7.695963 1.301540 0
M  V30 26 H 1.510446 -8.253344 1.547705 0
M  V30 27 H -0.521497 -5.790876 0.070511 0
M  V30 28 H -1.617203 -3.710687 -0.443308 0
M  V30 29 H -2.604220 -1.644819 0.537485 0
M  V30 30 H -1.816923 -1.005988 2.032992 0
M  V30 31 H -0.816880 -1.244037 -0.506534 0
M  V30 32 H 1.508046 1.178059 -3.261750 0
M  V30 33 H 1.605802 6.965525 0.777495 0
M  V30 34 H 2.122663 6.955563 0.821694 0
M  V30 35 H 0.639916 5.053447 2.084255 0
M  V30 36 H -0.647106 3.222952 3.152567 0
M  V30 37 H -0.978339 1.160159 1.978443 0
M  V30 38 H -0.034551 -2.054904 3.118704 0
M  V30 39 H 1.091239 -4.096070 3.705810 0
M  V30 END ATOM
M  V30 BEGIN BOND
M  V30 1 1 1 2
M  V30 2 1 2 3
M  V30 3 2 3 4
M  V30 4 1 4 5
M  V30 5 2 5 6
M  V30 6 1 6 7
M  V30 7 1 7 8
M  V30 8 1 8 9
M  V30 9 2 9 10
M  V30 10 1 10 11
M  V30 11 2 11 12
M  V30 12 1 12 13
M  V30 13 2 13 14
M  V30 14 1 14 15
M  V30 15 1 15 16
M  V30 16 2 15 17
M  V30 17 1 14 18
M  V30 18 2 18 19
M  V30 19 1 19 20
M  V30 20 2 20 21
M  V30 21 1 6 22
M  V30 22 2 22 23
M  V30 23 1 23 3
M  V30 24 1 21 9
M  V30 25 1 21 13
M  V30 26 1 1 24
M  V30 27 1 1 25
M  V30 28 1 1 26
M  V30 29 1 4 27
M  V30 30 1 5 28
M  V30 31 1 7 29
M  V30 32 1 7 30
M  V30 33 1 8 31
M  V30 34 1 11 32
M  V30 35 1 16 33
M  V30 36 1 16 34
M  V30 37 1 18 35
M  V30 38 1 19 36
M  V30 39 1 20 37
M  V30 40 1 22 38
M  V30 41 1 23 39
M  V30 END BOND
M  V30 END CTAB
M  END
>  <Dataset>  (802) 
ChEMBL_Kinases

>  <Ligand_Instance>  (802) 
nan

>  <PDB_ID>  (802) 
nan

>  <Standardized_SMILES>  (802) 
COc1ccc(CNc2ncnc3c(C(N)=O)cccc23)cc1

>  <Name>  (802) 
nan

>  <Pocket>  (802) 
nan

>  <ATP_Site>  (802) 
nan

>  <Peripheral>  (802) 
nan

>  <Num_H_Atoms_ProtBoundConf>  (802) 
nan

>  <Num_Resolved_Atoms>  (802) 
nan

>  <Num_Not_Resolved_Atoms>  (802) 
nan

$$$$
CHEMBL3675339
     RDKit          3D

  0  0  0  0  0  0  0  0  0  0999 V3000
M  V30 BEGIN CTAB
M  V30 COUNTS 35 37 0 0 0
M  V30 BEGIN ATOM
M  V30 1 N 0.727654 -3.465103 4.467077 0
M  V30 2 C 1.593160 -3.960284 3.450215 0
M  V30 3 O 2.398898 -4.853097 3.771275 0
M  V30 4 C 1.553789 -3.455907 2.081912 0
M  V30 5 C 2.436468 -4.005972 1.176768 0
M  V30 6 C 2.395353 -3.519357 -0.134362 0
M  V30 7 C 1.487005 -2.530148 -0.445090 0
M  V30 8 C 0.607989 -1.972675 0.427839 0
M  V30 9 C -0.276001 -0.984609 0.051064 0
M  V30 10 N -0.332777 -0.485116 -1.265273 0
M  V30 11 C -1.229920 0.550720 -1.738374 0
M  V30 12 C -1.059430 1.851853 -1.075211 0
M  V30 13 C -0.082529 2.707548 -1.603754 0
M  V30 14 C 0.224338 3.968454 -1.135921 0
M  V30 15 C -0.491044 4.432819 -0.051839 0
M  V30 16 Cl -0.203577 6.013601 0.642110 0
M  V30 17 C -1.463770 3.632174 0.506957 0
M  V30 18 Cl -2.401992 4.164614 1.879777 0
M  V30 19 C -1.735776 2.378127 0.004831 0
M  V30 20 N -1.081887 -0.531259 1.021063 0
M  V30 21 C -1.017232 -1.018845 2.267853 0
M  V30 22 N -0.155677 -1.992076 2.665109 0
M  V30 23 C 0.668325 -2.468839 1.712137 0
M  V30 24 H -0.297004 -3.290441 4.671449 0
M  V30 25 H -0.296713 -3.286656 4.680703 0
M  V30 26 H 3.119248 -4.774819 1.484560 0
M  V30 27 H 3.095516 -3.961819 -0.834342 0
M  V30 28 H 1.547861 -2.239947 -1.470524 0
M  V30 29 H 0.300470 -0.855639 -1.999355 0
M  V30 30 H -1.082944 0.716608 -2.818325 0
M  V30 31 H -2.303856 0.203119 -1.663066 0
M  V30 32 H 0.506194 2.380628 -2.460609 0
M  V30 33 H 0.983589 4.564289 -1.590934 0
M  V30 34 H -2.494944 1.752435 0.426882 0
M  V30 35 H -1.744622 -0.535839 2.926688 0
M  V30 END ATOM
M  V30 BEGIN BOND
M  V30 1 1 1 2
M  V30 2 2 2 3
M  V30 3 1 2 4
M  V30 4 2 4 5
M  V30 5 1 5 6
M  V30 6 2 6 7
M  V30 7 1 7 8
M  V30 8 2 8 9
M  V30 9 1 9 10
M  V30 10 1 10 11
M  V30 11 1 11 12
M  V30 12 2 12 13
M  V30 13 1 13 14
M  V30 14 2 14 15
M  V30 15 1 15 16
M  V30 16 1 15 17
M  V30 17 1 17 18
M  V30 18 2 17 19
M  V30 19 1 9 20
M  V30 20 2 20 21
M  V30 21 1 21 22
M  V30 22 2 22 23
M  V30 23 1 23 4
M  V30 24 1 23 8
M  V30 25 1 19 12
M  V30 26 1 1 24
M  V30 27 1 1 25
M  V30 28 1 5 26
M  V30 29 1 6 27
M  V30 30 1 7 28
M  V30 31 1 10 29
M  V30 32 1 11 30
M  V30 33 1 11 31
M  V30 34 1 13 32
M  V30 35 1 14 33
M  V30 36 1 19 34
M  V30 37 1 21 35
M  V30 END BOND
M  V30 END CTAB
M  END
>  <Dataset>  (803) 
ChEMBL_Kinases

>  <Ligand_Instance>  (803) 
nan

>  <PDB_ID>  (803) 
nan

>  <Standardized_SMILES>  (803) 
NC(=O)c1cccc2c(NCc3ccc(Cl)c(Cl)c3)ncnc12

>  <Name>  (803) 
nan

>  <Pocket>  (803) 
nan

>  <ATP_Site>  (803) 
nan

>  <Peripheral>  (803) 
nan

>  <Num_H_Atoms_ProtBoundConf>  (803) 
nan

>  <Num_Resolved_Atoms>  (803) 
nan

>  <Num_Not_Resolved_Atoms>  (803) 
nan

$$$$
CHEMBL3335352
     RDKit          3D

  0  0  0  0  0  0  0  0  0  0999 V3000
M  V30 BEGIN CTAB
M  V30 COUNTS 30 32 0 0 0
M  V30 BEGIN ATOM
M  V30 1 O 1.223485 -2.192376 -1.150786 0
M  V30 2 C 1.011765 -1.746999 0.021057 0
M  V30 3 C 1.857305 -2.374397 1.022728 0
M  V30 4 C 1.555657 -2.471025 2.362539 0
M  V30 5 C 2.402931 -3.053672 3.289996 0
M  V30 6 C 3.610556 -3.568942 2.872900 0
M  V30 7 C 3.962686 -3.499185 1.541336 0
M  V30 8 O 5.174943 -4.008900 1.080541 0
M  V30 9 C 3.075779 -2.907119 0.671966 0
M  V30 10 C -0.007300 -0.720189 0.144929 0
M  V30 11 C -0.760374 -0.367322 -0.981710 0
M  V30 12 C -1.621141 0.638311 -0.530823 0
M  V30 13 C -2.593144 1.375843 -1.174914 0
M  V30 14 C -3.315319 2.328098 -0.490628 0
M  V30 15 O -4.299360 3.066598 -1.167868 0
M  V30 16 C -3.098881 2.581944 0.855468 0
M  V30 17 C -2.117358 1.845391 1.531511 0
M  V30 18 C -1.421431 0.903528 0.801546 0
M  V30 19 N -0.433363 0.052029 1.158574 0
M  V30 20 H 0.628512 -2.104378 2.750463 0
M  V30 21 H 2.167487 -3.131064 4.342462 0
M  V30 22 H 4.352094 -4.049278 3.524819 0
M  V30 23 H 5.656699 -3.474043 0.367442 0
M  V30 24 H 3.373072 -2.867594 -0.367568 0
M  V30 25 H -0.804884 -0.690185 -2.036367 0
M  V30 26 H -2.811792 1.231006 -2.230039 0
M  V30 27 H -3.931987 3.816205 -1.765024 0
M  V30 28 H -3.657277 3.333067 1.428531 0
M  V30 29 H -1.919580 2.014845 2.590248 0
M  V30 30 H -0.056905 0.022661 2.119575 0
M  V30 END ATOM
M  V30 BEGIN BOND
M  V30 1 2 1 2
M  V30 2 1 2 3
M  V30 3 2 3 4
M  V30 4 1 4 5
M  V30 5 2 5 6
M  V30 6 1 6 7
M  V30 7 1 7 8
M  V30 8 2 7 9
M  V30 9 1 2 10
M  V30 10 2 10 11
M  V30 11 1 11 12
M  V30 12 2 12 13
M  V30 13 1 13 14
M  V30 14 1 14 15
M  V30 15 2 14 16
M  V30 16 1 16 17
M  V30 17 2 17 18
M  V30 18 1 18 19
M  V30 19 1 9 3
M  V30 20 1 19 10
M  V30 21 1 18 12
M  V30 22 1 4 20
M  V30 23 1 5 21
M  V30 24 1 6 22
M  V30 25 1 8 23
M  V30 26 1 9 24
M  V30 27 1 11 25
M  V30 28 1 13 26
M  V30 29 1 15 27
M  V30 30 1 16 28
M  V30 31 1 17 29
M  V30 32 1 19 30
M  V30 END BOND
M  V30 END CTAB
M  END
>  <Dataset>  (804) 
ChEMBL_Kinases

>  <Ligand_Instance>  (804) 
nan

>  <PDB_ID>  (804) 
nan

>  <Standardized_SMILES>  (804) 
O=C(c1cccc(O)c1)c1cc2cc(O)ccc2[nH]1

>  <Name>  (804) 
nan

>  <Pocket>  (804) 
nan

>  <ATP_Site>  (804) 
nan

>  <Peripheral>  (804) 
nan

>  <Num_H_Atoms_ProtBoundConf>  (804) 
nan

>  <Num_Resolved_Atoms>  (804) 
nan

>  <Num_Not_Resolved_Atoms>  (804) 
nan

$$$$
CHEMBL3675338
     RDKit          3D

  0  0  0  0  0  0  0  0  0  0999 V3000
M  V30 BEGIN CTAB
M  V30 COUNTS 42 44 0 0 0
M  V30 BEGIN ATOM
M  V30 1 C 0.360743 -4.666478 2.796217 0
M  V30 2 O 1.383682 -4.597355 1.821669 0
M  V30 3 C 1.147890 -3.868745 0.663075 0
M  V30 4 C -0.087948 -3.229246 0.498370 0
M  V30 5 C -0.276229 -2.516393 -0.671265 0
M  V30 6 C 0.699947 -2.412930 -1.673064 0
M  V30 7 C 0.315585 -1.617690 -2.849907 0
M  V30 8 C 0.687789 -0.174909 -2.835468 0
M  V30 9 N 0.157324 0.601541 -1.743940 0
M  V30 10 C 0.672648 0.591685 -0.426310 0
M  V30 11 N 1.754745 -0.108248 -0.048491 0
M  V30 12 C 2.274446 -0.106454 1.188125 0
M  V30 13 N 1.738430 0.619470 2.185071 0
M  V30 14 C 0.657188 1.345709 1.891188 0
M  V30 15 C 0.085722 2.098463 2.894437 0
M  V30 16 C 0.687512 2.068421 4.222354 0
M  V30 17 N 0.231990 2.759383 5.348116 0
M  V30 18 O 1.713135 1.375120 4.440045 0
M  V30 19 C -1.034079 2.875064 2.673205 0
M  V30 20 C -1.572501 2.870762 1.383440 0
M  V30 21 C -0.972633 2.106418 0.411611 0
M  V30 22 C 0.141346 1.327618 0.612675 0
M  V30 23 C 1.905679 -3.052670 -1.482845 0
M  V30 24 C 2.147475 -3.788260 -0.315232 0
M  V30 25 H 0.637438 -5.308877 3.652062 0
M  V30 26 H -0.552900 -5.000077 2.280959 0
M  V30 27 H 0.155064 -3.653730 3.198823 0
M  V30 28 H -0.871243 -3.278540 1.239920 0
M  V30 29 H -1.237412 -2.031692 -0.775797 0
M  V30 30 H -0.810175 -1.639131 -3.001998 0
M  V30 31 H 0.681097 -2.122681 -3.789416 0
M  V30 32 H 1.815666 -0.038066 -2.888207 0
M  V30 33 H 0.337127 0.252269 -3.816869 0
M  V30 34 H -0.656631 1.187182 -2.000926 0
M  V30 35 H 3.147596 -0.698246 1.407587 0
M  V30 36 H 0.591760 3.642676 5.805973 0
M  V30 37 H -0.573817 2.531373 5.973309 0
M  V30 38 H -1.449446 3.448769 3.484549 0
M  V30 39 H -2.440206 3.483151 1.243411 0
M  V30 40 H -1.462182 2.177064 -0.524799 0
M  V30 41 H 2.638531 -2.958492 -2.265301 0
M  V30 42 H 3.094739 -4.285775 -0.174642 0
M  V30 END ATOM
M  V30 BEGIN BOND
M  V30 1 1 1 2
M  V30 2 1 2 3
M  V30 3 2 3 4
M  V30 4 1 4 5
M  V30 5 2 5 6
M  V30 6 1 6 7
M  V30 7 1 7 8
M  V30 8 1 8 9
M  V30 9 1 9 10
M  V30 10 2 10 11
M  V30 11 1 11 12
M  V30 12 2 12 13
M  V30 13 1 13 14
M  V30 14 2 14 15
M  V30 15 1 15 16
M  V30 16 1 16 17
M  V30 17 2 16 18
M  V30 18 1 15 19
M  V30 19 2 19 20
M  V30 20 1 20 21
M  V30 21 2 21 22
M  V30 22 1 6 23
M  V30 23 2 23 24
M  V30 24 1 24 3
M  V30 25 1 22 10
M  V30 26 1 22 14
M  V30 27 1 1 25
M  V30 28 1 1 26
M  V30 29 1 1 27
M  V30 30 1 4 28
M  V30 31 1 5 29
M  V30 32 1 7 30
M  V30 33 1 7 31
M  V30 34 1 8 32
M  V30 35 1 8 33
M  V30 36 1 9 34
M  V30 37 1 12 35
M  V30 38 1 17 36
M  V30 39 1 17 37
M  V30 40 1 19 38
M  V30 41 1 20 39
M  V30 42 1 21 40
M  V30 43 1 23 41
M  V30 44 1 24 42
M  V30 END BOND
M  V30 END CTAB
M  END
>  <Dataset>  (805) 
ChEMBL_Kinases

>  <Ligand_Instance>  (805) 
nan

>  <PDB_ID>  (805) 
nan

>  <Standardized_SMILES>  (805) 
COc1ccc(CCNc2ncnc3c(C(N)=O)cccc23)cc1

>  <Name>  (805) 
nan

>  <Pocket>  (805) 
nan

>  <ATP_Site>  (805) 
nan

>  <Peripheral>  (805) 
nan

>  <Num_H_Atoms_ProtBoundConf>  (805) 
nan

>  <Num_Resolved_Atoms>  (805) 
nan

>  <Num_Not_Resolved_Atoms>  (805) 
nan

$$$$
CHEMBL3675336
     RDKit          3D

  0  0  0  0  0  0  0  0  0  0999 V3000
M  V30 BEGIN CTAB
M  V30 COUNTS 32 34 0 0 0
M  V30 BEGIN ATOM
M  V30 1 N -1.224074 -5.055736 3.446572 0
M  V30 2 C -1.458957 -4.234757 2.298358 0
M  V30 3 O -2.570207 -4.450314 1.713759 0
M  V30 4 C -0.488126 -3.237203 1.852196 0
M  V30 5 C 0.680457 -3.106982 2.581025 0
M  V30 6 C 1.572608 -2.157443 2.132191 0
M  V30 7 C 1.323095 -1.377693 1.021655 0
M  V30 8 C 0.136866 -1.557036 0.337580 0
M  V30 9 C -0.152122 -0.787191 -0.791131 0
M  V30 10 N 0.839203 0.163785 -1.166646 0
M  V30 11 C 0.891377 1.511935 -0.701843 0
M  V30 12 C 1.916405 2.349713 -1.143612 0
M  V30 13 C 1.898211 3.639657 -0.648829 0
M  V30 14 C 0.954750 4.131101 0.228958 0
M  V30 15 F 0.975831 5.406167 0.689271 0
M  V30 16 C -0.052507 3.289383 0.656178 0
M  V30 17 Cl -1.308904 3.793159 1.768885 0
M  V30 18 C -0.055971 1.995489 0.175862 0
M  V30 19 N -1.316800 -0.979960 -1.443110 0
M  V30 20 C -2.209615 -1.912451 -1.014929 0
M  V30 21 N -1.951813 -2.665358 0.070195 0
M  V30 22 C -0.817395 -2.500735 0.732584 0
M  V30 23 H -0.788886 -5.946448 3.064947 0
M  V30 24 H -1.442741 -4.811451 4.447402 0
M  V30 25 H 0.894174 -3.701462 3.445439 0
M  V30 26 H 2.500370 -1.993738 2.639502 0
M  V30 27 H 2.038197 -0.642794 0.692881 0
M  V30 28 H 1.550124 -0.187984 -1.821748 0
M  V30 29 H 2.682275 2.028577 -1.827132 0
M  V30 30 H 2.651474 4.361281 -0.933913 0
M  V30 31 H -0.831806 1.313343 0.492299 0
M  V30 32 H -3.137607 -2.021154 -1.587472 0
M  V30 END ATOM
M  V30 BEGIN BOND
M  V30 1 1 1 2
M  V30 2 2 2 3
M  V30 3 1 2 4
M  V30 4 2 4 5
M  V30 5 1 5 6
M  V30 6 2 6 7
M  V30 7 1 7 8
M  V30 8 2 8 9
M  V30 9 1 9 10
M  V30 10 1 10 11
M  V30 11 2 11 12
M  V30 12 1 12 13
M  V30 13 2 13 14
M  V30 14 1 14 15
M  V30 15 1 14 16
M  V30 16 1 16 17
M  V30 17 2 16 18
M  V30 18 1 9 19
M  V30 19 2 19 20
M  V30 20 1 20 21
M  V30 21 2 21 22
M  V30 22 1 22 4
M  V30 23 1 22 8
M  V30 24 1 18 11
M  V30 25 1 1 23
M  V30 26 1 1 24
M  V30 27 1 5 25
M  V30 28 1 6 26
M  V30 29 1 7 27
M  V30 30 1 10 28
M  V30 31 1 12 29
M  V30 32 1 13 30
M  V30 33 1 18 31
M  V30 34 1 20 32
M  V30 END BOND
M  V30 END CTAB
M  END
>  <Dataset>  (806) 
ChEMBL_Kinases

>  <Ligand_Instance>  (806) 
nan

>  <PDB_ID>  (806) 
nan

>  <Standardized_SMILES>  (806) 
NC(=O)c1cccc2c(Nc3ccc(F)c(Cl)c3)ncnc12

>  <Name>  (806) 
nan

>  <Pocket>  (806) 
nan

>  <ATP_Site>  (806) 
nan

>  <Peripheral>  (806) 
nan

>  <Num_H_Atoms_ProtBoundConf>  (806) 
nan

>  <Num_Resolved_Atoms>  (806) 
nan

>  <Num_Not_Resolved_Atoms>  (806) 
nan

$$$$
CHEMBL3675335
     RDKit          3D

  0  0  0  0  0  0  0  0  0  0999 V3000
M  V30 BEGIN CTAB
M  V30 COUNTS 32 34 0 0 0
M  V30 BEGIN ATOM
M  V30 1 N -2.649400 -3.641666 3.091886 0
M  V30 2 C -1.278598 -4.091688 3.049357 0
M  V30 3 O -1.117739 -5.031768 3.844837 0
M  V30 4 C -0.411608 -3.384775 2.124648 0
M  V30 5 C 0.911010 -3.759074 2.021956 0
M  V30 6 C 1.795346 -3.146072 1.170011 0
M  V30 7 C 1.371924 -2.098609 0.363206 0
M  V30 8 C 0.034364 -1.738699 0.484609 0
M  V30 9 C -0.447059 -0.708332 -0.296219 0
M  V30 10 N 0.344574 0.032740 -1.223112 0
M  V30 11 C 0.866656 1.318236 -0.833436 0
M  V30 12 C 0.555203 1.762567 0.430865 0
M  V30 13 C 1.029540 2.978105 0.806878 0
M  V30 14 C 1.795364 3.744663 -0.040231 0
M  V30 15 C 2.118119 3.300799 -1.328417 0
M  V30 16 Br 3.174551 4.307575 -2.553619 0
M  V30 17 C 1.631342 2.059342 -1.707442 0
M  V30 18 N -1.752583 -0.338241 -0.204172 0
M  V30 19 C -2.620514 -0.948024 0.637699 0
M  V30 20 N -2.151276 -1.951412 1.398065 0
M  V30 21 C -0.856362 -2.352027 1.337122 0
M  V30 22 H -3.650648 -3.503251 3.025494 0
M  V30 23 H -2.847338 -2.704411 3.550907 0
M  V30 24 H 1.198595 -4.566519 2.659415 0
M  V30 25 H 2.817998 -3.431338 1.086524 0
M  V30 26 H 2.018486 -1.581322 -0.321488 0
M  V30 27 H 0.574664 -0.316756 -2.191508 0
M  V30 28 H -0.032625 1.190613 1.102401 0
M  V30 29 H 0.827737 3.400265 1.793491 0
M  V30 30 H 2.206960 4.718765 0.187230 0
M  V30 31 H 1.881667 1.718201 -2.699958 0
M  V30 32 H -3.640465 -0.582186 0.640376 0
M  V30 END ATOM
M  V30 BEGIN BOND
M  V30 1 1 1 2
M  V30 2 2 2 3
M  V30 3 1 2 4
M  V30 4 2 4 5
M  V30 5 1 5 6
M  V30 6 2 6 7
M  V30 7 1 7 8
M  V30 8 2 8 9
M  V30 9 1 9 10
M  V30 10 1 10 11
M  V30 11 2 11 12
M  V30 12 1 12 13
M  V30 13 2 13 14
M  V30 14 1 14 15
M  V30 15 1 15 16
M  V30 16 2 15 17
M  V30 17 1 9 18
M  V30 18 2 18 19
M  V30 19 1 19 20
M  V30 20 2 20 21
M  V30 21 1 21 4
M  V30 22 1 21 8
M  V30 23 1 17 11
M  V30 24 1 1 22
M  V30 25 1 1 23
M  V30 26 1 5 24
M  V30 27 1 6 25
M  V30 28 1 7 26
M  V30 29 1 10 27
M  V30 30 1 12 28
M  V30 31 1 13 29
M  V30 32 1 14 30
M  V30 33 1 17 31
M  V30 34 1 19 32
M  V30 END BOND
M  V30 END CTAB
M  END
>  <Dataset>  (807) 
ChEMBL_Kinases

>  <Ligand_Instance>  (807) 
nan

>  <PDB_ID>  (807) 
nan

>  <Standardized_SMILES>  (807) 
NC(=O)c1cccc2c(Nc3cccc(Br)c3)ncnc12

>  <Name>  (807) 
nan

>  <Pocket>  (807) 
nan

>  <ATP_Site>  (807) 
nan

>  <Peripheral>  (807) 
nan

>  <Num_H_Atoms_ProtBoundConf>  (807) 
nan

>  <Num_Resolved_Atoms>  (807) 
nan

>  <Num_Not_Resolved_Atoms>  (807) 
nan

$$$$
CHEMBL3335357
     RDKit          3D

  0  0  0  0  0  0  0  0  0  0999 V3000
M  V30 BEGIN CTAB
M  V30 COUNTS 32 34 0 0 0
M  V30 BEGIN ATOM
M  V30 1 C -1.929144 -1.229708 4.599482 0
M  V30 2 C -1.658331 -2.087559 3.420708 0
M  V30 3 C -0.775872 -1.718852 2.442809 0
M  V30 4 C -0.517609 -2.495705 1.341620 0
M  V30 5 C 0.348393 -2.283098 0.203990 0
M  V30 6 O 0.760373 -3.281790 -0.485256 0
M  V30 7 C 0.808029 -0.999373 -0.248651 0
M  V30 8 C 1.623279 -0.672796 -1.292758 0
M  V30 9 C 1.900703 0.645070 -1.511919 0
M  V30 10 C 2.688225 1.203973 -2.500675 0
M  V30 11 C 2.838802 2.570866 -2.552852 0
M  V30 12 O 3.635816 3.138754 -3.554940 0
M  V30 13 C 2.267150 3.474909 -1.691680 0
M  V30 14 C 1.465259 2.969152 -0.677554 0
M  V30 15 C 1.320775 1.579137 -0.637651 0
M  V30 16 S 0.365412 0.530120 0.510048 0
M  V30 17 C -1.232094 -3.701532 1.301590 0
M  V30 18 C -2.130239 -4.117533 2.259674 0
M  V30 19 C -2.339792 -3.283236 3.338010 0
M  V30 20 O -3.231408 -3.634317 4.346981 0
M  V30 21 H -1.178710 -1.338714 5.384122 0
M  V30 22 H -2.974237 -1.343625 4.965966 0
M  V30 23 H -1.888456 -0.158609 4.250336 0
M  V30 24 H -0.240549 -0.808501 2.502827 0
M  V30 25 H 2.023783 -1.470676 -1.908226 0
M  V30 26 H 3.208681 0.630923 -3.255678 0
M  V30 27 H 3.231569 3.519223 -4.411068 0
M  V30 28 H 2.373117 4.541557 -1.716357 0
M  V30 29 H 0.949103 3.524899 0.072847 0
M  V30 30 H -1.115501 -4.417006 0.472619 0
M  V30 31 H -2.658946 -5.058943 2.181913 0
M  V30 32 H -4.239695 -3.571307 4.257095 0
M  V30 END ATOM
M  V30 BEGIN BOND
M  V30 1 1 1 2
M  V30 2 2 2 3
M  V30 3 1 3 4
M  V30 4 1 4 5
M  V30 5 2 5 6
M  V30 6 1 5 7
M  V30 7 2 7 8
M  V30 8 1 8 9
M  V30 9 2 9 10
M  V30 10 1 10 11
M  V30 11 1 11 12
M  V30 12 2 11 13
M  V30 13 1 13 14
M  V30 14 2 14 15
M  V30 15 1 15 16
M  V30 16 2 4 17
M  V30 17 1 17 18
M  V30 18 2 18 19
M  V30 19 1 19 20
M  V30 20 1 19 2
M  V30 21 1 16 7
M  V30 22 1 15 9
M  V30 23 1 1 21
M  V30 24 1 1 22
M  V30 25 1 1 23
M  V30 26 1 3 24
M  V30 27 1 8 25
M  V30 28 1 10 26
M  V30 29 1 12 27
M  V30 30 1 13 28
M  V30 31 1 14 29
M  V30 32 1 17 30
M  V30 33 1 18 31
M  V30 34 1 20 32
M  V30 END BOND
M  V30 END CTAB
M  END
>  <Dataset>  (808) 
ChEMBL_Kinases

>  <Ligand_Instance>  (808) 
nan

>  <PDB_ID>  (808) 
nan

>  <Standardized_SMILES>  (808) 
Cc1cc(C(=O)c2cc3cc(O)ccc3s2)ccc1O

>  <Name>  (808) 
nan

>  <Pocket>  (808) 
nan

>  <ATP_Site>  (808) 
nan

>  <Peripheral>  (808) 
nan

>  <Num_H_Atoms_ProtBoundConf>  (808) 
nan

>  <Num_Resolved_Atoms>  (808) 
nan

>  <Num_Not_Resolved_Atoms>  (808) 
nan

$$$$
CHEMBL3675334
     RDKit          3D

  0  0  0  0  0  0  0  0  0  0999 V3000
M  V30 BEGIN CTAB
M  V30 COUNTS 34 36 0 0 0
M  V30 BEGIN ATOM
M  V30 1 C 0.803264 -4.879625 4.164693 0
M  V30 2 C 0.677893 -4.624443 2.989388 0
M  V30 3 C 0.519753 -4.305998 1.584319 0
M  V30 4 C 0.174214 -5.364029 0.781066 0
M  V30 5 C 0.012784 -5.126623 -0.567606 0
M  V30 6 C 0.181975 -3.887025 -1.133053 0
M  V30 7 C 0.524707 -2.882158 -0.276750 0
M  V30 8 N 0.710482 -1.592059 -0.845626 0
M  V30 9 C 0.992441 -0.276777 -0.385656 0
M  V30 10 N 2.276041 0.143043 -0.195150 0
M  V30 11 C 2.541585 1.404230 0.240050 0
M  V30 12 N 1.533133 2.261605 0.490362 0
M  V30 13 C 0.257575 1.892309 0.316929 0
M  V30 14 C -0.822747 2.710069 0.547828 0
M  V30 15 C -0.457178 4.041151 1.012624 0
M  V30 16 N -0.940990 5.296541 1.397639 0
M  V30 17 O 0.737282 4.383836 1.201983 0
M  V30 18 C -2.150733 2.381291 0.383036 0
M  V30 19 C -2.434240 1.099236 -0.059520 0
M  V30 20 C -1.384954 0.239420 -0.305830 0
M  V30 21 C -0.056684 0.614514 -0.125522 0
M  V30 22 C 0.704817 -3.035813 1.079516 0
M  V30 23 H 0.916791 -5.088075 5.189859 0
M  V30 24 H 0.028427 -6.358196 1.168934 0
M  V30 25 H -0.259459 -5.957196 -1.203900 0
M  V30 26 H 0.052602 -3.717716 -2.181822 0
M  V30 27 H 0.657622 -1.383862 -1.860558 0
M  V30 28 H 3.546400 1.774765 0.403161 0
M  V30 29 H -1.109107 6.133496 0.777064 0
M  V30 30 H -1.215664 5.620174 2.346546 0
M  V30 31 H -2.912086 3.126716 0.601994 0
M  V30 32 H -3.469488 0.818286 -0.196526 0
M  V30 33 H -1.616221 -0.762863 -0.651999 0
M  V30 34 H 0.978155 -2.241705 1.770770 0
M  V30 END ATOM
M  V30 BEGIN BOND
M  V30 1 3 1 2
M  V30 2 1 2 3
M  V30 3 2 3 4
M  V30 4 1 4 5
M  V30 5 2 5 6
M  V30 6 1 6 7
M  V30 7 1 7 8
M  V30 8 1 8 9
M  V30 9 2 9 10
M  V30 10 1 10 11
M  V30 11 2 11 12
M  V30 12 1 12 13
M  V30 13 2 13 14
M  V30 14 1 14 15
M  V30 15 1 15 16
M  V30 16 2 15 17
M  V30 17 1 14 18
M  V30 18 2 18 19
M  V30 19 1 19 20
M  V30 20 2 20 21
M  V30 21 2 7 22
M  V30 22 1 22 3
M  V30 23 1 21 9
M  V30 24 1 21 13
M  V30 25 1 1 23
M  V30 26 1 4 24
M  V30 27 1 5 25
M  V30 28 1 6 26
M  V30 29 1 8 27
M  V30 30 1 11 28
M  V30 31 1 16 29
M  V30 32 1 16 30
M  V30 33 1 18 31
M  V30 34 1 19 32
M  V30 35 1 20 33
M  V30 36 1 22 34
M  V30 END BOND
M  V30 END CTAB
M  END
>  <Dataset>  (809) 
ChEMBL_Kinases

>  <Ligand_Instance>  (809) 
nan

>  <PDB_ID>  (809) 
nan

>  <Standardized_SMILES>  (809) 
C#Cc1cccc(Nc2ncnc3c(C(N)=O)cccc23)c1

>  <Name>  (809) 
nan

>  <Pocket>  (809) 
nan

>  <ATP_Site>  (809) 
nan

>  <Peripheral>  (809) 
nan

>  <Num_H_Atoms_ProtBoundConf>  (809) 
nan

>  <Num_Resolved_Atoms>  (809) 
nan

>  <Num_Not_Resolved_Atoms>  (809) 
nan

$$$$
CHEMBL3675333
     RDKit          3D

  0  0  0  0  0  0  0  0  0  0999 V3000
M  V30 BEGIN CTAB
M  V30 COUNTS 35 37 0 0 0
M  V30 BEGIN ATOM
M  V30 1 N -0.377965 -2.515521 5.017653 0
M  V30 2 C -0.370285 -3.602360 4.094888 0
M  V30 3 O -0.663830 -4.778161 4.478257 0
M  V30 4 C -0.025894 -3.389683 2.692205 0
M  V30 5 C -0.032715 -4.466832 1.843650 0
M  V30 6 C 0.295201 -4.237190 0.530247 0
M  V30 7 C 0.614780 -2.964527 0.106907 0
M  V30 8 C 0.629981 -1.863956 0.936235 0
M  V30 9 C 0.954061 -0.603834 0.481921 0
M  V30 10 N 1.293463 -0.370173 -0.864344 0
M  V30 11 C 1.647401 0.907456 -1.449101 0
M  V30 12 C 0.552094 1.905438 -1.381039 0
M  V30 13 C 0.245034 2.887809 -0.472939 0
M  V30 14 C -0.862821 3.674994 -0.659830 0
M  V30 15 C -1.711998 3.539746 -1.731573 0
M  V30 16 C -1.411426 2.547399 -2.659841 0
M  V30 17 C -0.284400 1.742535 -2.474457 0
M  V30 18 N 0.935300 0.387550 1.377354 0
M  V30 19 C 0.612807 0.131638 2.644466 0
M  V30 20 N 0.288472 -1.100844 3.122538 0
M  V30 21 C 0.296975 -2.134463 2.239555 0
M  V30 22 H 0.194711 -2.129936 5.803961 0
M  V30 23 H -1.280640 -2.061929 4.685357 0
M  V30 24 H -0.287169 -5.442967 2.211102 0
M  V30 25 H 0.286058 -5.100571 -0.133070 0
M  V30 26 H 0.852711 -2.892408 -0.923435 0
M  V30 27 H 1.321388 -1.107038 -1.581713 0
M  V30 28 H 2.110398 0.842799 -2.431862 0
M  V30 29 H 2.446578 1.329678 -0.758941 0
M  V30 30 H 0.960752 2.932877 0.329441 0
M  V30 31 H -1.040461 4.431251 0.102184 0
M  V30 32 H -2.554056 4.207954 -1.785766 0
M  V30 33 H -2.110057 2.484877 -3.480605 0
M  V30 34 H -0.213504 1.034143 -3.289737 0
M  V30 35 H 0.583217 0.902796 3.409625 0
M  V30 END ATOM
M  V30 BEGIN BOND
M  V30 1 1 1 2
M  V30 2 2 2 3
M  V30 3 1 2 4
M  V30 4 2 4 5
M  V30 5 1 5 6
M  V30 6 2 6 7
M  V30 7 1 7 8
M  V30 8 2 8 9
M  V30 9 1 9 10
M  V30 10 1 10 11
M  V30 11 1 11 12
M  V30 12 2 12 13
M  V30 13 1 13 14
M  V30 14 2 14 15
M  V30 15 1 15 16
M  V30 16 2 16 17
M  V30 17 1 9 18
M  V30 18 2 18 19
M  V30 19 1 19 20
M  V30 20 2 20 21
M  V30 21 1 21 4
M  V30 22 1 21 8
M  V30 23 1 17 12
M  V30 24 1 1 22
M  V30 25 1 1 23
M  V30 26 1 5 24
M  V30 27 1 6 25
M  V30 28 1 7 26
M  V30 29 1 10 27
M  V30 30 1 11 28
M  V30 31 1 11 29
M  V30 32 1 13 30
M  V30 33 1 14 31
M  V30 34 1 15 32
M  V30 35 1 16 33
M  V30 36 1 17 34
M  V30 37 1 19 35
M  V30 END BOND
M  V30 END CTAB
M  END
>  <Dataset>  (810) 
ChEMBL_Kinases

>  <Ligand_Instance>  (810) 
nan

>  <PDB_ID>  (810) 
nan

>  <Standardized_SMILES>  (810) 
NC(=O)c1cccc2c(NCc3ccccc3)ncnc12

>  <Name>  (810) 
nan

>  <Pocket>  (810) 
nan

>  <ATP_Site>  (810) 
nan

>  <Peripheral>  (810) 
nan

>  <Num_H_Atoms_ProtBoundConf>  (810) 
nan

>  <Num_Resolved_Atoms>  (810) 
nan

>  <Num_Not_Resolved_Atoms>  (810) 
nan

$$$$
CHEMBL4164433
     RDKit          3D

  0  0  0  0  0  0  0  0  0  0999 V3000
M  V30 BEGIN CTAB
M  V30 COUNTS 57 61 0 0 0
M  V30 BEGIN ATOM
M  V30 1 C 2.064832 -2.843629 3.342257 0
M  V30 2 C 2.333106 -3.991537 2.380174 0
M  V30 3 C 2.990916 -3.492842 1.127968 0
M  V30 4 C 4.297858 -2.827084 1.401588 0
M  V30 5 O 5.324356 -3.546417 1.398764 0
M  V30 6 N 4.390205 -1.436152 1.656469 0
M  V30 7 C 5.562822 -0.845379 2.247032 0
M  V30 8 C 3.298494 -0.588226 1.323339 0
M  V30 9 C 3.390798 0.759339 1.571503 0
M  V30 10 N 2.332099 1.519684 1.238865 0
M  V30 11 C 1.218809 1.044526 0.691483 0
M  V30 12 N 0.148733 1.927736 0.373038 0
M  V30 13 C 0.265384 3.260370 0.223955 0
M  V30 14 C -0.939750 3.857676 -0.083606 0
M  V30 15 C -1.840213 2.811549 -0.121443 0
M  V30 16 C -3.216306 2.811469 -0.384913 0
M  V30 17 C -3.877608 1.599888 -0.355692 0
M  V30 18 C -5.310232 1.638683 -0.635002 0
M  V30 19 O -5.845717 2.741599 -0.879350 0
M  V30 20 N -6.171645 0.519858 -0.656091 0
M  V30 21 C -7.525867 0.871029 -0.960555 0
M  V30 22 C -3.222847 0.416788 -0.078150 0
M  V30 23 C -1.847955 0.453675 0.180356 0
M  V30 24 C -1.151559 1.647956 0.160079 0
M  V30 25 N 1.110886 -0.291198 0.438507 0
M  V30 26 C 2.143958 -1.122221 0.749283 0
M  V30 27 N 2.088753 -2.530495 0.507517 0
M  V30 28 C 1.100211 -3.033402 -0.388690 0
M  V30 29 C 0.876923 -4.353807 -0.758447 0
M  V30 30 C -0.177919 -4.425473 -1.650293 0
M  V30 31 N -0.569607 -3.127370 -1.797787 0
M  V30 32 C -1.689055 -2.827581 -2.692129 0
M  V30 33 N 0.173259 -2.332032 -1.066433 0
M  V30 34 H 1.362195 -2.151575 2.848653 0
M  V30 35 H 1.644589 -3.219448 4.282872 0
M  V30 36 H 3.044526 -2.385272 3.585075 0
M  V30 37 H 2.892519 -4.789043 2.891513 0
M  V30 38 H 1.355613 -4.420308 2.076674 0
M  V30 39 H 3.122141 -4.348823 0.435008 0
M  V30 40 H 5.899933 0.056770 1.671680 0
M  V30 41 H 5.382998 -0.524144 3.299205 0
M  V30 42 H 6.426403 -1.540471 2.274060 0
M  V30 43 H 4.261351 1.222900 2.013798 0
M  V30 44 H 1.205252 3.791823 0.335547 0
M  V30 45 H -1.092128 4.920036 -0.249437 0
M  V30 46 H -3.705536 3.765478 -0.601297 0
M  V30 47 H -5.747762 -0.423111 -0.453679 0
M  V30 48 H -8.167232 0.010020 -1.191419 0
M  V30 49 H -8.012981 1.483729 -0.174755 0
M  V30 50 H -7.541289 1.508528 -1.892622 0
M  V30 51 H -3.749131 -0.524008 -0.057905 0
M  V30 52 H -1.297492 -0.447516 0.401663 0
M  V30 53 H 1.435897 -5.224918 -0.411883 0
M  V30 54 H -0.552727 -5.320356 -2.087733 0
M  V30 55 H -1.960877 -1.759314 -2.559733 0
M  V30 56 H -2.538051 -3.518593 -2.510415 0
M  V30 57 H -1.332316 -2.943114 -3.737378 0
M  V30 END ATOM
M  V30 BEGIN BOND
M  V30 1 1 1 2
M  V30 2 1 2 3
M  V30 3 1 3 4
M  V30 4 2 4 5
M  V30 5 1 4 6
M  V30 6 1 6 7
M  V30 7 1 6 8
M  V30 8 2 8 9
M  V30 9 1 9 10
M  V30 10 2 10 11
M  V30 11 1 11 12
M  V30 12 1 12 13
M  V30 13 2 13 14
M  V30 14 1 14 15
M  V30 15 2 15 16
M  V30 16 1 16 17
M  V30 17 1 17 18
M  V30 18 2 18 19
M  V30 19 1 18 20
M  V30 20 1 20 21
M  V30 21 2 17 22
M  V30 22 1 22 23
M  V30 23 2 23 24
M  V30 24 1 11 25
M  V30 25 2 25 26
M  V30 26 1 26 27
M  V30 27 1 27 28
M  V30 28 1 28 29
M  V30 29 2 29 30
M  V30 30 1 30 31
M  V30 31 1 31 32
M  V30 32 1 31 33
M  V30 33 1 27 3
M  V30 34 2 33 28
M  V30 35 1 26 8
M  V30 36 1 24 12
M  V30 37 1 24 15
M  V30 38 1 1 34
M  V30 39 1 1 35
M  V30 40 1 1 36
M  V30 41 1 2 37
M  V30 42 1 2 38
M  V30 43 1 3 39
M  V30 44 1 7 40
M  V30 45 1 7 41
M  V30 46 1 7 42
M  V30 47 1 9 43
M  V30 48 1 13 44
M  V30 49 1 14 45
M  V30 50 1 16 46
M  V30 51 1 20 47
M  V30 52 1 21 48
M  V30 53 1 21 49
M  V30 54 1 21 50
M  V30 55 1 22 51
M  V30 56 1 23 52
M  V30 57 1 29 53
M  V30 58 1 30 54
M  V30 59 1 32 55
M  V30 60 1 32 56
M  V30 61 1 32 57
M  V30 END BOND
M  V30 END CTAB
M  END
>  <Dataset>  (811) 
ChEMBL_Kinases

>  <Ligand_Instance>  (811) 
nan

>  <PDB_ID>  (811) 
nan

>  <Standardized_SMILES>  (811) 
CCC1C(=O)N(C)c2cnc(-n3ccc4cc(C(=O)NC)ccc43)nc2N1c1ccn(C)n1

>  <Name>  (811) 
nan

>  <Pocket>  (811) 
nan

>  <ATP_Site>  (811) 
nan

>  <Peripheral>  (811) 
nan

>  <Num_H_Atoms_ProtBoundConf>  (811) 
nan

>  <Num_Resolved_Atoms>  (811) 
nan

>  <Num_Not_Resolved_Atoms>  (811) 
nan

$$$$
CHEMBL4175679
     RDKit          3D

  0  0  0  0  0  0  0  0  0  0999 V3000
M  V30 BEGIN CTAB
M  V30 COUNTS 54 58 0 0 0
M  V30 BEGIN ATOM
M  V30 1 C -2.874249 -2.976622 5.459986 0
M  V30 2 C -1.958845 -3.304346 4.333406 0
M  V30 3 C -0.714695 -2.796366 3.965224 0
M  V30 4 C -0.292783 -3.478382 2.817523 0
M  V30 5 N 0.976171 -3.036200 2.347097 0
M  V30 6 C 1.193776 -2.073773 1.305584 0
M  V30 7 C 1.212239 -0.718450 1.543309 0
M  V30 8 C 1.427556 0.225975 0.536942 0
M  V30 9 N 1.429332 1.633807 0.772888 0
M  V30 10 C 1.956804 2.538122 -0.228075 0
M  V30 11 C 1.214406 3.828208 -0.154980 0
M  V30 12 N 1.180612 4.298145 1.188888 0
M  V30 13 C 2.411424 4.773251 1.728321 0
M  V30 14 C 0.430300 3.457340 2.081355 0
M  V30 15 C 0.862731 2.022581 2.048340 0
M  V30 16 N 1.621667 -0.210921 -0.698637 0
M  V30 17 C 1.611794 -1.530544 -0.977897 0
M  V30 18 N 1.761888 -2.271677 -2.193171 0
M  V30 19 C 0.500302 -2.650689 -2.765625 0
M  V30 20 C 0.433442 -3.407439 -3.917262 0
M  V30 21 C -0.783008 -3.783630 -4.470200 0
M  V30 22 C -1.982851 -3.420245 -3.897451 0
M  V30 23 C -1.952641 -2.664302 -2.747457 0
M  V30 24 C -0.725881 -2.316998 -2.238373 0
M  V30 25 O -3.259069 -2.403724 -2.330516 0
M  V30 26 C -4.123018 -3.061635 -3.237081 0
M  V30 27 O -3.294965 -3.638426 -4.206257 0
M  V30 28 N 1.401855 -2.428662 0.009364 0
M  V30 29 N -1.276345 -4.351213 2.544589 0
M  V30 30 N -2.251315 -4.265500 3.411327 0
M  V30 31 H -3.581880 -2.160019 5.218423 0
M  V30 32 H -3.397456 -3.873397 5.824421 0
M  V30 33 H -2.209966 -2.586291 6.272916 0
M  V30 34 H -0.334740 -2.016216 4.601332 0
M  V30 35 H 1.943199 -3.325534 2.666146 0
M  V30 36 H 1.050486 -0.352621 2.571881 0
M  V30 37 H 1.880715 2.066257 -1.233119 0
M  V30 38 H 3.049519 2.669763 0.013783 0
M  V30 39 H 1.639311 4.622741 -0.801240 0
M  V30 40 H 0.157625 3.613630 -0.470106 0
M  V30 41 H 2.571979 4.496267 2.789413 0
M  V30 42 H 3.325631 4.420393 1.174901 0
M  V30 43 H 2.471164 5.896556 1.691344 0
M  V30 44 H -0.634710 3.493700 1.766454 0
M  V30 45 H 0.508702 3.834330 3.109592 0
M  V30 46 H -0.025667 1.374649 2.227372 0
M  V30 47 H 1.599656 1.786483 2.832199 0
M  V30 48 H 2.621401 -2.562624 -2.699586 0
M  V30 49 H 1.359872 -3.712124 -4.391929 0
M  V30 50 H -0.844447 -4.388934 -5.388962 0
M  V30 51 H -0.746336 -1.720699 -1.332259 0
M  V30 52 H -4.698506 -3.869054 -2.725019 0
M  V30 53 H -4.851886 -2.345645 -3.684643 0
M  V30 54 H -3.099342 -4.872750 3.344223 0
M  V30 END ATOM
M  V30 BEGIN BOND
M  V30 1 1 1 2
M  V30 2 2 2 3
M  V30 3 1 3 4
M  V30 4 1 4 5
M  V30 5 1 5 6
M  V30 6 2 6 7
M  V30 7 1 7 8
M  V30 8 1 8 9
M  V30 9 1 9 10
M  V30 10 1 10 11
M  V30 11 1 11 12
M  V30 12 1 12 13
M  V30 13 1 12 14
M  V30 14 1 14 15
M  V30 15 2 8 16
M  V30 16 1 16 17
M  V30 17 1 17 18
M  V30 18 1 18 19
M  V30 19 2 19 20
M  V30 20 1 20 21
M  V30 21 2 21 22
M  V30 22 1 22 23
M  V30 23 2 23 24
M  V30 24 1 23 25
M  V30 25 1 25 26
M  V30 26 1 26 27
M  V30 27 2 17 28
M  V30 28 2 4 29
M  V30 29 1 29 30
M  V30 30 1 30 2
M  V30 31 1 28 6
M  V30 32 1 15 9
M  V30 33 1 24 19
M  V30 34 1 27 22
M  V30 35 1 1 31
M  V30 36 1 1 32
M  V30 37 1 1 33
M  V30 38 1 3 34
M  V30 39 1 5 35
M  V30 40 1 7 36
M  V30 41 1 10 37
M  V30 42 1 10 38
M  V30 43 1 11 39
M  V30 44 1 11 40
M  V30 45 1 13 41
M  V30 46 1 13 42
M  V30 47 1 13 43
M  V30 48 1 14 44
M  V30 49 1 14 45
M  V30 50 1 15 46
M  V30 51 1 15 47
M  V30 52 1 18 48
M  V30 53 1 20 49
M  V30 54 1 21 50
M  V30 55 1 24 51
M  V30 56 1 26 52
M  V30 57 1 26 53
M  V30 58 1 30 54
M  V30 END BOND
M  V30 END CTAB
M  END
>  <Dataset>  (812) 
ChEMBL_Kinases

>  <Ligand_Instance>  (812) 
nan

>  <PDB_ID>  (812) 
nan

>  <Standardized_SMILES>  (812) 
Cc1cc(Nc2cc(N3CCN(C)CC3)nc(Nc3ccc4c(c3)OCO4)n2)n[nH]1

>  <Name>  (812) 
nan

>  <Pocket>  (812) 
nan

>  <ATP_Site>  (812) 
nan

>  <Peripheral>  (812) 
nan

>  <Num_H_Atoms_ProtBoundConf>  (812) 
nan

>  <Num_Resolved_Atoms>  (812) 
nan

>  <Num_Not_Resolved_Atoms>  (812) 
nan

$$$$
CHEMBL3675398
     RDKit          3D

  0  0  0  0  0  0  0  0  0  0999 V3000
M  V30 BEGIN CTAB
M  V30 COUNTS 57 60 0 0 0
M  V30 BEGIN ATOM
M  V30 1 C 1.331053 -3.920337 3.858803 0
M  V30 2 N 2.480306 -3.105344 3.697000 0
M  V30 3 C 2.819253 -2.633183 2.423000 0
M  V30 4 C 1.982767 -1.621489 1.755122 0
M  V30 5 N 1.853445 -0.355994 2.478272 0
M  V30 6 C 1.080643 0.693098 1.912757 0
M  V30 7 N 0.488971 0.498940 0.721768 0
M  V30 8 C -0.263192 1.413456 0.086583 0
M  V30 9 N -0.457911 2.617910 0.653114 0
M  V30 10 C 0.123459 2.837575 1.845469 0
M  V30 11 C -0.102007 4.098355 2.403806 0
M  V30 12 C -0.906515 5.087009 1.723688 0
M  V30 13 N -1.457779 4.760236 0.452960 0
M  V30 14 O -1.209381 6.236365 2.090186 0
M  V30 15 C 0.488080 4.332215 3.625244 0
M  V30 16 C 1.274135 3.409087 4.314859 0
M  V30 17 C 1.475407 2.170474 3.729856 0
M  V30 18 C 0.901350 1.915814 2.521109 0
M  V30 19 C 0.687478 -2.136877 1.310401 0
M  V30 20 C -0.480918 -2.127018 2.045554 0
M  V30 21 C -1.711397 -2.600182 1.648757 0
M  V30 22 C -1.797033 -3.140517 0.392574 0
M  V30 23 C -0.677419 -3.183688 -0.394553 0
M  V30 24 N -0.910678 -3.770404 -1.689176 0
M  V30 25 C -1.279890 -2.653856 -2.526842 0
M  V30 26 O -1.288802 -1.556843 -1.918436 0
M  V30 27 C -1.623477 -2.719429 -3.951841 0
M  V30 28 C -1.931998 -1.501356 -4.512599 0
M  V30 29 C -2.273120 -1.472786 -5.867045 0
M  V30 30 C -2.288012 -2.647890 -6.580753 0
M  V30 31 F -2.629533 -2.550378 -7.901557 0
M  V30 32 C -1.970573 -3.844768 -5.972292 0
M  V30 33 F -2.008111 -4.962146 -6.742272 0
M  V30 34 C -1.628620 -3.913233 -4.638109 0
M  V30 35 C 0.536962 -2.699319 0.039730 0
M  V30 36 H 1.615925 -4.772666 4.559460 0
M  V30 37 H 0.968422 -4.428656 2.937542 0
M  V30 38 H 0.512748 -3.411939 4.416332 0
M  V30 39 H 3.229030 -3.226457 4.391964 0
M  V30 40 H 2.945727 -3.527752 1.743365 0
M  V30 41 H 3.884820 -2.237706 2.487876 0
M  V30 42 H 2.510614 -1.296230 0.794115 0
M  V30 43 H 2.367119 -0.350961 3.381505 0
M  V30 44 H -0.661941 1.081918 -0.867729 0
M  V30 45 H -2.470049 4.742531 0.122821 0
M  V30 46 H -2.414252 4.703649 0.011327 0
M  V30 47 H 0.304166 5.325988 4.054502 0
M  V30 48 H 1.711069 3.654802 5.272834 0
M  V30 49 H 2.071286 1.443959 4.232329 0
M  V30 50 H -0.439744 -1.704005 3.042731 0
M  V30 51 H -2.571086 -2.548406 2.295852 0
M  V30 52 H -2.771176 -3.511003 0.088725 0
M  V30 53 H -0.894608 -4.710020 -2.177529 0
M  V30 54 H -1.933842 -0.554164 -3.998126 0
M  V30 55 H -2.521473 -0.522556 -6.337273 0
M  V30 56 H -1.377869 -4.844685 -4.152749 0
M  V30 57 H 1.370184 -2.772890 -0.643920 0
M  V30 END ATOM
M  V30 BEGIN BOND
M  V30 1 1 1 2
M  V30 2 1 2 3
M  V30 3 1 3 4
M  V30 4 1 4 5
M  V30 5 1 5 6
M  V30 6 2 6 7
M  V30 7 1 7 8
M  V30 8 2 8 9
M  V30 9 1 9 10
M  V30 10 2 10 11
M  V30 11 1 11 12
M  V30 12 1 12 13
M  V30 13 2 12 14
M  V30 14 1 11 15
M  V30 15 2 15 16
M  V30 16 1 16 17
M  V30 17 2 17 18
M  V30 18 1 4 19
M  V30 19 2 19 20
M  V30 20 1 20 21
M  V30 21 2 21 22
M  V30 22 1 22 23
M  V30 23 1 23 24
M  V30 24 1 24 25
M  V30 25 2 25 26
M  V30 26 1 25 27
M  V30 27 2 27 28
M  V30 28 1 28 29
M  V30 29 2 29 30
M  V30 30 1 30 31
M  V30 31 1 30 32
M  V30 32 1 32 33
M  V30 33 2 32 34
M  V30 34 2 23 35
M  V30 35 1 18 6
M  V30 36 1 35 19
M  V30 37 1 18 10
M  V30 38 1 34 27
M  V30 39 1 1 36
M  V30 40 1 1 37
M  V30 41 1 1 38
M  V30 42 1 2 39
M  V30 43 1 3 40
M  V30 44 1 3 41
M  V30 45 1 4 42
M  V30 46 1 5 43
M  V30 47 1 8 44
M  V30 48 1 13 45
M  V30 49 1 13 46
M  V30 50 1 15 47
M  V30 51 1 16 48
M  V30 52 1 17 49
M  V30 53 1 20 50
M  V30 54 1 21 51
M  V30 55 1 22 52
M  V30 56 1 24 53
M  V30 57 1 28 54
M  V30 58 1 29 55
M  V30 59 1 34 56
M  V30 60 1 35 57
M  V30 END BOND
M  V30 END CTAB
M  END
>  <Dataset>  (813) 
ChEMBL_Kinases

>  <Ligand_Instance>  (813) 
nan

>  <PDB_ID>  (813) 
nan

>  <Standardized_SMILES>  (813) 
CNCC(Nc1ncnc2c(C(N)=O)cccc12)c1cccc(NC(=O)c2ccc(F)c(F)c2)c1

>  <Name>  (813) 
nan

>  <Pocket>  (813) 
nan

>  <ATP_Site>  (813) 
nan

>  <Peripheral>  (813) 
nan

>  <Num_H_Atoms_ProtBoundConf>  (813) 
nan

>  <Num_Resolved_Atoms>  (813) 
nan

>  <Num_Not_Resolved_Atoms>  (813) 
nan

$$$$
CHEMBL4175638
     RDKit          3D

  0  0  0  0  0  0  0  0  0  0999 V3000
M  V30 BEGIN CTAB
M  V30 COUNTS 68 72 0 0 0
M  V30 BEGIN ATOM
M  V30 1 C 5.588398 -0.588117 5.565290 0
M  V30 2 N 4.770452 -1.443478 4.762823 0
M  V30 3 C 3.836657 -2.228708 5.509217 0
M  V30 4 C 5.489266 -2.197283 3.771072 0
M  V30 5 C 6.201827 -1.357275 2.799262 0
M  V30 6 C 7.500623 -0.981927 3.062706 0
M  V30 7 C 8.143568 -0.195355 2.134999 0
M  V30 8 C 7.516721 0.208310 0.977893 0
M  V30 9 C 6.232079 -0.140289 0.677566 0
M  V30 10 N 5.641064 0.305076 -0.529196 0
M  V30 11 C 4.366807 0.095853 -1.061173 0
M  V30 12 O 3.551094 -0.595672 -0.413000 0
M  V30 13 N 3.900878 0.606159 -2.295956 0
M  V30 14 C 2.544910 0.255576 -2.634000 0
M  V30 15 C 2.181745 -0.874227 -3.343536 0
M  V30 16 C 0.830033 -1.079158 -3.594402 0
M  V30 17 C -0.099237 -0.167658 -3.137999 0
M  V30 18 C -1.513456 -0.446730 -3.438011 0
M  V30 19 C -2.158948 -1.276602 -2.330873 0
M  V30 20 N -3.505314 -1.606713 -2.505735 0
M  V30 21 C -4.886237 -1.967189 -2.721265 0
M  V30 22 N -5.378220 -2.661261 -3.738135 0
M  V30 23 C -6.664081 -2.951563 -3.867869 0
M  V30 24 N -7.482628 -2.512818 -2.915691 0
M  V30 25 C -7.069310 -1.807945 -1.859150 0
M  V30 26 O -7.780490 -1.331666 -0.873830 0
M  V30 27 C -7.006674 -0.691232 -0.022782 0
M  V30 28 C -7.553617 -0.067496 1.161981 0
M  V30 29 C -8.901189 -0.138956 1.406958 0
M  V30 30 C -9.507483 0.428484 2.515813 0
M  V30 31 C -8.739190 1.102576 3.431003 0
M  V30 32 C -7.378015 1.210595 3.243369 0
M  V30 33 C -6.849433 0.620622 2.117895 0
M  V30 34 C -5.748025 -0.805128 -0.556433 0
M  V30 35 Cl -4.329517 -0.128528 0.180245 0
M  V30 36 C -5.728469 -1.510902 -1.733475 0
M  V30 37 C 0.282740 0.958840 -2.428690 0
M  V30 38 C 1.629546 1.178682 -2.169422 0
M  V30 39 C 5.622459 -0.925155 1.625853 0
M  V30 40 H 5.757061 0.370421 5.040821 0
M  V30 41 H 5.028984 -0.336471 6.508711 0
M  V30 42 H 6.576111 -1.035363 5.809447 0
M  V30 43 H 3.438810 -1.602788 6.332494 0
M  V30 44 H 4.361660 -3.094201 5.968530 0
M  V30 45 H 2.988303 -2.536339 4.868179 0
M  V30 46 H 6.244755 -2.805909 4.350451 0
M  V30 47 H 4.822626 -2.941897 3.316068 0
M  V30 48 H 8.065125 -1.254673 3.943854 0
M  V30 49 H 9.159697 0.131348 2.283365 0
M  V30 50 H 8.074772 0.837813 0.266259 0
M  V30 51 H 6.226492 0.902630 -1.172383 0
M  V30 52 H 4.554619 1.188276 -2.865730 0
M  V30 53 H 2.995032 -1.538488 -3.663280 0
M  V30 54 H 0.562187 -1.977117 -4.156252 0
M  V30 55 H -2.013928 0.510104 -3.577537 0
M  V30 56 H -1.615558 -1.033523 -4.365774 0
M  V30 57 H -2.039716 -0.647336 -1.384576 0
M  V30 58 H -1.507844 -2.165772 -2.072577 0
M  V30 59 H -3.107696 -2.072800 -3.383230 0
M  V30 60 H -6.966989 -3.521197 -4.730138 0
M  V30 61 H -9.605804 -0.654895 0.738010 0
M  V30 62 H -10.575928 0.357552 2.685436 0
M  V30 63 H -9.213120 1.542623 4.291845 0
M  V30 64 H -6.759826 1.738037 3.954818 0
M  V30 65 H -5.782679 0.728699 2.009733 0
M  V30 66 H -0.519961 1.626744 -2.105580 0
M  V30 67 H 1.877028 2.067470 -1.614835 0
M  V30 68 H 4.607230 -1.255556 1.485314 0
M  V30 END ATOM
M  V30 BEGIN BOND
M  V30 1 1 1 2
M  V30 2 1 2 3
M  V30 3 1 2 4
M  V30 4 1 4 5
M  V30 5 2 5 6
M  V30 6 1 6 7
M  V30 7 2 7 8
M  V30 8 1 8 9
M  V30 9 1 9 10
M  V30 10 1 10 11
M  V30 11 2 11 12
M  V30 12 1 11 13
M  V30 13 1 13 14
M  V30 14 2 14 15
M  V30 15 1 15 16
M  V30 16 2 16 17
M  V30 17 1 17 18
M  V30 18 1 18 19
M  V30 19 1 19 20
M  V30 20 1 20 21
M  V30 21 2 21 22
M  V30 22 1 22 23
M  V30 23 2 23 24
M  V30 24 1 24 25
M  V30 25 1 25 26
M  V30 26 1 26 27
M  V30 27 1 27 28
M  V30 28 2 28 29
M  V30 29 1 29 30
M  V30 30 2 30 31
M  V30 31 1 31 32
M  V30 32 2 32 33
M  V30 33 2 27 34
M  V30 34 1 34 35
M  V30 35 1 34 36
M  V30 36 1 17 37
M  V30 37 2 37 38
M  V30 38 2 9 39
M  V30 39 1 39 5
M  V30 40 1 38 14
M  V30 41 1 36 21
M  V30 42 2 36 25
M  V30 43 1 33 28
M  V30 44 1 1 40
M  V30 45 1 1 41
M  V30 46 1 1 42
M  V30 47 1 3 43
M  V30 48 1 3 44
M  V30 49 1 3 45
M  V30 50 1 4 46
M  V30 51 1 4 47
M  V30 52 1 6 48
M  V30 53 1 7 49
M  V30 54 1 8 50
M  V30 55 1 10 51
M  V30 56 1 13 52
M  V30 57 1 15 53
M  V30 58 1 16 54
M  V30 59 1 18 55
M  V30 60 1 18 56
M  V30 61 1 19 57
M  V30 62 1 19 58
M  V30 63 1 20 59
M  V30 64 1 23 60
M  V30 65 1 29 61
M  V30 66 1 30 62
M  V30 67 1 31 63
M  V30 68 1 32 64
M  V30 69 1 33 65
M  V30 70 1 37 66
M  V30 71 1 38 67
M  V30 72 1 39 68
M  V30 END BOND
M  V30 END CTAB
M  END
>  <Dataset>  (814) 
ChEMBL_Kinases

>  <Ligand_Instance>  (814) 
nan

>  <PDB_ID>  (814) 
nan

>  <Standardized_SMILES>  (814) 
CN(C)Cc1cccc(NC(=O)Nc2ccc(CCNc3ncnc4oc(-c5ccccc5)c(Cl)c34)cc2)c1

>  <Name>  (814) 
nan

>  <Pocket>  (814) 
nan

>  <ATP_Site>  (814) 
nan

>  <Peripheral>  (814) 
nan

>  <Num_H_Atoms_ProtBoundConf>  (814) 
nan

>  <Num_Resolved_Atoms>  (814) 
nan

>  <Num_Not_Resolved_Atoms>  (814) 
nan

$$$$
CHEMBL3675397
     RDKit          3D

  0  0  0  0  0  0  0  0  0  0999 V3000
M  V30 BEGIN CTAB
M  V30 COUNTS 44 46 0 0 0
M  V30 BEGIN ATOM
M  V30 1 C 1.134788 -5.750570 -0.983320 0
M  V30 2 O 0.703143 -4.548239 -0.418610 0
M  V30 3 C 1.268757 -3.311806 -0.717791 0
M  V30 4 C 2.313744 -3.282680 -1.624057 0
M  V30 5 C 2.856247 -2.043505 -1.902672 0
M  V30 6 C 3.964135 -1.946666 -2.853147 0
M  V30 7 N 4.531431 -0.672379 -3.147694 0
M  V30 8 O 4.394563 -2.999412 -3.393486 0
M  V30 9 C 2.361185 -0.906861 -1.292997 0
M  V30 10 N 2.927986 0.290368 -1.599366 0
M  V30 11 C 2.417755 1.393737 -0.981681 0
M  V30 12 N 1.399319 1.314330 -0.106438 0
M  V30 13 C 0.802454 0.158743 0.232658 0
M  V30 14 N -0.271257 0.140688 1.161780 0
M  V30 15 C -0.725872 1.391263 1.756785 0 CFG=2
M  V30 16 C 0.335444 2.084036 2.571209 0
M  V30 17 N -0.307743 3.306391 3.080939 0
M  V30 18 C -1.972569 1.261234 2.516357 0
M  V30 19 C -1.990885 0.143964 3.351705 0
M  V30 20 C -3.103531 -0.121491 4.139984 0
M  V30 21 C -4.224110 0.712255 4.120237 0
M  V30 22 C -4.170935 1.815880 3.276422 0
M  V30 23 C -3.074444 2.094491 2.487017 0
M  V30 24 C 1.314940 -0.960921 -0.389543 0
M  V30 25 C 0.780405 -2.181240 -0.114914 0
M  V30 26 H 0.293587 -6.487768 -0.870216 0
M  V30 27 H 2.024210 -6.139988 -0.434929 0
M  V30 28 H 1.302129 -5.606552 -2.060180 0
M  V30 29 H 2.733906 -4.154993 -2.127005 0
M  V30 30 H 5.345163 -0.595535 -2.473297 0
M  V30 31 H 5.350220 -0.175441 -2.731971 0
M  V30 32 H 2.760661 2.412541 -1.120870 0
M  V30 33 H -0.794111 -0.678758 1.484791 0
M  V30 34 H -0.952464 2.114829 0.915466 0
M  V30 35 H 1.169754 2.430100 1.963846 0
M  V30 36 H 0.619418 1.526623 3.483661 0
M  V30 37 H -0.894254 3.140046 3.905147 0
M  V30 38 H 0.320206 4.116541 3.097331 0
M  V30 39 H -1.212476 -0.601008 3.487950 0
M  V30 40 H -3.191394 -0.971848 4.815120 0
M  V30 41 H -5.091815 0.503771 4.736068 0
M  V30 42 H -5.021350 2.482008 3.236763 0
M  V30 43 H -2.990274 2.935300 1.820912 0
M  V30 44 H -0.038182 -2.302298 0.579625 0
M  V30 END ATOM
M  V30 BEGIN BOND
M  V30 1 1 1 2
M  V30 2 1 2 3
M  V30 3 2 3 4
M  V30 4 1 4 5
M  V30 5 1 5 6
M  V30 6 1 6 7
M  V30 7 2 6 8
M  V30 8 2 5 9
M  V30 9 1 9 10
M  V30 10 2 10 11
M  V30 11 1 11 12
M  V30 12 2 12 13
M  V30 13 1 13 14
M  V30 14 1 14 15
M  V30 15 1 15 16
M  V30 16 1 16 17
M  V30 17 1 15 18
M  V30 18 2 18 19
M  V30 19 1 19 20
M  V30 20 2 20 21
M  V30 21 1 21 22
M  V30 22 2 22 23
M  V30 23 1 13 24
M  V30 24 2 24 25
M  V30 25 1 25 3
M  V30 26 1 24 9
M  V30 27 1 23 18
M  V30 28 1 1 26
M  V30 29 1 1 27
M  V30 30 1 1 28
M  V30 31 1 4 29
M  V30 32 1 7 30
M  V30 33 1 7 31
M  V30 34 1 11 32
M  V30 35 1 14 33
M  V30 36 1 15 34 CFG=3
M  V30 37 1 16 35
M  V30 38 1 16 36
M  V30 39 1 17 37
M  V30 40 1 17 38
M  V30 41 1 19 39
M  V30 42 1 20 40
M  V30 43 1 21 41
M  V30 44 1 22 42
M  V30 45 1 23 43
M  V30 46 1 25 44
M  V30 END BOND
M  V30 END CTAB
M  END
>  <Dataset>  (815) 
ChEMBL_Kinases

>  <Ligand_Instance>  (815) 
nan

>  <PDB_ID>  (815) 
nan

>  <Standardized_SMILES>  (815) 
COc1cc(C(N)=O)c2ncnc(N[C@H](CN)c3ccccc3)c2c1

>  <Name>  (815) 
nan

>  <Pocket>  (815) 
nan

>  <ATP_Site>  (815) 
nan

>  <Peripheral>  (815) 
nan

>  <Num_H_Atoms_ProtBoundConf>  (815) 
nan

>  <Num_Resolved_Atoms>  (815) 
nan

>  <Num_Not_Resolved_Atoms>  (815) 
nan

$$$$
CHEMBL3675396
     RDKit          3D

  0  0  0  0  0  0  0  0  0  0999 V3000
M  V30 BEGIN CTAB
M  V30 COUNTS 43 45 0 0 0
M  V30 BEGIN ATOM
M  V30 1 C 1.919459 -2.693999 3.836400 0
M  V30 2 N 0.569100 -3.036501 3.747346 0
M  V30 3 C -0.464835 -2.132243 3.555778 0
M  V30 4 C -0.684670 -1.498933 2.238712 0
M  V30 5 N 0.250122 -0.725683 1.643937 0
M  V30 6 C 1.240207 0.077567 1.021659 0
M  V30 7 N 2.602460 -0.218029 0.808692 0
M  V30 8 C 3.258720 0.769658 0.107620 0
M  V30 9 N 2.819908 1.885842 -0.361436 0
M  V30 10 C 1.498115 2.240395 -0.191936 0
M  V30 11 C 1.085869 3.428949 -0.697085 0
M  V30 12 C 1.920849 4.320997 -1.437119 0
M  V30 13 N 3.164127 3.654334 -1.866837 0
M  V30 14 O 2.551825 5.155864 -2.052365 0
M  V30 15 C -0.227473 3.753079 -0.491839 0
M  V30 16 C -1.045573 2.899357 0.187366 0
M  V30 17 C -0.500156 1.729789 0.640412 0
M  V30 18 C 0.832549 1.268090 0.504926 0
M  V30 19 C -1.275255 -2.551555 1.292929 0
M  V30 20 C -0.298605 -2.867138 0.349565 0
M  V30 21 C -0.513496 -3.753784 -0.679957 0
M  V30 22 C -1.759839 -4.378322 -0.804228 0
M  V30 23 Cl -2.117321 -5.498067 -2.094003 0
M  V30 24 C -2.682575 -4.027513 0.148081 0
M  V30 25 Cl -4.279358 -4.748237 0.093234 0
M  V30 26 C -2.498887 -3.163621 1.168406 0
M  V30 27 H 2.580296 -3.436866 3.317881 0
M  V30 28 H 2.287159 -1.703837 3.596897 0
M  V30 29 H 2.174969 -2.787305 4.965193 0
M  V30 30 H 0.392510 -4.005262 3.364407 0
M  V30 31 H -1.430838 -2.615592 3.926533 0
M  V30 32 H -0.326566 -1.328145 4.371980 0
M  V30 33 H -1.685146 -0.856821 2.369321 0
M  V30 34 H 0.845255 -1.578892 1.891633 0
M  V30 35 H 4.306194 0.402747 0.015903 0
M  V30 36 H 3.523213 2.954892 -2.598212 0
M  V30 37 H 3.952470 3.091440 -2.322776 0
M  V30 38 H -0.550151 4.683013 -0.883735 0
M  V30 39 H -2.070105 3.181253 0.329863 0
M  V30 40 H -1.213437 1.110329 1.155988 0
M  V30 41 H 0.748751 -2.514135 0.213680 0
M  V30 42 H 0.199365 -4.057566 -1.472769 0
M  V30 43 H -3.124240 -2.808929 1.978746 0
M  V30 END ATOM
M  V30 BEGIN BOND
M  V30 1 1 1 2
M  V30 2 1 2 3
M  V30 3 1 3 4
M  V30 4 1 4 5
M  V30 5 1 5 6
M  V30 6 2 6 7
M  V30 7 1 7 8
M  V30 8 2 8 9
M  V30 9 1 9 10
M  V30 10 2 10 11
M  V30 11 1 11 12
M  V30 12 1 12 13
M  V30 13 2 12 14
M  V30 14 1 11 15
M  V30 15 2 15 16
M  V30 16 1 16 17
M  V30 17 2 17 18
M  V30 18 1 4 19
M  V30 19 2 19 20
M  V30 20 1 20 21
M  V30 21 2 21 22
M  V30 22 1 22 23
M  V30 23 1 22 24
M  V30 24 1 24 25
M  V30 25 2 24 26
M  V30 26 1 18 6
M  V30 27 1 26 19
M  V30 28 1 18 10
M  V30 29 1 1 27
M  V30 30 1 1 28
M  V30 31 1 1 29
M  V30 32 1 2 30
M  V30 33 1 3 31
M  V30 34 1 3 32
M  V30 35 1 4 33
M  V30 36 1 5 34
M  V30 37 1 8 35
M  V30 38 1 13 36
M  V30 39 1 13 37
M  V30 40 1 15 38
M  V30 41 1 16 39
M  V30 42 1 17 40
M  V30 43 1 20 41
M  V30 44 1 21 42
M  V30 45 1 26 43
M  V30 END BOND
M  V30 END CTAB
M  END
>  <Dataset>  (816) 
ChEMBL_Kinases

>  <Ligand_Instance>  (816) 
nan

>  <PDB_ID>  (816) 
nan

>  <Standardized_SMILES>  (816) 
CNCC(Nc1ncnc2c(C(N)=O)cccc12)c1ccc(Cl)c(Cl)c1

>  <Name>  (816) 
nan

>  <Pocket>  (816) 
nan

>  <ATP_Site>  (816) 
nan

>  <Peripheral>  (816) 
nan

>  <Num_H_Atoms_ProtBoundConf>  (816) 
nan

>  <Num_Resolved_Atoms>  (816) 
nan

>  <Num_Not_Resolved_Atoms>  (816) 
nan

$$$$
CHEMBL3675395
     RDKit          3D

  0  0  0  0  0  0  0  0  0  0999 V3000
M  V30 BEGIN CTAB
M  V30 COUNTS 41 43 0 0 0
M  V30 BEGIN ATOM
M  V30 1 C -0.224824 -4.698555 2.001979 0
M  V30 2 N 0.565747 -3.758627 2.733028 0
M  V30 3 C 1.019697 -2.630638 2.002043 0
M  V30 4 C -0.013034 -1.646425 1.565119 0 CFG=2
M  V30 5 N 0.701632 -0.612292 0.843842 0
M  V30 6 C 0.657860 -0.505046 -0.412228 0
M  V30 7 N -0.091133 -1.381820 -1.236489 0
M  V30 8 C 0.011196 -1.062988 -2.617325 0
M  V30 9 N 0.647574 -0.145776 -3.247886 0
M  V30 10 C 1.450674 0.802142 -2.517083 0
M  V30 11 C 1.072153 2.219226 -2.757501 0
M  V30 12 C 1.786478 3.120726 -2.048824 0
M  V30 13 C 2.805421 2.447681 -1.175891 0
M  V30 14 C 2.107318 1.418346 -0.351670 0
M  V30 15 C 1.388934 0.547335 -1.070859 0
M  V30 16 C -0.626141 -0.878282 2.716019 0
M  V30 17 C -0.636347 -1.198203 4.044707 0
M  V30 18 C -1.259513 -0.369321 4.947520 0
M  V30 19 C -1.892929 0.798984 4.583744 0
M  V30 20 C -1.895393 1.142579 3.250785 0
M  V30 21 C -1.271315 0.310456 2.353350 0
M  V30 22 H -1.021566 -4.200200 1.453940 0
M  V30 23 H 0.402472 -5.347621 1.345342 0
M  V30 24 H -0.665645 -5.400460 2.755055 0
M  V30 25 H 1.385867 -4.228131 3.154278 0
M  V30 26 H 1.759463 -2.084537 2.611713 0
M  V30 27 H 1.544854 -2.967900 1.098591 0
M  V30 28 H -0.876664 -2.074884 1.069710 0
M  V30 29 H -0.637168 -2.157228 -0.851385 0
M  V30 30 H -0.551203 -1.703442 -3.321285 0
M  V30 31 H 2.506134 0.630715 -2.909089 0
M  V30 32 H 0.289112 2.574500 -3.441177 0
M  V30 33 H 1.519464 4.171164 -2.215304 0
M  V30 34 H 3.308520 3.122719 -0.484710 0
M  V30 35 H 3.576686 1.935220 -1.782706 0
M  V30 36 H 2.148477 1.342206 0.735681 0
M  V30 37 H -0.125266 -2.120300 4.270510 0
M  V30 38 H -1.245856 -0.659009 5.989289 0
M  V30 39 H -2.383166 1.459853 5.259490 0
M  V30 40 H -2.384582 2.061454 2.905092 0
M  V30 41 H -1.301158 0.630329 1.305668 0
M  V30 END ATOM
M  V30 BEGIN BOND
M  V30 1 1 1 2
M  V30 2 1 2 3
M  V30 3 1 3 4
M  V30 4 1 4 5
M  V30 5 2 5 6
M  V30 6 1 6 7
M  V30 7 1 7 8
M  V30 8 2 8 9
M  V30 9 1 9 10
M  V30 10 1 10 11
M  V30 11 2 11 12
M  V30 12 1 12 13
M  V30 13 1 13 14
M  V30 14 2 14 15
M  V30 15 1 4 16
M  V30 16 2 16 17
M  V30 17 1 17 18
M  V30 18 2 18 19
M  V30 19 1 19 20
M  V30 20 2 20 21
M  V30 21 1 15 6
M  V30 22 1 21 16
M  V30 23 1 15 10
M  V30 24 1 1 22
M  V30 25 1 1 23
M  V30 26 1 1 24
M  V30 27 1 2 25
M  V30 28 1 3 26
M  V30 29 1 3 27
M  V30 30 1 4 28 CFG=3
M  V30 31 1 7 29
M  V30 32 1 8 30
M  V30 33 1 10 31
M  V30 34 1 11 32
M  V30 35 1 12 33
M  V30 36 1 13 34
M  V30 37 1 13 35
M  V30 38 1 14 36
M  V30 39 1 17 37
M  V30 40 1 18 38
M  V30 41 1 19 39
M  V30 42 1 20 40
M  V30 43 1 21 41
M  V30 END BOND
M  V30 END CTAB
M  END
>  <Dataset>  (817) 
ChEMBL_Kinases

>  <Ligand_Instance>  (817) 
nan

>  <PDB_ID>  (817) 
nan

>  <Standardized_SMILES>  (817) 
CNC[C@H](/N=C1\NC=NC2C=CCC=C12)c1ccccc1

>  <Name>  (817) 
nan

>  <Pocket>  (817) 
nan

>  <ATP_Site>  (817) 
nan

>  <Peripheral>  (817) 
nan

>  <Num_H_Atoms_ProtBoundConf>  (817) 
nan

>  <Num_Resolved_Atoms>  (817) 
nan

>  <Num_Not_Resolved_Atoms>  (817) 
nan

$$$$
CHEMBL3675394
     RDKit          3D

  0  0  0  0  0  0  0  0  0  0999 V3000
M  V30 BEGIN CTAB
M  V30 COUNTS 49 51 0 0 0
M  V30 BEGIN ATOM
M  V30 1 C -0.334561 -0.474695 4.476922 0
M  V30 2 N 0.584012 -1.338397 3.798944 0
M  V30 3 C 1.761041 -0.685426 3.322648 0
M  V30 4 C -0.032925 -2.263487 2.894166 0
M  V30 5 C -0.654660 -1.577325 1.691264 0
M  V30 6 N 0.253234 -0.834125 0.900621 0
M  V30 7 C 1.155885 -0.096117 0.114711 0
M  V30 8 N 2.203109 -0.443266 -0.608767 0
M  V30 9 C 2.941399 0.421156 -1.313429 0
M  V30 10 N 2.572584 1.692401 -1.259131 0
M  V30 11 C 1.545654 2.200776 -0.579156 0
M  V30 12 C 1.342636 3.570363 -0.660032 0
M  V30 13 C 2.236803 4.417213 -1.487364 0
M  V30 14 N 3.269444 3.750632 -2.198380 0
M  V30 15 O 1.898342 5.646152 -1.406249 0
M  V30 16 C 0.265982 4.026499 0.074074 0
M  V30 17 C -0.514787 3.172370 0.807964 0
M  V30 18 C -0.252746 1.821457 0.841971 0
M  V30 19 C 0.812370 1.260829 0.135010 0
M  V30 20 C -1.337064 -2.639916 0.878256 0
M  V30 21 C -2.740075 -2.734877 0.824143 0
M  V30 22 C -3.338706 -3.737046 0.070154 0
M  V30 23 C -2.599587 -4.658127 -0.639002 0
M  V30 24 C -3.216172 -5.757475 -1.462393 0
M  V30 25 F -4.438656 -6.031217 -0.895741 0
M  V30 26 F -3.320446 -5.375433 -2.772919 0
M  V30 27 F -2.382583 -6.868400 -1.306513 0
M  V30 28 C -1.201848 -4.619738 -0.627413 0
M  V30 29 C -0.694706 -3.601110 0.139231 0
M  V30 30 H -0.060228 -0.390213 5.545329 0
M  V30 31 H -0.210975 0.562375 4.055969 0
M  V30 32 H -1.379898 -0.769893 4.414165 0
M  V30 33 H 1.606100 0.356877 2.993659 0
M  V30 34 H 2.448600 -0.584051 4.212072 0
M  V30 35 H 2.278328 -1.324648 2.610585 0
M  V30 36 H 0.749674 -2.952795 2.519490 0
M  V30 37 H -0.767052 -2.854104 3.449936 0
M  V30 38 H -1.497991 -0.920872 2.094642 0
M  V30 39 H 0.763602 -1.764023 0.763961 0
M  V30 40 H 3.762111 -0.022965 -1.854931 0
M  V30 41 H 3.349208 3.263327 -3.138006 0
M  V30 42 H 3.911970 3.962538 -1.380210 0
M  V30 43 H 0.076030 5.087297 0.036350 0
M  V30 44 H -1.355519 3.552422 1.374942 0
M  V30 45 H -0.880058 1.189288 1.422817 0
M  V30 46 H -3.344835 -2.025591 1.368933 0
M  V30 47 H -4.439657 -3.798464 0.037358 0
M  V30 48 H -0.611805 -5.318281 -1.168100 0
M  V30 49 H 0.412323 -3.599347 0.133048 0
M  V30 END ATOM
M  V30 BEGIN BOND
M  V30 1 1 1 2
M  V30 2 1 2 3
M  V30 3 1 2 4
M  V30 4 1 4 5
M  V30 5 1 5 6
M  V30 6 1 6 7
M  V30 7 2 7 8
M  V30 8 1 8 9
M  V30 9 2 9 10
M  V30 10 1 10 11
M  V30 11 2 11 12
M  V30 12 1 12 13
M  V30 13 1 13 14
M  V30 14 2 13 15
M  V30 15 1 12 16
M  V30 16 2 16 17
M  V30 17 1 17 18
M  V30 18 2 18 19
M  V30 19 1 5 20
M  V30 20 2 20 21
M  V30 21 1 21 22
M  V30 22 2 22 23
M  V30 23 1 23 24
M  V30 24 1 24 25
M  V30 25 1 24 26
M  V30 26 1 24 27
M  V30 27 1 23 28
M  V30 28 2 28 29
M  V30 29 1 19 7
M  V30 30 1 29 20
M  V30 31 1 19 11
M  V30 32 1 1 30
M  V30 33 1 1 31
M  V30 34 1 1 32
M  V30 35 1 3 33
M  V30 36 1 3 34
M  V30 37 1 3 35
M  V30 38 1 4 36
M  V30 39 1 4 37
M  V30 40 1 5 38
M  V30 41 1 6 39
M  V30 42 1 9 40
M  V30 43 1 14 41
M  V30 44 1 14 42
M  V30 45 1 16 43
M  V30 46 1 17 44
M  V30 47 1 18 45
M  V30 48 1 21 46
M  V30 49 1 22 47
M  V30 50 1 28 48
M  V30 51 1 29 49
M  V30 END BOND
M  V30 END CTAB
M  END
>  <Dataset>  (818) 
ChEMBL_Kinases

>  <Ligand_Instance>  (818) 
nan

>  <PDB_ID>  (818) 
nan

>  <Standardized_SMILES>  (818) 
CN(C)CC(Nc1ncnc2c(C(N)=O)cccc12)c1ccc(C(F)(F)F)cc1

>  <Name>  (818) 
nan

>  <Pocket>  (818) 
nan

>  <ATP_Site>  (818) 
nan

>  <Peripheral>  (818) 
nan

>  <Num_H_Atoms_ProtBoundConf>  (818) 
nan

>  <Num_Resolved_Atoms>  (818) 
nan

>  <Num_Not_Resolved_Atoms>  (818) 
nan

$$$$
CHEMBL3675393
     RDKit          3D

  0  0  0  0  0  0  0  0  0  0999 V3000
M  V30 BEGIN CTAB
M  V30 COUNTS 47 49 0 0 0
M  V30 BEGIN ATOM
M  V30 1 C -0.252909 -5.128963 3.130602 0
M  V30 2 N 0.068028 -4.179294 2.106019 0
M  V30 3 C -1.088268 -3.681479 1.380394 0
M  V30 4 C -0.644558 -2.691823 0.326627 0
M  V30 5 N 0.038644 -1.578904 0.964668 0
M  V30 6 C 0.527306 -0.545670 0.119219 0
M  V30 7 N 0.365396 -0.593872 -1.214805 0
M  V30 8 C 0.783920 0.316764 -2.079744 0
M  V30 9 N 1.444285 1.422939 -1.629944 0
M  V30 10 C 1.661324 1.569648 -0.292159 0
M  V30 11 C 2.325419 2.674328 0.202964 0
M  V30 12 C 2.794734 3.689004 -0.731341 0
M  V30 13 N 3.487221 4.842350 -0.221655 0
M  V30 14 O 2.577785 3.522192 -1.959305 0
M  V30 15 C 2.543578 2.818577 1.565640 0
M  V30 16 C 2.080777 1.828328 2.430262 0
M  V30 17 O 2.331858 2.035739 3.771396 0
M  V30 18 C 1.888844 1.064061 4.729567 0
M  V30 19 C 1.423253 0.744058 1.887977 0
M  V30 20 C 1.196779 0.580626 0.548515 0
M  V30 21 C -1.858135 -2.083315 -0.320382 0
M  V30 22 C -2.316505 -2.332539 -1.584459 0
M  V30 23 C -3.453828 -1.677891 -2.010969 0
M  V30 24 C -4.158472 -0.783923 -1.235597 0
M  V30 25 C -3.706210 -0.523095 0.043397 0
M  V30 26 C -2.562518 -1.181113 0.472921 0
M  V30 27 H -0.839858 -5.993683 2.745448 0
M  V30 28 H 0.696765 -5.537114 3.506494 0
M  V30 29 H -0.740203 -4.637744 3.991006 0
M  V30 30 H 0.843207 -4.447433 1.482924 0
M  V30 31 H -1.548698 -4.564052 0.891107 0
M  V30 32 H -1.845487 -3.259526 2.053609 0
M  V30 33 H -0.076802 -3.160428 -0.480638 0
M  V30 34 H 0.133780 -1.596132 1.998384 0
M  V30 35 H 0.620416 0.216607 -3.144473 0
M  V30 36 H 3.045593 5.628321 0.320029 0
M  V30 37 H 4.485754 5.144695 -0.261848 0
M  V30 38 H 3.064672 3.695158 1.900485 0
M  V30 39 H 2.002165 1.426741 5.752217 0
M  V30 40 H 2.413414 0.102445 4.512852 0
M  V30 41 H 0.814822 0.862051 4.464645 0
M  V30 42 H 1.099638 0.030231 2.609959 0
M  V30 43 H -1.742048 -3.033959 -2.158294 0
M  V30 44 H -3.803131 -1.890992 -3.023589 0
M  V30 45 H -5.056920 -0.283806 -1.608758 0
M  V30 46 H -4.228459 0.172827 0.689070 0
M  V30 47 H -2.246283 -0.945212 1.481157 0
M  V30 END ATOM
M  V30 BEGIN BOND
M  V30 1 1 1 2
M  V30 2 1 2 3
M  V30 3 1 3 4
M  V30 4 1 4 5
M  V30 5 1 5 6
M  V30 6 2 6 7
M  V30 7 1 7 8
M  V30 8 2 8 9
M  V30 9 1 9 10
M  V30 10 2 10 11
M  V30 11 1 11 12
M  V30 12 1 12 13
M  V30 13 2 12 14
M  V30 14 1 11 15
M  V30 15 2 15 16
M  V30 16 1 16 17
M  V30 17 1 17 18
M  V30 18 1 16 19
M  V30 19 2 19 20
M  V30 20 1 4 21
M  V30 21 2 21 22
M  V30 22 1 22 23
M  V30 23 2 23 24
M  V30 24 1 24 25
M  V30 25 2 25 26
M  V30 26 1 20 6
M  V30 27 1 26 21
M  V30 28 1 20 10
M  V30 29 1 1 27
M  V30 30 1 1 28
M  V30 31 1 1 29
M  V30 32 1 2 30
M  V30 33 1 3 31
M  V30 34 1 3 32
M  V30 35 1 4 33
M  V30 36 1 5 34
M  V30 37 1 8 35
M  V30 38 1 13 36
M  V30 39 1 13 37
M  V30 40 1 15 38
M  V30 41 1 18 39
M  V30 42 1 18 40
M  V30 43 1 18 41
M  V30 44 1 19 42
M  V30 45 1 22 43
M  V30 46 1 23 44
M  V30 47 1 24 45
M  V30 48 1 25 46
M  V30 49 1 26 47
M  V30 END BOND
M  V30 END CTAB
M  END
>  <Dataset>  (819) 
ChEMBL_Kinases

>  <Ligand_Instance>  (819) 
nan

>  <PDB_ID>  (819) 
nan

>  <Standardized_SMILES>  (819) 
CNCC(Nc1ncnc2c(C(N)=O)cc(OC)cc12)c1ccccc1

>  <Name>  (819) 
nan

>  <Pocket>  (819) 
nan

>  <ATP_Site>  (819) 
nan

>  <Peripheral>  (819) 
nan

>  <Num_H_Atoms_ProtBoundConf>  (819) 
nan

>  <Num_Resolved_Atoms>  (819) 
nan

>  <Num_Not_Resolved_Atoms>  (819) 
nan

$$$$
CHEMBL4175359
     RDKit          3D

  0  0  0  0  0  0  0  0  0  0999 V3000
M  V30 BEGIN CTAB
M  V30 COUNTS 47 50 0 0 0
M  V30 BEGIN ATOM
M  V30 1 C -0.813282 -5.204658 4.712874 0
M  V30 2 C 0.116592 -4.460074 3.794530 0
M  V30 3 C -0.368460 -4.079196 2.560724 0
M  V30 4 C 0.676501 -3.427406 1.940485 0
M  V30 5 N 0.968528 -2.763477 0.694571 0
M  V30 6 C 0.794585 -1.382803 0.384764 0
M  V30 7 C 1.804656 -0.473469 0.605912 0
M  V30 8 C 1.597822 0.845515 0.294597 0
M  V30 9 N 2.610546 1.822880 0.505091 0
M  V30 10 C 3.897177 1.531180 1.053405 0
M  V30 11 C 4.521511 2.653713 1.838496 0
M  V30 12 O 4.158288 3.915235 1.443756 0
M  V30 13 C 2.753539 4.043180 1.361317 0
M  V30 14 C 2.368879 3.209230 0.157347 0
M  V30 15 N 0.421079 1.211312 -0.214940 0
M  V30 16 C -0.594421 0.370019 -0.450169 0
M  V30 17 N -1.804796 0.869318 -0.996064 0
M  V30 18 C -2.988661 0.160661 -1.318457 0
M  V30 19 C -4.088160 0.809837 -1.849423 0
M  V30 20 C -5.253456 0.157676 -2.174779 0
M  V30 21 C -5.383275 -1.199073 -1.983581 0
M  V30 22 F -6.530505 -1.838737 -2.304358 0
M  V30 23 C -4.315755 -1.883467 -1.458468 0
M  V30 24 Cl -4.463019 -3.617626 -1.207019 0
M  V30 25 C -3.182648 -1.192693 -1.152126 0
M  V30 26 N -0.341437 -0.898829 -0.130261 0
M  V30 27 N 1.736001 -3.426696 2.781505 0
M  V30 28 N 1.410917 -4.048806 3.908163 0
M  V30 29 H -0.383260 -5.252010 5.732807 0
M  V30 30 H -1.799518 -4.701290 4.803107 0
M  V30 31 H -1.054011 -6.219347 4.298264 0
M  V30 32 H -1.267191 -4.140072 1.981549 0
M  V30 33 H 1.345975 -3.492679 0.024170 0
M  V30 34 H 2.725372 -0.838525 1.018206 0
M  V30 35 H 4.565550 1.252851 0.187078 0
M  V30 36 H 3.925837 0.643349 1.725019 0
M  V30 37 H 4.376464 2.486990 2.939805 0
M  V30 38 H 5.633342 2.583946 1.678513 0
M  V30 39 H 2.290976 3.621504 2.288772 0
M  V30 40 H 2.486586 5.093395 1.257291 0
M  V30 41 H 3.128496 3.450113 -0.639496 0
M  V30 42 H 1.337945 3.392156 -0.200153 0
M  V30 43 H -1.842212 1.910698 -1.194247 0
M  V30 44 H -4.053831 1.885647 -2.026966 0
M  V30 45 H -6.080014 0.726907 -2.588331 0
M  V30 46 H -2.393814 -1.796512 -0.746741 0
M  V30 47 H 1.938647 -4.254134 4.785057 0
M  V30 END ATOM
M  V30 BEGIN BOND
M  V30 1 1 1 2
M  V30 2 2 2 3
M  V30 3 1 3 4
M  V30 4 1 4 5
M  V30 5 1 5 6
M  V30 6 2 6 7
M  V30 7 1 7 8
M  V30 8 1 8 9
M  V30 9 1 9 10
M  V30 10 1 10 11
M  V30 11 1 11 12
M  V30 12 1 12 13
M  V30 13 1 13 14
M  V30 14 2 8 15
M  V30 15 1 15 16
M  V30 16 1 16 17
M  V30 17 1 17 18
M  V30 18 2 18 19
M  V30 19 1 19 20
M  V30 20 2 20 21
M  V30 21 1 21 22
M  V30 22 1 21 23
M  V30 23 1 23 24
M  V30 24 2 23 25
M  V30 25 2 16 26
M  V30 26 2 4 27
M  V30 27 1 27 28
M  V30 28 1 28 2
M  V30 29 1 26 6
M  V30 30 1 14 9
M  V30 31 1 25 18
M  V30 32 1 1 29
M  V30 33 1 1 30
M  V30 34 1 1 31
M  V30 35 1 3 32
M  V30 36 1 5 33
M  V30 37 1 7 34
M  V30 38 1 10 35
M  V30 39 1 10 36
M  V30 40 1 11 37
M  V30 41 1 11 38
M  V30 42 1 13 39
M  V30 43 1 13 40
M  V30 44 1 14 41
M  V30 45 1 14 42
M  V30 46 1 17 43
M  V30 47 1 19 44
M  V30 48 1 20 45
M  V30 49 1 25 46
M  V30 50 1 28 47
M  V30 END BOND
M  V30 END CTAB
M  END
>  <Dataset>  (820) 
ChEMBL_Kinases

>  <Ligand_Instance>  (820) 
nan

>  <PDB_ID>  (820) 
nan

>  <Standardized_SMILES>  (820) 
Cc1cc(Nc2cc(N3CCOCC3)nc(Nc3ccc(F)c(Cl)c3)n2)n[nH]1

>  <Name>  (820) 
nan

>  <Pocket>  (820) 
nan

>  <ATP_Site>  (820) 
nan

>  <Peripheral>  (820) 
nan

>  <Num_H_Atoms_ProtBoundConf>  (820) 
nan

>  <Num_Resolved_Atoms>  (820) 
nan

>  <Num_Not_Resolved_Atoms>  (820) 
nan

$$$$
CHEMBL3330148
     RDKit          3D

  0  0  0  0  0  0  0  0  0  0999 V3000
M  V30 BEGIN CTAB
M  V30 COUNTS 45 49 0 0 0
M  V30 BEGIN ATOM
M  V30 1 O 0.510033 -4.492390 1.804726 0
M  V30 2 C 1.142413 -3.547757 1.260923 0
M  V30 3 N 2.409760 -3.830207 0.981357 0
M  V30 4 C 3.232958 -3.016457 0.427991 0
M  V30 5 S 4.944136 -3.158635 -0.047902 0
M  V30 6 C 5.023506 -1.429830 -0.718402 0
M  V30 7 Cl 6.390017 -0.528916 -1.478702 0
M  V30 8 C 3.714795 -0.902666 -0.510390 0
M  V30 9 C 2.821121 -1.756233 0.084978 0
M  V30 10 C 1.492106 -1.377959 0.349203 0
M  V30 11 N 0.966966 -0.079086 0.071587 0
M  V30 12 C 0.455035 1.186791 -0.198935 0
M  V30 13 C 1.250367 2.170343 -1.054407 0
M  V30 14 C 2.314055 2.878933 -0.316098 0
M  V30 15 C 2.189314 2.799115 1.183343 0
M  V30 16 N 0.815145 2.929924 1.525136 0
M  V30 17 C -0.063985 1.918578 1.041275 0
M  V30 18 C 0.644995 -2.274821 0.937798 0
M  V30 19 C -0.765302 -2.171576 1.253878 0
M  V30 20 N -1.512438 -3.117733 1.855706 0
M  V30 21 C -2.781947 -2.786589 2.002920 0
M  V30 22 C -3.760091 -3.570895 2.586209 0
M  V30 23 C -5.016549 -2.952010 2.600919 0
M  V30 24 C -5.247825 -1.693783 2.086712 0
M  V30 25 C -4.194730 -0.989149 1.521848 0
M  V30 26 C -2.938126 -1.532905 1.473202 0
M  V30 27 N -1.703245 -1.250785 1.056720 0
M  V30 28 H 2.805437 -4.762536 1.208732 0
M  V30 29 H 3.604328 0.112885 -0.856582 0
M  V30 30 H 1.736994 0.451196 -0.272831 0
M  V30 31 H -0.465526 1.038747 -0.847256 0
M  V30 32 H 1.702626 1.542651 -1.875252 0
M  V30 33 H 0.570178 2.875172 -1.567295 0
M  V30 34 H 2.287082 3.978176 -0.570977 0
M  V30 35 H 3.337471 2.537918 -0.593157 0
M  V30 36 H 2.731700 3.645313 1.646100 0
M  V30 37 H 2.620249 1.884699 1.586136 0
M  V30 38 H 0.437858 3.886148 1.519478 0
M  V30 39 H -1.038050 2.415551 0.835252 0
M  V30 40 H -0.261171 1.220207 1.879779 0
M  V30 41 H -3.578620 -4.552894 2.987216 0
M  V30 42 H -5.860898 -3.500817 3.046403 0
M  V30 43 H -6.225612 -1.233945 2.107449 0
M  V30 44 H -4.286280 0.009844 1.092250 0
M  V30 45 H -1.621417 -0.344619 0.613112 0
M  V30 END ATOM
M  V30 BEGIN BOND
M  V30 1 2 1 2
M  V30 2 1 2 3
M  V30 3 1 3 4
M  V30 4 1 4 5
M  V30 5 1 5 6
M  V30 6 1 6 7
M  V30 7 2 6 8
M  V30 8 1 8 9
M  V30 9 1 9 10
M  V30 10 1 10 11
M  V30 11 1 11 12
M  V30 12 1 12 13
M  V30 13 1 13 14
M  V30 14 1 14 15
M  V30 15 1 15 16
M  V30 16 1 16 17
M  V30 17 2 10 18
M  V30 18 1 18 19
M  V30 19 2 19 20
M  V30 20 1 20 21
M  V30 21 2 21 22
M  V30 22 1 22 23
M  V30 23 2 23 24
M  V30 24 1 24 25
M  V30 25 2 25 26
M  V30 26 1 26 27
M  V30 27 1 18 2
M  V30 28 1 27 19
M  V30 29 2 9 4
M  V30 30 1 17 12
M  V30 31 1 26 21
M  V30 32 1 3 28
M  V30 33 1 8 29
M  V30 34 1 11 30
M  V30 35 1 12 31
M  V30 36 1 13 32
M  V30 37 1 13 33
M  V30 38 1 14 34
M  V30 39 1 14 35
M  V30 40 1 15 36
M  V30 41 1 15 37
M  V30 42 1 16 38
M  V30 43 1 17 39
M  V30 44 1 17 40
M  V30 45 1 22 41
M  V30 46 1 23 42
M  V30 47 1 24 43
M  V30 48 1 25 44
M  V30 49 1 27 45
M  V30 END BOND
M  V30 END CTAB
M  END
>  <Dataset>  (821) 
ChEMBL_Kinases

>  <Ligand_Instance>  (821) 
nan

>  <PDB_ID>  (821) 
nan

>  <Standardized_SMILES>  (821) 
O=c1[nH]c2sc(Cl)cc2c(NC2CCCNC2)c1-c1nc2ccccc2[nH]1

>  <Name>  (821) 
nan

>  <Pocket>  (821) 
nan

>  <ATP_Site>  (821) 
nan

>  <Peripheral>  (821) 
nan

>  <Num_H_Atoms_ProtBoundConf>  (821) 
nan

>  <Num_Resolved_Atoms>  (821) 
nan

>  <Num_Not_Resolved_Atoms>  (821) 
nan

$$$$
CHEMBL3675392
     RDKit          3D

  0  0  0  0  0  0  0  0  0  0999 V3000
M  V30 BEGIN CTAB
M  V30 COUNTS 45 48 0 0 0
M  V30 BEGIN ATOM
M  V30 1 N 3.958673 -7.007751 1.373989 0
M  V30 2 C 3.499653 -6.148421 0.335684 0
M  V30 3 O 3.090212 -6.627603 -0.738403 0
M  V30 4 C 3.542052 -4.704411 0.612753 0
M  V30 5 C 3.985906 -4.115711 1.775642 0
M  V30 6 C 3.976085 -2.742982 1.919731 0
M  V30 7 C 3.519723 -1.947282 0.895862 0
M  V30 8 C 3.066008 -2.494712 -0.285968 0
M  V30 9 C 2.611207 -1.674893 -1.297975 0
M  V30 10 N 2.587864 -0.255741 -1.187108 0
M  V30 11 C 1.445582 0.394811 -0.617413 0
M  V30 12 C 1.364848 1.769927 -0.529461 0
M  V30 13 C 0.255474 2.372946 0.027483 0
M  V30 14 C -0.800249 1.625082 0.510318 0
M  V30 15 O -1.967794 2.040531 1.088870 0
M  V30 16 C -2.313537 3.393841 1.302611 0
M  V30 17 C -3.632347 3.540760 1.946528 0
M  V30 18 C -4.350765 2.392486 2.263475 0
M  V30 19 C -5.591052 2.421106 2.866923 0
M  V30 20 C -6.130363 3.657902 3.163555 0
M  V30 21 C -5.401129 4.784341 2.840762 0
M  V30 22 N -4.180508 4.740862 2.246464 0
M  V30 23 C -0.728660 0.241017 0.426278 0
M  V30 24 Cl -1.954833 -0.862573 0.977933 0
M  V30 25 C 0.394478 -0.375060 -0.137705 0
M  V30 26 N 2.180142 -2.298599 -2.428882 0
M  V30 27 C 2.188366 -3.639762 -2.573197 0
M  V30 28 N 2.638520 -4.397805 -1.565020 0
M  V30 29 C 3.083549 -3.870083 -0.411579 0
M  V30 30 H 3.614941 -7.230846 2.332295 0
M  V30 31 H 3.619140 -7.236498 2.337377 0
M  V30 32 H 4.321257 -4.837354 2.510923 0
M  V30 33 H 4.339197 -2.352828 2.860414 0
M  V30 34 H 3.521443 -0.874654 1.032722 0
M  V30 35 H 3.380785 0.347028 -1.507629 0
M  V30 36 H 2.163300 2.401777 -0.892253 0
M  V30 37 H 0.114379 3.438873 0.134019 0
M  V30 38 H -2.432671 3.824285 0.267364 0
M  V30 39 H -1.546988 4.000448 1.780659 0
M  V30 40 H -3.908644 1.430877 2.022138 0
M  V30 41 H -6.089196 1.488007 3.082654 0
M  V30 42 H -7.102338 3.721140 3.637848 0
M  V30 43 H -5.821261 5.750180 3.072026 0
M  V30 44 H 0.500578 -1.441460 -0.226459 0
M  V30 45 H 1.817807 -4.014200 -3.526103 0
M  V30 END ATOM
M  V30 BEGIN BOND
M  V30 1 1 1 2
M  V30 2 2 2 3
M  V30 3 1 2 4
M  V30 4 2 4 5
M  V30 5 1 5 6
M  V30 6 2 6 7
M  V30 7 1 7 8
M  V30 8 2 8 9
M  V30 9 1 9 10
M  V30 10 1 10 11
M  V30 11 2 11 12
M  V30 12 1 12 13
M  V30 13 2 13 14
M  V30 14 1 14 15
M  V30 15 1 15 16
M  V30 16 1 16 17
M  V30 17 2 17 18
M  V30 18 1 18 19
M  V30 19 2 19 20
M  V30 20 1 20 21
M  V30 21 2 21 22
M  V30 22 1 14 23
M  V30 23 1 23 24
M  V30 24 2 23 25
M  V30 25 1 9 26
M  V30 26 2 26 27
M  V30 27 1 27 28
M  V30 28 2 28 29
M  V30 29 1 29 4
M  V30 30 1 29 8
M  V30 31 1 25 11
M  V30 32 1 22 17
M  V30 33 1 1 30
M  V30 34 1 1 31
M  V30 35 1 5 32
M  V30 36 1 6 33
M  V30 37 1 7 34
M  V30 38 1 10 35
M  V30 39 1 12 36
M  V30 40 1 13 37
M  V30 41 1 16 38
M  V30 42 1 16 39
M  V30 43 1 18 40
M  V30 44 1 19 41
M  V30 45 1 20 42
M  V30 46 1 21 43
M  V30 47 1 25 44
M  V30 48 1 27 45
M  V30 END BOND
M  V30 END CTAB
M  END
>  <Dataset>  (822) 
ChEMBL_Kinases

>  <Ligand_Instance>  (822) 
nan

>  <PDB_ID>  (822) 
nan

>  <Standardized_SMILES>  (822) 
NC(=O)c1cccc2c(Nc3ccc(OCc4ccccn4)c(Cl)c3)ncnc12

>  <Name>  (822) 
nan

>  <Pocket>  (822) 
nan

>  <ATP_Site>  (822) 
nan

>  <Peripheral>  (822) 
nan

>  <Num_H_Atoms_ProtBoundConf>  (822) 
nan

>  <Num_Resolved_Atoms>  (822) 
nan

>  <Num_Not_Resolved_Atoms>  (822) 
nan

$$$$
CHEMBL4175128
     RDKit          3D

  0  0  0  0  0  0  0  0  0  0999 V3000
M  V30 BEGIN CTAB
M  V30 COUNTS 51 53 0 0 0
M  V30 BEGIN ATOM
M  V30 1 C 6.384184 -4.527877 4.144885 0
M  V30 2 N 5.038628 -4.061075 4.219320 0
M  V30 3 C 4.246197 -4.386259 5.364165 0
M  V30 4 C 4.361187 -3.271734 3.225416 0
M  V30 5 C 3.065071 -2.835154 3.360766 0
M  V30 6 C 2.367501 -2.087818 2.444301 0
M  V30 7 C 3.031214 -1.747502 1.285625 0
M  V30 8 C 2.382028 -0.950532 0.227036 0
M  V30 9 O 2.732148 -0.529869 -0.900086 0
M  V30 10 O 1.097709 -0.540652 0.466912 0
M  V30 11 C 0.288781 0.223033 -0.415648 0
M  V30 12 C -1.026628 0.410475 0.317707 0
M  V30 13 C -0.831909 0.977998 1.714844 0
M  V30 14 O -2.063794 0.948833 2.343283 0
M  V30 15 C -2.069207 1.141031 -0.451963 0
M  V30 16 C -2.917147 0.045515 -0.998489 0
M  V30 17 C -3.980705 0.150734 -1.770448 0
M  V30 18 C -4.613341 1.345376 -2.295218 0
M  V30 19 C -4.871862 2.561449 -1.705084 0
M  V30 20 C -5.481043 3.612327 -2.351400 0
M  V30 21 C -5.875779 3.504450 -3.654484 0
M  V30 22 Cl -6.646765 4.846317 -4.451011 0
M  V30 23 C -5.660950 2.327977 -4.330500 0
M  V30 24 C -5.047181 1.313659 -3.630119 0
M  V30 25 C -2.363994 -1.243927 -0.529878 0
M  V30 26 O -2.627603 -2.367865 -1.014926 0
M  V30 27 O -1.513084 -0.922001 0.537221 0
M  V30 28 C 4.351604 -2.171704 1.108658 0
M  V30 29 C 5.026393 -2.931763 2.067358 0
M  V30 30 H 6.968488 -4.072903 4.998834 0
M  V30 31 H 6.942163 -4.227119 3.244563 0
M  V30 32 H 6.468333 -5.639870 4.325370 0
M  V30 33 H 4.878919 -4.877240 6.124849 0
M  V30 34 H 3.383219 -5.048044 5.108649 0
M  V30 35 H 3.767850 -3.475195 5.811062 0
M  V30 36 H 2.502906 -3.086302 4.267571 0
M  V30 37 H 1.352224 -1.779762 2.616846 0
M  V30 38 H 0.058066 -0.341216 -1.345687 0
M  V30 39 H 0.765317 1.201272 -0.594745 0
M  V30 40 H -0.361878 1.981785 1.708822 0
M  V30 41 H -0.171265 0.254870 2.232303 0
M  V30 42 H -2.177766 1.746997 2.928747 0
M  V30 43 H -2.633975 1.758703 0.305331 0
M  V30 44 H -1.622612 1.749764 -1.259117 0
M  V30 45 H -4.480756 -0.784144 -2.074874 0
M  V30 46 H -4.565677 2.643880 -0.674369 0
M  V30 47 H -5.622260 4.516141 -1.758827 0
M  V30 48 H -5.951594 2.196415 -5.348920 0
M  V30 49 H -4.888355 0.383317 -4.198792 0
M  V30 50 H 4.816929 -1.872117 0.176720 0
M  V30 51 H 6.037773 -3.189384 1.802083 0
M  V30 END ATOM
M  V30 BEGIN BOND
M  V30 1 1 1 2
M  V30 2 1 2 3
M  V30 3 1 2 4
M  V30 4 2 4 5
M  V30 5 1 5 6
M  V30 6 2 6 7
M  V30 7 1 7 8
M  V30 8 2 8 9
M  V30 9 1 8 10
M  V30 10 1 10 11
M  V30 11 1 11 12
M  V30 12 1 12 13
M  V30 13 1 13 14
M  V30 14 1 12 15
M  V30 15 1 15 16
M  V30 16 2 16 17
M  V30 17 1 17 18
M  V30 18 2 18 19
M  V30 19 1 19 20
M  V30 20 2 20 21
M  V30 21 1 21 22
M  V30 22 1 21 23
M  V30 23 2 23 24
M  V30 24 1 16 25
M  V30 25 2 25 26
M  V30 26 1 25 27
M  V30 27 1 7 28
M  V30 28 2 28 29
M  V30 29 1 29 4
M  V30 30 1 27 12
M  V30 31 1 24 18
M  V30 32 1 1 30
M  V30 33 1 1 31
M  V30 34 1 1 32
M  V30 35 1 3 33
M  V30 36 1 3 34
M  V30 37 1 3 35
M  V30 38 1 5 36
M  V30 39 1 6 37
M  V30 40 1 11 38
M  V30 41 1 11 39
M  V30 42 1 13 40
M  V30 43 1 13 41
M  V30 44 1 14 42
M  V30 45 1 15 43
M  V30 46 1 15 44
M  V30 47 1 17 45
M  V30 48 1 19 46
M  V30 49 1 20 47
M  V30 50 1 23 48
M  V30 51 1 24 49
M  V30 52 1 28 50
M  V30 53 1 29 51
M  V30 END BOND
M  V30 END CTAB
M  END
>  <Dataset>  (823) 
ChEMBL_Kinases

>  <Ligand_Instance>  (823) 
nan

>  <PDB_ID>  (823) 
nan

>  <Standardized_SMILES>  (823) 
CN(C)c1ccc(C(=O)OCC2(CO)C/C(=C\c3ccc(Cl)cc3)C(=O)O2)cc1

>  <Name>  (823) 
nan

>  <Pocket>  (823) 
nan

>  <ATP_Site>  (823) 
nan

>  <Peripheral>  (823) 
nan

>  <Num_H_Atoms_ProtBoundConf>  (823) 
nan

>  <Num_Resolved_Atoms>  (823) 
nan

>  <Num_Not_Resolved_Atoms>  (823) 
nan

$$$$
CHEMBL4174735
     RDKit          3D

  0  0  0  0  0  0  0  0  0  0999 V3000
M  V30 BEGIN CTAB
M  V30 COUNTS 66 70 0 0 0
M  V30 BEGIN ATOM
M  V30 1 C 5.800699 -1.142881 4.478294 0
M  V30 2 C 5.115401 -0.519701 3.246063 0
M  V30 3 C 3.729937 -0.119783 3.627842 0
M  V30 4 C 3.721173 0.880992 4.737718 0
M  V30 5 O 4.798361 1.375905 5.202326 0
M  V30 6 N 2.485891 1.301614 5.300714 0
M  V30 7 C 2.393357 1.788147 6.681862 0
M  V30 8 C 1.375959 1.210193 4.416520 0
M  V30 9 C 0.139489 1.598534 4.869661 0
M  V30 10 N -0.920353 1.517636 4.029119 0
M  V30 11 C -0.761763 1.059306 2.756973 0
M  V30 12 N -1.915069 1.000116 1.924975 0
M  V30 13 C -3.064667 1.672633 2.117142 0
M  V30 14 C -3.992851 1.412308 1.150643 0
M  V30 15 C -3.382096 0.517827 0.298455 0
M  V30 16 C -3.835275 -0.107179 -0.869461 0
M  V30 17 C -3.024970 -0.980655 -1.563556 0
M  V30 18 C -3.563834 -1.593615 -2.769605 0
M  V30 19 O -4.741432 -1.287914 -3.086913 0
M  V30 20 N -2.828658 -2.500567 -3.580498 0
M  V30 21 C -3.373168 -3.108262 -4.781327 0
M  V30 22 C -4.603579 -3.938760 -4.514076 0
M  V30 23 C -5.113652 -4.538827 -5.807488 0
M  V30 24 C -4.261747 -5.055308 -3.545019 0
M  V30 25 C -1.760564 -1.212248 -1.065494 0
M  V30 26 C -1.316285 -0.582731 0.103060 0
M  V30 27 C -2.123301 0.291283 0.799926 0
M  V30 28 N 0.452647 0.681996 2.324553 0
M  V30 29 C 1.571787 0.734377 3.114538 0
M  V30 30 N 2.865214 0.320489 2.602670 0
M  V30 31 C 2.999246 0.431520 1.200619 0
M  V30 32 C 4.104558 0.291938 0.376252 0
M  V30 33 C 3.765700 0.478497 -0.956394 0
M  V30 34 N 2.463671 0.727432 -0.915927 0
M  V30 35 C 1.603018 0.997529 -2.051323 0
M  V30 36 N 2.031158 0.700591 0.305818 0
M  V30 37 H 5.021959 -1.589343 5.103016 0
M  V30 38 H 6.501956 -1.935674 4.147156 0
M  V30 39 H 6.438731 -0.391224 4.989638 0
M  V30 40 H 5.751141 0.303577 2.899752 0
M  V30 41 H 5.064003 -1.356209 2.523828 0
M  V30 42 H 3.270135 -1.043959 4.104631 0
M  V30 43 H 3.364110 1.573266 7.167536 0
M  V30 44 H 2.280066 2.908811 6.712405 0
M  V30 45 H 1.536061 1.359870 7.204703 0
M  V30 46 H 0.055295 1.962119 5.901686 0
M  V30 47 H -3.233433 2.347109 2.949180 0
M  V30 48 H -4.985725 1.815477 1.069072 0
M  V30 49 H -4.843376 0.139555 -1.179325 0
M  V30 50 H -1.842577 -2.745849 -3.300825 0
M  V30 51 H -2.605726 -3.671701 -5.314330 0
M  V30 52 H -3.714186 -2.285593 -5.470531 0
M  V30 53 H -5.372262 -3.316396 -4.047401 0
M  V30 54 H -4.938396 -5.632529 -5.800821 0
M  V30 55 H -4.570969 -4.129865 -6.664258 0
M  V30 56 H -6.200207 -4.342454 -5.934001 0
M  V30 57 H -3.644563 -4.577933 -2.732512 0
M  V30 58 H -3.661686 -5.844554 -4.038448 0
M  V30 59 H -5.159889 -5.462483 -3.034043 0
M  V30 60 H -1.114627 -1.894193 -1.598855 0
M  V30 61 H -0.330628 -0.795100 0.447256 0
M  V30 62 H 5.102878 0.075490 0.658105 0
M  V30 63 H 4.386987 0.437197 -1.831933 0
M  V30 64 H 1.817104 0.253502 -2.872384 0
M  V30 65 H 0.528944 0.970066 -1.792701 0
M  V30 66 H 1.821663 1.992290 -2.507024 0
M  V30 END ATOM
M  V30 BEGIN BOND
M  V30 1 1 1 2
M  V30 2 1 2 3
M  V30 3 1 3 4
M  V30 4 2 4 5
M  V30 5 1 4 6
M  V30 6 1 6 7
M  V30 7 1 6 8
M  V30 8 2 8 9
M  V30 9 1 9 10
M  V30 10 2 10 11
M  V30 11 1 11 12
M  V30 12 1 12 13
M  V30 13 2 13 14
M  V30 14 1 14 15
M  V30 15 2 15 16
M  V30 16 1 16 17
M  V30 17 1 17 18
M  V30 18 2 18 19
M  V30 19 1 18 20
M  V30 20 1 20 21
M  V30 21 1 21 22
M  V30 22 1 22 23
M  V30 23 1 22 24
M  V30 24 2 17 25
M  V30 25 1 25 26
M  V30 26 2 26 27
M  V30 27 1 11 28
M  V30 28 2 28 29
M  V30 29 1 29 30
M  V30 30 1 30 31
M  V30 31 1 31 32
M  V30 32 2 32 33
M  V30 33 1 33 34
M  V30 34 1 34 35
M  V30 35 1 34 36
M  V30 36 1 30 3
M  V30 37 2 36 31
M  V30 38 1 29 8
M  V30 39 1 27 12
M  V30 40 1 27 15
M  V30 41 1 1 37
M  V30 42 1 1 38
M  V30 43 1 1 39
M  V30 44 1 2 40
M  V30 45 1 2 41
M  V30 46 1 3 42
M  V30 47 1 7 43
M  V30 48 1 7 44
M  V30 49 1 7 45
M  V30 50 1 9 46
M  V30 51 1 13 47
M  V30 52 1 14 48
M  V30 53 1 16 49
M  V30 54 1 20 50
M  V30 55 1 21 51
M  V30 56 1 21 52
M  V30 57 1 22 53
M  V30 58 1 23 54
M  V30 59 1 23 55
M  V30 60 1 23 56
M  V30 61 1 24 57
M  V30 62 1 24 58
M  V30 63 1 24 59
M  V30 64 1 25 60
M  V30 65 1 26 61
M  V30 66 1 32 62
M  V30 67 1 33 63
M  V30 68 1 35 64
M  V30 69 1 35 65
M  V30 70 1 35 66
M  V30 END BOND
M  V30 END CTAB
M  END
>  <Dataset>  (824) 
ChEMBL_Kinases

>  <Ligand_Instance>  (824) 
nan

>  <PDB_ID>  (824) 
nan

>  <Standardized_SMILES>  (824) 
CCC1C(=O)N(C)c2cnc(-n3ccc4cc(C(=O)NCC(C)C)ccc43)nc2N1c1ccn(C)n1

>  <Name>  (824) 
nan

>  <Pocket>  (824) 
nan

>  <ATP_Site>  (824) 
nan

>  <Peripheral>  (824) 
nan

>  <Num_H_Atoms_ProtBoundConf>  (824) 
nan

>  <Num_Resolved_Atoms>  (824) 
nan

>  <Num_Not_Resolved_Atoms>  (824) 
nan

$$$$
CHEMBL4174723
     RDKit          3D

  0  0  0  0  0  0  0  0  0  0999 V3000
M  V30 BEGIN CTAB
M  V30 COUNTS 48 50 0 0 0
M  V30 BEGIN ATOM
M  V30 1 C 3.386379 -4.504193 3.541744 0
M  V30 2 C 2.952548 -4.159637 2.121132 0
M  V30 3 C 1.615298 -4.877673 1.897260 0
M  V30 4 C 4.015479 -4.651751 1.193884 0
M  V30 5 C 2.739591 -2.676381 1.986468 0
M  V30 6 O 2.895860 -1.857002 2.915162 0
M  V30 7 O 2.355345 -2.363341 0.711912 0
M  V30 8 C 2.057340 -1.110925 0.174394 0
M  V30 9 C 0.897872 -0.398361 0.785373 0
M  V30 10 C -0.369209 -1.183390 0.547442 0
M  V30 11 O -0.519380 -1.362326 -0.844400 0
M  V30 12 C 0.656184 0.978455 0.174176 0
M  V30 13 C -0.157472 1.616758 1.255749 0
M  V30 14 C -1.208393 2.437775 1.216344 0
M  V30 15 C -1.728163 2.838471 -0.099403 0
M  V30 16 C -0.785189 3.242544 -1.050435 0
M  V30 17 S -1.836557 3.618916 -2.568323 0
M  V30 18 C -3.354439 3.199978 -1.759888 0
M  V30 19 C -4.606899 3.243273 -2.317799 0
M  V30 20 C -5.686427 2.878841 -1.546229 0
M  V30 21 C -5.373105 2.501915 -0.262148 0
M  V30 22 C -4.099054 2.453492 0.316824 0
M  V30 23 C -3.040821 2.824019 -0.483992 0
M  V30 24 C 0.503476 1.075261 2.461232 0
M  V30 25 O 0.482416 1.663749 3.598611 0
M  V30 26 O 1.138140 -0.158593 2.147215 0
M  V30 27 H 3.090138 -5.571161 3.703448 0
M  V30 28 H 4.485003 -4.360038 3.677394 0
M  V30 29 H 2.770453 -3.912791 4.232292 0
M  V30 30 H 0.970282 -4.642074 2.796719 0
M  V30 31 H 1.132059 -4.505841 0.960618 0
M  V30 32 H 1.747959 -5.973570 1.896478 0
M  V30 33 H 4.881528 -3.937877 1.274847 0
M  V30 34 H 3.677673 -4.634550 0.143797 0
M  V30 35 H 4.398287 -5.636261 1.519810 0
M  V30 36 H 2.999161 -0.501763 0.219446 0
M  V30 37 H 1.803133 -1.299484 -0.901392 0
M  V30 38 H -1.289137 -0.662841 0.879480 0
M  V30 39 H -0.322136 -2.222038 0.959456 0
M  V30 40 H -1.336549 -1.899461 -1.056152 0
M  V30 41 H 0.149676 0.940915 -0.785874 0
M  V30 42 H 1.617238 1.517566 0.076547 0
M  V30 43 H -1.656538 2.791927 2.132842 0
M  V30 44 H 0.377658 3.317373 -0.875739 0
M  V30 45 H -4.743163 3.553780 -3.333236 0
M  V30 46 H -6.708424 2.875217 -1.885242 0
M  V30 47 H -6.203863 2.195366 0.400395 0
M  V30 48 H -4.027230 2.130521 1.346484 0
M  V30 END ATOM
M  V30 BEGIN BOND
M  V30 1 1 1 2
M  V30 2 1 2 3
M  V30 3 1 2 4
M  V30 4 1 2 5
M  V30 5 2 5 6
M  V30 6 1 5 7
M  V30 7 1 7 8
M  V30 8 1 8 9
M  V30 9 1 9 10
M  V30 10 1 10 11
M  V30 11 1 9 12
M  V30 12 1 12 13
M  V30 13 2 13 14
M  V30 14 1 14 15
M  V30 15 2 15 16
M  V30 16 1 16 17
M  V30 17 1 17 18
M  V30 18 2 18 19
M  V30 19 1 19 20
M  V30 20 2 20 21
M  V30 21 1 21 22
M  V30 22 2 22 23
M  V30 23 1 13 24
M  V30 24 2 24 25
M  V30 25 1 24 26
M  V30 26 1 26 9
M  V30 27 1 23 15
M  V30 28 1 23 18
M  V30 29 1 1 27
M  V30 30 1 1 28
M  V30 31 1 1 29
M  V30 32 1 3 30
M  V30 33 1 3 31
M  V30 34 1 3 32
M  V30 35 1 4 33
M  V30 36 1 4 34
M  V30 37 1 4 35
M  V30 38 1 8 36
M  V30 39 1 8 37
M  V30 40 1 10 38
M  V30 41 1 10 39
M  V30 42 1 11 40
M  V30 43 1 12 41
M  V30 44 1 12 42
M  V30 45 1 14 43
M  V30 46 1 16 44
M  V30 47 1 19 45
M  V30 48 1 20 46
M  V30 49 1 21 47
M  V30 50 1 22 48
M  V30 END BOND
M  V30 END CTAB
M  END
>  <Dataset>  (825) 
ChEMBL_Kinases

>  <Ligand_Instance>  (825) 
nan

>  <PDB_ID>  (825) 
nan

>  <Standardized_SMILES>  (825) 
CC(C)(C)C(=O)OCC1(CO)C/C(=C\c2csc3ccccc23)C(=O)O1

>  <Name>  (825) 
nan

>  <Pocket>  (825) 
nan

>  <ATP_Site>  (825) 
nan

>  <Peripheral>  (825) 
nan

>  <Num_H_Atoms_ProtBoundConf>  (825) 
nan

>  <Num_Resolved_Atoms>  (825) 
nan

>  <Num_Not_Resolved_Atoms>  (825) 
nan

$$$$
CHEMBL3675391
     RDKit          3D

  0  0  0  0  0  0  0  0  0  0999 V3000
M  V30 BEGIN CTAB
M  V30 COUNTS 52 55 0 0 0
M  V30 BEGIN ATOM
M  V30 1 N 4.905336 -2.617782 0.573698 0
M  V30 2 C 4.417457 -1.566738 1.399247 0
M  V30 3 O 5.211158 -1.035602 2.189553 0
M  V30 4 C 3.031879 -1.097633 1.348825 0
M  V30 5 C 2.685032 -0.071597 2.201327 0
M  V30 6 C 1.378080 0.366968 2.150117 0
M  V30 7 N 1.039664 1.434032 3.044717 0
M  V30 8 C 1.269310 2.677053 2.392103 0
M  V30 9 O 1.698887 2.933904 1.219237 0
M  V30 10 C 1.042696 4.021820 2.976546 0
M  V30 11 C 1.411937 5.020854 1.951723 0
M  V30 12 C 0.629084 5.593761 0.986671 0
M  V30 13 C 1.189026 6.509614 0.131687 0
M  V30 14 C 2.547488 6.815605 0.290739 0
M  V30 15 S 3.021323 5.720972 1.746596 0
M  V30 16 C 0.480254 -0.211461 1.277352 0
M  V30 17 C 0.804276 -1.234214 0.419780 0
M  V30 18 C -0.136508 -1.772311 -0.429821 0
M  V30 19 N -1.475725 -1.318809 -0.482395 0
M  V30 20 C -2.496502 -1.858865 -1.360072 0
M  V30 21 C -2.801437 -3.277643 -1.140158 0
M  V30 22 C -2.300163 -4.403090 -1.758514 0
M  V30 23 C -2.704554 -5.671538 -1.401234 0
M  V30 24 C -3.634036 -5.883111 -0.404763 0
M  V30 25 Cl -4.106125 -7.518410 0.002397 0
M  V30 26 C -4.160826 -4.785012 0.238916 0
M  V30 27 C -5.162356 -4.999116 1.313298 0
M  V30 28 F -6.250112 -5.668570 0.742748 0
M  V30 29 F -5.539954 -3.808723 1.878767 0
M  V30 30 F -4.619594 -5.894235 2.210896 0
M  V30 31 C -3.736852 -3.528423 -0.140120 0
M  V30 32 N 0.332166 -2.761274 -1.203233 0
M  V30 33 C 1.594580 -3.208987 -1.176737 0
M  V30 34 N 2.495811 -2.663370 -0.334126 0
M  V30 35 C 2.113380 -1.654713 0.488955 0
M  V30 36 H 4.707964 -3.591736 0.914461 0
M  V30 37 H 5.378812 -2.124133 -0.234825 0
M  V30 38 H 3.402145 0.363411 2.872737 0
M  V30 39 H 0.677614 1.540219 4.025668 0
M  V30 40 H 1.758085 4.162295 3.836255 0
M  V30 41 H 0.028158 4.148783 3.360904 0
M  V30 42 H -0.411951 5.314569 0.916909 0
M  V30 43 H 0.663382 7.020020 -0.662881 0
M  V30 44 H 3.163363 7.470982 -0.239391 0
M  V30 45 H -0.485980 0.216783 1.338596 0
M  V30 46 H -1.780068 -0.561602 0.125003 0
M  V30 47 H -3.422239 -1.264646 -1.241032 0
M  V30 48 H -2.210569 -1.727131 -2.433672 0
M  V30 49 H -1.586442 -4.212225 -2.534342 0
M  V30 50 H -2.249021 -6.498352 -1.949912 0
M  V30 51 H -4.211920 -2.719413 0.428608 0
M  V30 52 H 1.768926 -4.017723 -1.884118 0
M  V30 END ATOM
M  V30 BEGIN BOND
M  V30 1 1 1 2
M  V30 2 2 2 3
M  V30 3 1 2 4
M  V30 4 2 4 5
M  V30 5 1 5 6
M  V30 6 1 6 7
M  V30 7 1 7 8
M  V30 8 2 8 9
M  V30 9 1 8 10
M  V30 10 1 10 11
M  V30 11 2 11 12
M  V30 12 1 12 13
M  V30 13 2 13 14
M  V30 14 1 14 15
M  V30 15 2 6 16
M  V30 16 1 16 17
M  V30 17 2 17 18
M  V30 18 1 18 19
M  V30 19 1 19 20
M  V30 20 1 20 21
M  V30 21 2 21 22
M  V30 22 1 22 23
M  V30 23 2 23 24
M  V30 24 1 24 25
M  V30 25 1 24 26
M  V30 26 1 26 27
M  V30 27 1 27 28
M  V30 28 1 27 29
M  V30 29 1 27 30
M  V30 30 2 26 31
M  V30 31 1 18 32
M  V30 32 2 32 33
M  V30 33 1 33 34
M  V30 34 2 34 35
M  V30 35 1 35 4
M  V30 36 1 15 11
M  V30 37 1 35 17
M  V30 38 1 31 21
M  V30 39 1 1 36
M  V30 40 1 1 37
M  V30 41 1 5 38
M  V30 42 1 7 39
M  V30 43 1 10 40
M  V30 44 1 10 41
M  V30 45 1 12 42
M  V30 46 1 13 43
M  V30 47 1 14 44
M  V30 48 1 16 45
M  V30 49 1 19 46
M  V30 50 1 20 47
M  V30 51 1 20 48
M  V30 52 1 22 49
M  V30 53 1 23 50
M  V30 54 1 31 51
M  V30 55 1 33 52
M  V30 END BOND
M  V30 END CTAB
M  END
>  <Dataset>  (826) 
ChEMBL_Kinases

>  <Ligand_Instance>  (826) 
nan

>  <PDB_ID>  (826) 
nan

>  <Standardized_SMILES>  (826) 
NC(=O)c1cc(NC(=O)Cc2cccs2)cc2c(NCc3ccc(Cl)c(C(F)(F)F)c3)ncnc12

>  <Name>  (826) 
nan

>  <Pocket>  (826) 
nan

>  <ATP_Site>  (826) 
nan

>  <Peripheral>  (826) 
nan

>  <Num_H_Atoms_ProtBoundConf>  (826) 
nan

>  <Num_Resolved_Atoms>  (826) 
nan

>  <Num_Not_Resolved_Atoms>  (826) 
nan

$$$$
CHEMBL4174660
     RDKit          3D

  0  0  0  0  0  0  0  0  0  0999 V3000
M  V30 BEGIN CTAB
M  V30 COUNTS 76 81 0 0 0
M  V30 BEGIN ATOM
M  V30 1 O 1.272773 -0.283656 3.650827 0
M  V30 2 C 1.289443 -1.012446 4.677401 0
M  V30 3 N 0.991303 -2.384949 4.500636 0
M  V30 4 C 0.718024 -2.692385 3.113750 0
M  V30 5 C -0.626225 -2.516282 2.846177 0
M  V30 6 C -1.124270 -2.748115 1.572266 0
M  V30 7 C -0.226897 -3.157493 0.595684 0
M  V30 8 C -0.734018 -3.402627 -0.796415 0
M  V30 9 C -1.192741 -4.787608 -1.048125 0
M  V30 10 N -1.652432 -4.875950 -2.437221 0
M  V30 11 C -0.718103 -4.736746 -3.489696 0
M  V30 12 N 0.579878 -4.550351 -3.255416 0
M  V30 13 C 1.494730 -4.429311 -4.230068 0
M  V30 14 N 1.082547 -4.499394 -5.527293 0
M  V30 15 C -0.220436 -4.687240 -5.806761 0
M  V30 16 O -0.843671 -4.785594 -6.924913 0
M  V30 17 C -2.133821 -4.967214 -6.792677 0
M  V30 18 C -3.024781 -5.103261 -7.927156 0
M  V30 19 C -4.382578 -5.291100 -7.869060 0
M  V30 20 C -5.196651 -5.416517 -8.976053 0
M  V30 21 C -4.649955 -5.354758 -10.238894 0
M  V30 22 C -3.291101 -5.166883 -10.350932 0
M  V30 23 C -2.536666 -5.049640 -9.213496 0
M  V30 24 C -2.343492 -4.984629 -5.436676 0
M  V30 25 Cl -3.883797 -5.195477 -4.664689 0
M  V30 26 C -1.146336 -4.809757 -4.804594 0
M  V30 27 C 1.128132 -3.331294 0.881879 0
M  V30 28 C 1.618219 -3.099192 2.151825 0
M  V30 29 N 1.613675 -0.328623 5.892034 0
M  V30 30 C 1.882563 1.080641 5.886870 0
M  V30 31 C 0.705682 1.804678 6.111171 0
M  V30 32 C 0.700959 3.202906 6.150316 0
M  V30 33 C 1.936942 3.828555 5.951972 0
M  V30 34 C 1.947805 5.304010 5.990775 0
M  V30 35 N 1.725729 5.965590 4.781746 0
M  V30 36 C 2.584218 5.763883 3.690591 0
M  V30 37 C 2.090333 4.790443 2.657545 0
M  V30 38 C 0.607165 4.803792 2.466342 0
M  V30 39 O 0.005491 3.634248 2.929203 0
M  V30 40 C -0.084470 5.973337 3.100252 0
M  V30 41 C 0.431720 6.391444 4.425913 0
M  V30 42 C 3.097069 3.117634 5.730674 0
M  V30 43 C 3.072610 1.744030 5.697808 0
M  V30 44 H 1.012419 -2.952763 5.376734 0
M  V30 45 H -1.397647 -2.201972 3.535179 0
M  V30 46 H -2.157437 -2.636875 1.269587 0
M  V30 47 H 0.032137 -3.090921 -1.527140 0
M  V30 48 H -1.601875 -2.719766 -0.932817 0
M  V30 49 H -1.945128 -5.113542 -0.320113 0
M  V30 50 H -0.381084 -5.547967 -0.996513 0
M  V30 51 H -2.657930 -5.038540 -2.505308 0
M  V30 52 H 2.513801 -4.282059 -3.901028 0
M  V30 53 H -4.877102 -5.348439 -6.930353 0
M  V30 54 H -6.244834 -5.561753 -8.887035 0
M  V30 55 H -5.288598 -5.453224 -11.098075 0
M  V30 56 H -2.842466 -5.116130 -11.338664 0
M  V30 57 H -1.471616 -4.905810 -9.378961 0
M  V30 58 H 1.828878 -3.643835 0.148088 0
M  V30 59 H 2.615913 -3.194887 2.491030 0
M  V30 60 H 1.628992 -0.958920 6.749266 0
M  V30 61 H -0.291411 1.370478 6.271811 0
M  V30 62 H -0.200098 3.769145 6.322814 0
M  V30 63 H 1.244298 5.695610 6.753088 0
M  V30 64 H 2.962531 5.603545 6.387431 0
M  V30 65 H 2.752870 6.750693 3.190412 0
M  V30 66 H 3.590974 5.460822 4.056185 0
M  V30 67 H 2.378166 3.773546 2.996807 0
M  V30 68 H 2.634957 4.966926 1.708166 0
M  V30 69 H 0.402182 4.836909 1.375657 0
M  V30 70 H 0.569388 2.830775 2.817401 0
M  V30 71 H -0.031861 6.862782 2.407214 0
M  V30 72 H -1.174496 5.784437 3.185333 0
M  V30 73 H 0.442158 7.521860 4.467532 0
M  V30 74 H -0.337585 6.137818 5.219808 0
M  V30 75 H 4.054767 3.591585 5.575771 0
M  V30 76 H 3.904776 1.073942 5.534626 0
M  V30 END ATOM
M  V30 BEGIN BOND
M  V30 1 2 1 2
M  V30 2 1 2 3
M  V30 3 1 3 4
M  V30 4 2 4 5
M  V30 5 1 5 6
M  V30 6 2 6 7
M  V30 7 1 7 8
M  V30 8 1 8 9
M  V30 9 1 9 10
M  V30 10 1 10 11
M  V30 11 2 11 12
M  V30 12 1 12 13
M  V30 13 2 13 14
M  V30 14 1 14 15
M  V30 15 1 15 16
M  V30 16 1 16 17
M  V30 17 1 17 18
M  V30 18 2 18 19
M  V30 19 1 19 20
M  V30 20 2 20 21
M  V30 21 1 21 22
M  V30 22 2 22 23
M  V30 23 2 17 24
M  V30 24 1 24 25
M  V30 25 1 24 26
M  V30 26 1 7 27
M  V30 27 2 27 28
M  V30 28 1 2 29
M  V30 29 1 29 30
M  V30 30 2 30 31
M  V30 31 1 31 32
M  V30 32 2 32 33
M  V30 33 1 33 34
M  V30 34 1 34 35
M  V30 35 1 35 36
M  V30 36 1 36 37
M  V30 37 1 37 38
M  V30 38 1 38 39
M  V30 39 1 38 40
M  V30 40 1 40 41
M  V30 41 1 33 42
M  V30 42 2 42 43
M  V30 43 1 28 4
M  V30 44 1 43 30
M  V30 45 1 26 11
M  V30 46 1 41 35
M  V30 47 2 26 15
M  V30 48 1 23 18
M  V30 49 1 3 44
M  V30 50 1 5 45
M  V30 51 1 6 46
M  V30 52 1 8 47
M  V30 53 1 8 48
M  V30 54 1 9 49
M  V30 55 1 9 50
M  V30 56 1 10 51
M  V30 57 1 13 52
M  V30 58 1 19 53
M  V30 59 1 20 54
M  V30 60 1 21 55
M  V30 61 1 22 56
M  V30 62 1 23 57
M  V30 63 1 27 58
M  V30 64 1 28 59
M  V30 65 1 29 60
M  V30 66 1 31 61
M  V30 67 1 32 62
M  V30 68 1 34 63
M  V30 69 1 34 64
M  V30 70 1 36 65
M  V30 71 1 36 66
M  V30 72 1 37 67
M  V30 73 1 37 68
M  V30 74 1 38 69
M  V30 75 1 39 70
M  V30 76 1 40 71
M  V30 77 1 40 72
M  V30 78 1 41 73
M  V30 79 1 41 74
M  V30 80 1 42 75
M  V30 81 1 43 76
M  V30 END BOND
M  V30 END CTAB
M  END
>  <Dataset>  (827) 
ChEMBL_Kinases

>  <Ligand_Instance>  (827) 
nan

>  <PDB_ID>  (827) 
nan

>  <Standardized_SMILES>  (827) 
O=C(Nc1ccc(CCNc2ncnc3oc(-c4ccccc4)c(Cl)c23)cc1)Nc1ccc(CN2CCC(O)CC2)cc1

>  <Name>  (827) 
nan

>  <Pocket>  (827) 
nan

>  <ATP_Site>  (827) 
nan

>  <Peripheral>  (827) 
nan

>  <Num_H_Atoms_ProtBoundConf>  (827) 
nan

>  <Num_Resolved_Atoms>  (827) 
nan

>  <Num_Not_Resolved_Atoms>  (827) 
nan

$$$$
CHEMBL3675389
     RDKit          3D

  0  0  0  0  0  0  0  0  0  0999 V3000
M  V30 BEGIN CTAB
M  V30 COUNTS 55 58 0 0 0
M  V30 BEGIN ATOM
M  V30 1 N 3.170524 -3.393776 4.246104 0
M  V30 2 C 3.462939 -2.230476 3.482108 0
M  V30 3 O 4.390717 -1.429517 3.845964 0
M  V30 4 C 2.726015 -1.906511 2.265978 0
M  V30 5 C 3.070702 -0.767829 1.571953 0
M  V30 6 C 2.345126 -0.501657 0.431709 0
M  V30 7 N 2.696707 0.687578 -0.306291 0
M  V30 8 C 1.930361 1.753112 0.271936 0
M  V30 9 O 1.205605 1.310071 1.232727 0
M  V30 10 C 1.975055 3.157360 -0.181700 0
M  V30 11 C 2.761016 3.628499 -1.213720 0
M  V30 12 C 2.678978 4.978614 -1.515315 0
M  V30 13 C 1.827811 5.812412 -0.789573 0
M  V30 14 S 1.811203 7.497544 -1.269303 0
M  V30 15 O 1.511696 8.327513 -0.056641 0
M  V30 16 O 3.178082 7.923596 -1.780778 0
M  V30 17 F 0.629011 7.783935 -2.419464 0
M  V30 18 C 1.036508 5.337092 0.250436 0
M  V30 19 C 1.128296 3.994921 0.537852 0
M  V30 20 C 1.334745 -1.353292 0.038006 0
M  V30 21 C 0.970805 -2.498807 0.715381 0
M  V30 22 C -0.056826 -3.275633 0.231989 0
M  V30 23 N -0.804092 -2.990966 -0.935699 0
M  V30 24 C -1.865422 -3.789255 -1.444667 0
M  V30 25 C -3.010133 -4.002382 -0.536441 0
M  V30 26 C -3.158639 -5.101188 0.285079 0
M  V30 27 C -4.226798 -5.277047 1.135720 0
M  V30 28 C -5.194690 -4.277139 1.146576 0
M  V30 29 Cl -6.537416 -4.574168 2.263450 0
M  V30 30 C -5.065421 -3.154417 0.321380 0
M  V30 31 C -6.228917 -2.237279 0.521656 0
M  V30 32 F -7.384897 -2.928516 0.201372 0
M  V30 33 F -6.163408 -1.153526 -0.332360 0
M  V30 34 F -6.327766 -1.829979 1.837480 0
M  V30 35 C -3.986425 -3.020883 -0.508212 0
M  V30 36 N -0.275027 -4.335383 1.003590 0
M  V30 37 C 0.395722 -4.649788 2.123049 0
M  V30 38 N 1.402772 -3.858934 2.569246 0
M  V30 39 C 1.712596 -2.739111 1.849789 0
M  V30 40 H 2.715244 -3.098776 5.139426 0
M  V30 41 H 3.403162 -4.338540 3.899623 0
M  V30 42 H 3.862295 -0.141906 1.918356 0
M  V30 43 H 3.324289 0.932788 -1.110541 0
M  V30 44 H 3.382014 2.901014 -1.706941 0
M  V30 45 H 3.301846 5.306394 -2.320604 0
M  V30 46 H 0.388767 6.008384 0.791667 0
M  V30 47 H 0.505240 3.651565 1.346655 0
M  V30 48 H 0.857308 -1.021692 -0.866849 0
M  V30 49 H -0.584907 -2.137103 -1.488090 0
M  V30 50 H -1.386659 -4.778628 -1.731393 0
M  V30 51 H -2.200411 -3.382808 -2.420593 0
M  V30 52 H -2.417384 -5.890666 0.277349 0
M  V30 53 H -4.301553 -6.172500 1.772259 0
M  V30 54 H -4.013689 -2.121555 -1.079216 0
M  V30 55 H 0.042404 -5.571697 2.595773 0
M  V30 END ATOM
M  V30 BEGIN BOND
M  V30 1 1 1 2
M  V30 2 2 2 3
M  V30 3 1 2 4
M  V30 4 2 4 5
M  V30 5 1 5 6
M  V30 6 1 6 7
M  V30 7 1 7 8
M  V30 8 2 8 9
M  V30 9 1 8 10
M  V30 10 2 10 11
M  V30 11 1 11 12
M  V30 12 2 12 13
M  V30 13 1 13 14
M  V30 14 2 14 15
M  V30 15 2 14 16
M  V30 16 1 14 17
M  V30 17 1 13 18
M  V30 18 2 18 19
M  V30 19 2 6 20
M  V30 20 1 20 21
M  V30 21 2 21 22
M  V30 22 1 22 23
M  V30 23 1 23 24
M  V30 24 1 24 25
M  V30 25 2 25 26
M  V30 26 1 26 27
M  V30 27 2 27 28
M  V30 28 1 28 29
M  V30 29 1 28 30
M  V30 30 1 30 31
M  V30 31 1 31 32
M  V30 32 1 31 33
M  V30 33 1 31 34
M  V30 34 2 30 35
M  V30 35 1 22 36
M  V30 36 2 36 37
M  V30 37 1 37 38
M  V30 38 2 38 39
M  V30 39 1 39 4
M  V30 40 1 19 10
M  V30 41 1 39 21
M  V30 42 1 35 25
M  V30 43 1 1 40
M  V30 44 1 1 41
M  V30 45 1 5 42
M  V30 46 1 7 43
M  V30 47 1 11 44
M  V30 48 1 12 45
M  V30 49 1 18 46
M  V30 50 1 19 47
M  V30 51 1 20 48
M  V30 52 1 23 49
M  V30 53 1 24 50
M  V30 54 1 24 51
M  V30 55 1 26 52
M  V30 56 1 27 53
M  V30 57 1 35 54
M  V30 58 1 37 55
M  V30 END BOND
M  V30 END CTAB
M  END
>  <Dataset>  (828) 
ChEMBL_Kinases

>  <Ligand_Instance>  (828) 
nan

>  <PDB_ID>  (828) 
nan

>  <Standardized_SMILES>  (828) 
NC(=O)c1cc(NC(=O)c2ccc(S(=O)(=O)F)cc2)cc2c(NCc3ccc(Cl)c(C(F)(F)F)c3)ncnc12

>  <Name>  (828) 
nan

>  <Pocket>  (828) 
nan

>  <ATP_Site>  (828) 
nan

>  <Peripheral>  (828) 
nan

>  <Num_H_Atoms_ProtBoundConf>  (828) 
nan

>  <Num_Resolved_Atoms>  (828) 
nan

>  <Num_Not_Resolved_Atoms>  (828) 
nan

$$$$
CHEMBL3675388
     RDKit          3D

  0  0  0  0  0  0  0  0  0  0999 V3000
M  V30 BEGIN CTAB
M  V30 COUNTS 48 51 0 0 0
M  V30 BEGIN ATOM
M  V30 1 N 5.553198 -1.108760 0.485838 0
M  V30 2 C 4.267443 -1.697651 0.223750 0
M  V30 3 O 4.190722 -2.913032 -0.158201 0
M  V30 4 C 3.056915 -0.884735 0.401362 0
M  V30 5 C 3.168558 0.427819 0.816217 0
M  V30 6 C 1.994669 1.140949 0.964737 0
M  V30 7 N 2.118464 2.497326 1.393338 0
M  V30 8 C 2.235632 3.351912 0.265831 0
M  V30 9 O 2.209789 2.781722 -0.854832 0
M  V30 10 C 2.379227 4.802041 0.326149 0
M  V30 11 C 2.484922 5.554670 -0.826332 0
M  V30 12 C 2.607252 6.885822 -0.409829 0
M  V30 13 N 2.567282 6.844990 0.954441 0
M  V30 14 O 2.432619 5.601358 1.339639 0
M  V30 15 C 0.785890 0.526534 0.698523 0
M  V30 16 C 0.655387 -0.779384 0.284518 0
M  V30 17 C -0.591560 -1.310848 0.041321 0
M  V30 18 N -1.800341 -0.581208 0.187708 0
M  V30 19 C -3.123471 -1.075670 -0.046667 0
M  V30 20 C -3.454204 -2.179658 0.869262 0
M  V30 21 C -3.952093 -1.729143 2.093425 0
M  V30 22 C -4.337666 -2.588863 3.101644 0
M  V30 23 C -4.239871 -3.957599 2.924974 0
M  V30 24 Cl -4.723174 -5.064548 4.190668 0
M  V30 25 C -3.751009 -4.395951 1.722300 0
M  V30 26 C -3.638239 -5.847766 1.512675 0
M  V30 27 F -3.131039 -6.115637 0.256779 0
M  V30 28 F -4.891908 -6.459040 1.550785 0
M  V30 29 F -2.871220 -6.468471 2.462962 0
M  V30 30 C -3.373141 -3.533295 0.732673 0
M  V30 31 N -0.562232 -2.590478 -0.354778 0
M  V30 32 C 0.541856 -3.334207 -0.517089 0
M  V30 33 N 1.738445 -2.770037 -0.266930 0
M  V30 34 C 1.836730 -1.473348 0.142429 0
M  V30 35 H 5.514873 -1.438265 1.487646 0
M  V30 36 H 5.588768 -0.779070 -0.521218 0
M  V30 37 H 4.125072 0.869957 1.013207 0
M  V30 38 H 2.137134 2.952086 2.350558 0
M  V30 39 H 2.482993 5.258746 -1.880332 0
M  V30 40 H 2.710549 7.739660 -1.082793 0
M  V30 41 H -0.045545 1.189985 0.853001 0
M  V30 42 H -1.782100 0.413159 0.493347 0
M  V30 43 H -3.871582 -0.278444 0.012320 0
M  V30 44 H -3.195472 -1.497691 -1.097451 0
M  V30 45 H -4.081080 -0.678409 2.364187 0
M  V30 46 H -4.725222 -2.253278 4.055344 0
M  V30 47 H -2.995766 -3.855065 -0.221560 0
M  V30 48 H 0.497571 -4.366395 -0.840820 0
M  V30 END ATOM
M  V30 BEGIN BOND
M  V30 1 1 1 2
M  V30 2 2 2 3
M  V30 3 1 2 4
M  V30 4 2 4 5
M  V30 5 1 5 6
M  V30 6 1 6 7
M  V30 7 1 7 8
M  V30 8 2 8 9
M  V30 9 1 8 10
M  V30 10 2 10 11
M  V30 11 1 11 12
M  V30 12 2 12 13
M  V30 13 1 13 14
M  V30 14 2 6 15
M  V30 15 1 15 16
M  V30 16 2 16 17
M  V30 17 1 17 18
M  V30 18 1 18 19
M  V30 19 1 19 20
M  V30 20 2 20 21
M  V30 21 1 21 22
M  V30 22 2 22 23
M  V30 23 1 23 24
M  V30 24 1 23 25
M  V30 25 1 25 26
M  V30 26 1 26 27
M  V30 27 1 26 28
M  V30 28 1 26 29
M  V30 29 2 25 30
M  V30 30 1 17 31
M  V30 31 2 31 32
M  V30 32 1 32 33
M  V30 33 2 33 34
M  V30 34 1 34 4
M  V30 35 1 14 10
M  V30 36 1 34 16
M  V30 37 1 30 20
M  V30 38 1 1 35
M  V30 39 1 1 36
M  V30 40 1 5 37
M  V30 41 1 7 38
M  V30 42 1 11 39
M  V30 43 1 12 40
M  V30 44 1 15 41
M  V30 45 1 18 42
M  V30 46 1 19 43
M  V30 47 1 19 44
M  V30 48 1 21 45
M  V30 49 1 22 46
M  V30 50 1 30 47
M  V30 51 1 32 48
M  V30 END BOND
M  V30 END CTAB
M  END
>  <Dataset>  (829) 
ChEMBL_Kinases

>  <Ligand_Instance>  (829) 
nan

>  <PDB_ID>  (829) 
nan

>  <Standardized_SMILES>  (829) 
NC(=O)c1cc(NC(=O)c2ccno2)cc2c(NCc3ccc(Cl)c(C(F)(F)F)c3)ncnc12

>  <Name>  (829) 
nan

>  <Pocket>  (829) 
nan

>  <ATP_Site>  (829) 
nan

>  <Peripheral>  (829) 
nan

>  <Num_H_Atoms_ProtBoundConf>  (829) 
nan

>  <Num_Resolved_Atoms>  (829) 
nan

>  <Num_Not_Resolved_Atoms>  (829) 
nan

$$$$
CHEMBL3675387
     RDKit          3D

  0  0  0  0  0  0  0  0  0  0999 V3000
M  V30 BEGIN CTAB
M  V30 COUNTS 53 56 0 0 0
M  V30 BEGIN ATOM
M  V30 1 N 4.539503 0.043439 -0.974354 0
M  V30 2 C 3.338162 -0.697877 -1.155709 0
M  V30 3 O 3.359226 -1.607604 -2.011340 0
M  V30 4 C 2.149600 -0.414035 -0.388322 0
M  V30 5 C 2.077888 0.576169 0.563661 0
M  V30 6 C 0.970999 0.871043 1.306345 0
M  V30 7 N 0.899481 1.894980 2.278580 0
M  V30 8 C 1.839150 2.885050 2.753216 0
M  V30 9 C 2.197252 3.899284 1.730419 0
M  V30 10 C 3.237003 4.029589 0.837693 0
M  V30 11 C 3.296527 5.096838 -0.027712 0
M  V30 12 C 2.343934 6.093523 -0.066550 0
M  V30 13 C 1.302885 5.979811 0.815275 0
M  V30 14 C 1.226158 4.911327 1.694359 0
M  V30 15 C -0.150250 0.105224 1.068428 0
M  V30 16 C -0.134217 -0.896661 0.129323 0
M  V30 17 C -1.275728 -1.641885 -0.080882 0
M  V30 18 N -2.507861 -1.462810 0.602555 0
M  V30 19 C -3.716488 -2.236945 0.396562 0
M  V30 20 C -3.588138 -3.665903 0.704284 0
M  V30 21 C -3.816962 -3.928089 2.063077 0
M  V30 22 C -3.760948 -5.204302 2.594705 0
M  V30 23 C -3.471385 -6.294938 1.792354 0
M  V30 24 Cl -3.374702 -7.934839 2.348285 0
M  V30 25 C -3.249179 -6.029591 0.464834 0
M  V30 26 C -2.933104 -7.149287 -0.456792 0
M  V30 27 F -1.770981 -7.824409 -0.076729 0
M  V30 28 F -2.909839 -6.749623 -1.769635 0
M  V30 29 F -3.942126 -8.095310 -0.358657 0
M  V30 30 C -3.301884 -4.764687 -0.077688 0
M  V30 31 N -1.161136 -2.595139 -1.016467 0
M  V30 32 C -0.060233 -2.860778 -1.729753 0
M  V30 33 N 1.051072 -2.132745 -1.522765 0
M  V30 34 C 1.007912 -1.156365 -0.595900 0
M  V30 35 H 5.172832 -0.360520 -0.231092 0
M  V30 36 H 5.219900 -0.267070 -0.276477 0
M  V30 37 H 2.974110 1.126049 0.705359 0
M  V30 38 H -0.002615 2.012241 2.799160 0
M  V30 39 H 2.820361 2.351384 3.003615 0
M  V30 40 H 1.542806 3.376742 3.678074 0
M  V30 41 H 3.940054 3.227361 0.934109 0
M  V30 42 H 4.188459 5.049766 -0.672185 0
M  V30 43 H 2.542085 6.856977 -0.804357 0
M  V30 44 H 0.570869 6.778366 0.760687 0
M  V30 45 H 0.338905 4.981037 2.317991 0
M  V30 46 H -1.028385 0.306735 1.627756 0
M  V30 47 H -2.642752 -0.742936 1.325509 0
M  V30 48 H -3.940678 -2.188253 -0.713096 0
M  V30 49 H -4.586383 -1.805522 0.896403 0
M  V30 50 H -4.057217 -3.169021 2.822813 0
M  V30 51 H -3.935289 -5.418441 3.639245 0
M  V30 52 H -3.143606 -4.500558 -1.113506 0
M  V30 53 H -0.098981 -3.670771 -2.467103 0
M  V30 END ATOM
M  V30 BEGIN BOND
M  V30 1 1 1 2
M  V30 2 2 2 3
M  V30 3 1 2 4
M  V30 4 2 4 5
M  V30 5 1 5 6
M  V30 6 1 6 7
M  V30 7 1 7 8
M  V30 8 1 8 9
M  V30 9 2 9 10
M  V30 10 1 10 11
M  V30 11 2 11 12
M  V30 12 1 12 13
M  V30 13 2 13 14
M  V30 14 2 6 15
M  V30 15 1 15 16
M  V30 16 2 16 17
M  V30 17 1 17 18
M  V30 18 1 18 19
M  V30 19 1 19 20
M  V30 20 2 20 21
M  V30 21 1 21 22
M  V30 22 2 22 23
M  V30 23 1 23 24
M  V30 24 1 23 25
M  V30 25 1 25 26
M  V30 26 1 26 27
M  V30 27 1 26 28
M  V30 28 1 26 29
M  V30 29 2 25 30
M  V30 30 1 17 31
M  V30 31 2 31 32
M  V30 32 1 32 33
M  V30 33 2 33 34
M  V30 34 1 34 4
M  V30 35 1 14 9
M  V30 36 1 34 16
M  V30 37 1 30 20
M  V30 38 1 1 35
M  V30 39 1 1 36
M  V30 40 1 5 37
M  V30 41 1 7 38
M  V30 42 1 8 39
M  V30 43 1 8 40
M  V30 44 1 10 41
M  V30 45 1 11 42
M  V30 46 1 12 43
M  V30 47 1 13 44
M  V30 48 1 14 45
M  V30 49 1 15 46
M  V30 50 1 18 47
M  V30 51 1 19 48
M  V30 52 1 19 49
M  V30 53 1 21 50
M  V30 54 1 22 51
M  V30 55 1 30 52
M  V30 56 1 32 53
M  V30 END BOND
M  V30 END CTAB
M  END
>  <Dataset>  (830) 
ChEMBL_Kinases

>  <Ligand_Instance>  (830) 
nan

>  <PDB_ID>  (830) 
nan

>  <Standardized_SMILES>  (830) 
NC(=O)c1cc(NCc2ccccc2)cc2c(NCc3ccc(Cl)c(C(F)(F)F)c3)ncnc12

>  <Name>  (830) 
nan

>  <Pocket>  (830) 
nan

>  <ATP_Site>  (830) 
nan

>  <Peripheral>  (830) 
nan

>  <Num_H_Atoms_ProtBoundConf>  (830) 
nan

>  <Num_Resolved_Atoms>  (830) 
nan

>  <Num_Not_Resolved_Atoms>  (830) 
nan

$$$$
CHEMBL4175333
     RDKit          3D

  0  0  0  0  0  0  0  0  0  0999 V3000
M  V30 BEGIN CTAB
M  V30 COUNTS 48 50 0 0 0
M  V30 BEGIN ATOM
M  V30 1 C 2.064826 -3.799474 3.360559 0
M  V30 2 C 1.362139 -2.863442 2.393381 0
M  V30 3 C 0.244850 -2.131141 3.072111 0
M  V30 4 C 0.769228 -3.741766 1.302966 0
M  V30 5 C 2.373977 -1.939865 1.831465 0
M  V30 6 O 3.596929 -1.686907 1.861608 0
M  V30 7 O 2.141711 -0.905088 0.937581 0
M  V30 8 C 3.174864 -0.070754 0.453555 0
M  V30 9 C 2.549820 0.945649 -0.472519 0
M  V30 10 C 3.593215 1.851103 -1.073256 0
M  V30 11 O 2.958930 2.707709 -1.945140 0
M  V30 12 C 1.441405 1.714366 0.218465 0
M  V30 13 C 0.205039 1.046083 -0.294669 0
M  V30 14 C -1.023743 1.415578 -0.057856 0
M  V30 15 C -2.191076 0.731114 -0.586009 0
M  V30 16 C -2.081265 0.484442 -1.951844 0
M  V30 17 S -3.716592 -0.416291 -2.305625 0
M  V30 18 C -4.325987 -0.334002 -0.549069 0
M  V30 19 C -5.497849 -0.809566 -0.024653 0
M  V30 20 C -5.688587 -0.610405 1.320636 0
M  V30 21 C -4.687255 0.043688 2.001760 0
M  V30 22 C -3.513479 0.519237 1.472478 0
M  V30 23 C -3.287617 0.338302 0.130049 0
M  V30 24 C 0.658283 -0.100591 -1.067366 0
M  V30 25 O -0.065098 -1.135436 -1.207302 0
M  V30 26 O 1.930022 0.227067 -1.534546 0
M  V30 27 H 1.626761 -4.799380 3.297235 0
M  V30 28 H 3.139585 -3.792441 3.155539 0
M  V30 29 H 1.908445 -3.434879 4.412124 0
M  V30 30 H 0.509768 -1.038993 3.135498 0
M  V30 31 H -0.723631 -2.206327 2.541219 0
M  V30 32 H 0.076724 -2.523058 4.106300 0
M  V30 33 H 1.319298 -4.715296 1.251410 0
M  V30 34 H 0.792669 -3.232588 0.324409 0
M  V30 35 H -0.277659 -3.988339 1.611618 0
M  V30 36 H 3.852475 -0.715123 -0.155306 0
M  V30 37 H 3.755616 0.401364 1.269234 0
M  V30 38 H 4.283827 1.196670 -1.671348 0
M  V30 39 H 4.185742 2.376952 -0.292042 0
M  V30 40 H 3.430732 3.561325 -2.043290 0
M  V30 41 H 1.493585 2.751088 -0.125633 0
M  V30 42 H 1.522900 1.666089 1.304220 0
M  V30 43 H -1.250293 2.273865 0.560283 0
M  V30 44 H -1.484621 0.617158 -2.724362 0
M  V30 45 H -6.157985 -1.293196 -0.710656 0
M  V30 46 H -6.604282 -0.976131 1.756396 0
M  V30 47 H -4.833325 0.207039 3.083806 0
M  V30 48 H -2.808997 1.017377 2.121311 0
M  V30 END ATOM
M  V30 BEGIN BOND
M  V30 1 1 1 2
M  V30 2 1 2 3
M  V30 3 1 2 4
M  V30 4 1 2 5
M  V30 5 2 5 6
M  V30 6 1 5 7
M  V30 7 1 7 8
M  V30 8 1 8 9
M  V30 9 1 9 10
M  V30 10 1 10 11
M  V30 11 1 9 12
M  V30 12 1 12 13
M  V30 13 2 13 14
M  V30 14 1 14 15
M  V30 15 2 15 16
M  V30 16 1 16 17
M  V30 17 1 17 18
M  V30 18 2 18 19
M  V30 19 1 19 20
M  V30 20 2 20 21
M  V30 21 1 21 22
M  V30 22 2 22 23
M  V30 23 1 13 24
M  V30 24 2 24 25
M  V30 25 1 24 26
M  V30 26 1 26 9
M  V30 27 1 23 15
M  V30 28 1 23 18
M  V30 29 1 1 27
M  V30 30 1 1 28
M  V30 31 1 1 29
M  V30 32 1 3 30
M  V30 33 1 3 31
M  V30 34 1 3 32
M  V30 35 1 4 33
M  V30 36 1 4 34
M  V30 37 1 4 35
M  V30 38 1 8 36
M  V30 39 1 8 37
M  V30 40 1 10 38
M  V30 41 1 10 39
M  V30 42 1 11 40
M  V30 43 1 12 41
M  V30 44 1 12 42
M  V30 45 1 14 43
M  V30 46 1 16 44
M  V30 47 1 19 45
M  V30 48 1 20 46
M  V30 49 1 21 47
M  V30 50 1 22 48
M  V30 END BOND
M  V30 END CTAB
M  END
>  <Dataset>  (831) 
ChEMBL_Kinases

>  <Ligand_Instance>  (831) 
nan

>  <PDB_ID>  (831) 
nan

>  <Standardized_SMILES>  (831) 
CC(C)(C)C(=O)OCC1(CO)C/C(=C/c2csc3ccccc23)C(=O)O1

>  <Name>  (831) 
nan

>  <Pocket>  (831) 
nan

>  <ATP_Site>  (831) 
nan

>  <Peripheral>  (831) 
nan

>  <Num_H_Atoms_ProtBoundConf>  (831) 
nan

>  <Num_Resolved_Atoms>  (831) 
nan

>  <Num_Not_Resolved_Atoms>  (831) 
nan

$$$$
CHEMBL3675405
     RDKit          3D

  0  0  0  0  0  0  0  0  0  0999 V3000
M  V30 BEGIN CTAB
M  V30 COUNTS 43 45 0 0 0
M  V30 BEGIN ATOM
M  V30 1 C -1.199962 -4.523807 -1.693236 0
M  V30 2 N -1.320618 -3.912575 -0.393122 0
M  V30 3 C -1.181776 -2.478031 -0.429722 0
M  V30 4 C -1.324139 -1.953617 0.969994 0
M  V30 5 N -1.227701 -0.502553 1.054726 0
M  V30 6 C -0.023095 0.128364 0.653681 0
M  V30 7 N 1.012414 -0.580883 0.210723 0
M  V30 8 C 2.155716 -0.033305 -0.170392 0
M  V30 9 N 2.353622 1.297707 -0.136069 0
M  V30 10 C 1.356620 2.107831 0.300741 0
M  V30 11 C 1.501307 3.480363 0.358215 0
M  V30 12 C 2.742355 4.097190 -0.053654 0
M  V30 13 N 3.871199 3.386558 -0.531431 0
M  V30 14 O 2.933619 5.331424 -0.024731 0
M  V30 15 C 0.486593 4.292550 0.801755 0
M  V30 16 C -0.690945 3.689628 1.191118 0
M  V30 17 C -0.808499 2.320098 1.123789 0
M  V30 18 C 0.179293 1.477628 0.687815 0
M  V30 19 C -0.229241 -2.571123 1.800756 0
M  V30 20 C 0.739788 -3.507587 1.611951 0
M  V30 21 C 1.592070 -3.854228 2.630003 0
M  V30 22 C 1.540711 -3.297106 3.898410 0
M  V30 23 C 0.553410 -2.340581 4.095246 0
M  V30 24 Cl 0.541285 -1.674290 5.719806 0
M  V30 25 C -0.315650 -1.983664 3.066406 0
M  V30 26 H -2.133248 -4.512242 -2.277660 0
M  V30 27 H -0.341112 -4.059781 -2.200487 0
M  V30 28 H -0.930184 -5.597241 -1.523610 0
M  V30 29 H -2.091406 -4.259198 0.183466 0
M  V30 30 H -0.206218 -2.269096 -0.900139 0
M  V30 31 H -1.961609 -1.989295 -1.048669 0
M  V30 32 H -2.302330 -2.314338 1.355709 0
M  V30 33 H -2.070948 -0.022694 1.412245 0
M  V30 34 H 3.004047 -0.595676 -0.531766 0
M  V30 35 H 3.777457 3.372664 -1.564407 0
M  V30 36 H 4.324592 3.175999 0.378019 0
M  V30 37 H 0.609339 5.359464 0.842607 0
M  V30 38 H -1.475876 4.349321 1.536765 0
M  V30 39 H -1.763150 1.944668 1.448616 0
M  V30 40 H 0.728911 -3.887112 0.618564 0
M  V30 41 H 2.309605 -4.609905 2.336863 0
M  V30 42 H 2.251478 -3.632671 4.632194 0
M  V30 43 H -0.992756 -1.228241 3.447707 0
M  V30 END ATOM
M  V30 BEGIN BOND
M  V30 1 1 1 2
M  V30 2 1 2 3
M  V30 3 1 3 4
M  V30 4 1 4 5
M  V30 5 1 5 6
M  V30 6 2 6 7
M  V30 7 1 7 8
M  V30 8 2 8 9
M  V30 9 1 9 10
M  V30 10 2 10 11
M  V30 11 1 11 12
M  V30 12 1 12 13
M  V30 13 2 12 14
M  V30 14 1 11 15
M  V30 15 2 15 16
M  V30 16 1 16 17
M  V30 17 2 17 18
M  V30 18 1 4 19
M  V30 19 2 19 20
M  V30 20 1 20 21
M  V30 21 2 21 22
M  V30 22 1 22 23
M  V30 23 1 23 24
M  V30 24 2 23 25
M  V30 25 1 18 6
M  V30 26 1 25 19
M  V30 27 1 18 10
M  V30 28 1 1 26
M  V30 29 1 1 27
M  V30 30 1 1 28
M  V30 31 1 2 29
M  V30 32 1 3 30
M  V30 33 1 3 31
M  V30 34 1 4 32
M  V30 35 1 5 33
M  V30 36 1 8 34
M  V30 37 1 13 35
M  V30 38 1 13 36
M  V30 39 1 15 37
M  V30 40 1 16 38
M  V30 41 1 17 39
M  V30 42 1 20 40
M  V30 43 1 21 41
M  V30 44 1 22 42
M  V30 45 1 25 43
M  V30 END BOND
M  V30 END CTAB
M  END
>  <Dataset>  (832) 
ChEMBL_Kinases

>  <Ligand_Instance>  (832) 
nan

>  <PDB_ID>  (832) 
nan

>  <Standardized_SMILES>  (832) 
CNCC(Nc1ncnc2c(C(N)=O)cccc12)c1cccc(Cl)c1

>  <Name>  (832) 
nan

>  <Pocket>  (832) 
nan

>  <ATP_Site>  (832) 
nan

>  <Peripheral>  (832) 
nan

>  <Num_H_Atoms_ProtBoundConf>  (832) 
nan

>  <Num_Resolved_Atoms>  (832) 
nan

>  <Num_Not_Resolved_Atoms>  (832) 
nan

$$$$
CHEMBL4202470
     RDKit          3D

  0  0  0  0  0  0  0  0  0  0999 V3000
M  V30 BEGIN CTAB
M  V30 COUNTS 53 58 0 0 0
M  V30 BEGIN ATOM
M  V30 1 F 2.669639 0.456160 6.636924 0
M  V30 2 C 3.139834 0.313961 5.372075 0
M  V30 3 C 4.314227 -0.381210 5.085550 0
M  V30 4 C 4.734811 -0.488887 3.789468 0
M  V30 5 C 4.042442 0.065089 2.741141 0
M  V30 6 N 4.276021 0.075691 1.428554 0
M  V30 7 C 3.271526 0.770832 0.825620 0
M  V30 8 C 3.278797 0.941901 -0.648488 0
M  V30 9 N 2.575783 -0.134909 -1.320412 0
M  V30 10 C 1.198878 -0.418302 -1.095036 0
M  V30 11 N 0.454285 0.313269 -0.227523 0
M  V30 12 C -0.847077 0.052086 -0.009860 0
M  V30 13 N -1.594207 0.842005 0.907162 0
M  V30 14 C -0.996466 1.946106 1.636566 0
M  V30 15 C -2.061319 2.625319 2.470606 0
M  V30 16 O -2.789320 1.758721 3.245663 0
M  V30 17 C -3.182681 0.590674 2.649818 0
M  V30 18 C -2.998543 0.566032 1.146574 0
M  V30 19 N -1.445657 -0.950626 -0.654006 0
M  V30 20 C -0.791618 -1.743460 -1.542690 0
M  V30 21 C 0.540884 -1.463032 -1.754650 0
M  V30 22 N 0.986247 -2.362258 -2.662798 0
M  V30 23 C -0.020244 -3.187125 -3.019606 0
M  V30 24 N -1.095782 -2.794071 -2.326203 0
M  V30 25 C -2.394820 -3.384975 -2.387086 0
M  V30 26 C -2.461172 -4.752335 -2.562889 0
M  V30 27 C -3.643933 -5.481301 -2.642753 0
M  V30 28 C -4.814413 -4.740918 -2.532990 0
M  V30 29 C -4.740658 -3.379866 -2.358087 0
M  V30 30 N -3.554670 -2.725178 -2.287861 0
M  V30 31 N 2.453707 1.162495 1.804766 0
M  V30 32 C 2.889043 0.750556 2.999666 0
M  V30 33 C 2.458957 0.862962 4.305433 0
M  V30 34 F 1.332467 1.532858 4.553590 0
M  V30 35 H 4.861865 -0.817169 5.896319 0
M  V30 36 H 5.662648 -1.045658 3.627396 0
M  V30 37 H 5.119398 -0.395283 0.984899 0
M  V30 38 H 4.281658 1.035428 -1.065287 0
M  V30 39 H 2.709802 1.886923 -0.873851 0
M  V30 40 H 3.075967 -0.743764 -2.003308 0
M  V30 41 H -0.263135 1.518386 2.375846 0
M  V30 42 H -0.536602 2.701024 0.995930 0
M  V30 43 H -1.514990 3.300260 3.192672 0
M  V30 44 H -2.694730 3.310262 1.859682 0
M  V30 45 H -4.220304 0.287325 2.924351 0
M  V30 46 H -2.529175 -0.236540 3.055409 0
M  V30 47 H -3.273043 -0.436486 0.802358 0
M  V30 48 H -3.646791 1.368178 0.742015 0
M  V30 49 H -0.039179 -4.025758 -3.720404 0
M  V30 50 H -1.554483 -5.323182 -2.647641 0
M  V30 51 H -3.614500 -6.555915 -2.781893 0
M  V30 52 H -5.754422 -5.255293 -2.588102 0
M  V30 53 H -5.668889 -2.824980 -2.275032 0
M  V30 END ATOM
M  V30 BEGIN BOND
M  V30 1 1 1 2
M  V30 2 2 2 3
M  V30 3 1 3 4
M  V30 4 2 4 5
M  V30 5 1 5 6
M  V30 6 1 6 7
M  V30 7 1 7 8
M  V30 8 1 8 9
M  V30 9 1 9 10
M  V30 10 2 10 11
M  V30 11 1 11 12
M  V30 12 1 12 13
M  V30 13 1 13 14
M  V30 14 1 14 15
M  V30 15 1 15 16
M  V30 16 1 16 17
M  V30 17 1 17 18
M  V30 18 2 12 19
M  V30 19 1 19 20
M  V30 20 2 20 21
M  V30 21 1 21 22
M  V30 22 2 22 23
M  V30 23 1 23 24
M  V30 24 1 24 25
M  V30 25 2 25 26
M  V30 26 1 26 27
M  V30 27 2 27 28
M  V30 28 1 28 29
M  V30 29 2 29 30
M  V30 30 2 7 31
M  V30 31 1 31 32
M  V30 32 2 32 33
M  V30 33 1 33 34
M  V30 34 1 33 2
M  V30 35 1 32 5
M  V30 36 1 21 10
M  V30 37 1 30 25
M  V30 38 1 18 13
M  V30 39 1 24 20
M  V30 40 1 3 35
M  V30 41 1 4 36
M  V30 42 1 6 37
M  V30 43 1 8 38
M  V30 44 1 8 39
M  V30 45 1 9 40
M  V30 46 1 14 41
M  V30 47 1 14 42
M  V30 48 1 15 43
M  V30 49 1 15 44
M  V30 50 1 17 45
M  V30 51 1 17 46
M  V30 52 1 18 47
M  V30 53 1 18 48
M  V30 54 1 23 49
M  V30 55 1 26 50
M  V30 56 1 27 51
M  V30 57 1 28 52
M  V30 58 1 29 53
M  V30 END BOND
M  V30 END CTAB
M  END
>  <Dataset>  (833) 
ChEMBL_Kinases

>  <Ligand_Instance>  (833) 
nan

>  <PDB_ID>  (833) 
nan

>  <Standardized_SMILES>  (833) 
Fc1ccc2[nH]c(CNc3nc(N4CCOCC4)nc4c3ncn4-c3ccccn3)nc2c1F

>  <Name>  (833) 
nan

>  <Pocket>  (833) 
nan

>  <ATP_Site>  (833) 
nan

>  <Peripheral>  (833) 
nan

>  <Num_H_Atoms_ProtBoundConf>  (833) 
nan

>  <Num_Resolved_Atoms>  (833) 
nan

>  <Num_Not_Resolved_Atoms>  (833) 
nan

$$$$
CHEMBL4202462
     RDKit          3D

  0  0  0  0  0  0  0  0  0  0999 V3000
M  V30 BEGIN CTAB
M  V30 COUNTS 57 62 0 0 0
M  V30 BEGIN ATOM
M  V30 1 C 0.067925 -0.321678 3.203352 0
M  V30 2 N 1.412941 -0.777010 3.444670 0
M  V30 3 C 2.380235 0.164528 2.965509 0
M  V30 4 C 2.413517 0.271100 1.445484 0
M  V30 5 N 1.886581 -0.963760 0.903364 0
M  V30 6 C 1.003960 -1.101813 -0.200888 0
M  V30 7 N 0.561337 -0.030602 -0.880953 0
M  V30 8 C -0.283330 -0.224248 -1.934457 0
M  V30 9 N -0.786257 0.859669 -2.701021 0
M  V30 10 C -0.453915 2.243389 -2.426952 0
M  V30 11 C -0.917689 2.626875 -1.069193 0
M  V30 12 N -0.328428 2.584232 0.138895 0
M  V30 13 C -1.142087 3.043416 1.105685 0
M  V30 14 C -1.043230 3.212112 2.460267 0
M  V30 15 F 0.097179 2.872240 3.096905 0
M  V30 16 C -2.070058 3.721645 3.215645 0
M  V30 17 F -1.922010 3.870948 4.566502 0
M  V30 18 C -3.237745 4.069424 2.556243 0
M  V30 19 C -3.400162 3.923573 1.191048 0
M  V30 20 C -2.324211 3.404548 0.496958 0
M  V30 21 N -2.156842 3.141788 -0.809753 0
M  V30 22 C -0.627450 -1.547110 -2.227572 0
M  V30 23 N -1.438465 -2.012253 -3.208478 0
M  V30 24 C -1.501921 -3.355434 -3.142236 0
M  V30 25 N -0.725360 -3.735082 -2.112785 0
M  V30 26 C -0.421193 -5.030551 -1.584475 0
M  V30 27 C 0.680972 -5.697612 -2.082814 0
M  V30 28 C 0.952877 -6.942836 -1.558462 0
M  V30 29 C 0.166103 -7.517123 -0.573612 0
M  V30 30 Cl 0.504853 -9.096053 0.096184 0
M  V30 31 N -0.901595 -6.843819 -0.107164 0
M  V30 32 C -1.212797 -5.610470 -0.592304 0
M  V30 33 C -0.181733 -2.645766 -1.540394 0
M  V30 34 N 0.642613 -2.343047 -0.524890 0
M  V30 35 C 2.392265 -2.093315 1.656948 0
M  V30 36 C 1.632520 -2.127327 2.966199 0
M  V30 37 H -0.656625 -1.162942 3.130526 0
M  V30 38 H -0.064556 0.294180 2.309937 0
M  V30 39 H -0.225796 0.312197 4.083419 0
M  V30 40 H 3.380881 -0.146843 3.360909 0
M  V30 41 H 2.161178 1.132856 3.437360 0
M  V30 42 H 3.476624 0.422808 1.160001 0
M  V30 43 H 1.837873 1.159162 1.176103 0
M  V30 44 H -1.428383 0.608304 -3.498739 0
M  V30 45 H 0.638553 2.428683 -2.531927 0
M  V30 46 H -1.004665 2.874180 -3.166863 0
M  V30 47 H -4.063399 4.478548 3.159563 0
M  V30 48 H -4.316286 4.198448 0.686759 0
M  V30 49 H -2.897366 3.317533 -1.523833 0
M  V30 50 H -2.007659 -4.128667 -3.701088 0
M  V30 51 H 1.300377 -5.256151 -2.851744 0
M  V30 52 H 1.796214 -7.524812 -1.896910 0
M  V30 53 H -2.056132 -5.005928 -0.267360 0
M  V30 54 H 2.136604 -3.055362 1.126096 0
M  V30 55 H 3.489179 -2.038429 1.804067 0
M  V30 56 H 2.185601 -2.767279 3.683681 0
M  V30 57 H 0.660396 -2.646815 2.779678 0
M  V30 END ATOM
M  V30 BEGIN BOND
M  V30 1 1 1 2
M  V30 2 1 2 3
M  V30 3 1 3 4
M  V30 4 1 4 5
M  V30 5 1 5 6
M  V30 6 2 6 7
M  V30 7 1 7 8
M  V30 8 1 8 9
M  V30 9 1 9 10
M  V30 10 1 10 11
M  V30 11 2 11 12
M  V30 12 1 12 13
M  V30 13 2 13 14
M  V30 14 1 14 15
M  V30 15 1 14 16
M  V30 16 1 16 17
M  V30 17 2 16 18
M  V30 18 1 18 19
M  V30 19 2 19 20
M  V30 20 1 20 21
M  V30 21 2 8 22
M  V30 22 1 22 23
M  V30 23 2 23 24
M  V30 24 1 24 25
M  V30 25 1 25 26
M  V30 26 2 26 27
M  V30 27 1 27 28
M  V30 28 2 28 29
M  V30 29 1 29 30
M  V30 30 1 29 31
M  V30 31 2 31 32
M  V30 32 1 25 33
M  V30 33 2 33 34
M  V30 34 1 5 35
M  V30 35 1 35 36
M  V30 36 1 36 2
M  V30 37 1 34 6
M  V30 38 1 21 11
M  V30 39 1 33 22
M  V30 40 1 20 13
M  V30 41 1 32 26
M  V30 42 1 1 37
M  V30 43 1 1 38
M  V30 44 1 1 39
M  V30 45 1 3 40
M  V30 46 1 3 41
M  V30 47 1 4 42
M  V30 48 1 4 43
M  V30 49 1 9 44
M  V30 50 1 10 45
M  V30 51 1 10 46
M  V30 52 1 18 47
M  V30 53 1 19 48
M  V30 54 1 21 49
M  V30 55 1 24 50
M  V30 56 1 27 51
M  V30 57 1 28 52
M  V30 58 1 32 53
M  V30 59 1 35 54
M  V30 60 1 35 55
M  V30 61 1 36 56
M  V30 62 1 36 57
M  V30 END BOND
M  V30 END CTAB
M  END
>  <Dataset>  (834) 
ChEMBL_Kinases

>  <Ligand_Instance>  (834) 
nan

>  <PDB_ID>  (834) 
nan

>  <Standardized_SMILES>  (834) 
CN1CCN(c2nc(NCc3nc4c(F)c(F)ccc4[nH]3)c3ncn(-c4ccc(Cl)nc4)c3n2)CC1

>  <Name>  (834) 
nan

>  <Pocket>  (834) 
nan

>  <ATP_Site>  (834) 
nan

>  <Peripheral>  (834) 
nan

>  <Num_H_Atoms_ProtBoundConf>  (834) 
nan

>  <Num_Resolved_Atoms>  (834) 
nan

>  <Num_Not_Resolved_Atoms>  (834) 
nan

$$$$
CHEMBL3675404
     RDKit          3D

  0  0  0  0  0  0  0  0  0  0999 V3000
M  V30 BEGIN CTAB
M  V30 COUNTS 60 63 0 0 0
M  V30 BEGIN ATOM
M  V30 1 C 2.354828 -2.528292 3.511855 0
M  V30 2 N 1.039838 -2.651711 4.046305 0
M  V30 3 C 0.918169 -3.788592 4.926463 0
M  V30 4 C 0.510114 -1.442344 4.539046 0
M  V30 5 C 0.174937 -0.460457 3.492058 0
M  V30 6 N 1.187136 0.045130 2.643898 0
M  V30 7 C 0.605602 0.901207 1.629754 0
M  V30 8 N -0.698820 1.188857 1.493632 0
M  V30 9 C -1.196376 1.984105 0.543084 0
M  V30 10 N -0.419718 2.569390 -0.367513 0
M  V30 11 C 0.918168 2.335904 -0.308461 0
M  V30 12 C 1.690373 2.955817 -1.264275 0
M  V30 13 C 1.096978 3.816239 -2.284950 0
M  V30 14 N -0.309764 3.994861 -2.276322 0
M  V30 15 O 1.811428 4.384672 -3.149146 0
M  V30 16 C 3.054203 2.756850 -1.256400 0
M  V30 17 C 3.591891 1.927267 -0.268549 0
M  V30 18 C 2.748521 1.346332 0.649504 0
M  V30 19 C 1.399979 1.511638 0.682857 0
M  V30 20 C -0.992204 -1.013296 2.719981 0
M  V30 21 C -2.316476 -0.766708 3.052206 0
M  V30 22 C -3.367436 -1.286037 2.325514 0
M  V30 23 C -3.059103 -2.079111 1.229219 0
M  V30 24 C -1.743495 -2.334177 0.885038 0
M  V30 25 N -1.663731 -3.167645 -0.270946 0
M  V30 26 C -1.635473 -2.308446 -1.413818 0
M  V30 27 O -1.688461 -1.085774 -1.065202 0
M  V30 28 C -1.554892 -2.791066 -2.808786 0
M  V30 29 C -1.503490 -4.103981 -3.181148 0
M  V30 30 C -1.429462 -4.386959 -4.536821 0
M  V30 31 C -1.407003 -3.402825 -5.493090 0
M  V30 32 Br -1.305256 -3.811050 -7.351318 0
M  V30 33 C -1.459229 -2.076342 -5.110255 0
M  V30 34 C -1.533953 -1.780995 -3.747735 0
M  V30 35 C -0.715930 -1.805111 1.625179 0
M  V30 36 H 2.894969 -1.751404 4.067815 0
M  V30 37 H 2.919360 -3.522821 3.626168 0
M  V30 38 H 2.312097 -2.373104 2.431947 0
M  V30 39 H -0.007314 -3.735296 5.506356 0
M  V30 40 H 0.823593 -4.680411 4.250881 0
M  V30 41 H 1.793972 -3.946611 5.567712 0
M  V30 42 H 1.142526 -1.011942 5.364149 0
M  V30 43 H -0.477637 -1.712288 5.041194 0
M  V30 44 H -0.300336 0.429247 4.034891 0
M  V30 45 H 2.188234 -0.076058 2.639756 0
M  V30 46 H -2.267814 2.157724 0.513350 0
M  V30 47 H -1.295953 3.876223 -2.499522 0
M  V30 48 H -0.352715 4.769935 -1.553540 0
M  V30 49 H 3.600028 3.271980 -2.034478 0
M  V30 50 H 4.673073 1.805769 -0.309797 0
M  V30 51 H 3.296171 0.741315 1.341140 0
M  V30 52 H -2.448995 -0.127490 3.936682 0
M  V30 53 H -4.385999 -1.066094 2.623479 0
M  V30 54 H -3.952613 -2.450523 0.708898 0
M  V30 55 H -1.623789 -4.215001 -0.447149 0
M  V30 56 H -1.523811 -4.848144 -2.392769 0
M  V30 57 H -1.388592 -5.445227 -4.823474 0
M  V30 58 H -1.440687 -1.298383 -5.882524 0
M  V30 59 H -1.570581 -0.712616 -3.550042 0
M  V30 60 H 0.247595 -2.071093 1.262887 0
M  V30 END ATOM
M  V30 BEGIN BOND
M  V30 1 1 1 2
M  V30 2 1 2 3
M  V30 3 1 2 4
M  V30 4 1 4 5
M  V30 5 1 5 6
M  V30 6 1 6 7
M  V30 7 2 7 8
M  V30 8 1 8 9
M  V30 9 2 9 10
M  V30 10 1 10 11
M  V30 11 2 11 12
M  V30 12 1 12 13
M  V30 13 1 13 14
M  V30 14 2 13 15
M  V30 15 1 12 16
M  V30 16 2 16 17
M  V30 17 1 17 18
M  V30 18 2 18 19
M  V30 19 1 5 20
M  V30 20 2 20 21
M  V30 21 1 21 22
M  V30 22 2 22 23
M  V30 23 1 23 24
M  V30 24 1 24 25
M  V30 25 1 25 26
M  V30 26 2 26 27
M  V30 27 1 26 28
M  V30 28 2 28 29
M  V30 29 1 29 30
M  V30 30 2 30 31
M  V30 31 1 31 32
M  V30 32 1 31 33
M  V30 33 2 33 34
M  V30 34 2 24 35
M  V30 35 1 19 7
M  V30 36 1 35 20
M  V30 37 1 19 11
M  V30 38 1 34 28
M  V30 39 1 1 36
M  V30 40 1 1 37
M  V30 41 1 1 38
M  V30 42 1 3 39
M  V30 43 1 3 40
M  V30 44 1 3 41
M  V30 45 1 4 42
M  V30 46 1 4 43
M  V30 47 1 5 44
M  V30 48 1 6 45
M  V30 49 1 9 46
M  V30 50 1 14 47
M  V30 51 1 14 48
M  V30 52 1 16 49
M  V30 53 1 17 50
M  V30 54 1 18 51
M  V30 55 1 21 52
M  V30 56 1 22 53
M  V30 57 1 23 54
M  V30 58 1 25 55
M  V30 59 1 29 56
M  V30 60 1 30 57
M  V30 61 1 33 58
M  V30 62 1 34 59
M  V30 63 1 35 60
M  V30 END BOND
M  V30 END CTAB
M  END
>  <Dataset>  (835) 
ChEMBL_Kinases

>  <Ligand_Instance>  (835) 
nan

>  <PDB_ID>  (835) 
nan

>  <Standardized_SMILES>  (835) 
CN(C)CC(Nc1ncnc2c(C(N)=O)cccc12)c1cccc(NC(=O)c2ccc(Br)cc2)c1

>  <Name>  (835) 
nan

>  <Pocket>  (835) 
nan

>  <ATP_Site>  (835) 
nan

>  <Peripheral>  (835) 
nan

>  <Num_H_Atoms_ProtBoundConf>  (835) 
nan

>  <Num_Resolved_Atoms>  (835) 
nan

>  <Num_Not_Resolved_Atoms>  (835) 
nan

$$$$
CHEMBL3675403
     RDKit          3D

  0  0  0  0  0  0  0  0  0  0999 V3000
M  V30 BEGIN CTAB
M  V30 COUNTS 57 60 0 0 0
M  V30 BEGIN ATOM
M  V30 1 C 2.760823 -1.883047 4.817217 0
M  V30 2 N 1.781604 -1.685108 3.762851 0
M  V30 3 C 2.507471 -1.630437 2.520628 0
M  V30 4 C 1.636754 -1.427491 1.316914 0
M  V30 5 N 0.860872 -0.225978 1.308837 0
M  V30 6 C 1.475135 1.030419 1.328903 0
M  V30 7 N 2.815129 1.123202 1.351412 0
M  V30 8 C 3.509653 2.271126 1.369665 0
M  V30 9 N 2.843039 3.462942 1.365761 0
M  V30 10 C 1.492482 3.441651 1.343500 0
M  V30 11 C 0.736017 4.589052 1.338500 0
M  V30 12 C 1.481112 5.828517 1.359456 0
M  V30 13 N 2.899112 5.925299 1.387660 0
M  V30 14 O 1.258381 7.061557 1.361411 0
M  V30 15 C -0.639523 4.663313 1.316663 0
M  V30 16 C -1.285361 3.422639 1.298466 0
M  V30 17 C -0.563197 2.240151 1.302672 0
M  V30 18 C 0.814364 2.241736 1.325124 0
M  V30 19 C 0.866362 -2.651500 0.981101 0
M  V30 20 C 0.935761 -3.841008 1.676491 0
M  V30 21 C 0.220389 -4.978382 1.362582 0
M  V30 22 C -0.636164 -4.910485 0.255598 0
M  V30 23 C -0.739173 -3.726208 -0.479114 0
M  V30 24 N -1.642374 -3.779995 -1.582301 0
M  V30 25 C -3.014761 -3.501344 -1.714016 0
M  V30 26 O -3.597553 -3.124320 -0.662409 0
M  V30 27 C -3.655395 -3.659309 -3.009393 0
M  V30 28 C -3.082342 -4.069109 -4.199868 0
M  V30 29 C -3.838457 -4.167923 -5.350390 0
M  V30 30 C -5.185475 -3.867876 -5.374869 0
M  V30 31 Br -6.219047 -4.010658 -6.976463 0
M  V30 32 C -5.786707 -3.456155 -4.203691 0
M  V30 33 C -5.015245 -3.359831 -3.048798 0
M  V30 34 C 0.012419 -2.637207 -0.095288 0
M  V30 35 H 3.563729 -1.140011 4.835956 0
M  V30 36 H 3.251944 -2.885116 4.646914 0
M  V30 37 H 2.240038 -1.993172 5.791313 0
M  V30 38 H 1.370490 -0.737005 3.909950 0
M  V30 39 H 3.103742 -2.555164 2.369166 0
M  V30 40 H 3.249490 -0.814311 2.631833 0
M  V30 41 H 2.369441 -1.303033 0.460190 0
M  V30 42 H -0.163451 -0.413630 1.288232 0
M  V30 43 H 4.598532 2.252954 1.387178 0
M  V30 44 H 3.656864 6.250751 2.025291 0
M  V30 45 H 3.655737 6.251688 2.027575 0
M  V30 46 H -1.145083 5.620436 1.315000 0
M  V30 47 H -2.367114 3.431596 1.281324 0
M  V30 48 H -1.140554 1.328338 1.287517 0
M  V30 49 H 1.594000 -3.898877 2.532178 0
M  V30 50 H 0.326954 -5.883469 1.958298 0
M  V30 51 H -1.166273 -5.832763 0.064008 0
M  V30 52 H -1.014103 -4.104965 -2.372246 0
M  V30 53 H -2.026136 -4.293135 -4.133342 0
M  V30 54 H -3.352872 -4.493313 -6.263266 0
M  V30 55 H -6.840555 -3.216322 -4.201275 0
M  V30 56 H -5.568108 -3.028538 -2.172728 0
M  V30 57 H -0.140799 -1.764924 -0.732788 0
M  V30 END ATOM
M  V30 BEGIN BOND
M  V30 1 1 1 2
M  V30 2 1 2 3
M  V30 3 1 3 4
M  V30 4 1 4 5
M  V30 5 1 5 6
M  V30 6 2 6 7
M  V30 7 1 7 8
M  V30 8 2 8 9
M  V30 9 1 9 10
M  V30 10 2 10 11
M  V30 11 1 11 12
M  V30 12 1 12 13
M  V30 13 2 12 14
M  V30 14 1 11 15
M  V30 15 2 15 16
M  V30 16 1 16 17
M  V30 17 2 17 18
M  V30 18 1 4 19
M  V30 19 2 19 20
M  V30 20 1 20 21
M  V30 21 2 21 22
M  V30 22 1 22 23
M  V30 23 1 23 24
M  V30 24 1 24 25
M  V30 25 2 25 26
M  V30 26 1 25 27
M  V30 27 2 27 28
M  V30 28 1 28 29
M  V30 29 2 29 30
M  V30 30 1 30 31
M  V30 31 1 30 32
M  V30 32 2 32 33
M  V30 33 2 23 34
M  V30 34 1 18 6
M  V30 35 1 34 19
M  V30 36 1 18 10
M  V30 37 1 33 27
M  V30 38 1 1 35
M  V30 39 1 1 36
M  V30 40 1 1 37
M  V30 41 1 2 38
M  V30 42 1 3 39
M  V30 43 1 3 40
M  V30 44 1 4 41
M  V30 45 1 5 42
M  V30 46 1 8 43
M  V30 47 1 13 44
M  V30 48 1 13 45
M  V30 49 1 15 46
M  V30 50 1 16 47
M  V30 51 1 17 48
M  V30 52 1 20 49
M  V30 53 1 21 50
M  V30 54 1 22 51
M  V30 55 1 24 52
M  V30 56 1 28 53
M  V30 57 1 29 54
M  V30 58 1 32 55
M  V30 59 1 33 56
M  V30 60 1 34 57
M  V30 END BOND
M  V30 END CTAB
M  END
>  <Dataset>  (836) 
ChEMBL_Kinases

>  <Ligand_Instance>  (836) 
nan

>  <PDB_ID>  (836) 
nan

>  <Standardized_SMILES>  (836) 
CNCC(Nc1ncnc2c(C(N)=O)cccc12)c1cccc(NC(=O)c2ccc(Br)cc2)c1

>  <Name>  (836) 
nan

>  <Pocket>  (836) 
nan

>  <ATP_Site>  (836) 
nan

>  <Peripheral>  (836) 
nan

>  <Num_H_Atoms_ProtBoundConf>  (836) 
nan

>  <Num_Resolved_Atoms>  (836) 
nan

>  <Num_Not_Resolved_Atoms>  (836) 
nan

$$$$
CHEMBL41816
     RDKit          3D

  0  0  0  0  0  0  0  0  0  0999 V3000
M  V30 BEGIN CTAB
M  V30 COUNTS 36 39 0 0 0
M  V30 BEGIN ATOM
M  V30 1 N 0.236914 -3.758721 5.146901 0
M  V30 2 C 0.681657 -3.218134 3.909589 0
M  V30 3 N 1.474024 -4.006007 3.161417 0
M  V30 4 C 1.975437 -3.640875 1.969667 0
M  V30 5 C 1.684697 -2.394682 1.448206 0
M  V30 6 C 0.859428 -1.594417 2.244345 0
M  V30 7 N 0.361989 -1.975631 3.442429 0
M  V30 8 C 0.413619 -0.240469 1.907938 0
M  V30 9 C 0.058257 0.483743 3.021943 0
M  V30 10 C -0.380069 1.782965 2.815835 0
M  V30 11 C -0.459734 2.335584 1.546387 0
M  V30 12 Cl -1.018928 3.982526 1.324496 0
M  V30 13 C -0.095871 1.590268 0.420442 0
M  V30 14 C 0.341522 0.295047 0.621296 0
M  V30 15 C 0.683301 -0.345543 -0.667979 0
M  V30 16 C 0.026446 0.216801 -1.845862 0
M  V30 17 C 0.613318 0.754715 -2.989183 0
M  V30 18 C -0.205965 1.233812 -3.989143 0
M  V30 19 C -1.580368 1.197968 -3.894703 0
M  V30 20 C -2.183570 0.672793 -2.778045 0
M  V30 21 C -1.372068 0.196770 -1.784466 0
M  V30 22 F -2.043419 -0.313496 -0.698343 0
M  V30 23 N 1.502429 -1.331966 -0.757794 0
M  V30 24 C 2.292585 -2.105104 0.130706 0
M  V30 25 H 0.867043 -4.150742 5.878315 0
M  V30 26 H -0.809271 -3.658185 5.113345 0
M  V30 27 H 2.619018 -4.312282 1.388162 0
M  V30 28 H 0.140877 0.005065 3.970858 0
M  V30 29 H -0.661489 2.357599 3.693747 0
M  V30 30 H -0.138686 1.971203 -0.588557 0
M  V30 31 H 1.683956 0.736242 -2.964828 0
M  V30 32 H 0.310491 1.641378 -4.856397 0
M  V30 33 H -2.203465 1.584928 -4.702889 0
M  V30 34 H -3.255969 0.656769 -2.729556 0
M  V30 35 H 3.318545 -1.669684 0.243991 0
M  V30 36 H 2.476983 -3.107112 -0.357288 0
M  V30 END ATOM
M  V30 BEGIN BOND
M  V30 1 1 1 2
M  V30 2 2 2 3
M  V30 3 1 3 4
M  V30 4 2 4 5
M  V30 5 1 5 6
M  V30 6 2 6 7
M  V30 7 1 6 8
M  V30 8 2 8 9
M  V30 9 1 9 10
M  V30 10 2 10 11
M  V30 11 1 11 12
M  V30 12 1 11 13
M  V30 13 2 13 14
M  V30 14 1 14 15
M  V30 15 1 15 16
M  V30 16 2 16 17
M  V30 17 1 17 18
M  V30 18 2 18 19
M  V30 19 1 19 20
M  V30 20 2 20 21
M  V30 21 1 21 22
M  V30 22 2 15 23
M  V30 23 1 23 24
M  V30 24 1 7 2
M  V30 25 1 14 8
M  V30 26 1 21 16
M  V30 27 1 24 5
M  V30 28 1 1 25
M  V30 29 1 1 26
M  V30 30 1 4 27
M  V30 31 1 9 28
M  V30 32 1 10 29
M  V30 33 1 13 30
M  V30 34 1 17 31
M  V30 35 1 18 32
M  V30 36 1 19 33
M  V30 37 1 20 34
M  V30 38 1 24 35
M  V30 39 1 24 36
M  V30 END BOND
M  V30 END CTAB
M  END
>  <Dataset>  (837) 
ChEMBL_Kinases

>  <Ligand_Instance>  (837) 
nan

>  <PDB_ID>  (837) 
nan

>  <Standardized_SMILES>  (837) 
Nc1ncc2c(n1)-c1ccc(Cl)cc1C(c1ccccc1F)=NC2

>  <Name>  (837) 
nan

>  <Pocket>  (837) 
nan

>  <ATP_Site>  (837) 
nan

>  <Peripheral>  (837) 
nan

>  <Num_H_Atoms_ProtBoundConf>  (837) 
nan

>  <Num_Resolved_Atoms>  (837) 
nan

>  <Num_Not_Resolved_Atoms>  (837) 
nan

$$$$
CHEMBL417804
     RDKit          3D

  0  0  0  0  0  0  0  0  0  0999 V3000
M  V30 BEGIN CTAB
M  V30 COUNTS 57 61 0 0 0
M  V30 BEGIN ATOM
M  V30 1 C 3.559902 -2.667264 0.668781 0
M  V30 2 O 3.323643 -1.271286 0.772505 0
M  V30 3 C 3.497927 -0.584040 1.951893 0
M  V30 4 C 3.904758 -1.072433 3.175386 0
M  V30 5 C 4.044641 -0.291951 4.287641 0
M  V30 6 C 3.762285 1.056928 4.175993 0
M  V30 7 C 3.348039 1.583793 2.952982 0
M  V30 8 C 3.214319 0.759139 1.831290 0
M  V30 9 O 2.792960 1.515704 0.747291 0
M  V30 10 C 1.604426 1.256768 0.083137 0
M  V30 11 N 1.364650 2.088078 -0.924148 0
M  V30 12 C 0.224642 1.931857 -1.652438 0
M  V30 13 C -0.625550 0.909140 -1.299916 0
M  V30 14 C -0.395665 0.043027 -0.266369 0
M  V30 15 C -1.334304 -1.019364 0.060004 0
M  V30 16 C -2.573304 -0.579044 0.503133 0
M  V30 17 C -3.180308 0.728948 0.730281 0
M  V30 18 C -2.497606 1.420022 1.710277 0
M  V30 19 C -2.898204 2.701651 2.099148 0
M  V30 20 C -3.998017 3.280121 1.487048 0
M  V30 21 F -4.467194 4.522774 1.793883 0
M  V30 22 C -4.667611 2.572086 0.508583 0
M  V30 23 C -4.274835 1.314647 0.126967 0
M  V30 24 N -3.327934 -1.685913 0.760472 0
M  V30 25 C -2.578451 -2.785986 0.485039 0
M  V30 26 N -1.361435 -2.375646 0.057361 0
M  V30 27 C -0.155699 -3.063943 -0.377884 0
M  V30 28 C -0.585108 -4.506029 -0.684369 0
M  V30 29 C -1.605169 -4.484768 -1.798534 0
M  V30 30 N -1.962350 -3.158302 -2.228292 0
M  V30 31 C -0.789154 -2.458546 -2.726625 0
M  V30 32 C 0.330569 -2.526670 -1.716907 0
M  V30 33 N 0.764370 0.270196 0.407619 0
M  V30 34 H 3.425375 -3.001562 -0.379520 0
M  V30 35 H 4.590604 -2.943089 0.969169 0
M  V30 36 H 2.871278 -3.273930 1.290313 0
M  V30 37 H 4.108426 -2.144278 3.182668 0
M  V30 38 H 4.369336 -0.730775 5.227634 0
M  V30 39 H 3.880056 1.662194 5.072716 0
M  V30 40 H 3.160783 2.660684 3.014970 0
M  V30 41 H -0.010369 2.585650 -2.480102 0
M  V30 42 H -1.526766 0.816933 -1.905528 0
M  V30 43 H -1.634393 1.098295 2.265157 0
M  V30 44 H -2.402866 3.292464 2.861787 0
M  V30 45 H -5.534330 2.934328 -0.027202 0
M  V30 46 H -4.720862 0.673825 -0.621536 0
M  V30 47 H -2.799850 -3.842220 0.553654 0
M  V30 48 H 0.662604 -3.043625 0.335991 0
M  V30 49 H 0.315724 -5.117261 -0.959821 0
M  V30 50 H -1.081039 -4.882719 0.233773 0
M  V30 51 H -1.227740 -5.051390 -2.697645 0
M  V30 52 H -2.554706 -5.007363 -1.528990 0
M  V30 53 H -2.671623 -3.253392 -2.967064 0
M  V30 54 H -0.532427 -2.978039 -3.694663 0
M  V30 55 H -1.049226 -1.432489 -3.015415 0
M  V30 56 H 1.024668 -3.329917 -2.104792 0
M  V30 57 H 0.940122 -1.629775 -1.635695 0
M  V30 END ATOM
M  V30 BEGIN BOND
M  V30 1 1 1 2
M  V30 2 1 2 3
M  V30 3 2 3 4
M  V30 4 1 4 5
M  V30 5 2 5 6
M  V30 6 1 6 7
M  V30 7 2 7 8
M  V30 8 1 8 9
M  V30 9 1 9 10
M  V30 10 2 10 11
M  V30 11 1 11 12
M  V30 12 2 12 13
M  V30 13 1 13 14
M  V30 14 1 14 15
M  V30 15 2 15 16
M  V30 16 1 16 17
M  V30 17 2 17 18
M  V30 18 1 18 19
M  V30 19 2 19 20
M  V30 20 1 20 21
M  V30 21 1 20 22
M  V30 22 2 22 23
M  V30 23 1 16 24
M  V30 24 2 24 25
M  V30 25 1 25 26
M  V30 26 1 26 27
M  V30 27 1 27 28
M  V30 28 1 28 29
M  V30 29 1 29 30
M  V30 30 1 30 31
M  V30 31 1 31 32
M  V30 32 2 14 33
M  V30 33 1 8 3
M  V30 34 1 33 10
M  V30 35 1 26 15
M  V30 36 1 32 27
M  V30 37 1 23 17
M  V30 38 1 1 34
M  V30 39 1 1 35
M  V30 40 1 1 36
M  V30 41 1 4 37
M  V30 42 1 5 38
M  V30 43 1 6 39
M  V30 44 1 7 40
M  V30 45 1 12 41
M  V30 46 1 13 42
M  V30 47 1 18 43
M  V30 48 1 19 44
M  V30 49 1 22 45
M  V30 50 1 23 46
M  V30 51 1 25 47
M  V30 52 1 27 48
M  V30 53 1 28 49
M  V30 54 1 28 50
M  V30 55 1 29 51
M  V30 56 1 29 52
M  V30 57 1 30 53
M  V30 58 1 31 54
M  V30 59 1 31 55
M  V30 60 1 32 56
M  V30 61 1 32 57
M  V30 END BOND
M  V30 END CTAB
M  END
>  <Dataset>  (838) 
ChEMBL_Kinases

>  <Ligand_Instance>  (838) 
nan

>  <PDB_ID>  (838) 
nan

>  <Standardized_SMILES>  (838) 
COc1ccccc1Oc1nccc(-c2c(-c3ccc(F)cc3)ncn2C2CCNCC2)n1

>  <Name>  (838) 
nan

>  <Pocket>  (838) 
nan

>  <ATP_Site>  (838) 
nan

>  <Peripheral>  (838) 
nan

>  <Num_H_Atoms_ProtBoundConf>  (838) 
nan

>  <Num_Resolved_Atoms>  (838) 
nan

>  <Num_Not_Resolved_Atoms>  (838) 
nan

$$$$
CHEMBL4177432
     RDKit          3D

  0  0  0  0  0  0  0  0  0  0999 V3000
M  V30 BEGIN CTAB
M  V30 COUNTS 32 34 0 0 0
M  V30 BEGIN ATOM
M  V30 1 O 2.013788 0.192071 3.735883 0
M  V30 2 C 2.304419 -0.816617 3.035526 0
M  V30 3 O 3.045833 -1.699473 3.782087 0
M  V30 4 C 1.888785 -0.967297 1.649250 0
M  V30 5 N 2.248812 -2.073568 0.944300 0
M  V30 6 C 1.871219 -2.203325 -0.354488 0
M  V30 7 C 2.208663 -3.293676 -1.096526 0
M  V30 8 C 1.818446 -3.415670 -2.421567 0
M  V30 9 C 1.071147 -2.428006 -3.031990 0
M  V30 10 C 0.705918 -1.293031 -2.299829 0
M  V30 11 C 1.124213 -1.225938 -0.978671 0
M  V30 12 N 0.776524 -0.126100 -0.247762 0
M  V30 13 C 1.143192 0.021043 1.050850 0
M  V30 14 N 0.692045 1.215694 1.721550 0
M  V30 15 C -0.678527 0.935855 1.968570 0
M  V30 16 C -1.365694 0.336957 3.002773 0
M  V30 17 C -2.733075 0.191584 2.983178 0
M  V30 18 C -3.456453 0.653761 1.903769 0
M  V30 19 C -2.848672 1.264863 0.828913 0
M  V30 20 O -3.594687 1.721530 -0.247893 0
M  V30 21 C -1.455806 1.390647 0.892582 0
M  V30 22 H 2.890530 -1.923469 4.762715 0
M  V30 23 H 2.787153 -4.102936 -0.689679 0
M  V30 24 H 2.079254 -4.288104 -3.044124 0
M  V30 25 H 0.721031 -2.437632 -4.069025 0
M  V30 26 H 0.112797 -0.470753 -2.728191 0
M  V30 27 H 1.294034 2.063498 1.943900 0
M  V30 28 H -0.689107 0.022464 3.781035 0
M  V30 29 H -3.113158 -0.296720 3.867024 0
M  V30 30 H -4.539046 0.503297 1.953916 0
M  V30 31 H -3.560905 1.314772 -1.180304 0
M  V30 32 H -1.064787 1.889981 -0.010397 0
M  V30 END ATOM
M  V30 BEGIN BOND
M  V30 1 2 1 2
M  V30 2 1 2 3
M  V30 3 1 2 4
M  V30 4 2 4 5
M  V30 5 1 5 6
M  V30 6 2 6 7
M  V30 7 1 7 8
M  V30 8 2 8 9
M  V30 9 1 9 10
M  V30 10 2 10 11
M  V30 11 1 11 12
M  V30 12 2 12 13
M  V30 13 1 13 14
M  V30 14 1 14 15
M  V30 15 2 15 16
M  V30 16 1 16 17
M  V30 17 2 17 18
M  V30 18 1 18 19
M  V30 19 1 19 20
M  V30 20 2 19 21
M  V30 21 1 13 4
M  V30 22 1 21 15
M  V30 23 1 11 6
M  V30 24 1 3 22
M  V30 25 1 7 23
M  V30 26 1 8 24
M  V30 27 1 9 25
M  V30 28 1 10 26
M  V30 29 1 14 27
M  V30 30 1 16 28
M  V30 31 1 17 29
M  V30 32 1 18 30
M  V30 33 1 20 31
M  V30 34 1 21 32
M  V30 END BOND
M  V30 END CTAB
M  END
>  <Dataset>  (839) 
ChEMBL_Kinases

>  <Ligand_Instance>  (839) 
nan

>  <PDB_ID>  (839) 
nan

>  <Standardized_SMILES>  (839) 
O=C(O)c1nc2ccccc2nc1Nc1cccc(O)c1

>  <Name>  (839) 
nan

>  <Pocket>  (839) 
nan

>  <ATP_Site>  (839) 
nan

>  <Peripheral>  (839) 
nan

>  <Num_H_Atoms_ProtBoundConf>  (839) 
nan

>  <Num_Resolved_Atoms>  (839) 
nan

>  <Num_Not_Resolved_Atoms>  (839) 
nan

$$$$
CHEMBL3675402
     RDKit          3D

  0  0  0  0  0  0  0  0  0  0999 V3000
M  V30 BEGIN CTAB
M  V30 COUNTS 60 63 0 0 0
M  V30 BEGIN ATOM
M  V30 1 C -0.578749 -0.956809 4.116818 0
M  V30 2 N 0.243579 -1.481621 3.051102 0
M  V30 3 C 1.232010 -2.356078 3.640627 0
M  V30 4 C 0.901386 -0.475693 2.291155 0
M  V30 5 C -0.051046 0.359905 1.463334 0
M  V30 6 N 0.586878 1.387017 0.684477 0
M  V30 7 C 0.197833 2.439777 -0.170988 0
M  V30 8 N -1.074718 2.731510 -0.455883 0
M  V30 9 C -1.505034 3.715487 -1.247777 0
M  V30 10 N -0.579131 4.493573 -1.818237 0
M  V30 11 C 0.707304 4.258326 -1.577322 0
M  V30 12 C 1.625415 5.083992 -2.187856 0
M  V30 13 C 1.180635 6.169310 -3.054369 0
M  V30 14 N -0.205869 6.375305 -3.242461 0
M  V30 15 O 1.968229 6.943581 -3.652789 0
M  V30 16 C 2.985404 4.943477 -2.020534 0
M  V30 17 C 3.414252 3.925249 -1.202099 0
M  V30 18 C 2.494295 3.113936 -0.602755 0
M  V30 19 C 1.141298 3.248285 -0.765026 0
M  V30 20 C -1.045204 -0.454981 0.766919 0
M  V30 21 C -2.309817 -0.206180 0.296490 0
M  V30 22 C -3.073679 -1.133390 -0.369881 0
M  V30 23 C -2.614193 -2.407940 -0.618157 0
M  V30 24 C -1.348517 -2.712969 -0.166186 0
M  V30 25 N -0.883893 -4.030700 -0.427809 0
M  V30 26 C -1.183704 -4.984398 0.566713 0
M  V30 27 O -1.833674 -4.404626 1.506039 0
M  V30 28 C -0.848110 -6.397922 0.594607 0
M  V30 29 C -1.314078 -7.088812 1.716209 0
M  V30 30 C -1.079664 -8.430843 1.888335 0
M  V30 31 C -0.368752 -9.167262 0.957333 0
M  V30 32 C 0.097080 -8.499891 -0.154157 0
M  V30 33 C -0.146915 -7.166536 -0.305492 0
M  V30 34 F 0.299609 -6.495350 -1.382500 0
M  V30 35 C -0.605658 -1.760346 0.499423 0
M  V30 36 H -0.180888 -0.004245 4.534002 0
M  V30 37 H -0.613247 -1.742534 4.913982 0
M  V30 38 H -1.628965 -0.783562 3.818234 0
M  V30 39 H 2.245680 -1.999519 3.371032 0
M  V30 40 H 1.121857 -3.386270 3.240326 0
M  V30 41 H 1.161956 -2.347631 4.758898 0
M  V30 42 H 1.456460 0.174213 3.030112 0
M  V30 43 H 1.687666 -0.851957 1.618046 0
M  V30 44 H -0.641069 0.942484 2.250796 0
M  V30 45 H 1.593156 1.255204 0.843149 0
M  V30 46 H -2.567846 3.812339 -1.370717 0
M  V30 47 H -1.011801 7.010819 -3.050214 0
M  V30 48 H -1.218090 6.541244 -3.370698 0
M  V30 49 H 3.619803 5.644061 -2.544375 0
M  V30 50 H 4.473812 3.802617 -1.060857 0
M  V30 51 H 2.906042 2.340346 0.021862 0
M  V30 52 H -2.666999 0.787590 0.511162 0
M  V30 53 H -4.058015 -0.809454 -0.690517 0
M  V30 54 H -3.303578 -3.042751 -1.148341 0
M  V30 55 H -0.354610 -4.357044 -1.263429 0
M  V30 56 H -1.884454 -6.588011 2.502419 0
M  V30 57 H -1.447935 -8.932613 2.754878 0
M  V30 58 H -0.194408 -10.221519 1.110718 0
M  V30 59 H 0.659277 -9.005513 -0.922822 0
M  V30 60 H 0.378064 -2.159641 0.789918 0
M  V30 END ATOM
M  V30 BEGIN BOND
M  V30 1 1 1 2
M  V30 2 1 2 3
M  V30 3 1 2 4
M  V30 4 1 4 5
M  V30 5 1 5 6
M  V30 6 1 6 7
M  V30 7 2 7 8
M  V30 8 1 8 9
M  V30 9 2 9 10
M  V30 10 1 10 11
M  V30 11 2 11 12
M  V30 12 1 12 13
M  V30 13 1 13 14
M  V30 14 2 13 15
M  V30 15 1 12 16
M  V30 16 2 16 17
M  V30 17 1 17 18
M  V30 18 2 18 19
M  V30 19 1 5 20
M  V30 20 2 20 21
M  V30 21 1 21 22
M  V30 22 2 22 23
M  V30 23 1 23 24
M  V30 24 1 24 25
M  V30 25 1 25 26
M  V30 26 2 26 27
M  V30 27 1 26 28
M  V30 28 2 28 29
M  V30 29 1 29 30
M  V30 30 2 30 31
M  V30 31 1 31 32
M  V30 32 2 32 33
M  V30 33 1 33 34
M  V30 34 2 24 35
M  V30 35 1 19 7
M  V30 36 1 35 20
M  V30 37 1 19 11
M  V30 38 1 33 28
M  V30 39 1 1 36
M  V30 40 1 1 37
M  V30 41 1 1 38
M  V30 42 1 3 39
M  V30 43 1 3 40
M  V30 44 1 3 41
M  V30 45 1 4 42
M  V30 46 1 4 43
M  V30 47 1 5 44
M  V30 48 1 6 45
M  V30 49 1 9 46
M  V30 50 1 14 47
M  V30 51 1 14 48
M  V30 52 1 16 49
M  V30 53 1 17 50
M  V30 54 1 18 51
M  V30 55 1 21 52
M  V30 56 1 22 53
M  V30 57 1 23 54
M  V30 58 1 25 55
M  V30 59 1 29 56
M  V30 60 1 30 57
M  V30 61 1 31 58
M  V30 62 1 32 59
M  V30 63 1 35 60
M  V30 END BOND
M  V30 END CTAB
M  END
>  <Dataset>  (840) 
ChEMBL_Kinases

>  <Ligand_Instance>  (840) 
nan

>  <PDB_ID>  (840) 
nan

>  <Standardized_SMILES>  (840) 
CN(C)CC(Nc1ncnc2c(C(N)=O)cccc12)c1cccc(NC(=O)c2ccccc2F)c1

>  <Name>  (840) 
nan

>  <Pocket>  (840) 
nan

>  <ATP_Site>  (840) 
nan

>  <Peripheral>  (840) 
nan

>  <Num_H_Atoms_ProtBoundConf>  (840) 
nan

>  <Num_Resolved_Atoms>  (840) 
nan

>  <Num_Not_Resolved_Atoms>  (840) 
nan

$$$$
CHEMBL4175722
     RDKit          3D

  0  0  0  0  0  0  0  0  0  0999 V3000
M  V30 BEGIN CTAB
M  V30 COUNTS 70 75 0 0 0
M  V30 BEGIN ATOM
M  V30 1 C 2.566972 -1.655110 3.159597 0
M  V30 2 C 3.744703 -1.532063 2.240899 0
M  V30 3 C 4.097310 -0.094035 1.928308 0 CFG=2
M  V30 4 C 4.439726 0.694118 3.140838 0
M  V30 5 O 5.643773 0.872795 3.515636 0
M  V30 6 N 3.473669 1.314696 3.986458 0
M  V30 7 C 3.689543 1.741373 5.361632 0
M  V30 8 C 2.184545 1.522844 3.399345 0
M  V30 9 C 1.118685 2.099258 4.058796 0
M  V30 10 N -0.079671 2.266152 3.462304 0
M  V30 11 C -0.248999 1.863359 2.192277 0
M  V30 12 N -1.503058 2.007039 1.486437 0
M  V30 13 C -2.355758 3.034493 1.325415 0
M  V30 14 C -3.406997 2.603482 0.543639 0
M  V30 15 C -3.186223 1.274478 0.220108 0
M  V30 16 C -3.934771 0.366375 -0.543381 0
M  V30 17 C -3.478004 -0.926306 -0.712378 0
M  V30 18 C -4.292477 -1.834225 -1.515466 0
M  V30 19 O -5.358696 -1.365847 -1.996181 0
M  V30 20 N -3.932724 -3.186955 -1.764647 0
M  V30 21 C -4.725822 -4.095945 -2.554625 0
M  V30 22 C -5.115827 -5.331928 -1.823797 0
M  V30 23 C -5.510478 -6.262398 -2.968580 0
M  V30 24 C -4.668718 -5.830338 -4.147388 0
M  V30 25 C -3.959499 -4.567098 -3.779106 0
M  V30 26 C -2.287144 -1.296648 -0.121756 0
M  V30 27 C -1.566976 -0.384009 0.626125 0
M  V30 28 C -1.982471 0.917663 0.823126 0
M  V30 29 N 0.800727 1.319355 1.607500 0
M  V30 30 C 2.008084 1.111525 2.097549 0
M  V30 31 N 2.942726 0.494508 1.224495 0
M  V30 32 C 2.970277 0.335702 -0.185227 0
M  V30 33 C 1.835862 0.931759 -0.970763 0
M  V30 34 C 2.172846 2.371233 -1.104458 0
M  V30 35 C 3.662839 2.481755 -0.743599 0
M  V30 36 C 4.149163 1.052686 -0.859038 0
M  V30 37 H 2.342617 -2.733001 3.327359 0
M  V30 38 H 1.652602 -1.236300 2.698231 0
M  V30 39 H 2.727014 -1.205444 4.155012 0
M  V30 40 H 4.618226 -2.106491 2.602407 0
M  V30 41 H 3.452775 -2.041894 1.283649 0
M  V30 42 H 5.022236 -0.059185 1.310691 0
M  V30 43 H 4.765298 1.544733 5.595819 0
M  V30 44 H 3.539768 2.822960 5.447172 0
M  V30 45 H 3.047172 1.178657 6.078203 0
M  V30 46 H 1.278534 2.422114 5.097341 0
M  V30 47 H -2.152116 3.981990 1.773805 0
M  V30 48 H -4.244813 3.213035 0.248162 0
M  V30 49 H -4.872326 0.743053 -0.978983 0
M  V30 50 H -3.048769 -3.573691 -1.365871 0
M  V30 51 H -5.631973 -3.558671 -2.912048 0
M  V30 52 H -5.952060 -5.120303 -1.152245 0
M  V30 53 H -4.242166 -5.789658 -1.315615 0
M  V30 54 H -5.250512 -7.291940 -2.668101 0
M  V30 55 H -6.568730 -6.167838 -3.225271 0
M  V30 56 H -3.871018 -6.585956 -4.377707 0
M  V30 57 H -5.289239 -5.628718 -5.052100 0
M  V30 58 H -3.988590 -3.803927 -4.586862 0
M  V30 59 H -2.898140 -4.710389 -3.477099 0
M  V30 60 H -1.917571 -2.303997 -0.245884 0
M  V30 61 H -0.638383 -0.710496 1.073640 0
M  V30 62 H 3.127861 -0.746165 -0.476206 0
M  V30 63 H 0.824613 0.694576 -0.603150 0
M  V30 64 H 1.940165 0.466967 -2.010336 0
M  V30 65 H 2.020883 2.690907 -2.164896 0
M  V30 66 H 1.538672 2.978357 -0.435871 0
M  V30 67 H 3.776059 2.909111 0.253622 0
M  V30 68 H 4.119760 3.140144 -1.484860 0
M  V30 69 H 5.114777 0.840575 -0.450577 0
M  V30 70 H 4.032011 0.798821 -1.953015 0
M  V30 END ATOM
M  V30 BEGIN BOND
M  V30 1 1 1 2
M  V30 2 1 2 3
M  V30 3 1 3 4
M  V30 4 2 4 5
M  V30 5 1 4 6
M  V30 6 1 6 7
M  V30 7 1 6 8
M  V30 8 2 8 9
M  V30 9 1 9 10
M  V30 10 2 10 11
M  V30 11 1 11 12
M  V30 12 1 12 13
M  V30 13 2 13 14
M  V30 14 1 14 15
M  V30 15 2 15 16
M  V30 16 1 16 17
M  V30 17 1 17 18
M  V30 18 2 18 19
M  V30 19 1 18 20
M  V30 20 1 20 21
M  V30 21 1 21 22
M  V30 22 1 22 23
M  V30 23 1 23 24
M  V30 24 1 24 25
M  V30 25 2 17 26
M  V30 26 1 26 27
M  V30 27 2 27 28
M  V30 28 1 11 29
M  V30 29 2 29 30
M  V30 30 1 30 31
M  V30 31 1 31 32
M  V30 32 1 32 33
M  V30 33 1 33 34
M  V30 34 1 34 35
M  V30 35 1 35 36
M  V30 36 1 31 3
M  V30 37 1 36 32
M  V30 38 1 30 8
M  V30 39 1 28 12
M  V30 40 1 28 15
M  V30 41 1 25 21
M  V30 42 1 1 37
M  V30 43 1 1 38
M  V30 44 1 1 39
M  V30 45 1 2 40
M  V30 46 1 2 41
M  V30 47 1 3 42 CFG=3
M  V30 48 1 7 43
M  V30 49 1 7 44
M  V30 50 1 7 45
M  V30 51 1 9 46
M  V30 52 1 13 47
M  V30 53 1 14 48
M  V30 54 1 16 49
M  V30 55 1 20 50
M  V30 56 1 21 51
M  V30 57 1 22 52
M  V30 58 1 22 53
M  V30 59 1 23 54
M  V30 60 1 23 55
M  V30 61 1 24 56
M  V30 62 1 24 57
M  V30 63 1 25 58
M  V30 64 1 25 59
M  V30 65 1 26 60
M  V30 66 1 27 61
M  V30 67 1 32 62
M  V30 68 1 33 63
M  V30 69 1 33 64
M  V30 70 1 34 65
M  V30 71 1 34 66
M  V30 72 1 35 67
M  V30 73 1 35 68
M  V30 74 1 36 69
M  V30 75 1 36 70
M  V30 END BOND
M  V30 END CTAB
M  END
>  <Dataset>  (841) 
ChEMBL_Kinases

>  <Ligand_Instance>  (841) 
nan

>  <PDB_ID>  (841) 
nan

>  <Standardized_SMILES>  (841) 
CC[C@@H]1C(=O)N(C)c2cnc(-n3ccc4cc(C(=O)NC5CCCC5)ccc43)nc2N1C1CCCC1

>  <Name>  (841) 
nan

>  <Pocket>  (841) 
nan

>  <ATP_Site>  (841) 
nan

>  <Peripheral>  (841) 
nan

>  <Num_H_Atoms_ProtBoundConf>  (841) 
nan

>  <Num_Resolved_Atoms>  (841) 
nan

>  <Num_Not_Resolved_Atoms>  (841) 
nan

$$$$
CHEMBL3322935
     RDKit          3D

  0  0  0  0  0  0  0  0  0  0999 V3000
M  V30 BEGIN CTAB
M  V30 COUNTS 57 60 0 0 0
M  V30 BEGIN ATOM
M  V30 1 C 7.242254 -4.486458 2.161958 0
M  V30 2 O 6.832435 -3.187905 2.576517 0
M  V30 3 C 5.790988 -2.607222 1.842441 0
M  V30 4 O 5.344056 -3.311986 0.900236 0
M  V30 5 C 5.279918 -1.273935 2.171513 0
M  V30 6 C 5.769240 -0.486470 3.212557 0
M  V30 7 C 5.216680 0.757289 3.439071 0
M  V30 8 C 4.183001 1.265691 2.667561 0
M  V30 9 C 3.722894 0.462069 1.647134 0
M  V30 10 N 2.665676 0.894551 0.801377 0
M  V30 11 C 2.777424 1.618203 -0.412933 0
M  V30 12 O 3.916742 1.940214 -0.836136 0
M  V30 13 C 1.611617 2.005885 -1.195498 0
M  V30 14 C 0.317263 1.706171 -0.829002 0
M  V30 15 C -0.789664 2.085756 -1.592860 0
M  V30 16 N -2.085348 1.725151 -1.124246 0
M  V30 17 C -2.263284 0.383643 -0.938963 0
M  V30 18 C -3.554367 0.200941 -0.487844 0
M  V30 19 C -4.244034 -1.055039 -0.137649 0
M  V30 20 C -5.550767 -0.951130 0.292344 0
M  V30 21 C -6.145823 -2.154244 0.606025 0
M  V30 22 O -7.465554 -2.208626 1.055244 0
M  V30 23 C -8.175420 -0.974427 1.177769 0
M  V30 24 C -5.539537 -3.389384 0.518402 0
M  V30 25 C -4.227070 -3.435716 0.081061 0
M  V30 26 O -3.481358 -4.595608 -0.060598 0
M  V30 27 C -4.007511 -5.873856 0.236983 0
M  V30 28 C -3.579159 -2.258869 -0.247942 0
M  V30 29 N -4.114274 1.422000 -0.413860 0
M  V30 30 N -3.220668 2.335044 -0.799672 0
M  V30 31 C -0.600929 2.795491 -2.774623 0
M  V30 32 C 0.691470 3.099805 -3.149038 0
M  V30 33 C 1.731631 2.703126 -2.363522 0
M  V30 34 O 3.032998 3.032251 -2.778987 0
M  V30 35 C 4.250667 -0.798901 1.382793 0
M  V30 36 H 6.535523 -5.220153 2.618046 0
M  V30 37 H 7.248069 -4.562320 1.055969 0
M  V30 38 H 8.236144 -4.729894 2.581245 0
M  V30 39 H 6.580425 -0.901802 3.807274 0
M  V30 40 H 5.591203 1.372391 4.244064 0
M  V30 41 H 3.752552 2.252412 2.855822 0
M  V30 42 H 1.740149 0.607899 1.188183 0
M  V30 43 H 0.127978 1.156343 0.081775 0
M  V30 44 H -1.631624 -0.500399 -1.068645 0
M  V30 45 H -6.065720 -0.018525 0.377818 0
M  V30 46 H -7.730019 -0.397871 2.030503 0
M  V30 47 H -8.096233 -0.355152 0.251870 0
M  V30 48 H -9.256835 -1.169714 1.329998 0
M  V30 49 H -6.022645 -4.313275 0.768037 0
M  V30 50 H -4.688885 -5.842395 1.133185 0
M  V30 51 H -3.166975 -6.574767 0.493467 0
M  V30 52 H -4.511682 -6.311613 -0.645056 0
M  V30 53 H -2.553967 -2.256561 -0.593182 0
M  V30 54 H -1.459483 3.087835 -3.363508 0
M  V30 55 H 0.861025 3.649497 -4.061727 0
M  V30 56 H 3.384135 2.531341 -3.587622 0
M  V30 57 H 3.856689 -1.400535 0.565962 0
M  V30 END ATOM
M  V30 BEGIN BOND
M  V30 1 1 1 2
M  V30 2 1 2 3
M  V30 3 2 3 4
M  V30 4 1 3 5
M  V30 5 2 5 6
M  V30 6 1 6 7
M  V30 7 2 7 8
M  V30 8 1 8 9
M  V30 9 1 9 10
M  V30 10 1 10 11
M  V30 11 2 11 12
M  V30 12 1 11 13
M  V30 13 2 13 14
M  V30 14 1 14 15
M  V30 15 1 15 16
M  V30 16 1 16 17
M  V30 17 2 17 18
M  V30 18 1 18 19
M  V30 19 2 19 20
M  V30 20 1 20 21
M  V30 21 1 21 22
M  V30 22 1 22 23
M  V30 23 2 21 24
M  V30 24 1 24 25
M  V30 25 1 25 26
M  V30 26 1 26 27
M  V30 27 2 25 28
M  V30 28 1 18 29
M  V30 29 2 29 30
M  V30 30 2 15 31
M  V30 31 1 31 32
M  V30 32 2 32 33
M  V30 33 1 33 34
M  V30 34 2 9 35
M  V30 35 1 35 5
M  V30 36 1 33 13
M  V30 37 1 30 16
M  V30 38 1 28 19
M  V30 39 1 1 36
M  V30 40 1 1 37
M  V30 41 1 1 38
M  V30 42 1 6 39
M  V30 43 1 7 40
M  V30 44 1 8 41
M  V30 45 1 10 42
M  V30 46 1 14 43
M  V30 47 1 17 44
M  V30 48 1 20 45
M  V30 49 1 23 46
M  V30 50 1 23 47
M  V30 51 1 23 48
M  V30 52 1 24 49
M  V30 53 1 27 50
M  V30 54 1 27 51
M  V30 55 1 27 52
M  V30 56 1 28 53
M  V30 57 1 31 54
M  V30 58 1 32 55
M  V30 59 1 34 56
M  V30 60 1 35 57
M  V30 END BOND
M  V30 END CTAB
M  END
>  <Dataset>  (842) 
ChEMBL_Kinases

>  <Ligand_Instance>  (842) 
nan

>  <PDB_ID>  (842) 
nan

>  <Standardized_SMILES>  (842) 
COC(=O)c1cccc(NC(=O)c2cc(-n3cc(-c4cc(OC)cc(OC)c4)nn3)ccc2O)c1

>  <Name>  (842) 
nan

>  <Pocket>  (842) 
nan

>  <ATP_Site>  (842) 
nan

>  <Peripheral>  (842) 
nan

>  <Num_H_Atoms_ProtBoundConf>  (842) 
nan

>  <Num_Resolved_Atoms>  (842) 
nan

>  <Num_Not_Resolved_Atoms>  (842) 
nan

$$$$
CHEMBL3675401
     RDKit          3D

  0  0  0  0  0  0  0  0  0  0999 V3000
M  V30 BEGIN CTAB
M  V30 COUNTS 63 66 0 0 0
M  V30 BEGIN ATOM
M  V30 1 C 0.690307 0.978138 5.421580 0
M  V30 2 N -0.244996 1.505527 4.404413 0
M  V30 3 C 0.590232 2.293906 3.522888 0
M  V30 4 C -0.892272 0.413419 3.759588 0
M  V30 5 C -1.954298 0.800069 2.729470 0
M  V30 6 N -1.410084 1.563114 1.660318 0
M  V30 7 C -0.536930 1.721488 0.569309 0
M  V30 8 N 0.229190 0.653915 0.333928 0
M  V30 9 C 1.115507 0.617418 -0.645459 0
M  V30 10 N 1.250327 1.696052 -1.434824 0
M  V30 11 C 0.505885 2.804121 -1.248131 0
M  V30 12 C 0.572544 3.950516 -1.997795 0
M  V30 13 C 1.556896 3.918935 -3.094348 0
M  V30 14 N 2.390928 2.806064 -3.378490 0
M  V30 15 O 1.675109 4.937425 -3.832623 0
M  V30 16 C -0.187000 5.083150 -1.805607 0
M  V30 17 C -1.085631 5.034034 -0.761632 0
M  V30 18 C -1.200354 3.913266 0.027318 0
M  V30 19 C -0.409832 2.834934 -0.231597 0
M  V30 20 C -2.430238 -0.526074 2.193812 0
M  V30 21 C -3.810402 -0.768150 2.210799 0
M  V30 22 C -4.408053 -1.932770 1.788587 0
M  V30 23 C -3.600736 -2.934896 1.315476 0
M  V30 24 C -2.233140 -2.769843 1.268616 0
M  V30 25 N -1.305669 -3.771038 0.787777 0
M  V30 26 C -0.917825 -3.855001 -0.581902 0
M  V30 27 O -1.422165 -3.013228 -1.368973 0
M  V30 28 C 0.008469 -4.850145 -1.068141 0
M  V30 29 C 0.261195 -4.799241 -2.444686 0
M  V30 30 C 1.154140 -5.753869 -2.926689 0
M  V30 31 C 1.786917 -6.717795 -2.158004 0
M  V30 32 C 2.729324 -7.704408 -2.741655 0
M  V30 33 F 2.185696 -8.962918 -2.756205 0
M  V30 34 F 3.200940 -7.312798 -3.964118 0
M  V30 35 F 3.836296 -7.740860 -1.884012 0
M  V30 36 C 1.474596 -6.686932 -0.816516 0
M  V30 37 C 0.603744 -5.782048 -0.245964 0
M  V30 38 C -1.721713 -1.571248 1.712168 0
M  V30 39 H 0.193158 0.903185 6.400054 0
M  V30 40 H 1.527062 1.691020 5.553517 0
M  V30 41 H 1.073079 0.019996 5.043944 0
M  V30 42 H 1.122838 1.577729 2.879503 0
M  V30 43 H 0.009568 3.069724 3.014357 0
M  V30 44 H 1.394437 2.823051 4.096352 0
M  V30 45 H -1.349388 -0.231335 4.544759 0
M  V30 46 H -0.148052 -0.274351 3.257835 0
M  V30 47 H -2.808530 1.292655 3.259047 0
M  V30 48 H -1.946330 2.445041 1.767235 0
M  V30 49 H 1.775619 -0.212735 -0.899987 0
M  V30 50 H 1.822258 2.195795 -4.023324 0
M  V30 51 H 3.352476 2.681201 -2.997000 0
M  V30 52 H -0.060768 5.944742 -2.455006 0
M  V30 53 H -1.678029 5.947289 -0.628011 0
M  V30 54 H -1.937214 4.018614 0.798703 0
M  V30 55 H -4.500712 -0.002292 2.578983 0
M  V30 56 H -5.475761 -2.071824 1.820482 0
M  V30 57 H -4.004761 -3.874531 0.967211 0
M  V30 58 H -0.929912 -4.434572 1.497367 0
M  V30 59 H -0.190808 -4.081064 -3.117844 0
M  V30 60 H 1.368340 -5.736931 -3.983481 0
M  V30 61 H 1.949413 -7.421730 -0.181607 0
M  V30 62 H 0.400980 -5.811459 0.816429 0
M  V30 63 H -0.661330 -1.462015 1.692096 0
M  V30 END ATOM
M  V30 BEGIN BOND
M  V30 1 1 1 2
M  V30 2 1 2 3
M  V30 3 1 2 4
M  V30 4 1 4 5
M  V30 5 1 5 6
M  V30 6 1 6 7
M  V30 7 2 7 8
M  V30 8 1 8 9
M  V30 9 2 9 10
M  V30 10 1 10 11
M  V30 11 2 11 12
M  V30 12 1 12 13
M  V30 13 1 13 14
M  V30 14 2 13 15
M  V30 15 1 12 16
M  V30 16 2 16 17
M  V30 17 1 17 18
M  V30 18 2 18 19
M  V30 19 1 5 20
M  V30 20 2 20 21
M  V30 21 1 21 22
M  V30 22 2 22 23
M  V30 23 1 23 24
M  V30 24 1 24 25
M  V30 25 1 25 26
M  V30 26 2 26 27
M  V30 27 1 26 28
M  V30 28 2 28 29
M  V30 29 1 29 30
M  V30 30 2 30 31
M  V30 31 1 31 32
M  V30 32 1 32 33
M  V30 33 1 32 34
M  V30 34 1 32 35
M  V30 35 1 31 36
M  V30 36 2 36 37
M  V30 37 2 24 38
M  V30 38 1 19 7
M  V30 39 1 38 20
M  V30 40 1 19 11
M  V30 41 1 37 28
M  V30 42 1 1 39
M  V30 43 1 1 40
M  V30 44 1 1 41
M  V30 45 1 3 42
M  V30 46 1 3 43
M  V30 47 1 3 44
M  V30 48 1 4 45
M  V30 49 1 4 46
M  V30 50 1 5 47
M  V30 51 1 6 48
M  V30 52 1 9 49
M  V30 53 1 14 50
M  V30 54 1 14 51
M  V30 55 1 16 52
M  V30 56 1 17 53
M  V30 57 1 18 54
M  V30 58 1 21 55
M  V30 59 1 22 56
M  V30 60 1 23 57
M  V30 61 1 25 58
M  V30 62 1 29 59
M  V30 63 1 30 60
M  V30 64 1 36 61
M  V30 65 1 37 62
M  V30 66 1 38 63
M  V30 END BOND
M  V30 END CTAB
M  END
>  <Dataset>  (843) 
ChEMBL_Kinases

>  <Ligand_Instance>  (843) 
nan

>  <PDB_ID>  (843) 
nan

>  <Standardized_SMILES>  (843) 
CN(C)CC(Nc1ncnc2c(C(N)=O)cccc12)c1cccc(NC(=O)c2ccc(C(F)(F)F)cc2)c1

>  <Name>  (843) 
nan

>  <Pocket>  (843) 
nan

>  <ATP_Site>  (843) 
nan

>  <Peripheral>  (843) 
nan

>  <Num_H_Atoms_ProtBoundConf>  (843) 
nan

>  <Num_Resolved_Atoms>  (843) 
nan

>  <Num_Not_Resolved_Atoms>  (843) 
nan

$$$$
CHEMBL417692
     RDKit          3D

  0  0  0  0  0  0  0  0  0  0999 V3000
M  V30 BEGIN CTAB
M  V30 COUNTS 74 77 0 0 0
M  V30 BEGIN ATOM
M  V30 1 C -0.511887 3.531417 4.324778 0
M  V30 2 C -0.404556 2.721482 3.289438 0
M  V30 3 C -1.264813 1.531862 3.048892 0 CFG=1
M  V30 4 C -1.470142 0.823500 4.391656 0
M  V30 5 C -2.604943 1.878434 2.512486 0
M  V30 6 C -2.735106 1.813448 1.032947 0
M  V30 7 C -2.411358 0.490208 0.445302 0 CFG=2
M  V30 8 C -2.141740 0.740190 -1.048386 0
M  V30 9 C -3.454376 -0.557344 0.525623 0
M  V30 10 C -3.898289 -0.949967 1.889479 0
M  V30 11 C -4.650319 -0.163656 -0.302907 0
M  V30 12 C -1.089342 0.064161 0.972032 0
M  V30 13 C -0.333675 -0.860774 0.236997 0
M  V30 14 C 0.936576 -1.373555 0.583830 0
M  V30 15 C 1.437869 -0.897800 1.745665 0
M  V30 16 C 2.559823 -1.034957 2.490158 0
M  V30 17 C 2.493909 -0.239529 3.623529 0
M  V30 18 N 1.318084 0.399023 3.578460 0
M  V30 19 C 0.664877 0.010792 2.442214 0
M  V30 20 C -0.600333 0.560481 2.159074 0
M  V30 21 C 3.836495 -1.789873 2.341790 0
M  V30 22 C 4.695907 -1.088533 1.267403 0 CFG=1
M  V30 23 C 5.972363 -1.742931 1.088022 0
M  V30 24 O 6.795935 -1.105817 0.114733 0
M  V30 25 N 3.838733 -0.972112 0.104223 0
M  V30 26 C 3.510070 -2.260181 -0.383074 0
M  V30 27 O 4.122161 -3.272611 -0.086148 0
M  V30 28 C 2.411157 -2.693931 -1.337509 0 CFG=2
M  V30 29 C 2.501479 -1.913317 -2.609777 0
M  V30 30 C 3.840672 -2.100019 -3.295888 0
M  V30 31 C 1.428499 -2.282081 -3.607297 0
M  V30 32 N 1.217917 -2.291906 -0.514139 0
M  V30 33 C 0.138359 -3.129308 -1.090793 0
M  V30 34 H 0.056073 4.406226 4.583045 0
M  V30 35 H -0.869776 3.948885 5.238904 0
M  V30 36 H 0.379422 3.001261 2.614260 0
M  V30 37 H -0.995382 -0.170039 4.412047 0
M  V30 38 H -2.549689 0.642574 4.549839 0
M  V30 39 H -1.137216 1.445348 5.249411 0
M  V30 40 H -3.435862 1.363352 3.063863 0
M  V30 41 H -2.776532 2.968094 2.779893 0
M  V30 42 H -2.012205 2.578182 0.621356 0
M  V30 43 H -3.725078 2.204903 0.767081 0
M  V30 44 H -1.093684 0.977951 -1.244945 0
M  V30 45 H -2.749978 1.583424 -1.421305 0
M  V30 46 H -2.429056 -0.145890 -1.648472 0
M  V30 47 H -3.032167 -1.467601 0.019045 0
M  V30 48 H -3.072780 -0.955884 2.610355 0
M  V30 49 H -4.246943 -2.023720 1.825336 0
M  V30 50 H -4.805422 -0.404310 2.223078 0
M  V30 51 H -5.421319 0.397807 0.240701 0
M  V30 52 H -4.387767 0.383879 -1.222706 0
M  V30 53 H -5.170062 -1.095767 -0.668586 0
M  V30 54 H -0.921445 -1.105974 -0.670653 0
M  V30 55 H 3.161267 -0.042248 4.485058 0
M  V30 56 H 1.048275 1.065200 4.345917 0
M  V30 57 H 3.557469 -2.771669 1.948332 0
M  V30 58 H 4.445480 -1.928878 3.201564 0
M  V30 59 H 4.876175 -0.030616 1.622169 0
M  V30 60 H 6.010409 -2.806686 0.833887 0
M  V30 61 H 6.580815 -1.710822 2.071237 0
M  V30 62 H 6.567020 -1.414314 -0.784947 0
M  V30 63 H 3.306550 -0.475364 -0.612791 0
M  V30 64 H 2.449089 -3.761478 -1.453977 0
M  V30 65 H 2.401591 -0.830043 -2.400343 0
M  V30 66 H 3.790786 -1.768068 -4.353139 0
M  V30 67 H 4.065642 -3.205560 -3.350714 0
M  V30 68 H 4.679456 -1.604323 -2.818701 0
M  V30 69 H 0.591726 -1.551861 -3.654355 0
M  V30 70 H 1.086137 -3.322621 -3.504392 0
M  V30 71 H 1.901543 -2.173574 -4.635747 0
M  V30 72 H -0.445803 -2.629556 -1.850213 0
M  V30 73 H 0.441680 -4.161964 -1.268578 0
M  V30 74 H -0.576289 -3.216810 -0.205043 0
M  V30 END ATOM
M  V30 BEGIN BOND
M  V30 1 2 1 2
M  V30 2 1 2 3
M  V30 3 1 3 4 CFG=1
M  V30 4 1 3 5
M  V30 5 1 5 6
M  V30 6 1 6 7
M  V30 7 1 7 8 CFG=3
M  V30 8 1 7 9
M  V30 9 1 9 10
M  V30 10 1 9 11
M  V30 11 1 7 12
M  V30 12 2 12 13
M  V30 13 1 13 14
M  V30 14 2 14 15
M  V30 15 1 15 16
M  V30 16 2 16 17
M  V30 17 1 17 18
M  V30 18 1 18 19
M  V30 19 2 19 20
M  V30 20 1 16 21
M  V30 21 1 21 22
M  V30 22 1 22 23
M  V30 23 1 23 24
M  V30 24 1 22 25
M  V30 25 1 25 26
M  V30 26 2 26 27
M  V30 27 1 26 28
M  V30 28 1 28 29
M  V30 29 1 29 30
M  V30 30 1 29 31
M  V30 31 1 28 32
M  V30 32 1 32 33
M  V30 33 1 20 3
M  V30 34 1 20 12
M  V30 35 1 32 14
M  V30 36 1 19 15
M  V30 37 1 1 34
M  V30 38 1 1 35
M  V30 39 1 2 36
M  V30 40 1 4 37
M  V30 41 1 4 38
M  V30 42 1 4 39
M  V30 43 1 5 40
M  V30 44 1 5 41
M  V30 45 1 6 42
M  V30 46 1 6 43
M  V30 47 1 8 44
M  V30 48 1 8 45
M  V30 49 1 8 46
M  V30 50 1 9 47
M  V30 51 1 10 48
M  V30 52 1 10 49
M  V30 53 1 10 50
M  V30 54 1 11 51
M  V30 55 1 11 52
M  V30 56 1 11 53
M  V30 57 1 13 54
M  V30 58 1 17 55
M  V30 59 1 18 56
M  V30 60 1 21 57
M  V30 61 1 21 58
M  V30 62 1 22 59 CFG=1
M  V30 63 1 23 60
M  V30 64 1 23 61
M  V30 65 1 24 62
M  V30 66 1 25 63
M  V30 67 1 28 64 CFG=3
M  V30 68 1 29 65
M  V30 69 1 30 66
M  V30 70 1 30 67
M  V30 71 1 30 68
M  V30 72 1 31 69
M  V30 73 1 31 70
M  V30 74 1 31 71
M  V30 75 1 33 72
M  V30 76 1 33 73
M  V30 77 1 33 74
M  V30 END BOND
M  V30 END CTAB
M  END
>  <Dataset>  (844) 
ChEMBL_Kinases

>  <Ligand_Instance>  (844) 
nan

>  <PDB_ID>  (844) 
nan

>  <Standardized_SMILES>  (844) 
C=C[C@@]1(C)CC[C@](C)(C(C)C)c2cc3c4c(c[nH]c4c21)C[C@@H](CO)NC(=O)[C@H](C(C)C)N3C

>  <Name>  (844) 
nan

>  <Pocket>  (844) 
nan

>  <ATP_Site>  (844) 
nan

>  <Peripheral>  (844) 
nan

>  <Num_H_Atoms_ProtBoundConf>  (844) 
nan

>  <Num_Resolved_Atoms>  (844) 
nan

>  <Num_Not_Resolved_Atoms>  (844) 
nan

$$$$
CHEMBL4176720
     RDKit          3D

  0  0  0  0  0  0  0  0  0  0999 V3000
M  V30 BEGIN CTAB
M  V30 COUNTS 76 81 0 0 0
M  V30 BEGIN ATOM
M  V30 1 O -1.581386 -0.795072 2.258412 0
M  V30 2 C -1.007186 -0.352884 3.308585 0
M  V30 3 N -0.439808 -1.325467 4.172737 0
M  V30 4 C -0.574498 -2.674702 3.768981 0
M  V30 5 C -1.566074 -3.579357 4.146836 0
M  V30 6 C -1.658042 -4.881976 3.710272 0
M  V30 7 C -0.698170 -5.301894 2.842318 0
M  V30 8 C -0.543227 -6.648547 2.225758 0
M  V30 9 C -1.361318 -6.800452 0.970053 0
M  V30 10 N -1.067370 -5.849688 -0.046317 0
M  V30 11 C -0.017058 -5.404013 -0.839414 0
M  V30 12 N 1.178868 -6.029271 -0.733577 0
M  V30 13 C 2.232005 -5.653280 -1.501098 0
M  V30 14 N 2.099283 -4.648264 -2.380872 0
M  V30 15 C 0.928415 -4.000528 -2.516175 0
M  V30 16 O 0.536811 -3.010883 -3.274527 0
M  V30 17 C -0.710278 -2.684264 -3.078740 0
M  V30 18 C -1.326649 -1.608971 -3.824918 0
M  V30 19 C -2.620277 -1.166033 -3.672062 0
M  V30 20 C -3.198231 -0.147639 -4.387921 0
M  V30 21 C -2.456145 0.531205 -5.366413 0
M  V30 22 C -1.165149 0.105569 -5.532802 0
M  V30 23 C -0.651991 -0.904646 -4.796539 0
M  V30 24 C -1.164703 -3.534881 -2.112917 0
M  V30 25 Cl -2.783273 -3.521877 -1.483802 0
M  V30 26 C -0.142617 -4.376455 -1.742414 0
M  V30 27 C 0.319732 -4.465787 2.419973 0
M  V30 28 C 0.374117 -3.169891 2.882251 0
M  V30 29 N -0.982078 1.067091 3.520721 0
M  V30 30 C -1.582558 1.938304 2.542998 0
M  V30 31 C -2.895700 2.354667 2.499900 0
M  V30 32 C -3.319882 3.203484 1.483192 0
M  V30 33 C -2.454703 3.646406 0.505421 0
M  V30 34 C -1.152716 3.207629 0.585541 0
M  V30 35 C -0.667075 2.366648 1.565794 0
M  V30 36 C 0.756466 1.943296 1.583240 0
M  V30 37 N 1.628347 2.795199 0.813429 0
M  V30 38 C 3.014449 2.301469 0.875846 0
M  V30 39 C 3.727843 2.943332 -0.293012 0
M  V30 40 C 3.685299 4.426518 -0.230321 0
M  V30 41 O 3.799574 4.932660 -1.541616 0
M  V30 42 C 2.445200 5.024798 0.359507 0
M  V30 43 C 1.715715 4.150849 1.324533 0
M  V30 44 H 0.030034 -0.975282 5.032437 0
M  V30 45 H -2.301730 -3.200105 4.834146 0
M  V30 46 H -2.403724 -5.580640 3.987987 0
M  V30 47 H -0.897374 -7.391283 2.969583 0
M  V30 48 H 0.507764 -6.909434 1.987651 0
M  V30 49 H -2.423345 -6.945050 1.132364 0
M  V30 50 H -1.013981 -7.802666 0.540417 0
M  V30 51 H -1.964614 -5.349379 -0.204874 0
M  V30 52 H 3.242566 -6.046297 -1.534502 0
M  V30 53 H -3.271933 -1.611704 -2.954653 0
M  V30 54 H -4.222182 0.166795 -4.230077 0
M  V30 55 H -2.973841 1.319841 -5.889967 0
M  V30 56 H -0.611149 0.648087 -6.296467 0
M  V30 57 H 0.391530 -1.134413 -5.041887 0
M  V30 58 H 1.136586 -4.717780 1.726046 0
M  V30 59 H 1.176239 -2.482020 2.559993 0
M  V30 60 H -0.492970 1.282751 4.418274 0
M  V30 61 H -3.521732 1.976369 3.288951 0
M  V30 62 H -4.368791 3.515442 1.476363 0
M  V30 63 H -2.859861 4.296717 -0.240173 0
M  V30 64 H -0.513972 3.581669 -0.205918 0
M  V30 65 H 0.859190 0.922088 1.128477 0
M  V30 66 H 1.080735 1.840042 2.651568 0
M  V30 67 H 3.473237 2.704902 1.799539 0
M  V30 68 H 3.042580 1.206276 0.815732 0
M  V30 69 H 4.814622 2.630963 -0.329297 0
M  V30 70 H 3.221199 2.524660 -1.207497 0
M  V30 71 H 4.615304 4.794655 0.279078 0
M  V30 72 H 4.341100 4.325535 -2.117729 0
M  V30 73 H 2.738596 5.951537 0.903044 0
M  V30 74 H 1.739442 5.339215 -0.457593 0
M  V30 75 H 2.268997 4.128869 2.299976 0
M  V30 76 H 0.740116 4.607411 1.555619 0
M  V30 END ATOM
M  V30 BEGIN BOND
M  V30 1 2 1 2
M  V30 2 1 2 3
M  V30 3 1 3 4
M  V30 4 2 4 5
M  V30 5 1 5 6
M  V30 6 2 6 7
M  V30 7 1 7 8
M  V30 8 1 8 9
M  V30 9 1 9 10
M  V30 10 1 10 11
M  V30 11 2 11 12
M  V30 12 1 12 13
M  V30 13 2 13 14
M  V30 14 1 14 15
M  V30 15 1 15 16
M  V30 16 1 16 17
M  V30 17 1 17 18
M  V30 18 2 18 19
M  V30 19 1 19 20
M  V30 20 2 20 21
M  V30 21 1 21 22
M  V30 22 2 22 23
M  V30 23 2 17 24
M  V30 24 1 24 25
M  V30 25 1 24 26
M  V30 26 1 7 27
M  V30 27 2 27 28
M  V30 28 1 2 29
M  V30 29 1 29 30
M  V30 30 2 30 31
M  V30 31 1 31 32
M  V30 32 2 32 33
M  V30 33 1 33 34
M  V30 34 2 34 35
M  V30 35 1 35 36
M  V30 36 1 36 37
M  V30 37 1 37 38
M  V30 38 1 38 39
M  V30 39 1 39 40
M  V30 40 1 40 41
M  V30 41 1 40 42
M  V30 42 1 42 43
M  V30 43 1 28 4
M  V30 44 1 35 30
M  V30 45 1 43 37
M  V30 46 1 26 11
M  V30 47 2 26 15
M  V30 48 1 23 18
M  V30 49 1 3 44
M  V30 50 1 5 45
M  V30 51 1 6 46
M  V30 52 1 8 47
M  V30 53 1 8 48
M  V30 54 1 9 49
M  V30 55 1 9 50
M  V30 56 1 10 51
M  V30 57 1 13 52
M  V30 58 1 19 53
M  V30 59 1 20 54
M  V30 60 1 21 55
M  V30 61 1 22 56
M  V30 62 1 23 57
M  V30 63 1 27 58
M  V30 64 1 28 59
M  V30 65 1 29 60
M  V30 66 1 31 61
M  V30 67 1 32 62
M  V30 68 1 33 63
M  V30 69 1 34 64
M  V30 70 1 36 65
M  V30 71 1 36 66
M  V30 72 1 38 67
M  V30 73 1 38 68
M  V30 74 1 39 69
M  V30 75 1 39 70
M  V30 76 1 40 71
M  V30 77 1 41 72
M  V30 78 1 42 73
M  V30 79 1 42 74
M  V30 80 1 43 75
M  V30 81 1 43 76
M  V30 END BOND
M  V30 END CTAB
M  END
>  <Dataset>  (845) 
ChEMBL_Kinases

>  <Ligand_Instance>  (845) 
nan

>  <PDB_ID>  (845) 
nan

>  <Standardized_SMILES>  (845) 
O=C(Nc1ccc(CCNc2ncnc3oc(-c4ccccc4)c(Cl)c23)cc1)Nc1ccccc1CN1CCC(O)CC1

>  <Name>  (845) 
nan

>  <Pocket>  (845) 
nan

>  <ATP_Site>  (845) 
nan

>  <Peripheral>  (845) 
nan

>  <Num_H_Atoms_ProtBoundConf>  (845) 
nan

>  <Num_Resolved_Atoms>  (845) 
nan

>  <Num_Not_Resolved_Atoms>  (845) 
nan

$$$$
CHEMBL3675399
     RDKit          3D

  0  0  0  0  0  0  0  0  0  0999 V3000
M  V30 BEGIN CTAB
M  V30 COUNTS 47 49 0 0 0
M  V30 BEGIN ATOM
M  V30 1 C -0.953541 -5.381618 -0.225429 0
M  V30 2 N -1.192579 -4.137446 -0.885199 0
M  V30 3 C -0.315901 -3.057551 -0.463725 0
M  V30 4 C -0.534187 -2.598164 0.932897 0
M  V30 5 N 0.416023 -1.526671 1.228769 0
M  V30 6 C 0.385216 -0.281870 0.555103 0
M  V30 7 N -0.535012 -0.029555 -0.385414 0
M  V30 8 C -0.643849 1.117472 -1.065820 0
M  V30 9 N 0.241531 2.112075 -0.791586 0
M  V30 10 C 1.174326 1.883917 0.147859 0
M  V30 11 C 2.084733 2.860686 0.457514 0
M  V30 12 C 2.133313 4.158364 -0.168673 0
M  V30 13 N 1.148625 4.327586 -1.219214 0
M  V30 14 O 2.345023 5.306733 -0.559078 0
M  V30 15 C 3.096786 2.741965 1.414698 0
M  V30 16 C 3.194590 1.540766 2.112223 0
M  V30 17 O 4.178454 1.351565 3.079603 0
M  V30 18 C 4.320985 0.147881 3.818457 0
M  V30 19 C 2.276975 0.573038 1.791369 0
M  V30 20 C 1.290393 0.713431 0.846291 0
M  V30 21 C -1.881568 -2.011433 1.113470 0
M  V30 22 C -3.023373 -2.021935 0.348137 0
M  V30 23 C -4.186826 -1.403240 0.722580 0
M  V30 24 C -4.235265 -0.731789 1.921672 0
M  V30 25 C -3.136344 -0.678882 2.736519 0
M  V30 26 F -3.251823 -0.004253 3.901817 0
M  V30 27 C -1.981005 -1.318154 2.319541 0
M  V30 28 H -0.330385 -6.082766 -0.821862 0
M  V30 29 H -0.548879 -5.320356 0.781803 0
M  V30 30 H -1.957641 -5.888522 -0.144622 0
M  V30 31 H -1.011363 -4.280923 -1.908317 0
M  V30 32 H -0.539567 -2.223091 -1.155502 0
M  V30 33 H 0.749199 -3.322058 -0.678188 0
M  V30 34 H -0.397184 -3.382098 1.693443 0
M  V30 35 H 1.117502 -1.742490 1.968199 0
M  V30 36 H -1.456047 1.131499 -1.788417 0
M  V30 37 H 0.981972 3.883418 -2.171923 0
M  V30 38 H 0.481348 4.399615 -2.001675 0
M  V30 39 H 3.798704 3.538777 1.629855 0
M  V30 40 H 4.692241 -0.685178 3.169775 0
M  V30 41 H 5.124155 0.345369 4.573145 0
M  V30 42 H 3.361583 -0.102773 4.299549 0
M  V30 43 H 2.385383 -0.329905 2.347789 0
M  V30 44 H -2.892483 -2.568185 -0.572805 0
M  V30 45 H -5.003252 -1.484193 0.041820 0
M  V30 46 H -5.212257 -0.276309 2.120096 0
M  V30 47 H -1.168638 -1.207020 3.055051 0
M  V30 END ATOM
M  V30 BEGIN BOND
M  V30 1 1 1 2
M  V30 2 1 2 3
M  V30 3 1 3 4
M  V30 4 1 4 5
M  V30 5 1 5 6
M  V30 6 2 6 7
M  V30 7 1 7 8
M  V30 8 2 8 9
M  V30 9 1 9 10
M  V30 10 2 10 11
M  V30 11 1 11 12
M  V30 12 1 12 13
M  V30 13 2 12 14
M  V30 14 1 11 15
M  V30 15 2 15 16
M  V30 16 1 16 17
M  V30 17 1 17 18
M  V30 18 1 16 19
M  V30 19 2 19 20
M  V30 20 1 4 21
M  V30 21 2 21 22
M  V30 22 1 22 23
M  V30 23 2 23 24
M  V30 24 1 24 25
M  V30 25 1 25 26
M  V30 26 2 25 27
M  V30 27 1 20 6
M  V30 28 1 27 21
M  V30 29 1 20 10
M  V30 30 1 1 28
M  V30 31 1 1 29
M  V30 32 1 1 30
M  V30 33 1 2 31
M  V30 34 1 3 32
M  V30 35 1 3 33
M  V30 36 1 4 34
M  V30 37 1 5 35
M  V30 38 1 8 36
M  V30 39 1 13 37
M  V30 40 1 13 38
M  V30 41 1 15 39
M  V30 42 1 18 40
M  V30 43 1 18 41
M  V30 44 1 18 42
M  V30 45 1 19 43
M  V30 46 1 22 44
M  V30 47 1 23 45
M  V30 48 1 24 46
M  V30 49 1 27 47
M  V30 END BOND
M  V30 END CTAB
M  END
>  <Dataset>  (846) 
ChEMBL_Kinases

>  <Ligand_Instance>  (846) 
nan

>  <PDB_ID>  (846) 
nan

>  <Standardized_SMILES>  (846) 
CNCC(Nc1ncnc2c(C(N)=O)cc(OC)cc12)c1cccc(F)c1

>  <Name>  (846) 
nan

>  <Pocket>  (846) 
nan

>  <ATP_Site>  (846) 
nan

>  <Peripheral>  (846) 
nan

>  <Num_H_Atoms_ProtBoundConf>  (846) 
nan

>  <Num_Resolved_Atoms>  (846) 
nan

>  <Num_Not_Resolved_Atoms>  (846) 
nan

$$$$
CHEMBL4176717
     RDKit          3D

  0  0  0  0  0  0  0  0  0  0999 V3000
M  V30 BEGIN CTAB
M  V30 COUNTS 37 40 0 0 0
M  V30 BEGIN ATOM
M  V30 1 O -0.323636 -0.221155 3.460540 0
M  V30 2 C -1.392595 -0.853795 3.196265 0
M  V30 3 N -1.702792 -0.933298 1.805234 0
M  V30 4 C -0.880579 -0.349944 0.786661 0
M  V30 5 C 0.141254 -1.067202 0.195915 0
M  V30 6 C 0.924351 -0.465903 -0.794438 0
M  V30 7 C 2.022802 -1.156673 -1.468111 0
M  V30 8 C 1.988361 -2.538153 -1.694437 0
M  V30 9 C 3.061067 -3.103352 -2.332361 0
M  V30 10 C 4.129573 -2.334050 -2.732551 0
M  V30 11 C 4.193720 -0.977243 -2.525518 0
M  V30 12 O 5.318205 -0.316952 -2.973280 0
M  V30 13 C 3.105902 -0.407296 -1.879382 0
M  V30 14 C 0.648833 0.847267 -1.158435 0
M  V30 15 C -0.374534 1.557058 -0.562875 0
M  V30 16 N -0.888888 2.814307 -0.684424 0
M  V30 17 N -1.901005 2.992850 0.149022 0
M  V30 18 C -2.118708 1.869424 0.871284 0
M  V30 19 C -1.166667 0.972599 0.428050 0
M  V30 20 C -2.324858 -1.499838 4.157775 0
M  V30 21 C -2.571441 -0.779252 5.493015 0
M  V30 22 C -1.752276 -2.036338 5.469601 0
M  V30 23 H -2.539033 -1.412120 1.393267 0
M  V30 24 H 0.356582 -2.084167 0.475875 0
M  V30 25 H 1.087100 -3.015707 -1.327452 0
M  V30 26 H 2.978852 -4.183971 -2.482008 0
M  V30 27 H 4.902867 -2.938775 -3.228370 0
M  V30 28 H 5.470333 -0.177354 -3.984358 0
M  V30 29 H 3.160804 0.674865 -1.715903 0
M  V30 30 H 1.223336 1.366011 -1.920914 0
M  V30 31 H -0.524601 3.540326 -1.353625 0
M  V30 32 H -2.857768 1.661688 1.637256 0
M  V30 33 H -3.233636 -2.025807 3.747847 0
M  V30 34 H -3.606279 -0.783325 5.895096 0
M  V30 35 H -2.080369 0.211858 5.549873 0
M  V30 36 H -2.213746 -2.933253 5.920334 0
M  V30 37 H -0.662886 -1.869754 5.628503 0
M  V30 END ATOM
M  V30 BEGIN BOND
M  V30 1 2 1 2
M  V30 2 1 2 3
M  V30 3 1 3 4
M  V30 4 2 4 5
M  V30 5 1 5 6
M  V30 6 1 6 7
M  V30 7 2 7 8
M  V30 8 1 8 9
M  V30 9 2 9 10
M  V30 10 1 10 11
M  V30 11 1 11 12
M  V30 12 2 11 13
M  V30 13 2 6 14
M  V30 14 1 14 15
M  V30 15 1 15 16
M  V30 16 1 16 17
M  V30 17 2 17 18
M  V30 18 1 18 19
M  V30 19 1 2 20
M  V30 20 1 20 21
M  V30 21 1 21 22
M  V30 22 1 19 4
M  V30 23 1 22 20
M  V30 24 1 13 7
M  V30 25 2 19 15
M  V30 26 1 3 23
M  V30 27 1 5 24
M  V30 28 1 8 25
M  V30 29 1 9 26
M  V30 30 1 10 27
M  V30 31 1 12 28
M  V30 32 1 13 29
M  V30 33 1 14 30
M  V30 34 1 16 31
M  V30 35 1 18 32
M  V30 36 1 20 33
M  V30 37 1 21 34
M  V30 38 1 21 35
M  V30 39 1 22 36
M  V30 40 1 22 37
M  V30 END BOND
M  V30 END CTAB
M  END
>  <Dataset>  (847) 
ChEMBL_Kinases

>  <Ligand_Instance>  (847) 
nan

>  <PDB_ID>  (847) 
nan

>  <Standardized_SMILES>  (847) 
O=C(Nc1cc(-c2cccc(O)c2)cc2[nH]ncc12)C1CC1

>  <Name>  (847) 
nan

>  <Pocket>  (847) 
nan

>  <ATP_Site>  (847) 
nan

>  <Peripheral>  (847) 
nan

>  <Num_H_Atoms_ProtBoundConf>  (847) 
nan

>  <Num_Resolved_Atoms>  (847) 
nan

>  <Num_Not_Resolved_Atoms>  (847) 
nan

$$$$
CHEMBL4175934
     RDKit          3D

  0  0  0  0  0  0  0  0  0  0999 V3000
M  V30 BEGIN CTAB
M  V30 COUNTS 47 49 0 0 0
M  V30 BEGIN ATOM
M  V30 1 C -1.097877 -6.083388 3.156889 0
M  V30 2 O 0.106884 -5.568754 3.688497 0
M  V30 3 C 0.749732 -4.441986 3.207981 0
M  V30 4 C 1.934274 -4.019504 3.805262 0
M  V30 5 C 2.620303 -2.898711 3.365232 0
M  V30 6 C 2.046281 -2.241513 2.302288 0
M  V30 7 C 2.691667 -1.065858 1.768887 0
M  V30 8 O 3.725210 -0.443297 2.059653 0
M  V30 9 O 2.189292 -0.341855 0.692837 0
M  V30 10 C 2.795829 0.803464 0.148695 0
M  V30 11 C 2.011809 1.353570 -1.018646 0
M  V30 12 C 2.728569 2.575120 -1.573000 0
M  V30 13 O 2.064382 3.048704 -2.706621 0
M  V30 14 C 0.622673 1.790291 -0.688979 0
M  V30 15 C -0.231198 0.721890 -1.247528 0
M  V30 16 C -1.476927 0.423024 -0.982926 0
M  V30 17 C -2.333035 1.116124 -0.032443 0
M  V30 18 C -3.161571 0.283489 0.732020 0
M  V30 19 C -4.061571 0.708144 1.685636 0
M  V30 20 C -4.165950 2.067801 1.917690 0
M  V30 21 Cl -5.267300 2.729499 3.098366 0
M  V30 22 C -3.366080 2.911456 1.183326 0
M  V30 23 C -2.474104 2.459863 0.235141 0
M  V30 24 C 0.617944 0.029173 -2.198160 0
M  V30 25 O 0.329489 -0.744698 -3.134189 0
M  V30 26 O 1.955397 0.316231 -1.975164 0
M  V30 27 C 0.876965 -2.637744 1.694732 0
M  V30 28 C 0.211627 -3.747548 2.142038 0
M  V30 29 H -1.941425 -5.513933 3.611094 0
M  V30 30 H -1.100296 -5.975277 2.046327 0
M  V30 31 H -1.159387 -7.157457 3.443389 0
M  V30 32 H 2.350359 -4.567933 4.639114 0
M  V30 33 H 3.535660 -2.586032 3.839002 0
M  V30 34 H 3.025450 1.570209 0.924070 0
M  V30 35 H 3.807959 0.456470 -0.212188 0
M  V30 36 H 3.794781 2.399462 -1.714295 0
M  V30 37 H 2.614447 3.365579 -0.805225 0
M  V30 38 H 1.348574 2.442859 -3.006591 0
M  V30 39 H 0.494312 1.931424 0.409530 0
M  V30 40 H 0.367083 2.778598 -1.149585 0
M  V30 41 H -1.913318 -0.429067 -1.530456 0
M  V30 42 H -3.139402 -0.796798 0.609517 0
M  V30 43 H -4.675335 0.039750 2.247494 0
M  V30 44 H -3.393337 4.004898 1.311644 0
M  V30 45 H -1.834344 3.090392 -0.362098 0
M  V30 46 H 0.467540 -2.076362 0.854668 0
M  V30 47 H -0.701946 -4.024041 1.638670 0
M  V30 END ATOM
M  V30 BEGIN BOND
M  V30 1 1 1 2
M  V30 2 1 2 3
M  V30 3 2 3 4
M  V30 4 1 4 5
M  V30 5 2 5 6
M  V30 6 1 6 7
M  V30 7 2 7 8
M  V30 8 1 7 9
M  V30 9 1 9 10
M  V30 10 1 10 11
M  V30 11 1 11 12
M  V30 12 1 12 13
M  V30 13 1 11 14
M  V30 14 1 14 15
M  V30 15 2 15 16
M  V30 16 1 16 17
M  V30 17 2 17 18
M  V30 18 1 18 19
M  V30 19 2 19 20
M  V30 20 1 20 21
M  V30 21 1 20 22
M  V30 22 2 22 23
M  V30 23 1 15 24
M  V30 24 2 24 25
M  V30 25 1 24 26
M  V30 26 1 6 27
M  V30 27 2 27 28
M  V30 28 1 28 3
M  V30 29 1 26 11
M  V30 30 1 23 17
M  V30 31 1 1 29
M  V30 32 1 1 30
M  V30 33 1 1 31
M  V30 34 1 4 32
M  V30 35 1 5 33
M  V30 36 1 10 34
M  V30 37 1 10 35
M  V30 38 1 12 36
M  V30 39 1 12 37
M  V30 40 1 13 38
M  V30 41 1 14 39
M  V30 42 1 14 40
M  V30 43 1 16 41
M  V30 44 1 18 42
M  V30 45 1 19 43
M  V30 46 1 22 44
M  V30 47 1 23 45
M  V30 48 1 27 46
M  V30 49 1 28 47
M  V30 END BOND
M  V30 END CTAB
M  END
>  <Dataset>  (848) 
ChEMBL_Kinases

>  <Ligand_Instance>  (848) 
nan

>  <PDB_ID>  (848) 
nan

>  <Standardized_SMILES>  (848) 
COc1ccc(C(=O)OCC2(CO)C/C(=C\c3ccc(Cl)cc3)C(=O)O2)cc1

>  <Name>  (848) 
nan

>  <Pocket>  (848) 
nan

>  <ATP_Site>  (848) 
nan

>  <Peripheral>  (848) 
nan

>  <Num_H_Atoms_ProtBoundConf>  (848) 
nan

>  <Num_Resolved_Atoms>  (848) 
nan

>  <Num_Not_Resolved_Atoms>  (848) 
nan

$$$$
CHEMBL4175761
     RDKit          3D

  0  0  0  0  0  0  0  0  0  0999 V3000
M  V30 BEGIN CTAB
M  V30 COUNTS 59 62 0 0 0
M  V30 BEGIN ATOM
M  V30 1 C -5.362678 0.040269 2.186670 0
M  V30 2 C -4.004552 -0.525979 1.862530 0
M  V30 3 C -4.065142 -2.034649 1.942251 0
M  V30 4 C -3.067708 -0.079066 2.960836 0
M  V30 5 C -3.466605 -0.050484 0.566835 0
M  V30 6 O -2.380650 0.579655 0.565979 0
M  V30 7 O -4.238295 -0.364411 -0.499584 0
M  V30 8 C -3.990185 -0.075693 -1.814739 0
M  V30 9 C -2.924737 -0.743604 -2.569928 0
M  V30 10 C -2.816973 -0.121049 -3.942912 0
M  V30 11 O -1.742856 -0.603376 -4.672664 0
M  V30 12 C -1.589488 -0.767665 -1.874428 0
M  V30 13 C -0.828943 -1.608544 -2.899521 0
M  V30 14 C 0.477362 -1.423612 -3.115673 0
M  V30 15 C 1.243614 -0.415033 -2.383759 0
M  V30 16 C 1.116190 -0.212314 -1.015640 0
M  V30 17 N 1.929768 0.790274 -0.612583 0
M  V30 18 C 2.129495 1.358699 0.732656 0
M  V30 19 C 3.272450 0.591971 1.370315 0
M  V30 20 C 3.755853 0.885867 2.731866 0
M  V30 21 C 4.508766 1.426081 1.569499 0
M  V30 22 C 2.586802 1.246000 -1.695809 0
M  V30 23 C 3.536921 2.266045 -1.831686 0
M  V30 24 C 3.987125 2.442160 -3.121700 0
M  V30 25 C 3.611886 1.744643 -4.242106 0
M  V30 26 C 2.671104 0.746713 -4.058738 0
M  V30 27 C 2.174326 0.508802 -2.809860 0
M  V30 28 C -1.874325 -2.489887 -3.409389 0
M  V30 29 O -1.551986 -3.343378 -4.293304 0
M  V30 30 O -3.084635 -2.155030 -2.745469 0
M  V30 31 H -5.270358 1.164336 2.134502 0
M  V30 32 H -6.165765 -0.356531 1.544907 0
M  V30 33 H -5.532290 -0.178982 3.266268 0
M  V30 34 H -4.330401 -2.266891 2.997393 0
M  V30 35 H -3.038279 -2.437458 1.790575 0
M  V30 36 H -4.816759 -2.447653 1.263668 0
M  V30 37 H -3.486654 -0.198078 3.974586 0
M  V30 38 H -2.891604 1.016805 2.796711 0
M  V30 39 H -2.074060 -0.598320 2.875275 0
M  V30 40 H -4.936536 -0.069117 -2.441663 0
M  V30 41 H -3.717976 1.042434 -1.859257 0
M  V30 42 H -3.784227 -0.340294 -4.465270 0
M  V30 43 H -2.694008 0.989008 -3.785335 0
M  V30 44 H -1.890663 -0.317813 -5.625576 0
M  V30 45 H -1.625083 -1.382182 -0.956360 0
M  V30 46 H -1.161731 0.215048 -1.792963 0
M  V30 47 H 0.855241 -2.099433 -3.874979 0
M  V30 48 H 0.522431 -0.682765 -0.246422 0
M  V30 49 H 1.232409 1.118776 1.373507 0
M  V30 50 H 2.301972 2.431384 0.690337 0
M  V30 51 H 3.453681 -0.428667 0.959628 0
M  V30 52 H 3.132552 1.544859 3.369197 0
M  V30 53 H 4.264564 0.063072 3.274185 0
M  V30 54 H 4.456761 2.518813 1.327361 0
M  V30 55 H 5.476578 0.969595 1.295572 0
M  V30 56 H 3.883349 2.860822 -0.998251 0
M  V30 57 H 4.731443 3.245717 -3.209675 0
M  V30 58 H 4.045916 1.984789 -5.201621 0
M  V30 59 H 2.333525 0.159430 -4.908481 0
M  V30 END ATOM
M  V30 BEGIN BOND
M  V30 1 1 1 2
M  V30 2 1 2 3
M  V30 3 1 2 4
M  V30 4 1 2 5
M  V30 5 2 5 6
M  V30 6 1 5 7
M  V30 7 1 7 8
M  V30 8 1 8 9
M  V30 9 1 9 10
M  V30 10 1 10 11
M  V30 11 1 9 12
M  V30 12 1 12 13
M  V30 13 2 13 14
M  V30 14 1 14 15
M  V30 15 2 15 16
M  V30 16 1 16 17
M  V30 17 1 17 18
M  V30 18 1 18 19
M  V30 19 1 19 20
M  V30 20 1 20 21
M  V30 21 1 17 22
M  V30 22 2 22 23
M  V30 23 1 23 24
M  V30 24 2 24 25
M  V30 25 1 25 26
M  V30 26 2 26 27
M  V30 27 1 13 28
M  V30 28 2 28 29
M  V30 29 1 28 30
M  V30 30 1 30 9
M  V30 31 1 27 15
M  V30 32 1 21 19
M  V30 33 1 27 22
M  V30 34 1 1 31
M  V30 35 1 1 32
M  V30 36 1 1 33
M  V30 37 1 3 34
M  V30 38 1 3 35
M  V30 39 1 3 36
M  V30 40 1 4 37
M  V30 41 1 4 38
M  V30 42 1 4 39
M  V30 43 1 8 40
M  V30 44 1 8 41
M  V30 45 1 10 42
M  V30 46 1 10 43
M  V30 47 1 11 44
M  V30 48 1 12 45
M  V30 49 1 12 46
M  V30 50 1 14 47
M  V30 51 1 16 48
M  V30 52 1 18 49
M  V30 53 1 18 50
M  V30 54 1 19 51
M  V30 55 1 20 52
M  V30 56 1 20 53
M  V30 57 1 21 54
M  V30 58 1 21 55
M  V30 59 1 23 56
M  V30 60 1 24 57
M  V30 61 1 25 58
M  V30 62 1 26 59
M  V30 END BOND
M  V30 END CTAB
M  END
>  <Dataset>  (849) 
ChEMBL_Kinases

>  <Ligand_Instance>  (849) 
nan

>  <PDB_ID>  (849) 
nan

>  <Standardized_SMILES>  (849) 
CC(C)(C)C(=O)OCC1(CO)C/C(=C\c2cn(CC3CC3)c3ccccc23)C(=O)O1

>  <Name>  (849) 
nan

>  <Pocket>  (849) 
nan

>  <ATP_Site>  (849) 
nan

>  <Peripheral>  (849) 
nan

>  <Num_H_Atoms_ProtBoundConf>  (849) 
nan

>  <Num_Resolved_Atoms>  (849) 
nan

>  <Num_Not_Resolved_Atoms>  (849) 
nan

$$$$
CHEMBL4175742
     RDKit          3D

  0  0  0  0  0  0  0  0  0  0999 V3000
M  V30 BEGIN CTAB
M  V30 COUNTS 42 44 0 0 0
M  V30 BEGIN ATOM
M  V30 1 O 2.371467 -4.376669 3.712145 0
M  V30 2 C 2.191675 -3.537166 2.753114 0
M  V30 3 O 3.091757 -2.926526 1.902374 0
M  V30 4 C 2.545488 -1.721790 1.475193 0
M  V30 5 C 3.378803 -0.626615 2.126488 0
M  V30 6 O 3.353129 -0.686226 3.504855 0
M  V30 7 C 2.610090 -1.487166 -0.019298 0
M  V30 8 O 1.986997 -0.219818 -0.205021 0
M  V30 9 C 1.819672 0.412829 -1.403747 0
M  V30 10 O 2.255197 -0.173393 -2.427183 0
M  V30 11 C 1.162258 1.710981 -1.476718 0
M  V30 12 C 0.969468 2.396433 -2.657908 0
M  V30 13 C 0.334211 3.632893 -2.698611 0
M  V30 14 C -0.105420 4.163823 -1.503310 0
M  V30 15 Cl -0.917633 5.715447 -1.447226 0
M  V30 16 C 0.058127 3.522922 -0.277051 0
M  V30 17 C 0.698105 2.297025 -0.310892 0
M  V30 18 C 1.120491 -1.690676 1.945094 0
M  V30 19 C 0.870980 -3.062942 2.390445 0
M  V30 20 C -0.294427 -3.681396 2.433068 0
M  V30 21 C -1.559897 -3.076326 2.033106 0
M  V30 22 C -2.052775 -1.802171 2.223073 0
M  V30 23 C -3.289636 -1.452562 1.739737 0
M  V30 24 C -4.100981 -2.323498 1.051844 0
M  V30 25 C -3.580190 -3.598006 0.875552 0
M  V30 26 N -2.388771 -3.915989 1.347725 0
M  V30 27 H 3.105029 0.345128 1.697159 0
M  V30 28 H 4.423691 -0.821992 1.788417 0
M  V30 29 H 3.157818 0.178657 3.916014 0
M  V30 30 H 1.993951 -2.269639 -0.532103 0
M  V30 31 H 3.624304 -1.488468 -0.409391 0
M  V30 32 H 1.322647 1.959341 -3.578676 0
M  V30 33 H 0.183220 4.173765 -3.635854 0
M  V30 34 H -0.271176 3.909513 0.658448 0
M  V30 35 H 0.849931 1.758290 0.614387 0
M  V30 36 H 0.969927 -0.964784 2.778579 0
M  V30 37 H 0.462371 -1.456366 1.087908 0
M  V30 38 H -0.298220 -4.716121 2.799501 0
M  V30 39 H -1.387737 -1.165760 2.763994 0
M  V30 40 H -3.550875 -0.419000 1.961590 0
M  V30 41 H -5.066297 -1.986279 0.696168 0
M  V30 42 H -4.181874 -4.322249 0.338724 0
M  V30 END ATOM
M  V30 BEGIN BOND
M  V30 1 2 1 2
M  V30 2 1 2 3
M  V30 3 1 3 4
M  V30 4 1 4 5
M  V30 5 1 5 6
M  V30 6 1 4 7
M  V30 7 1 7 8
M  V30 8 1 8 9
M  V30 9 2 9 10
M  V30 10 1 9 11
M  V30 11 2 11 12
M  V30 12 1 12 13
M  V30 13 2 13 14
M  V30 14 1 14 15
M  V30 15 1 14 16
M  V30 16 2 16 17
M  V30 17 1 4 18
M  V30 18 1 18 19
M  V30 19 2 19 20
M  V30 20 1 20 21
M  V30 21 2 21 22
M  V30 22 1 22 23
M  V30 23 2 23 24
M  V30 24 1 24 25
M  V30 25 2 25 26
M  V30 26 1 19 2
M  V30 27 1 26 21
M  V30 28 1 17 11
M  V30 29 1 5 27
M  V30 30 1 5 28
M  V30 31 1 6 29
M  V30 32 1 7 30
M  V30 33 1 7 31
M  V30 34 1 12 32
M  V30 35 1 13 33
M  V30 36 1 16 34
M  V30 37 1 17 35
M  V30 38 1 18 36
M  V30 39 1 18 37
M  V30 40 1 20 38
M  V30 41 1 22 39
M  V30 42 1 23 40
M  V30 43 1 24 41
M  V30 44 1 25 42
M  V30 END BOND
M  V30 END CTAB
M  END
>  <Dataset>  (850) 
ChEMBL_Kinases

>  <Ligand_Instance>  (850) 
nan

>  <PDB_ID>  (850) 
nan

>  <Standardized_SMILES>  (850) 
O=C1OC(CO)(COC(=O)c2ccc(Cl)cc2)C/C1=C\c1ccccn1

>  <Name>  (850) 
nan

>  <Pocket>  (850) 
nan

>  <ATP_Site>  (850) 
nan

>  <Peripheral>  (850) 
nan

>  <Num_H_Atoms_ProtBoundConf>  (850) 
nan

>  <Num_Resolved_Atoms>  (850) 
nan

>  <Num_Not_Resolved_Atoms>  (850) 
nan

$$$$
CHEMBL4177362
     RDKit          3D

  0  0  0  0  0  0  0  0  0  0999 V3000
M  V30 BEGIN CTAB
M  V30 COUNTS 63 67 0 0 0
M  V30 BEGIN ATOM
M  V30 1 C 4.136667 -2.418783 5.226434 0
M  V30 2 C 5.430857 -1.990631 4.523715 0
M  V30 3 C 5.048392 -0.988211 3.483608 0
M  V30 4 C 5.017479 0.350811 3.815994 0
M  V30 5 C 4.668254 1.301586 2.877955 0
M  V30 6 C 4.350384 0.895146 1.603045 0
M  V30 7 N 3.962383 1.677097 0.470419 0
M  V30 8 C 2.581495 1.946700 0.250392 0
M  V30 9 O 1.738755 1.476949 1.077866 0
M  V30 10 N 2.112345 2.713832 -0.848734 0
M  V30 11 C 0.699753 2.882018 -0.911218 0
M  V30 12 C 0.060667 1.874641 -1.642278 0
M  V30 13 C -1.316308 1.900652 -1.792593 0
M  V30 14 C -2.105725 2.898161 -1.241334 0
M  V30 15 C -3.583402 2.960407 -1.379516 0
M  V30 16 C -4.240733 2.210534 -0.231364 0
M  V30 17 N -3.890235 0.832120 -0.154596 0
M  V30 18 C -4.229791 0.008576 -1.250906 0
M  V30 19 N -4.863117 0.470560 -2.340254 0
M  V30 20 C -5.204025 -0.281000 -3.399318 0
M  V30 21 N -4.904391 -1.605538 -3.406616 0
M  V30 22 C -4.261797 -2.122092 -2.323927 0
M  V30 23 O -3.866238 -3.345906 -2.085463 0
M  V30 24 C -3.279264 -3.453106 -0.924218 0
M  V30 25 C -2.772158 -4.718562 -0.475225 0
M  V30 26 C -2.899901 -5.839974 -1.267520 0
M  V30 27 C -2.432994 -7.096573 -0.897277 0
M  V30 28 C -1.804354 -7.278948 0.313058 0
M  V30 29 C -1.656269 -6.184496 1.134585 0
M  V30 30 C -2.137459 -4.961383 0.719178 0
M  V30 31 C -3.300672 -2.195116 -0.373952 0
M  V30 32 Cl -2.647200 -1.783923 1.169398 0
M  V30 33 C -3.920576 -1.333807 -1.246894 0
M  V30 34 C -1.437679 3.874277 -0.527030 0
M  V30 35 C -0.068477 3.882754 -0.355314 0
M  V30 36 C 4.378695 -0.445161 1.260820 0
M  V30 37 C 4.730414 -1.420558 2.199727 0
M  V30 38 H 3.362450 -2.430956 4.424234 0
M  V30 39 H 4.243349 -3.373480 5.746369 0
M  V30 40 H 3.826693 -1.635881 5.956316 0
M  V30 41 H 5.853115 -2.913239 4.053927 0
M  V30 42 H 6.128510 -1.599481 5.268739 0
M  V30 43 H 5.256717 0.735073 4.801370 0
M  V30 44 H 4.604867 2.375742 3.006217 0
M  V30 45 H 4.667107 2.069493 -0.220917 0
M  V30 46 H 2.806139 3.107198 -1.539533 0
M  V30 47 H 0.594232 1.041521 -2.118038 0
M  V30 48 H -1.793134 1.120848 -2.356696 0
M  V30 49 H -3.945884 2.649087 -2.372886 0
M  V30 50 H -3.857682 4.049206 -1.308404 0
M  V30 51 H -5.362622 2.291375 -0.326432 0
M  V30 52 H -3.985321 2.737397 0.706123 0
M  V30 53 H -3.408831 0.521203 0.699309 0
M  V30 54 H -5.712282 0.218846 -4.212553 0
M  V30 55 H -3.377531 -5.823997 -2.244854 0
M  V30 56 H -2.541568 -7.959600 -1.528110 0
M  V30 57 H -1.433617 -8.240879 0.623968 0
M  V30 58 H -1.167370 -6.322698 2.077623 0
M  V30 59 H -1.981092 -4.170984 1.414207 0
M  V30 60 H -1.940325 4.692431 -0.057261 0
M  V30 61 H 0.493083 4.619390 0.190672 0
M  V30 62 H 4.151879 -0.897696 0.297383 0
M  V30 63 H 4.769876 -2.485540 1.988874 0
M  V30 END ATOM
M  V30 BEGIN BOND
M  V30 1 1 1 2
M  V30 2 1 2 3
M  V30 3 2 3 4
M  V30 4 1 4 5
M  V30 5 2 5 6
M  V30 6 1 6 7
M  V30 7 1 7 8
M  V30 8 2 8 9
M  V30 9 1 8 10
M  V30 10 1 10 11
M  V30 11 2 11 12
M  V30 12 1 12 13
M  V30 13 2 13 14
M  V30 14 1 14 15
M  V30 15 1 15 16
M  V30 16 1 16 17
M  V30 17 1 17 18
M  V30 18 2 18 19
M  V30 19 1 19 20
M  V30 20 2 20 21
M  V30 21 1 21 22
M  V30 22 1 22 23
M  V30 23 1 23 24
M  V30 24 1 24 25
M  V30 25 2 25 26
M  V30 26 1 26 27
M  V30 27 2 27 28
M  V30 28 1 28 29
M  V30 29 2 29 30
M  V30 30 2 24 31
M  V30 31 1 31 32
M  V30 32 1 31 33
M  V30 33 1 14 34
M  V30 34 2 34 35
M  V30 35 1 6 36
M  V30 36 2 36 37
M  V30 37 1 37 3
M  V30 38 1 35 11
M  V30 39 1 33 18
M  V30 40 2 33 22
M  V30 41 1 30 25
M  V30 42 1 1 38
M  V30 43 1 1 39
M  V30 44 1 1 40
M  V30 45 1 2 41
M  V30 46 1 2 42
M  V30 47 1 4 43
M  V30 48 1 5 44
M  V30 49 1 7 45
M  V30 50 1 10 46
M  V30 51 1 12 47
M  V30 52 1 13 48
M  V30 53 1 15 49
M  V30 54 1 15 50
M  V30 55 1 16 51
M  V30 56 1 16 52
M  V30 57 1 17 53
M  V30 58 1 20 54
M  V30 59 1 26 55
M  V30 60 1 27 56
M  V30 61 1 28 57
M  V30 62 1 29 58
M  V30 63 1 30 59
M  V30 64 1 34 60
M  V30 65 1 35 61
M  V30 66 1 36 62
M  V30 67 1 37 63
M  V30 END BOND
M  V30 END CTAB
M  END
>  <Dataset>  (851) 
ChEMBL_Kinases

>  <Ligand_Instance>  (851) 
nan

>  <PDB_ID>  (851) 
nan

>  <Standardized_SMILES>  (851) 
CCc1ccc(NC(=O)Nc2ccc(CCNc3ncnc4oc(-c5ccccc5)c(Cl)c34)cc2)cc1

>  <Name>  (851) 
nan

>  <Pocket>  (851) 
nan

>  <ATP_Site>  (851) 
nan

>  <Peripheral>  (851) 
nan

>  <Num_H_Atoms_ProtBoundConf>  (851) 
nan

>  <Num_Resolved_Atoms>  (851) 
nan

>  <Num_Not_Resolved_Atoms>  (851) 
nan

$$$$
CHEMBL3675374
     RDKit          3D

  0  0  0  0  0  0  0  0  0  0999 V3000
M  V30 BEGIN CTAB
M  V30 COUNTS 40 42 0 0 0
M  V30 BEGIN ATOM
M  V30 1 N 2.630888 -5.476782 0.639887 0
M  V30 2 C 1.853598 -4.980749 1.757356 0
M  V30 3 O 2.159580 -6.094505 2.098847 0
M  V30 4 C 1.446727 -3.644006 1.427267 0
M  V30 5 C 0.789822 -3.076780 2.501691 0
M  V30 6 C 0.303931 -1.780461 2.390289 0
M  V30 7 N -0.383403 -1.116687 3.446047 0
M  V30 8 C 0.518799 -1.157956 1.203907 0
M  V30 9 C 1.162882 -1.659906 0.092943 0
M  V30 10 C 1.392218 -1.055920 -1.130878 0
M  V30 11 N 0.910655 0.269992 -1.260192 0
M  V30 12 C 0.433022 1.586963 -1.390437 0
M  V30 13 C -0.258644 2.150264 -0.184305 0
M  V30 14 C 0.531690 2.805724 0.733060 0
M  V30 15 C -0.056652 3.340808 1.859996 0
M  V30 16 C -1.406269 3.256093 2.124082 0
M  V30 17 C -2.185889 2.596294 1.195768 0
M  V30 18 C -3.638234 2.484129 1.444108 0
M  V30 19 F -3.932320 1.883333 2.662993 0
M  V30 20 F -4.193866 3.758886 1.401140 0
M  V30 21 F -4.256353 1.719206 0.466420 0
M  V30 22 C -1.610335 2.048368 0.048694 0
M  V30 23 N 2.041460 -1.807974 -2.011951 0
M  V30 24 C 2.496056 -3.037018 -1.890381 0
M  V30 25 N 2.254530 -3.577146 -0.701981 0
M  V30 26 C 1.612387 -2.932718 0.271024 0
M  V30 27 H 3.277791 -5.782724 -0.122141 0
M  V30 28 H 3.349764 -5.834311 -0.070716 0
M  V30 29 H 0.631488 -3.590694 3.438030 0
M  V30 30 H -0.887922 -0.241783 3.241936 0
M  V30 31 H -0.326868 -1.566081 4.381942 0
M  V30 32 H 0.147355 -0.159723 1.114285 0
M  V30 33 H 1.226014 0.366406 -2.281193 0
M  V30 34 H 1.287432 2.296616 -1.647102 0
M  V30 35 H -0.322750 1.719965 -2.226721 0
M  V30 36 H 1.595667 2.893067 0.565097 0
M  V30 37 H 0.617004 3.834830 2.529440 0
M  V30 38 H -1.804712 3.697917 3.031676 0
M  V30 39 H -2.219850 1.517238 -0.704365 0
M  V30 40 H 3.016790 -3.500621 -2.739736 0
M  V30 END ATOM
M  V30 BEGIN BOND
M  V30 1 1 1 2
M  V30 2 2 2 3
M  V30 3 1 2 4
M  V30 4 2 4 5
M  V30 5 1 5 6
M  V30 6 1 6 7
M  V30 7 2 6 8
M  V30 8 1 8 9
M  V30 9 2 9 10
M  V30 10 1 10 11
M  V30 11 1 11 12
M  V30 12 1 12 13
M  V30 13 2 13 14
M  V30 14 1 14 15
M  V30 15 2 15 16
M  V30 16 1 16 17
M  V30 17 1 17 18
M  V30 18 1 18 19
M  V30 19 1 18 20
M  V30 20 1 18 21
M  V30 21 2 17 22
M  V30 22 1 10 23
M  V30 23 2 23 24
M  V30 24 1 24 25
M  V30 25 2 25 26
M  V30 26 1 26 4
M  V30 27 1 26 9
M  V30 28 1 22 13
M  V30 29 1 1 27
M  V30 30 1 1 28
M  V30 31 1 5 29
M  V30 32 1 7 30
M  V30 33 1 7 31
M  V30 34 1 8 32
M  V30 35 1 11 33
M  V30 36 1 12 34
M  V30 37 1 12 35
M  V30 38 1 14 36
M  V30 39 1 15 37
M  V30 40 1 16 38
M  V30 41 1 22 39
M  V30 42 1 24 40
M  V30 END BOND
M  V30 END CTAB
M  END
>  <Dataset>  (852) 
ChEMBL_Kinases

>  <Ligand_Instance>  (852) 
nan

>  <PDB_ID>  (852) 
nan

>  <Standardized_SMILES>  (852) 
NC(=O)c1cc(N)cc2c(NCc3cccc(C(F)(F)F)c3)ncnc12

>  <Name>  (852) 
nan

>  <Pocket>  (852) 
nan

>  <ATP_Site>  (852) 
nan

>  <Peripheral>  (852) 
nan

>  <Num_H_Atoms_ProtBoundConf>  (852) 
nan

>  <Num_Resolved_Atoms>  (852) 
nan

>  <Num_Not_Resolved_Atoms>  (852) 
nan

$$$$
CHEMBL4171920
     RDKit          3D

  0  0  0  0  0  0  0  0  0  0999 V3000
M  V30 BEGIN CTAB
M  V30 COUNTS 57 61 0 0 0
M  V30 BEGIN ATOM
M  V30 1 O 2.631619 0.406460 3.067527 0
M  V30 2 C 3.233142 0.470139 1.968036 0
M  V30 3 N 4.553922 0.022170 1.996025 0
M  V30 4 C 4.894221 -0.414620 3.332351 0
M  V30 5 C 4.713511 -1.710652 3.747056 0
M  V30 6 C 5.057885 -2.055465 5.037161 0
M  V30 7 C 5.574038 -1.084755 5.871626 0
M  V30 8 C 5.753839 0.217791 5.449523 0
M  V30 9 C 5.409551 0.579753 4.147240 0
M  V30 10 N 2.539346 0.972910 0.843145 0
M  V30 11 C 1.205164 1.445256 0.737872 0
M  V30 12 C 0.773920 1.882005 -0.491232 0
M  V30 13 C -0.491032 2.357513 -0.696750 0
M  V30 14 C -1.421711 2.431368 0.316918 0
M  V30 15 C -2.815248 2.924842 0.220285 0
M  V30 16 C -3.790323 1.818477 -0.126142 0
M  V30 17 N -3.555947 1.173541 -1.363302 0
M  V30 18 C -3.318782 0.520988 -2.615307 0
M  V30 19 N -3.344497 1.076203 -3.833854 0
M  V30 20 C -3.121888 0.402675 -4.948990 0
M  V30 21 N -2.863215 -0.883756 -4.819043 0
M  V30 22 C -2.814532 -1.530084 -3.652190 0
M  V30 23 O -2.568790 -2.787469 -3.422322 0
M  V30 24 C -2.609487 -3.042698 -2.137805 0
M  V30 25 C -2.372113 -4.365001 -1.601121 0
M  V30 26 C -2.400663 -4.719979 -0.274918 0
M  V30 27 C -2.171226 -5.976945 0.236210 0
M  V30 28 C -1.884169 -6.982300 -0.664676 0
M  V30 29 C -1.837410 -6.705899 -2.009228 0
M  V30 30 C -2.079785 -5.421476 -2.432511 0
M  V30 31 C -2.904389 -1.834231 -1.558565 0
M  V30 32 Cl -3.079444 -1.568040 0.144904 0
M  V30 33 C -3.047394 -0.825355 -2.488302 0
M  V30 34 C -0.992776 1.995079 1.547338 0
M  V30 35 C 0.282923 1.515724 1.754198 0
M  V30 36 H 5.106386 0.057038 1.087796 0
M  V30 37 H 4.308734 -2.438035 3.066872 0
M  V30 38 H 4.941587 -3.057244 5.428934 0
M  V30 39 H 5.863266 -1.305330 6.904381 0
M  V30 40 H 6.162870 0.949733 6.140735 0
M  V30 41 H 5.548042 1.604530 3.808254 0
M  V30 42 H 3.156868 0.968369 0.002984 0
M  V30 43 H 1.458705 1.855499 -1.353728 0
M  V30 44 H -0.812173 2.694673 -1.667832 0
M  V30 45 H -2.919107 3.707517 -0.555886 0
M  V30 46 H -3.072375 3.410074 1.176461 0
M  V30 47 H -3.857731 1.092956 0.739632 0
M  V30 48 H -4.820568 2.282628 -0.093178 0
M  V30 49 H -3.696334 2.158071 -1.764949 0
M  V30 50 H -3.163985 0.934958 -5.883209 0
M  V30 51 H -2.619947 -3.976469 0.472346 0
M  V30 52 H -2.208350 -6.191268 1.290702 0
M  V30 53 H -1.694219 -7.990107 -0.319825 0
M  V30 54 H -1.610794 -7.507331 -2.702296 0
M  V30 55 H -2.024144 -5.284048 -3.507453 0
M  V30 56 H -1.670733 2.023006 2.400269 0
M  V30 57 H 0.547756 1.192855 2.738923 0
M  V30 END ATOM
M  V30 BEGIN BOND
M  V30 1 2 1 2
M  V30 2 1 2 3
M  V30 3 1 3 4
M  V30 4 2 4 5
M  V30 5 1 5 6
M  V30 6 2 6 7
M  V30 7 1 7 8
M  V30 8 2 8 9
M  V30 9 1 2 10
M  V30 10 1 10 11
M  V30 11 2 11 12
M  V30 12 1 12 13
M  V30 13 2 13 14
M  V30 14 1 14 15
M  V30 15 1 15 16
M  V30 16 1 16 17
M  V30 17 1 17 18
M  V30 18 2 18 19
M  V30 19 1 19 20
M  V30 20 2 20 21
M  V30 21 1 21 22
M  V30 22 1 22 23
M  V30 23 1 23 24
M  V30 24 1 24 25
M  V30 25 2 25 26
M  V30 26 1 26 27
M  V30 27 2 27 28
M  V30 28 1 28 29
M  V30 29 2 29 30
M  V30 30 2 24 31
M  V30 31 1 31 32
M  V30 32 1 31 33
M  V30 33 1 14 34
M  V30 34 2 34 35
M  V30 35 1 9 4
M  V30 36 1 35 11
M  V30 37 1 33 18
M  V30 38 2 33 22
M  V30 39 1 30 25
M  V30 40 1 3 36
M  V30 41 1 5 37
M  V30 42 1 6 38
M  V30 43 1 7 39
M  V30 44 1 8 40
M  V30 45 1 9 41
M  V30 46 1 10 42
M  V30 47 1 12 43
M  V30 48 1 13 44
M  V30 49 1 15 45
M  V30 50 1 15 46
M  V30 51 1 16 47
M  V30 52 1 16 48
M  V30 53 1 17 49
M  V30 54 1 20 50
M  V30 55 1 26 51
M  V30 56 1 27 52
M  V30 57 1 28 53
M  V30 58 1 29 54
M  V30 59 1 30 55
M  V30 60 1 34 56
M  V30 61 1 35 57
M  V30 END BOND
M  V30 END CTAB
M  END
>  <Dataset>  (853) 
ChEMBL_Kinases

>  <Ligand_Instance>  (853) 
nan

>  <PDB_ID>  (853) 
nan

>  <Standardized_SMILES>  (853) 
O=C(Nc1ccccc1)Nc1ccc(CCNc2ncnc3oc(-c4ccccc4)c(Cl)c23)cc1

>  <Name>  (853) 
nan

>  <Pocket>  (853) 
nan

>  <ATP_Site>  (853) 
nan

>  <Peripheral>  (853) 
nan

>  <Num_H_Atoms_ProtBoundConf>  (853) 
nan

>  <Num_Resolved_Atoms>  (853) 
nan

>  <Num_Not_Resolved_Atoms>  (853) 
nan

$$$$
CHEMBL4171792
     RDKit          3D

  0  0  0  0  0  0  0  0  0  0999 V3000
M  V30 BEGIN CTAB
M  V30 COUNTS 75 80 0 0 0
M  V30 BEGIN ATOM
M  V30 1 O 0.604892 -1.431010 2.743365 0
M  V30 2 C 0.664407 -2.009822 3.854985 0
M  V30 3 N 1.063765 -3.373024 3.832320 0
M  V30 4 C 1.345944 -3.896869 2.516103 0
M  V30 5 C 2.592275 -3.841579 1.959246 0
M  V30 6 C 2.746038 -4.375739 0.688262 0
M  V30 7 C 1.710671 -4.961799 -0.049560 0
M  V30 8 C 2.124153 -5.460756 -1.370102 0
M  V30 9 C 2.043820 -4.446722 -2.470992 0
M  V30 10 N 0.720104 -3.912908 -2.705103 0
M  V30 11 C 0.565979 -2.938733 -3.728635 0
M  V30 12 N 1.616048 -2.526484 -4.455601 0
M  V30 13 C 1.500022 -1.610828 -5.425015 0
M  V30 14 N 0.274287 -1.081563 -5.680013 0
M  V30 15 C -0.787038 -1.484461 -4.960294 0
M  V30 16 O -2.028819 -1.115498 -5.035904 0
M  V30 17 C -2.787981 -1.728698 -4.166132 0
M  V30 18 C -4.211300 -1.483357 -4.058841 0
M  V30 19 C -5.080268 -2.078316 -3.180382 0
M  V30 20 C -6.427411 -1.825052 -3.101250 0
M  V30 21 C -6.993186 -0.910862 -3.949419 0
M  V30 22 C -6.177261 -0.277492 -4.855784 0
M  V30 23 C -4.834529 -0.575171 -4.885310 0
M  V30 24 C -1.944928 -2.564638 -3.475394 0
M  V30 25 Cl -2.391695 -3.631876 -2.191990 0
M  V30 26 C -0.678809 -2.423983 -3.962734 0
M  V30 27 C 0.480553 -4.985809 0.568583 0
M  V30 28 C 0.289870 -4.464485 1.830865 0
M  V30 29 N 0.323325 -1.222240 4.992427 0
M  V30 30 C -0.055982 0.149557 4.782717 0
M  V30 31 C -1.406618 0.441661 4.572237 0
M  V30 32 C -1.778244 1.745088 4.370992 0
M  V30 33 C -0.864201 2.772669 4.369837 0
M  V30 34 C 0.489152 2.501618 4.578203 0
M  V30 35 C 1.533869 3.547255 4.591913 0
M  V30 36 N 2.122115 3.827234 3.336091 0
M  V30 37 C 2.782682 2.763077 2.673174 0
M  V30 38 C 1.966561 2.109626 1.585521 0
M  V30 39 C 1.632469 3.162325 0.551074 0
M  V30 40 C 1.870015 4.567580 1.039546 0
M  V30 41 C 1.430618 4.741399 2.488945 0
M  V30 42 C 0.859565 1.167029 4.782950 0
M  V30 43 H 1.104444 -3.835275 4.786194 0
M  V30 44 H 3.385336 -3.401382 2.505096 0
M  V30 45 H 3.776313 -4.294639 0.306688 0
M  V30 46 H 1.480937 -6.323219 -1.700467 0
M  V30 47 H 3.144859 -5.882216 -1.323042 0
M  V30 48 H 2.512788 -4.798927 -3.408111 0
M  V30 49 H 2.651143 -3.543901 -2.159626 0
M  V30 50 H 0.009405 -4.309749 -2.085657 0
M  V30 51 H 2.392977 -1.336391 -5.960179 0
M  V30 52 H -4.710050 -2.807930 -2.482053 0
M  V30 53 H -7.053410 -2.325776 -2.389802 0
M  V30 54 H -8.037948 -0.657716 -3.949787 0
M  V30 55 H -6.614115 0.449484 -5.533704 0
M  V30 56 H -4.262853 -0.021955 -5.639795 0
M  V30 57 H -0.294957 -5.448388 -0.025962 0
M  V30 58 H -0.730643 -4.535383 2.230217 0
M  V30 59 H 0.382354 -1.735204 5.915134 0
M  V30 60 H -2.164229 -0.353202 4.566518 0
M  V30 61 H -2.798967 2.030101 4.204425 0
M  V30 62 H -1.162337 3.807270 4.209580 0
M  V30 63 H 1.215638 4.502720 5.055203 0
M  V30 64 H 2.355712 3.175487 5.263094 0
M  V30 65 H 3.662693 3.221746 2.132070 0
M  V30 66 H 3.228200 2.076784 3.392218 0
M  V30 67 H 1.032622 1.644575 1.928613 0
M  V30 68 H 2.580776 1.277851 1.173370 0
M  V30 69 H 2.318290 2.994908 -0.309337 0
M  V30 70 H 0.603070 3.044373 0.133282 0
M  V30 71 H 2.943361 4.826875 0.946317 0
M  V30 72 H 1.289273 5.253864 0.410016 0
M  V30 73 H 1.787268 5.767717 2.772110 0
M  V30 74 H 0.340407 4.752330 2.583337 0
M  V30 75 H 1.882831 0.847711 4.953983 0
M  V30 END ATOM
M  V30 BEGIN BOND
M  V30 1 2 1 2
M  V30 2 1 2 3
M  V30 3 1 3 4
M  V30 4 2 4 5
M  V30 5 1 5 6
M  V30 6 2 6 7
M  V30 7 1 7 8
M  V30 8 1 8 9
M  V30 9 1 9 10
M  V30 10 1 10 11
M  V30 11 2 11 12
M  V30 12 1 12 13
M  V30 13 2 13 14
M  V30 14 1 14 15
M  V30 15 1 15 16
M  V30 16 1 16 17
M  V30 17 1 17 18
M  V30 18 2 18 19
M  V30 19 1 19 20
M  V30 20 2 20 21
M  V30 21 1 21 22
M  V30 22 2 22 23
M  V30 23 2 17 24
M  V30 24 1 24 25
M  V30 25 1 24 26
M  V30 26 1 7 27
M  V30 27 2 27 28
M  V30 28 1 2 29
M  V30 29 1 29 30
M  V30 30 2 30 31
M  V30 31 1 31 32
M  V30 32 2 32 33
M  V30 33 1 33 34
M  V30 34 1 34 35
M  V30 35 1 35 36
M  V30 36 1 36 37
M  V30 37 1 37 38
M  V30 38 1 38 39
M  V30 39 1 39 40
M  V30 40 1 40 41
M  V30 41 2 34 42
M  V30 42 1 28 4
M  V30 43 1 42 30
M  V30 44 1 26 11
M  V30 45 1 41 36
M  V30 46 2 26 15
M  V30 47 1 23 18
M  V30 48 1 3 43
M  V30 49 1 5 44
M  V30 50 1 6 45
M  V30 51 1 8 46
M  V30 52 1 8 47
M  V30 53 1 9 48
M  V30 54 1 9 49
M  V30 55 1 10 50
M  V30 56 1 13 51
M  V30 57 1 19 52
M  V30 58 1 20 53
M  V30 59 1 21 54
M  V30 60 1 22 55
M  V30 61 1 23 56
M  V30 62 1 27 57
M  V30 63 1 28 58
M  V30 64 1 29 59
M  V30 65 1 31 60
M  V30 66 1 32 61
M  V30 67 1 33 62
M  V30 68 1 35 63
M  V30 69 1 35 64
M  V30 70 1 37 65
M  V30 71 1 37 66
M  V30 72 1 38 67
M  V30 73 1 38 68
M  V30 74 1 39 69
M  V30 75 1 39 70
M  V30 76 1 40 71
M  V30 77 1 40 72
M  V30 78 1 41 73
M  V30 79 1 41 74
M  V30 80 1 42 75
M  V30 END BOND
M  V30 END CTAB
M  END
>  <Dataset>  (854) 
ChEMBL_Kinases

>  <Ligand_Instance>  (854) 
nan

>  <PDB_ID>  (854) 
nan

>  <Standardized_SMILES>  (854) 
O=C(Nc1ccc(CCNc2ncnc3oc(-c4ccccc4)c(Cl)c23)cc1)Nc1cccc(CN2CCCCC2)c1

>  <Name>  (854) 
nan

>  <Pocket>  (854) 
nan

>  <ATP_Site>  (854) 
nan

>  <Peripheral>  (854) 
nan

>  <Num_H_Atoms_ProtBoundConf>  (854) 
nan

>  <Num_Resolved_Atoms>  (854) 
nan

>  <Num_Not_Resolved_Atoms>  (854) 
nan

$$$$
CHEMBL3675370
     RDKit          3D

  0  0  0  0  0  0  0  0  0  0999 V3000
M  V30 BEGIN CTAB
M  V30 COUNTS 50 53 0 0 0
M  V30 BEGIN ATOM
M  V30 1 N 0.855085 -6.623585 -0.931172 0
M  V30 2 C 1.032483 -6.299604 0.470357 0
M  V30 3 O 0.921923 -7.212122 1.316695 0
M  V30 4 C 1.332806 -4.936496 0.875179 0
M  V30 5 C 1.425316 -4.726583 2.239995 0
M  V30 6 C 1.714944 -3.439181 2.690459 0
M  V30 7 C 1.887761 -2.466044 1.735124 0
M  V30 8 C 1.807349 -2.616127 0.371510 0
M  V30 9 C 2.005809 -1.586762 -0.552970 0
M  V30 10 N 2.264635 -0.360559 0.074676 0
M  V30 11 C 2.526135 0.878305 0.708530 0
M  V30 12 C 1.676590 2.023491 0.284998 0
M  V30 13 C 2.200390 2.955228 -0.614869 0
M  V30 14 C 1.525893 4.060036 -1.115628 0
M  V30 15 C 0.215151 4.217783 -0.658094 0
M  V30 16 C -0.344534 3.321948 0.228998 0
M  V30 17 N -1.687950 3.675413 0.489090 0
M  V30 18 S -3.101342 2.712255 0.299608 0
M  V30 19 O -3.073615 2.210335 -1.144527 0
M  V30 20 O -4.353664 3.516334 0.453666 0
M  V30 21 C -3.043732 1.310892 1.321575 0
M  V30 22 C -3.482762 1.240398 2.620492 0
M  V30 23 C -3.407216 0.073013 3.344077 0
M  V30 24 C -2.885667 -1.087431 2.798665 0
M  V30 25 C -2.410888 -1.118227 1.481833 0
M  V30 26 C -2.532470 0.114470 0.837128 0
M  V30 27 C 0.383559 2.256050 0.679384 0
M  V30 28 N 1.897282 -1.951057 -1.841301 0
M  V30 29 C 1.622048 -3.191453 -2.221864 0
M  V30 30 N 1.438596 -4.148285 -1.318086 0
M  V30 31 C 1.520892 -3.906817 -0.003139 0
M  V30 32 H 1.470216 -7.168130 -1.584310 0
M  V30 33 H -0.059569 -6.202157 -1.256628 0
M  V30 34 H 1.287650 -5.485517 2.996626 0
M  V30 35 H 1.807304 -3.203739 3.768675 0
M  V30 36 H 2.109161 -1.496902 2.151702 0
M  V30 37 H 2.402778 0.166997 -0.834245 0
M  V30 38 H 2.320441 0.766737 1.833495 0
M  V30 39 H 3.601202 1.194373 0.598661 0
M  V30 40 H 3.221948 2.799109 -0.945677 0
M  V30 41 H 2.047337 4.707923 -1.807365 0
M  V30 42 H -0.253761 5.117010 -1.091975 0
M  V30 43 H -1.858637 4.662257 0.855828 0
M  V30 44 H -3.896312 2.150136 3.065308 0
M  V30 45 H -3.752366 0.003783 4.378664 0
M  V30 46 H -2.795332 -2.050866 3.300585 0
M  V30 47 H -1.985862 -1.944732 0.944502 0
M  V30 48 H -2.168699 0.149059 -0.191155 0
M  V30 49 H -0.102637 1.586784 1.367577 0
M  V30 50 H 1.575852 -3.289181 -3.301395 0
M  V30 END ATOM
M  V30 BEGIN BOND
M  V30 1 1 1 2
M  V30 2 2 2 3
M  V30 3 1 2 4
M  V30 4 2 4 5
M  V30 5 1 5 6
M  V30 6 2 6 7
M  V30 7 1 7 8
M  V30 8 2 8 9
M  V30 9 1 9 10
M  V30 10 1 10 11
M  V30 11 1 11 12
M  V30 12 2 12 13
M  V30 13 1 13 14
M  V30 14 2 14 15
M  V30 15 1 15 16
M  V30 16 1 16 17
M  V30 17 1 17 18
M  V30 18 2 18 19
M  V30 19 2 18 20
M  V30 20 1 18 21
M  V30 21 2 21 22
M  V30 22 1 22 23
M  V30 23 2 23 24
M  V30 24 1 24 25
M  V30 25 2 25 26
M  V30 26 2 16 27
M  V30 27 1 9 28
M  V30 28 2 28 29
M  V30 29 1 29 30
M  V30 30 2 30 31
M  V30 31 1 31 4
M  V30 32 1 31 8
M  V30 33 1 27 12
M  V30 34 1 26 21
M  V30 35 1 1 32
M  V30 36 1 1 33
M  V30 37 1 5 34
M  V30 38 1 6 35
M  V30 39 1 7 36
M  V30 40 1 10 37
M  V30 41 1 11 38
M  V30 42 1 11 39
M  V30 43 1 13 40
M  V30 44 1 14 41
M  V30 45 1 15 42
M  V30 46 1 17 43
M  V30 47 1 22 44
M  V30 48 1 23 45
M  V30 49 1 24 46
M  V30 50 1 25 47
M  V30 51 1 26 48
M  V30 52 1 27 49
M  V30 53 1 29 50
M  V30 END BOND
M  V30 END CTAB
M  END
>  <Dataset>  (855) 
ChEMBL_Kinases

>  <Ligand_Instance>  (855) 
nan

>  <PDB_ID>  (855) 
nan

>  <Standardized_SMILES>  (855) 
NC(=O)c1cccc2c(NCc3cccc(NS(=O)(=O)c4ccccc4)c3)ncnc12

>  <Name>  (855) 
nan

>  <Pocket>  (855) 
nan

>  <ATP_Site>  (855) 
nan

>  <Peripheral>  (855) 
nan

>  <Num_H_Atoms_ProtBoundConf>  (855) 
nan

>  <Num_Resolved_Atoms>  (855) 
nan

>  <Num_Not_Resolved_Atoms>  (855) 
nan

$$$$
CHEMBL4171281
     RDKit          3D

  0  0  0  0  0  0  0  0  0  0999 V3000
M  V30 BEGIN CTAB
M  V30 COUNTS 63 67 0 0 0
M  V30 BEGIN ATOM
M  V30 1 C 3.594430 -2.790941 -0.167874 0
M  V30 2 C 4.465049 -1.562925 -0.197634 0
M  V30 3 C 4.119213 -0.623289 -1.348621 0
M  V30 4 C 5.062600 0.535953 -1.241346 0
M  V30 5 O 5.968770 0.901491 -2.053953 0
M  V30 6 N 4.937220 1.355037 -0.064299 0
M  V30 7 C 6.064853 2.125158 0.480793 0
M  V30 8 C 3.683937 1.434082 0.608929 0
M  V30 9 C 3.459280 2.182949 1.734767 0
M  V30 10 N 2.230434 2.179146 2.283711 0
M  V30 11 C 1.184865 1.481376 1.800597 0
M  V30 12 N -0.086333 1.533538 2.445310 0
M  V30 13 C -0.436005 2.470521 3.350992 0
M  V30 14 C -1.740799 2.180177 3.741426 0
M  V30 15 C -2.175208 1.044605 3.051314 0
M  V30 16 C -3.383309 0.332752 3.063056 0
M  V30 17 C -3.529727 -0.784029 2.250985 0
M  V30 18 C -4.807952 -1.486968 2.303112 0
M  V30 19 O -5.676870 -1.041817 3.067718 0
M  V30 20 N -5.059554 -2.641978 1.510224 0
M  V30 21 C -6.292392 -3.405513 1.492922 0
M  V30 22 C -6.823529 -3.490585 0.056429 0
M  V30 23 C -5.954060 -4.824408 1.887735 0
M  V30 24 C -2.462951 -1.149992 1.455514 0
M  V30 25 C -1.281489 -0.435252 1.458701 0
M  V30 26 C -1.108167 0.677887 2.255112 0
M  V30 27 N 1.394536 0.741334 0.693588 0
M  V30 28 C 2.615477 0.703746 0.091589 0
M  V30 29 N 2.802731 -0.080945 -1.066313 0
M  V30 30 C 1.740443 -0.339837 -1.938888 0
M  V30 31 C 1.785179 -1.094118 -3.110496 0
M  V30 32 C 0.554226 -1.139932 -3.720348 0
M  V30 33 N -0.246381 -0.400466 -2.902172 0
M  V30 34 C -1.657578 -0.138651 -3.104889 0
M  V30 35 N 0.459416 0.062783 -1.862439 0
M  V30 36 H 4.087228 -3.690309 -0.586233 0
M  V30 37 H 2.615439 -2.598196 -0.679153 0
M  V30 38 H 3.319599 -3.046474 0.875921 0
M  V30 39 H 4.374623 -1.056645 0.777039 0
M  V30 40 H 5.513328 -1.929148 -0.260589 0
M  V30 41 H 4.175231 -1.122900 -2.313336 0
M  V30 42 H 6.127191 2.090279 1.568591 0
M  V30 43 H 5.946234 3.157680 0.062507 0
M  V30 44 H 6.996560 1.729761 -0.019429 0
M  V30 45 H 4.281026 2.757378 2.150068 0
M  V30 46 H 0.132828 3.294437 3.731220 0
M  V30 47 H -2.297558 2.756669 4.460880 0
M  V30 48 H -4.161879 0.693610 3.717614 0
M  V30 49 H -4.336231 -3.026442 0.862767 0
M  V30 50 H -7.043865 -2.997757 2.172539 0
M  V30 51 H -7.858163 -3.910060 0.176347 0
M  V30 52 H -6.185249 -4.146529 -0.548036 0
M  V30 53 H -6.820027 -2.475915 -0.342971 0
M  V30 54 H -5.164662 -4.904906 2.634864 0
M  V30 55 H -5.653932 -5.418403 1.003533 0
M  V30 56 H -6.875873 -5.285011 2.316520 0
M  V30 57 H -2.570113 -2.007930 0.829126 0
M  V30 58 H -0.479928 -0.792484 0.796078 0
M  V30 59 H 2.630560 -1.608683 -3.553935 0
M  V30 60 H 0.270538 -1.641482 -4.636226 0
M  V30 61 H -2.016749 -0.743917 -3.967552 0
M  V30 62 H -2.202406 -0.452928 -2.183834 0
M  V30 63 H -1.859572 0.932847 -3.329279 0
M  V30 END ATOM
M  V30 BEGIN BOND
M  V30 1 1 1 2
M  V30 2 1 2 3
M  V30 3 1 3 4
M  V30 4 2 4 5
M  V30 5 1 4 6
M  V30 6 1 6 7
M  V30 7 1 6 8
M  V30 8 2 8 9
M  V30 9 1 9 10
M  V30 10 2 10 11
M  V30 11 1 11 12
M  V30 12 1 12 13
M  V30 13 2 13 14
M  V30 14 1 14 15
M  V30 15 2 15 16
M  V30 16 1 16 17
M  V30 17 1 17 18
M  V30 18 2 18 19
M  V30 19 1 18 20
M  V30 20 1 20 21
M  V30 21 1 21 22
M  V30 22 1 21 23
M  V30 23 2 17 24
M  V30 24 1 24 25
M  V30 25 2 25 26
M  V30 26 1 11 27
M  V30 27 2 27 28
M  V30 28 1 28 29
M  V30 29 1 29 30
M  V30 30 1 30 31
M  V30 31 2 31 32
M  V30 32 1 32 33
M  V30 33 1 33 34
M  V30 34 1 33 35
M  V30 35 1 29 3
M  V30 36 2 35 30
M  V30 37 1 28 8
M  V30 38 1 26 12
M  V30 39 1 26 15
M  V30 40 1 1 36
M  V30 41 1 1 37
M  V30 42 1 1 38
M  V30 43 1 2 39
M  V30 44 1 2 40
M  V30 45 1 3 41
M  V30 46 1 7 42
M  V30 47 1 7 43
M  V30 48 1 7 44
M  V30 49 1 9 45
M  V30 50 1 13 46
M  V30 51 1 14 47
M  V30 52 1 16 48
M  V30 53 1 20 49
M  V30 54 1 21 50
M  V30 55 1 22 51
M  V30 56 1 22 52
M  V30 57 1 22 53
M  V30 58 1 23 54
M  V30 59 1 23 55
M  V30 60 1 23 56
M  V30 61 1 24 57
M  V30 62 1 25 58
M  V30 63 1 31 59
M  V30 64 1 32 60
M  V30 65 1 34 61
M  V30 66 1 34 62
M  V30 67 1 34 63
M  V30 END BOND
M  V30 END CTAB
M  END
>  <Dataset>  (856) 
ChEMBL_Kinases

>  <Ligand_Instance>  (856) 
nan

>  <PDB_ID>  (856) 
nan

>  <Standardized_SMILES>  (856) 
CCC1C(=O)N(C)c2cnc(-n3ccc4cc(C(=O)NC(C)C)ccc43)nc2N1c1ccn(C)n1

>  <Name>  (856) 
nan

>  <Pocket>  (856) 
nan

>  <ATP_Site>  (856) 
nan

>  <Peripheral>  (856) 
nan

>  <Num_H_Atoms_ProtBoundConf>  (856) 
nan

>  <Num_Resolved_Atoms>  (856) 
nan

>  <Num_Not_Resolved_Atoms>  (856) 
nan

$$$$
CHEMBL4171253
     RDKit          3D

  0  0  0  0  0  0  0  0  0  0999 V3000
M  V30 BEGIN CTAB
M  V30 COUNTS 56 58 0 0 0
M  V30 BEGIN ATOM
M  V30 1 C 3.301960 -1.034175 4.611225 0
M  V30 2 O 4.375637 -1.088871 3.668750 0
M  V30 3 C 4.113354 -1.436671 2.332964 0
M  V30 4 C 5.120274 -1.504526 1.383115 0
M  V30 5 C 4.803628 -1.854450 0.072773 0
M  V30 6 C 3.512397 -2.138584 -0.318362 0
M  V30 7 C 2.503154 -2.074458 0.614082 0
M  V30 8 C 2.840191 -1.728560 1.898964 0
M  V30 9 C 1.265973 -2.388087 0.115762 0
M  V30 10 C -0.089438 -2.433694 0.616663 0
M  V30 11 C -0.723791 -1.455970 1.232074 0
M  V30 12 C -0.334044 -0.051131 1.614089 0
M  V30 13 C -1.579160 0.523918 2.126862 0
M  V30 14 C -1.178678 1.250768 3.446406 0
M  V30 15 O -0.539143 0.350044 4.284141 0
M  V30 16 C -2.228166 1.516841 1.226803 0
M  V30 17 O -2.774722 1.049690 0.083253 0
M  V30 18 C -2.442876 0.476400 -1.052183 0
M  V30 19 O -1.330038 0.166074 -1.437507 0
M  V30 20 C -3.589146 0.180864 -1.962962 0
M  V30 21 C -4.348471 1.435195 -2.344721 0
M  V30 22 C -4.553060 -0.698970 -1.192905 0
M  V30 23 C -3.136735 -0.515505 -3.213314 0
M  V30 24 O -2.457930 -0.538066 2.466315 0
M  V30 25 C -2.096115 -1.661704 1.686795 0
M  V30 26 O -2.953750 -2.569084 1.535560 0
M  V30 27 C 1.563057 -2.664821 -1.227120 0
M  V30 28 N 2.894471 -2.512840 -1.468490 0
M  V30 29 C 3.560887 -2.715145 -2.739288 0
M  V30 30 H 3.732918 -0.701584 5.576849 0
M  V30 31 H 2.565648 -0.301511 4.249549 0
M  V30 32 H 2.759116 -2.012218 4.681015 0
M  V30 33 H 6.156785 -1.282119 1.668996 0
M  V30 34 H 5.600004 -1.909731 -0.687064 0
M  V30 35 H 2.092836 -1.685086 2.667524 0
M  V30 36 H -0.557804 -3.398386 0.431589 0
M  V30 37 H 0.104420 0.413777 0.717114 0
M  V30 38 H 0.480200 -0.096726 2.398586 0
M  V30 39 H -2.073496 1.720643 3.882704 0
M  V30 40 H -0.454970 2.048228 3.191445 0
M  V30 41 H 0.198765 0.782176 4.764950 0
M  V30 42 H -2.983442 2.062139 1.860495 0
M  V30 43 H -1.458540 2.334044 0.941561 0
M  V30 44 H -5.269618 1.085974 -2.853845 0
M  V30 45 H -3.744279 2.045917 -3.057190 0
M  V30 46 H -4.637525 2.052054 -1.479805 0
M  V30 47 H -4.548815 -0.312597 -0.132515 0
M  V30 48 H -4.229304 -1.756021 -1.210703 0
M  V30 49 H -5.568978 -0.579693 -1.651198 0
M  V30 50 H -2.908191 0.240517 -3.981038 0
M  V30 51 H -2.252028 -1.120848 -2.969222 0
M  V30 52 H -3.929163 -1.193300 -3.619018 0
M  V30 53 H 0.869748 -2.967221 -2.027136 0
M  V30 54 H 3.591925 -3.772694 -3.055577 0
M  V30 55 H 4.575814 -2.243401 -2.701565 0
M  V30 56 H 3.011757 -2.142676 -3.543401 0
M  V30 END ATOM
M  V30 BEGIN BOND
M  V30 1 1 1 2
M  V30 2 1 2 3
M  V30 3 2 3 4
M  V30 4 1 4 5
M  V30 5 2 5 6
M  V30 6 1 6 7
M  V30 7 2 7 8
M  V30 8 1 7 9
M  V30 9 1 9 10
M  V30 10 2 10 11
M  V30 11 1 11 12
M  V30 12 1 12 13
M  V30 13 1 13 14
M  V30 14 1 14 15
M  V30 15 1 13 16
M  V30 16 1 16 17
M  V30 17 1 17 18
M  V30 18 2 18 19
M  V30 19 1 18 20
M  V30 20 1 20 21
M  V30 21 1 20 22
M  V30 22 1 20 23
M  V30 23 1 13 24
M  V30 24 1 24 25
M  V30 25 2 25 26
M  V30 26 2 9 27
M  V30 27 1 27 28
M  V30 28 1 28 29
M  V30 29 1 8 3
M  V30 30 1 25 11
M  V30 31 1 28 6
M  V30 32 1 1 30
M  V30 33 1 1 31
M  V30 34 1 1 32
M  V30 35 1 4 33
M  V30 36 1 5 34
M  V30 37 1 8 35
M  V30 38 1 10 36
M  V30 39 1 12 37
M  V30 40 1 12 38
M  V30 41 1 14 39
M  V30 42 1 14 40
M  V30 43 1 15 41
M  V30 44 1 16 42
M  V30 45 1 16 43
M  V30 46 1 21 44
M  V30 47 1 21 45
M  V30 48 1 21 46
M  V30 49 1 22 47
M  V30 50 1 22 48
M  V30 51 1 22 49
M  V30 52 1 23 50
M  V30 53 1 23 51
M  V30 54 1 23 52
M  V30 55 1 27 53
M  V30 56 1 29 54
M  V30 57 1 29 55
M  V30 58 1 29 56
M  V30 END BOND
M  V30 END CTAB
M  END
>  <Dataset>  (857) 
ChEMBL_Kinases

>  <Ligand_Instance>  (857) 
nan

>  <PDB_ID>  (857) 
nan

>  <Standardized_SMILES>  (857) 
COc1ccc2c(c1)c(/C=C1\CC(CO)(COC(=O)C(C)(C)C)OC1=O)cn2C

>  <Name>  (857) 
nan

>  <Pocket>  (857) 
nan

>  <ATP_Site>  (857) 
nan

>  <Peripheral>  (857) 
nan

>  <Num_H_Atoms_ProtBoundConf>  (857) 
nan

>  <Num_Resolved_Atoms>  (857) 
nan

>  <Num_Not_Resolved_Atoms>  (857) 
nan

$$$$
CHEMBL4171225
     RDKit          3D

  0  0  0  0  0  0  0  0  0  0999 V3000
M  V30 BEGIN CTAB
M  V30 COUNTS 74 78 0 0 0
M  V30 BEGIN ATOM
M  V30 1 C 0.418307 -3.104958 0.638938 0
M  V30 2 C 1.665018 -3.741691 0.137625 0
M  V30 3 N 2.878051 -3.183244 0.670050 0
M  V30 4 C 3.026774 -3.438598 2.086155 0
M  V30 5 C 3.214993 -4.884673 2.442939 0
M  V30 6 C 4.072607 -3.511665 -0.033461 0
M  V30 7 C 3.875131 -3.260228 -1.489469 0
M  V30 8 C 3.699309 -4.377952 -2.287020 0
M  V30 9 C 3.517757 -4.155264 -3.620502 0
M  V30 10 C 3.480201 -2.987181 -4.311518 0
M  V30 11 C 3.663138 -1.878636 -3.455334 0
M  V30 12 C 3.859294 -1.980864 -2.068317 0
M  V30 13 N 4.017991 -0.839618 -1.236769 0
M  V30 14 C 3.038841 -0.109942 -0.453579 0
M  V30 15 O 1.822814 -0.214259 -0.237905 0
M  V30 16 N 3.473805 1.032206 0.299404 0
M  V30 17 C 2.364889 1.555630 0.997714 0
M  V30 18 C 1.338676 2.429923 0.864817 0
M  V30 19 C 0.334171 2.805802 1.731719 0
M  V30 20 C 0.418527 2.134700 2.981140 0
M  V30 21 C -0.641729 2.517323 3.921021 0
M  V30 22 C -1.855624 1.615992 3.930445 0
M  V30 23 N -2.520626 1.463574 2.676443 0
M  V30 24 C -3.890122 1.171291 2.604518 0
M  V30 25 N -4.634572 1.101716 3.743447 0
M  V30 26 C -5.953581 0.880597 3.596206 0
M  V30 27 N -6.642323 0.715121 2.434542 0
M  V30 28 C -5.898083 0.783138 1.283932 0
M  V30 29 O -6.261265 0.664399 0.038619 0
M  V30 30 C -5.280271 0.781111 -0.772466 0
M  V30 31 C -5.084681 0.743068 -2.239464 0
M  V30 32 C -3.985619 0.789240 -3.021213 0
M  V30 33 C -4.077986 0.767727 -4.395312 0
M  V30 34 C -5.284733 0.697590 -5.083500 0
M  V30 35 C -6.350788 0.653235 -4.223264 0
M  V30 36 C -6.347134 0.670703 -2.839800 0
M  V30 37 C -4.163087 0.999016 0.058402 0
M  V30 38 Cl -2.455628 1.261483 -0.291709 0
M  V30 39 C -4.520153 1.011156 1.389261 0
M  V30 40 C 1.419648 1.227326 3.223142 0
M  V30 41 C 2.398547 0.918449 2.258867 0
M  V30 42 H -0.435021 -3.844025 0.618914 0
M  V30 43 H 0.513886 -2.628212 1.617679 0
M  V30 44 H 0.097671 -2.319121 -0.067438 0
M  V30 45 H 1.719599 -3.587798 -0.970792 0
M  V30 46 H 1.652116 -4.820784 0.346104 0
M  V30 47 H 2.204933 -2.977220 2.688858 0
M  V30 48 H 3.946081 -2.859054 2.380330 0
M  V30 49 H 2.323398 -5.273636 3.021016 0
M  V30 50 H 3.467487 -5.555133 1.608866 0
M  V30 51 H 4.065038 -4.973295 3.170949 0
M  V30 52 H 4.296194 -4.582566 0.100924 0
M  V30 53 H 4.963709 -2.961895 0.348999 0
M  V30 54 H 3.708675 -5.369637 -1.857236 0
M  V30 55 H 3.363414 -5.050384 -4.231128 0
M  V30 56 H 3.341868 -2.797005 -5.347783 0
M  V30 57 H 3.646717 -0.898438 -3.926175 0
M  V30 58 H 4.997589 -0.512654 -1.218196 0
M  V30 59 H 4.480786 1.383424 0.298747 0
M  V30 60 H 1.445643 2.835321 -0.161233 0
M  V30 61 H -0.354616 3.529603 1.357110 0
M  V30 62 H -0.196056 2.518028 4.945151 0
M  V30 63 H -0.959996 3.584993 3.774147 0
M  V30 64 H -1.556037 0.610664 4.334100 0
M  V30 65 H -2.610126 2.010570 4.654189 0
M  V30 66 H -1.756650 1.615057 2.010859 0
M  V30 67 H -6.501068 0.836433 4.519234 0
M  V30 68 H -3.047588 0.833639 -2.521845 0
M  V30 69 H -3.124431 0.807738 -4.923424 0
M  V30 70 H -5.342420 0.688025 -6.139016 0
M  V30 71 H -7.314802 0.600302 -4.765327 0
M  V30 72 H -7.339341 0.623361 -2.362128 0
M  V30 73 H 1.325818 0.824772 4.225794 0
M  V30 74 H 3.063257 0.170978 2.712470 0
M  V30 END ATOM
M  V30 BEGIN BOND
M  V30 1 1 1 2
M  V30 2 1 2 3
M  V30 3 1 3 4
M  V30 4 1 4 5
M  V30 5 1 3 6
M  V30 6 1 6 7
M  V30 7 2 7 8
M  V30 8 1 8 9
M  V30 9 2 9 10
M  V30 10 1 10 11
M  V30 11 2 11 12
M  V30 12 1 12 13
M  V30 13 1 13 14
M  V30 14 2 14 15
M  V30 15 1 14 16
M  V30 16 1 16 17
M  V30 17 2 17 18
M  V30 18 1 18 19
M  V30 19 2 19 20
M  V30 20 1 20 21
M  V30 21 1 21 22
M  V30 22 1 22 23
M  V30 23 1 23 24
M  V30 24 2 24 25
M  V30 25 1 25 26
M  V30 26 2 26 27
M  V30 27 1 27 28
M  V30 28 1 28 29
M  V30 29 1 29 30
M  V30 30 1 30 31
M  V30 31 2 31 32
M  V30 32 1 32 33
M  V30 33 2 33 34
M  V30 34 1 34 35
M  V30 35 2 35 36
M  V30 36 2 30 37
M  V30 37 1 37 38
M  V30 38 1 37 39
M  V30 39 1 20 40
M  V30 40 2 40 41
M  V30 41 1 12 7
M  V30 42 1 41 17
M  V30 43 1 39 24
M  V30 44 2 39 28
M  V30 45 1 36 31
M  V30 46 1 1 42
M  V30 47 1 1 43
M  V30 48 1 1 44
M  V30 49 1 2 45
M  V30 50 1 2 46
M  V30 51 1 4 47
M  V30 52 1 4 48
M  V30 53 1 5 49
M  V30 54 1 5 50
M  V30 55 1 5 51
M  V30 56 1 6 52
M  V30 57 1 6 53
M  V30 58 1 8 54
M  V30 59 1 9 55
M  V30 60 1 10 56
M  V30 61 1 11 57
M  V30 62 1 13 58
M  V30 63 1 16 59
M  V30 64 1 18 60
M  V30 65 1 19 61
M  V30 66 1 21 62
M  V30 67 1 21 63
M  V30 68 1 22 64
M  V30 69 1 22 65
M  V30 70 1 23 66
M  V30 71 1 26 67
M  V30 72 1 32 68
M  V30 73 1 33 69
M  V30 74 1 34 70
M  V30 75 1 35 71
M  V30 76 1 36 72
M  V30 77 1 40 73
M  V30 78 1 41 74
M  V30 END BOND
M  V30 END CTAB
M  END
>  <Dataset>  (858) 
ChEMBL_Kinases

>  <Ligand_Instance>  (858) 
nan

>  <PDB_ID>  (858) 
nan

>  <Standardized_SMILES>  (858) 
CCN(CC)Cc1ccccc1NC(=O)Nc1ccc(CCNc2ncnc3oc(-c4ccccc4)c(Cl)c23)cc1

>  <Name>  (858) 
nan

>  <Pocket>  (858) 
nan

>  <ATP_Site>  (858) 
nan

>  <Peripheral>  (858) 
nan

>  <Num_H_Atoms_ProtBoundConf>  (858) 
nan

>  <Num_Resolved_Atoms>  (858) 
nan

>  <Num_Not_Resolved_Atoms>  (858) 
nan

$$$$
CHEMBL3675369
     RDKit          3D

  0  0  0  0  0  0  0  0  0  0999 V3000
M  V30 BEGIN CTAB
M  V30 COUNTS 50 53 0 0 0
M  V30 BEGIN ATOM
M  V30 1 N 5.600370 -4.521597 0.788886 0
M  V30 2 C 5.791844 -3.753070 1.972594 0
M  V30 3 O 6.505069 -4.440884 2.707013 0
M  V30 4 C 5.222580 -2.430093 2.188046 0
M  V30 5 C 5.460804 -1.786118 3.372553 0
M  V30 6 C 4.883847 -0.527183 3.508685 0
M  V30 7 C 4.122476 0.013581 2.493791 0
M  V30 8 C 3.892774 -0.642501 1.314007 0
M  V30 9 C 3.124865 -0.057547 0.329326 0
M  V30 10 N 2.529455 1.224429 0.451663 0
M  V30 11 C 1.721191 1.882248 -0.538097 0
M  V30 12 C 0.482104 1.179494 -0.906988 0
M  V30 13 C 0.252874 0.310319 -1.951168 0
M  V30 14 C -0.980686 -0.273084 -2.141717 0
M  V30 15 C -2.068190 -0.022585 -1.296122 0
M  V30 16 N -3.232664 -0.731778 -1.669466 0
M  V30 17 S -4.284583 -1.643838 -0.647913 0
M  V30 18 O -3.428125 -2.692530 0.060429 0
M  V30 19 O -5.311848 -2.375096 -1.424217 0
M  V30 20 C -5.046561 -0.700209 0.585583 0
M  V30 21 C -4.638012 -0.467742 1.899834 0
M  V30 22 C -5.397543 0.325108 2.733810 0
M  V30 23 C -6.570702 0.916901 2.328884 0
M  V30 24 C -6.997337 0.705049 1.039042 0
M  V30 25 C -6.236098 -0.095186 0.188305 0
M  V30 26 C -1.852778 0.845071 -0.248595 0
M  V30 27 C -0.610831 1.417096 -0.076539 0
M  V30 28 N 2.950697 -0.762577 -0.790185 0
M  V30 29 C 3.507900 -1.973322 -0.916676 0
M  V30 30 N 4.261672 -2.575920 0.019787 0
M  V30 31 C 4.462800 -1.889985 1.175442 0
M  V30 32 H 4.574329 -4.734120 0.956494 0
M  V30 33 H 4.614519 -4.838423 0.762990 0
M  V30 34 H 6.054067 -2.217684 4.152360 0
M  V30 35 H 5.079947 -0.028104 4.450522 0
M  V30 36 H 3.745299 0.972856 2.728146 0
M  V30 37 H 2.675656 1.762293 1.332353 0
M  V30 38 H 1.445115 2.887337 -0.163028 0
M  V30 39 H 2.360515 2.087896 -1.432651 0
M  V30 40 H 1.095175 0.131180 -2.602583 0
M  V30 41 H -1.019820 -0.932641 -2.997519 0
M  V30 42 H -3.504169 -0.705619 -2.698875 0
M  V30 43 H -3.708571 -0.970336 2.130170 0
M  V30 44 H -5.003916 0.456394 3.753400 0
M  V30 45 H -7.123530 1.529007 3.030377 0
M  V30 46 H -7.919437 1.168700 0.716117 0
M  V30 47 H -6.667887 -0.196115 -0.813987 0
M  V30 48 H -2.705598 1.005886 0.362338 0
M  V30 49 H -0.576775 2.075577 0.779587 0
M  V30 50 H 3.369239 -2.551972 -1.826940 0
M  V30 END ATOM
M  V30 BEGIN BOND
M  V30 1 1 1 2
M  V30 2 2 2 3
M  V30 3 1 2 4
M  V30 4 2 4 5
M  V30 5 1 5 6
M  V30 6 2 6 7
M  V30 7 1 7 8
M  V30 8 2 8 9
M  V30 9 1 9 10
M  V30 10 1 10 11
M  V30 11 1 11 12
M  V30 12 2 12 13
M  V30 13 1 13 14
M  V30 14 2 14 15
M  V30 15 1 15 16
M  V30 16 1 16 17
M  V30 17 2 17 18
M  V30 18 2 17 19
M  V30 19 1 17 20
M  V30 20 2 20 21
M  V30 21 1 21 22
M  V30 22 2 22 23
M  V30 23 1 23 24
M  V30 24 2 24 25
M  V30 25 1 15 26
M  V30 26 2 26 27
M  V30 27 1 9 28
M  V30 28 2 28 29
M  V30 29 1 29 30
M  V30 30 2 30 31
M  V30 31 1 31 4
M  V30 32 1 31 8
M  V30 33 1 27 12
M  V30 34 1 25 20
M  V30 35 1 1 32
M  V30 36 1 1 33
M  V30 37 1 5 34
M  V30 38 1 6 35
M  V30 39 1 7 36
M  V30 40 1 10 37
M  V30 41 1 11 38
M  V30 42 1 11 39
M  V30 43 1 13 40
M  V30 44 1 14 41
M  V30 45 1 16 42
M  V30 46 1 21 43
M  V30 47 1 22 44
M  V30 48 1 23 45
M  V30 49 1 24 46
M  V30 50 1 25 47
M  V30 51 1 26 48
M  V30 52 1 27 49
M  V30 53 1 29 50
M  V30 END BOND
M  V30 END CTAB
M  END
>  <Dataset>  (859) 
ChEMBL_Kinases

>  <Ligand_Instance>  (859) 
nan

>  <PDB_ID>  (859) 
nan

>  <Standardized_SMILES>  (859) 
NC(=O)c1cccc2c(NCc3ccc(NS(=O)(=O)c4ccccc4)cc3)ncnc12

>  <Name>  (859) 
nan

>  <Pocket>  (859) 
nan

>  <ATP_Site>  (859) 
nan

>  <Peripheral>  (859) 
nan

>  <Num_H_Atoms_ProtBoundConf>  (859) 
nan

>  <Num_Resolved_Atoms>  (859) 
nan

>  <Num_Not_Resolved_Atoms>  (859) 
nan

$$$$
CHEMBL4171138
     RDKit          3D

  0  0  0  0  0  0  0  0  0  0999 V3000
M  V30 BEGIN CTAB
M  V30 COUNTS 64 68 0 0 0
M  V30 BEGIN ATOM
M  V30 1 C 5.652425 -3.812244 3.729853 0
M  V30 2 C 4.538368 -2.842080 3.580300 0
M  V30 3 N 4.563486 -1.704394 2.904719 0
M  V30 4 C 3.574943 -0.826334 2.761452 0
M  V30 5 N 3.951926 0.282104 1.988340 0
M  V30 6 C 4.186474 0.723364 0.665160 0
M  V30 7 C 5.495214 1.184744 0.469525 0
M  V30 8 N 5.596977 1.568762 -0.813835 0
M  V30 9 N 4.448096 1.370517 -1.395619 0
M  V30 10 C 3.559874 0.860111 -0.544238 0
M  V30 11 C 2.183547 0.458629 -0.663586 0
M  V30 12 O 1.399347 -0.021658 0.147548 0
M  V30 13 N 1.644932 0.656295 -1.951358 0
M  V30 14 C 0.327271 0.363118 -2.385658 0
M  V30 15 C -0.678992 1.310032 -2.287312 0
M  V30 16 C -1.934254 0.938291 -2.745385 0
M  V30 17 C -2.211090 -0.289212 -3.274651 0
M  V30 18 C -3.611440 -0.537679 -3.729547 0
M  V30 19 N -4.366264 -1.065935 -2.670136 0
M  V30 20 C -5.725465 -1.373893 -2.860216 0
M  V30 21 C -6.167357 -2.448655 -1.885667 0
M  V30 22 O -5.827196 -2.036905 -0.595851 0
M  V30 23 C -4.438840 -2.146790 -0.475276 0
M  V30 24 C -3.829055 -1.083805 -1.367447 0
M  V30 25 C -1.193795 -1.220573 -3.363838 0
M  V30 26 C 0.078588 -0.901302 -2.921154 0
M  V30 27 C 2.369997 -1.084262 3.364990 0
M  V30 28 C 1.245693 -0.304871 3.338900 0
M  V30 29 C 0.115912 -0.690559 3.996921 0
M  V30 30 C -1.200799 -0.167608 4.194516 0
M  V30 31 C -2.021285 -0.130410 2.897062 0
M  V30 32 C -1.139070 1.194575 4.812380 0
M  V30 33 S 0.640966 -2.345869 4.764729 0
M  V30 34 C 2.311418 -2.290846 4.093694 0
M  V30 35 N 3.365758 -3.112348 4.178762 0
M  V30 36 H 5.258268 -4.807798 3.397958 0
M  V30 37 H 6.555496 -3.507373 3.203927 0
M  V30 38 H 5.865619 -3.961976 4.828531 0
M  V30 39 H 4.074599 0.964675 2.797429 0
M  V30 40 H 6.394346 1.301995 1.063298 0
M  V30 41 H 6.311390 1.969654 -1.464616 0
M  V30 42 H 2.135694 1.054790 -2.799849 0
M  V30 43 H -0.452576 2.277660 -1.867838 0
M  V30 44 H -2.712858 1.700945 -2.658068 0
M  V30 45 H -4.068318 0.397348 -4.136162 0
M  V30 46 H -3.538176 -1.214588 -4.610400 0
M  V30 47 H -6.340539 -0.451070 -2.733308 0
M  V30 48 H -5.865005 -1.753798 -3.891195 0
M  V30 49 H -7.250519 -2.535700 -1.964691 0
M  V30 50 H -5.616207 -3.372222 -2.109849 0
M  V30 51 H -4.165421 -2.005045 0.572898 0
M  V30 52 H -4.156732 -3.139624 -0.900805 0
M  V30 53 H -4.067952 -0.102417 -0.870616 0
M  V30 54 H -2.726798 -1.134599 -1.382393 0
M  V30 55 H -1.419025 -2.173930 -3.777427 0
M  V30 56 H 0.887622 -1.615459 -2.981917 0
M  V30 57 H 1.131228 0.639815 2.829549 0
M  V30 58 H -1.787848 -0.833863 4.864123 0
M  V30 59 H -3.069846 0.157209 3.102953 0
M  V30 60 H -1.608886 0.566785 2.154391 0
M  V30 61 H -2.059395 -1.159563 2.485998 0
M  V30 62 H -0.088077 1.510046 4.989031 0
M  V30 63 H -1.690311 1.972739 4.226592 0
M  V30 64 H -1.625621 1.197672 5.808097 0
M  V30 END ATOM
M  V30 BEGIN BOND
M  V30 1 1 1 2
M  V30 2 2 2 3
M  V30 3 1 3 4
M  V30 4 1 4 5
M  V30 5 1 5 6
M  V30 6 2 6 7
M  V30 7 1 7 8
M  V30 8 1 8 9
M  V30 9 2 9 10
M  V30 10 1 10 11
M  V30 11 2 11 12
M  V30 12 1 11 13
M  V30 13 1 13 14
M  V30 14 2 14 15
M  V30 15 1 15 16
M  V30 16 2 16 17
M  V30 17 1 17 18
M  V30 18 1 18 19
M  V30 19 1 19 20
M  V30 20 1 20 21
M  V30 21 1 21 22
M  V30 22 1 22 23
M  V30 23 1 23 24
M  V30 24 1 17 25
M  V30 25 2 25 26
M  V30 26 2 4 27
M  V30 27 1 27 28
M  V30 28 2 28 29
M  V30 29 1 29 30
M  V30 30 1 30 31
M  V30 31 1 30 32
M  V30 32 1 29 33
M  V30 33 1 33 34
M  V30 34 2 34 35
M  V30 35 1 35 2
M  V30 36 1 10 6
M  V30 37 1 26 14
M  V30 38 1 34 27
M  V30 39 1 24 19
M  V30 40 1 1 36
M  V30 41 1 1 37
M  V30 42 1 1 38
M  V30 43 1 5 39
M  V30 44 1 7 40
M  V30 45 1 8 41
M  V30 46 1 13 42
M  V30 47 1 15 43
M  V30 48 1 16 44
M  V30 49 1 18 45
M  V30 50 1 18 46
M  V30 51 1 20 47
M  V30 52 1 20 48
M  V30 53 1 21 49
M  V30 54 1 21 50
M  V30 55 1 23 51
M  V30 56 1 23 52
M  V30 57 1 24 53
M  V30 58 1 24 54
M  V30 59 1 25 55
M  V30 60 1 26 56
M  V30 61 1 28 57
M  V30 62 1 30 58
M  V30 63 1 31 59
M  V30 64 1 31 60
M  V30 65 1 31 61
M  V30 66 1 32 62
M  V30 67 1 32 63
M  V30 68 1 32 64
M  V30 END BOND
M  V30 END CTAB
M  END
>  <Dataset>  (860) 
ChEMBL_Kinases

>  <Ligand_Instance>  (860) 
nan

>  <PDB_ID>  (860) 
nan

>  <Standardized_SMILES>  (860) 
Cc1nc(Nc2c[nH]nc2C(=O)Nc2ccc(CN3CCOCC3)cc2)c2cc(C(C)C)sc2n1

>  <Name>  (860) 
nan

>  <Pocket>  (860) 
nan

>  <ATP_Site>  (860) 
nan

>  <Peripheral>  (860) 
nan

>  <Num_H_Atoms_ProtBoundConf>  (860) 
nan

>  <Num_Resolved_Atoms>  (860) 
nan

>  <Num_Not_Resolved_Atoms>  (860) 
nan

$$$$
CHEMBL4174397
     RDKit          3D

  0  0  0  0  0  0  0  0  0  0999 V3000
M  V30 BEGIN CTAB
M  V30 COUNTS 47 49 0 0 0
M  V30 BEGIN ATOM
M  V30 1 C 1.592940 -5.894045 6.370234 0
M  V30 2 O 2.282125 -4.759665 5.857704 0
M  V30 3 C 2.119888 -4.342747 4.544472 0
M  V30 4 C 2.791808 -3.238268 4.064395 0
M  V30 5 C 2.650614 -2.796103 2.756092 0
M  V30 6 C 1.804599 -3.500694 1.926334 0
M  V30 7 C 1.498014 -3.199519 0.522510 0
M  V30 8 C 1.309881 -1.960823 0.068088 0
M  V30 9 C 1.369669 -0.696340 0.853904 0
M  V30 10 C 0.376339 0.193763 0.111744 0
M  V30 11 C -0.970129 -0.085685 0.753265 0
M  V30 12 O -1.278470 -1.450780 0.711534 0
M  V30 13 C 0.682914 1.638298 0.277596 0
M  V30 14 O -0.229485 2.446374 -0.398256 0
M  V30 15 C -0.510075 2.567215 -1.711626 0
M  V30 16 O 0.068787 1.912314 -2.589893 0
M  V30 17 C -1.562718 3.542765 -2.007524 0
M  V30 18 C -2.245222 4.306539 -1.081738 0
M  V30 19 C -3.227328 5.209078 -1.412797 0
M  V30 20 C -3.575660 5.386456 -2.737045 0
M  V30 21 Cl -4.824293 6.529528 -3.182019 0
M  V30 22 C -2.915143 4.640378 -3.692866 0
M  V30 23 C -1.915986 3.722976 -3.349628 0
M  V30 24 O 0.431037 -0.187785 -1.221764 0
M  V30 25 C 0.997628 -1.481764 -1.280133 0
M  V30 26 O 1.228784 -2.182453 -2.324722 0
M  V30 27 C 1.117812 -4.611869 2.378579 0
M  V30 28 C 1.261496 -5.057159 3.700659 0
M  V30 29 H 1.567078 -5.890074 7.478603 0
M  V30 30 H 0.512923 -5.745438 6.069503 0
M  V30 31 H 1.929956 -6.826842 5.911472 0
M  V30 32 H 3.463306 -2.655666 4.674361 0
M  V30 33 H 3.144221 -1.952766 2.326149 0
M  V30 34 H 1.408824 -3.974810 -0.224854 0
M  V30 35 H 1.071462 -0.838922 1.908793 0
M  V30 36 H 2.379780 -0.240895 0.853914 0
M  V30 37 H -0.877540 0.187557 1.824930 0
M  V30 38 H -1.768911 0.537157 0.321821 0
M  V30 39 H -1.940110 -1.636946 1.439818 0
M  V30 40 H 0.664905 1.932051 1.358959 0
M  V30 41 H 1.749042 1.880587 -0.036094 0
M  V30 42 H -1.918465 4.114832 -0.053138 0
M  V30 43 H -3.712705 5.769886 -0.604049 0
M  V30 44 H -3.149896 4.739522 -4.759456 0
M  V30 45 H -1.422543 3.158867 -4.128693 0
M  V30 46 H 0.442364 -5.212861 1.794530 0
M  V30 47 H 0.716567 -5.939495 4.057928 0
M  V30 END ATOM
M  V30 BEGIN BOND
M  V30 1 1 1 2
M  V30 2 1 2 3
M  V30 3 2 3 4
M  V30 4 1 4 5
M  V30 5 2 5 6
M  V30 6 1 6 7
M  V30 7 2 7 8
M  V30 8 1 8 9
M  V30 9 1 9 10
M  V30 10 1 10 11
M  V30 11 1 11 12
M  V30 12 1 10 13
M  V30 13 1 13 14
M  V30 14 1 14 15
M  V30 15 2 15 16
M  V30 16 1 15 17
M  V30 17 2 17 18
M  V30 18 1 18 19
M  V30 19 2 19 20
M  V30 20 1 20 21
M  V30 21 1 20 22
M  V30 22 2 22 23
M  V30 23 1 10 24
M  V30 24 1 24 25
M  V30 25 2 25 26
M  V30 26 1 6 27
M  V30 27 2 27 28
M  V30 28 1 28 3
M  V30 29 1 25 8
M  V30 30 1 23 17
M  V30 31 1 1 29
M  V30 32 1 1 30
M  V30 33 1 1 31
M  V30 34 1 4 32
M  V30 35 1 5 33
M  V30 36 1 7 34
M  V30 37 1 9 35
M  V30 38 1 9 36
M  V30 39 1 11 37
M  V30 40 1 11 38
M  V30 41 1 12 39
M  V30 42 1 13 40
M  V30 43 1 13 41
M  V30 44 1 18 42
M  V30 45 1 19 43
M  V30 46 1 22 44
M  V30 47 1 23 45
M  V30 48 1 27 46
M  V30 49 1 28 47
M  V30 END BOND
M  V30 END CTAB
M  END
>  <Dataset>  (861) 
ChEMBL_Kinases

>  <Ligand_Instance>  (861) 
nan

>  <PDB_ID>  (861) 
nan

>  <Standardized_SMILES>  (861) 
COc1ccc(/C=C2\CC(CO)(COC(=O)c3ccc(Cl)cc3)OC2=O)cc1

>  <Name>  (861) 
nan

>  <Pocket>  (861) 
nan

>  <ATP_Site>  (861) 
nan

>  <Peripheral>  (861) 
nan

>  <Num_H_Atoms_ProtBoundConf>  (861) 
nan

>  <Num_Resolved_Atoms>  (861) 
nan

>  <Num_Not_Resolved_Atoms>  (861) 
nan

$$$$
CHEMBL4170570
     RDKit          3D

  0  0  0  0  0  0  0  0  0  0999 V3000
M  V30 BEGIN CTAB
M  V30 COUNTS 74 78 0 0 0
M  V30 BEGIN ATOM
M  V30 1 C 1.077470 -4.493750 0.374229 0
M  V30 2 C 2.256649 -4.401316 -0.606862 0
M  V30 3 N 1.828172 -4.604904 -1.952816 0
M  V30 4 C 1.376626 -5.921843 -2.271098 0
M  V30 5 C 2.424759 -6.984563 -2.265623 0
M  V30 6 C 2.745704 -4.102141 -2.942882 0
M  V30 7 C 2.999271 -2.646673 -2.850948 0
M  V30 8 C 2.143232 -1.772433 -3.525659 0
M  V30 9 C 2.383951 -0.395901 -3.442946 0
M  V30 10 C 3.443446 0.088257 -2.711488 0
M  V30 11 N 3.453682 1.524121 -2.787265 0
M  V30 12 C 2.719555 2.152393 -1.744933 0
M  V30 13 O 2.179716 1.364514 -0.907822 0
M  V30 14 N 2.492773 3.539864 -1.491480 0
M  V30 15 C 1.700979 3.896151 -0.336989 0
M  V30 16 C 2.251788 4.168937 0.902320 0
M  V30 17 C 1.406892 4.491348 1.959373 0
M  V30 18 C 0.022397 4.551567 1.823771 0
M  V30 19 C -0.855236 4.904728 2.961024 0
M  V30 20 C -1.239502 3.743896 3.809067 0
M  V30 21 N -1.941516 2.683003 3.171120 0
M  V30 22 C -2.309396 1.562409 3.957824 0
M  V30 23 N -2.018257 1.489713 5.264201 0
M  V30 24 C -2.357439 0.437240 6.030129 0
M  V30 25 N -3.018206 -0.612546 5.509926 0
M  V30 26 C -3.335969 -0.588232 4.196319 0
M  V30 27 O -3.965266 -1.470139 3.460694 0
M  V30 28 C -4.062239 -1.047026 2.220273 0
M  V30 29 C -4.722024 -1.857988 1.214427 0
M  V30 30 C -5.251714 -3.079951 1.570426 0
M  V30 31 C -5.895990 -3.911789 0.647591 0
M  V30 32 C -6.030768 -3.541323 -0.673276 0
M  V30 33 C -5.510345 -2.322370 -1.060943 0
M  V30 34 C -4.887077 -1.544715 -0.111605 0
M  V30 35 C -3.455799 0.185642 2.159101 0
M  V30 36 Cl -3.309220 1.176678 0.755678 0
M  V30 37 C -2.986037 0.492120 3.417254 0
M  V30 38 C -0.451605 4.265783 0.552272 0
M  V30 39 C 0.337295 3.940883 -0.530551 0
M  V30 40 C 4.286892 -0.774367 -2.047091 0
M  V30 41 C 4.051139 -2.127239 -2.127569 0
M  V30 42 H 0.774718 -5.561813 0.485339 0
M  V30 43 H 1.404036 -4.158706 1.376290 0
M  V30 44 H 0.232670 -3.903028 -0.024656 0
M  V30 45 H 2.682340 -3.379457 -0.534135 0
M  V30 46 H 3.029825 -5.113170 -0.259284 0
M  V30 47 H 0.578598 -6.198031 -1.552394 0
M  V30 48 H 0.937054 -5.903580 -3.287185 0
M  V30 49 H 3.117694 -6.939701 -3.121401 0
M  V30 50 H 1.884333 -7.961551 -2.386594 0
M  V30 51 H 2.941670 -7.061794 -1.277214 0
M  V30 52 H 2.364757 -4.391545 -3.944782 0
M  V30 53 H 3.732139 -4.615259 -2.795610 0
M  V30 54 H 1.318519 -2.220875 -4.091632 0
M  V30 55 H 1.644335 0.155101 -4.011999 0
M  V30 56 H 3.890419 2.224853 -3.452759 0
M  V30 57 H 2.953394 4.158327 -2.212309 0
M  V30 58 H 3.327813 4.124312 1.016224 0
M  V30 59 H 1.810623 4.709665 2.938502 0
M  V30 60 H -0.275237 5.616137 3.584805 0
M  V30 61 H -1.721702 5.489594 2.590378 0
M  V30 62 H -0.352917 3.326700 4.330406 0
M  V30 63 H -1.893083 4.119865 4.645186 0
M  V30 64 H -2.108313 2.861492 2.167438 0
M  V30 65 H -2.055548 0.522081 7.063951 0
M  V30 66 H -5.208871 -3.484657 2.585172 0
M  V30 67 H -6.301088 -4.864852 0.957719 0
M  V30 68 H -6.527062 -4.201500 -1.347869 0
M  V30 69 H -5.603483 -2.014567 -2.081378 0
M  V30 70 H -4.505276 -0.611205 -0.478903 0
M  V30 71 H -1.517463 4.292522 0.355618 0
M  V30 72 H -0.104650 3.727858 -1.501845 0
M  V30 73 H 5.070888 -0.257593 -1.516308 0
M  V30 74 H 4.736299 -2.758869 -1.594478 0
M  V30 END ATOM
M  V30 BEGIN BOND
M  V30 1 1 1 2
M  V30 2 1 2 3
M  V30 3 1 3 4
M  V30 4 1 4 5
M  V30 5 1 3 6
M  V30 6 1 6 7
M  V30 7 2 7 8
M  V30 8 1 8 9
M  V30 9 2 9 10
M  V30 10 1 10 11
M  V30 11 1 11 12
M  V30 12 2 12 13
M  V30 13 1 12 14
M  V30 14 1 14 15
M  V30 15 2 15 16
M  V30 16 1 16 17
M  V30 17 2 17 18
M  V30 18 1 18 19
M  V30 19 1 19 20
M  V30 20 1 20 21
M  V30 21 1 21 22
M  V30 22 2 22 23
M  V30 23 1 23 24
M  V30 24 2 24 25
M  V30 25 1 25 26
M  V30 26 1 26 27
M  V30 27 1 27 28
M  V30 28 1 28 29
M  V30 29 2 29 30
M  V30 30 1 30 31
M  V30 31 2 31 32
M  V30 32 1 32 33
M  V30 33 2 33 34
M  V30 34 2 28 35
M  V30 35 1 35 36
M  V30 36 1 35 37
M  V30 37 1 18 38
M  V30 38 2 38 39
M  V30 39 1 10 40
M  V30 40 2 40 41
M  V30 41 1 41 7
M  V30 42 1 39 15
M  V30 43 1 37 22
M  V30 44 2 37 26
M  V30 45 1 34 29
M  V30 46 1 1 42
M  V30 47 1 1 43
M  V30 48 1 1 44
M  V30 49 1 2 45
M  V30 50 1 2 46
M  V30 51 1 4 47
M  V30 52 1 4 48
M  V30 53 1 5 49
M  V30 54 1 5 50
M  V30 55 1 5 51
M  V30 56 1 6 52
M  V30 57 1 6 53
M  V30 58 1 8 54
M  V30 59 1 9 55
M  V30 60 1 11 56
M  V30 61 1 14 57
M  V30 62 1 16 58
M  V30 63 1 17 59
M  V30 64 1 19 60
M  V30 65 1 19 61
M  V30 66 1 20 62
M  V30 67 1 20 63
M  V30 68 1 21 64
M  V30 69 1 24 65
M  V30 70 1 30 66
M  V30 71 1 31 67
M  V30 72 1 32 68
M  V30 73 1 33 69
M  V30 74 1 34 70
M  V30 75 1 38 71
M  V30 76 1 39 72
M  V30 77 1 40 73
M  V30 78 1 41 74
M  V30 END BOND
M  V30 END CTAB
M  END
>  <Dataset>  (862) 
ChEMBL_Kinases

>  <Ligand_Instance>  (862) 
nan

>  <PDB_ID>  (862) 
nan

>  <Standardized_SMILES>  (862) 
CCN(CC)Cc1ccc(NC(=O)Nc2ccc(CCNc3ncnc4oc(-c5ccccc5)c(Cl)c34)cc2)cc1

>  <Name>  (862) 
nan

>  <Pocket>  (862) 
nan

>  <ATP_Site>  (862) 
nan

>  <Peripheral>  (862) 
nan

>  <Num_H_Atoms_ProtBoundConf>  (862) 
nan

>  <Num_Resolved_Atoms>  (862) 
nan

>  <Num_Not_Resolved_Atoms>  (862) 
nan

$$$$
CHEMBL3675367
     RDKit          3D

  0  0  0  0  0  0  0  0  0  0999 V3000
M  V30 BEGIN CTAB
M  V30 COUNTS 39 42 0 0 0
M  V30 BEGIN ATOM
M  V30 1 N -0.117738 -3.903765 5.240903 0
M  V30 2 C 0.980445 -4.032924 4.357168 0
M  V30 3 O 1.212359 -5.134785 4.862181 0
M  V30 4 C 1.558419 -3.211638 3.319977 0
M  V30 5 C 2.653616 -3.729203 2.693649 0
M  V30 6 C 3.219672 -2.942128 1.688857 0
M  V30 7 C 2.653091 -1.715129 1.393049 0
M  V30 8 C 1.555870 -1.246014 2.052354 0
M  V30 9 C 0.996858 -0.021413 1.750048 0
M  V30 10 N 1.525590 0.824954 0.765976 0
M  V30 11 C 1.184135 2.117558 0.214878 0
M  V30 12 C -0.068238 1.950805 -0.570711 0
M  V30 13 C -1.389394 2.163367 -0.276134 0
M  V30 14 C -2.377571 1.903770 -1.196635 0
M  V30 15 C -2.132742 1.424926 -2.450101 0
M  V30 16 C -0.817117 1.194390 -2.796855 0
M  V30 17 C 0.193358 1.458026 -1.860227 0
M  V30 18 O -0.769070 0.713969 -4.098157 0
M  V30 19 C -2.057479 0.188227 -4.366495 0
M  V30 20 O -2.873690 1.068717 -3.579989 0
M  V30 21 C -0.108027 0.323205 2.496068 0
M  V30 22 C -0.664909 -0.456146 3.488122 0
M  V30 23 N -0.069772 -1.628411 3.724421 0
M  V30 24 C 0.995033 -2.008260 3.036722 0
M  V30 25 H -1.016778 -3.555388 4.899061 0
M  V30 26 H -1.014004 -3.534214 4.797680 0
M  V30 27 H 3.114672 -4.686563 2.907948 0
M  V30 28 H 4.091628 -3.324943 1.172422 0
M  V30 29 H 3.149120 -1.190257 0.618500 0
M  V30 30 H 2.359589 0.517533 0.270833 0
M  V30 31 H 1.945914 2.586797 -0.401869 0
M  V30 32 H 0.982469 2.809517 1.080687 0
M  V30 33 H -1.551435 2.547127 0.698267 0
M  V30 34 H -3.386691 2.092618 -0.897986 0
M  V30 35 H 1.213878 1.247655 -2.219548 0
M  V30 36 H -2.246406 0.343065 -5.455395 0
M  V30 37 H -2.172276 -0.862461 -4.055700 0
M  V30 38 H -0.633039 1.249659 2.371081 0
M  V30 39 H -1.532373 -0.183047 4.071065 0
M  V30 END ATOM
M  V30 BEGIN BOND
M  V30 1 1 1 2
M  V30 2 2 2 3
M  V30 3 1 2 4
M  V30 4 2 4 5
M  V30 5 1 5 6
M  V30 6 2 6 7
M  V30 7 1 7 8
M  V30 8 2 8 9
M  V30 9 1 9 10
M  V30 10 1 10 11
M  V30 11 1 11 12
M  V30 12 2 12 13
M  V30 13 1 13 14
M  V30 14 2 14 15
M  V30 15 1 15 16
M  V30 16 2 16 17
M  V30 17 1 16 18
M  V30 18 1 18 19
M  V30 19 1 19 20
M  V30 20 1 9 21
M  V30 21 2 21 22
M  V30 22 1 22 23
M  V30 23 2 23 24
M  V30 24 1 24 4
M  V30 25 1 24 8
M  V30 26 1 17 12
M  V30 27 1 20 15
M  V30 28 1 1 25
M  V30 29 1 1 26
M  V30 30 1 5 27
M  V30 31 1 6 28
M  V30 32 1 7 29
M  V30 33 1 10 30
M  V30 34 1 11 31
M  V30 35 1 11 32
M  V30 36 1 13 33
M  V30 37 1 14 34
M  V30 38 1 17 35
M  V30 39 1 19 36
M  V30 40 1 19 37
M  V30 41 1 21 38
M  V30 42 1 22 39
M  V30 END BOND
M  V30 END CTAB
M  END
>  <Dataset>  (863) 
ChEMBL_Kinases

>  <Ligand_Instance>  (863) 
nan

>  <PDB_ID>  (863) 
nan

>  <Standardized_SMILES>  (863) 
NC(=O)c1cccc2c(NCc3ccc4c(c3)OCO4)ccnc12

>  <Name>  (863) 
nan

>  <Pocket>  (863) 
nan

>  <ATP_Site>  (863) 
nan

>  <Peripheral>  (863) 
nan

>  <Num_H_Atoms_ProtBoundConf>  (863) 
nan

>  <Num_Resolved_Atoms>  (863) 
nan

>  <Num_Not_Resolved_Atoms>  (863) 
nan

$$$$
CHEMBL4170226
     RDKit          3D

  0  0  0  0  0  0  0  0  0  0999 V3000
M  V30 BEGIN CTAB
M  V30 COUNTS 61 65 0 0 0
M  V30 BEGIN ATOM
M  V30 1 C 4.784933 0.229123 8.115494 0
M  V30 2 N 3.823121 -0.083186 7.065577 0
M  V30 3 C 3.895123 0.292738 5.784300 0
M  V30 4 C 2.782398 -0.207938 5.108591 0
M  V30 5 C 2.588583 0.046814 3.704830 0
M  V30 6 C 1.731879 -0.253717 2.790483 0
M  V30 7 C 1.786271 0.157759 1.397888 0
M  V30 8 O 2.690132 0.871695 0.911401 0
M  V30 9 O 1.040749 -0.053962 0.408423 0
M  V30 10 C 0.351949 -0.190221 -0.720494 0
M  V30 11 C -0.192965 1.078960 -1.345955 0
M  V30 12 C 0.877962 2.032819 -1.784777 0
M  V30 13 O 1.746885 1.442618 -2.706888 0
M  V30 14 C -1.125161 0.803714 -2.514990 0
M  V30 15 C -2.384781 0.366297 -1.875500 0
M  V30 16 C -3.302194 -0.518936 -2.193065 0
M  V30 17 C -3.271476 -1.355022 -3.370951 0
M  V30 18 C -4.435296 -1.337960 -4.153192 0
M  V30 19 N -4.289378 -2.179263 -5.214251 0
M  V30 20 C -5.241774 -2.468552 -6.277068 0
M  V30 21 C -3.071124 -2.745695 -5.151753 0
M  V30 22 C -2.359958 -3.670644 -5.915891 0
M  V30 23 C -1.075847 -4.041685 -5.517139 0
M  V30 24 C -0.508695 -3.504737 -4.381307 0
M  V30 25 C -1.185721 -2.588260 -3.605344 0
M  V30 26 C -2.450437 -2.243905 -4.028137 0
M  V30 27 C -2.359717 1.229787 -0.683569 0
M  V30 28 O -3.392430 1.547431 0.013975 0
M  V30 29 O -1.057212 1.673231 -0.391497 0
M  V30 30 C 2.104390 -0.876139 6.095749 0
M  V30 31 C 0.924807 -1.571636 6.022107 0
M  V30 32 C 0.367281 -2.191685 7.115696 0
M  V30 33 C 0.997475 -2.130358 8.355894 0
M  V30 34 C 2.180434 -1.431500 8.424027 0
M  V30 35 C 2.728309 -0.815046 7.322474 0
M  V30 36 H 4.903837 -0.622535 8.813571 0
M  V30 37 H 5.770667 0.471245 7.657114 0
M  V30 38 H 4.474474 1.103672 8.715959 0
M  V30 39 H 4.749531 0.900638 5.439666 0
M  V30 40 H 3.349617 0.669905 3.201090 0
M  V30 41 H 0.935604 -0.865621 3.159639 0
M  V30 42 H 0.996471 -0.693311 -1.520920 0
M  V30 43 H -0.501560 -0.922328 -0.565103 0
M  V30 44 H 1.468400 2.407655 -0.949044 0
M  V30 45 H 0.368011 2.910839 -2.265605 0
M  V30 46 H 1.498595 1.686573 -3.625396 0
M  V30 47 H -0.715591 0.148367 -3.278299 0
M  V30 48 H -1.366041 1.828963 -2.945265 0
M  V30 49 H -4.128399 -0.587639 -1.476309 0
M  V30 50 H -5.386905 -0.796078 -4.063791 0
M  V30 51 H -6.001266 -3.183404 -5.918765 0
M  V30 52 H -4.711432 -2.785413 -7.190481 0
M  V30 53 H -5.827776 -1.532653 -6.509765 0
M  V30 54 H -2.903678 -4.022567 -6.782184 0
M  V30 55 H -0.608915 -4.761773 -6.173728 0
M  V30 56 H 0.496504 -3.836291 -4.124449 0
M  V30 57 H -0.737061 -2.159857 -2.695438 0
M  V30 58 H 0.384145 -1.660508 5.106355 0
M  V30 59 H -0.550512 -2.737516 7.078070 0
M  V30 60 H 0.574475 -2.610014 9.219578 0
M  V30 61 H 2.742479 -1.323903 9.323792 0
M  V30 END ATOM
M  V30 BEGIN BOND
M  V30 1 1 1 2
M  V30 2 1 2 3
M  V30 3 2 3 4
M  V30 4 1 4 5
M  V30 5 2 5 6
M  V30 6 1 6 7
M  V30 7 2 7 8
M  V30 8 1 7 9
M  V30 9 1 9 10
M  V30 10 1 10 11
M  V30 11 1 11 12
M  V30 12 1 12 13
M  V30 13 1 11 14
M  V30 14 1 14 15
M  V30 15 2 15 16
M  V30 16 1 16 17
M  V30 17 2 17 18
M  V30 18 1 18 19
M  V30 19 1 19 20
M  V30 20 1 19 21
M  V30 21 2 21 22
M  V30 22 1 22 23
M  V30 23 2 23 24
M  V30 24 1 24 25
M  V30 25 2 25 26
M  V30 26 1 15 27
M  V30 27 2 27 28
M  V30 28 1 27 29
M  V30 29 1 4 30
M  V30 30 2 30 31
M  V30 31 1 31 32
M  V30 32 2 32 33
M  V30 33 1 33 34
M  V30 34 2 34 35
M  V30 35 1 35 2
M  V30 36 1 29 11
M  V30 37 1 35 30
M  V30 38 1 26 17
M  V30 39 1 26 21
M  V30 40 1 1 36
M  V30 41 1 1 37
M  V30 42 1 1 38
M  V30 43 1 3 39
M  V30 44 1 5 40
M  V30 45 1 6 41
M  V30 46 1 10 42
M  V30 47 1 10 43
M  V30 48 1 12 44
M  V30 49 1 12 45
M  V30 50 1 13 46
M  V30 51 1 14 47
M  V30 52 1 14 48
M  V30 53 1 16 49
M  V30 54 1 18 50
M  V30 55 1 20 51
M  V30 56 1 20 52
M  V30 57 1 20 53
M  V30 58 1 22 54
M  V30 59 1 23 55
M  V30 60 1 24 56
M  V30 61 1 25 57
M  V30 62 1 31 58
M  V30 63 1 32 59
M  V30 64 1 33 60
M  V30 65 1 34 61
M  V30 END BOND
M  V30 END CTAB
M  END
>  <Dataset>  (864) 
ChEMBL_Kinases

>  <Ligand_Instance>  (864) 
nan

>  <PDB_ID>  (864) 
nan

>  <Standardized_SMILES>  (864) 
Cn1cc(/C=C/C(=O)OCC2(CO)C/C(=C\c3cn(C)c4ccccc34)C(=O)O2)c2ccccc21

>  <Name>  (864) 
nan

>  <Pocket>  (864) 
nan

>  <ATP_Site>  (864) 
nan

>  <Peripheral>  (864) 
nan

>  <Num_H_Atoms_ProtBoundConf>  (864) 
nan

>  <Num_Resolved_Atoms>  (864) 
nan

>  <Num_Not_Resolved_Atoms>  (864) 
nan

$$$$
CHEMBL3329684
     RDKit          3D

  0  0  0  0  0  0  0  0  0  0999 V3000
M  V30 BEGIN CTAB
M  V30 COUNTS 76 80 0 0 0
M  V30 BEGIN ATOM
M  V30 1 C 6.544701 6.021384 10.142879 0
M  V30 2 O 7.046200 6.701699 8.990100 0
M  V30 3 C 6.608113 6.314868 7.706608 0
M  V30 4 C 6.944731 6.794029 6.456101 0
M  V30 5 C 6.381150 6.251456 5.345638 0
M  V30 6 C 5.476376 5.237856 5.337449 0
M  V30 7 C 4.797486 4.597073 4.228497 0
M  V30 8 O 5.860242 4.231233 3.583724 0
M  V30 9 N 3.431172 4.337173 3.797801 0
M  V30 10 C 3.564121 3.423950 2.677369 0
M  V30 11 O 4.496697 2.870903 2.031048 0
M  V30 12 N 2.279895 3.005979 2.120542 0
M  V30 13 C 1.982974 2.070819 1.053865 0
M  V30 14 C 1.497562 0.944720 1.750825 0
M  V30 15 C 1.133006 -0.163375 0.992404 0
M  V30 16 C 1.279985 -0.049963 -0.354838 0
M  V30 17 C 1.746083 1.005067 -1.115848 0
M  V30 18 C 2.093319 2.082860 -0.297028 0
M  V30 19 N 1.773525 0.823157 -2.508569 0
M  V30 20 C 1.270426 -0.492269 -2.710983 0
M  V30 21 O 1.135704 -1.041459 -3.839013 0
M  V30 22 C 0.959181 -1.050538 -1.410848 0
M  V30 23 C 0.426139 -2.234406 -1.262120 0
M  V30 24 C 0.103699 -3.232650 -2.269986 0
M  V30 25 N 0.680244 -3.897062 -3.290698 0
M  V30 26 C -0.169944 -4.711868 -3.936527 0
M  V30 27 C 0.295938 -5.522886 -5.096498 0
M  V30 28 C -1.417743 -4.619949 -3.341570 0
M  V30 29 C -2.526444 -5.417731 -3.840571 0
M  V30 30 O -2.219139 -6.427731 -4.565478 0
M  V30 31 N -3.908802 -5.200376 -3.616292 0
M  V30 32 C -4.988748 -6.009076 -4.109169 0
M  V30 33 C -6.349643 -5.560615 -3.753561 0
M  V30 34 N -6.749555 -5.495962 -2.400365 0
M  V30 35 C -8.172216 -5.022099 -2.438817 0
M  V30 36 C -8.040538 -3.543382 -2.848927 0
M  V30 37 C -6.607412 -3.162747 -2.464909 0
M  V30 38 C -6.240358 -4.372540 -1.625125 0
M  V30 39 C -1.227177 -3.708853 -2.320878 0
M  V30 40 C -2.337267 -3.316304 -1.407888 0
M  V30 41 C 5.087065 4.704609 6.576734 0
M  V30 42 F 4.190356 3.691140 6.700193 0
M  V30 43 C 5.669108 5.263390 7.718845 0
M  V30 44 H 7.063726 6.473974 10.999028 0
M  V30 45 H 5.459391 6.137376 10.280504 0
M  V30 46 H 6.780263 4.932810 10.075574 0
M  V30 47 H 7.646319 7.586768 6.496728 0
M  V30 48 H 6.652349 6.640774 4.369742 0
M  V30 49 H 4.323305 4.012295 3.403439 0
M  V30 50 H 1.502741 3.497269 2.597999 0
M  V30 51 H 1.337855 0.739211 2.804766 0
M  V30 52 H 0.743676 -1.114576 1.397892 0
M  V30 53 H 2.477948 3.030306 -0.629332 0
M  V30 54 H 2.108393 1.561126 -3.140297 0
M  V30 55 H 0.191505 -2.519724 -0.225854 0
M  V30 56 H 1.695599 -3.668003 -3.407408 0
M  V30 57 H 0.099174 -6.610367 -4.977540 0
M  V30 58 H 1.386628 -5.417922 -5.258636 0
M  V30 59 H -0.212226 -5.161244 -6.021312 0
M  V30 60 H -3.999752 -4.339528 -3.062791 0
M  V30 61 H -4.807083 -7.065277 -3.789658 0
M  V30 62 H -4.856648 -6.079361 -5.238207 0
M  V30 63 H -6.589654 -4.605897 -4.315611 0
M  V30 64 H -7.059409 -6.304530 -4.254846 0
M  V30 65 H -8.601256 -5.078455 -1.438061 0
M  V30 66 H -8.722783 -5.575669 -3.203979 0
M  V30 67 H -8.735916 -2.895369 -2.272856 0
M  V30 68 H -8.193232 -3.434618 -3.915997 0
M  V30 69 H -5.972298 -3.035132 -3.341613 0
M  V30 70 H -6.616375 -2.229410 -1.887911 0
M  V30 71 H -6.930682 -4.312537 -0.728942 0
M  V30 72 H -5.256034 -4.413879 -1.253394 0
M  V30 73 H -1.908837 -2.842554 -0.473236 0
M  V30 74 H -3.010235 -2.581804 -1.894735 0
M  V30 75 H -2.874278 -4.198891 -1.040441 0
M  V30 76 H 5.310215 4.773483 8.650321 0
M  V30 END ATOM
M  V30 BEGIN BOND
M  V30 1 1 1 2
M  V30 2 1 2 3
M  V30 3 2 3 4
M  V30 4 1 4 5
M  V30 5 2 5 6
M  V30 6 1 6 7
M  V30 7 2 7 8
M  V30 8 1 7 9
M  V30 9 1 9 10
M  V30 10 2 10 11
M  V30 11 1 10 12
M  V30 12 1 12 13
M  V30 13 2 13 14
M  V30 14 1 14 15
M  V30 15 2 15 16
M  V30 16 1 16 17
M  V30 17 2 17 18
M  V30 18 1 17 19
M  V30 19 1 19 20
M  V30 20 2 20 21
M  V30 21 1 20 22
M  V30 22 2 22 23
M  V30 23 1 23 24
M  V30 24 1 24 25
M  V30 25 1 25 26
M  V30 26 1 26 27
M  V30 27 2 26 28
M  V30 28 1 28 29
M  V30 29 2 29 30
M  V30 30 1 29 31
M  V30 31 1 31 32
M  V30 32 1 32 33
M  V30 33 1 33 34
M  V30 34 1 34 35
M  V30 35 1 35 36
M  V30 36 1 36 37
M  V30 37 1 37 38
M  V30 38 1 28 39
M  V30 39 1 39 40
M  V30 40 1 6 41
M  V30 41 1 41 42
M  V30 42 2 41 43
M  V30 43 1 43 3
M  V30 44 1 18 13
M  V30 45 2 39 24
M  V30 46 1 22 16
M  V30 47 1 38 34
M  V30 48 1 1 44
M  V30 49 1 1 45
M  V30 50 1 1 46
M  V30 51 1 4 47
M  V30 52 1 5 48
M  V30 53 1 9 49
M  V30 54 1 12 50
M  V30 55 1 14 51
M  V30 56 1 15 52
M  V30 57 1 18 53
M  V30 58 1 19 54
M  V30 59 1 23 55
M  V30 60 1 25 56
M  V30 61 1 27 57
M  V30 62 1 27 58
M  V30 63 1 27 59
M  V30 64 1 31 60
M  V30 65 1 32 61
M  V30 66 1 32 62
M  V30 67 1 33 63
M  V30 68 1 33 64
M  V30 69 1 35 65
M  V30 70 1 35 66
M  V30 71 1 36 67
M  V30 72 1 36 68
M  V30 73 1 37 69
M  V30 74 1 37 70
M  V30 75 1 38 71
M  V30 76 1 38 72
M  V30 77 1 40 73
M  V30 78 1 40 74
M  V30 79 1 40 75
M  V30 80 1 43 76
M  V30 END BOND
M  V30 END CTAB
M  END
>  <Dataset>  (865) 
ChEMBL_Kinases

>  <Ligand_Instance>  (865) 
nan

>  <PDB_ID>  (865) 
nan

>  <Standardized_SMILES>  (865) 
COc1ccc(C(=O)NC(=O)Nc2ccc3c(c2)NC(=O)/C3=C\c2[nH]c(C)c(C(=O)NCCN3CCCC3)c2C)c(F)c1

>  <Name>  (865) 
nan

>  <Pocket>  (865) 
nan

>  <ATP_Site>  (865) 
nan

>  <Peripheral>  (865) 
nan

>  <Num_H_Atoms_ProtBoundConf>  (865) 
nan

>  <Num_Resolved_Atoms>  (865) 
nan

>  <Num_Not_Resolved_Atoms>  (865) 
nan

$$$$
CHEMBL3330132
     RDKit          3D

  0  0  0  0  0  0  0  0  0  0999 V3000
M  V30 BEGIN CTAB
M  V30 COUNTS 45 49 0 0 0
M  V30 BEGIN ATOM
M  V30 1 O -0.769535 -4.228860 -1.320619 0
M  V30 2 C 0.130859 -3.524270 -0.849763 0
M  V30 3 N 1.268847 -4.214742 -0.917161 0
M  V30 4 C 2.359129 -3.669398 -0.476382 0
M  V30 5 S 4.123850 -4.268548 -0.395759 0
M  V30 6 C 4.746677 -2.675720 0.387781 0
M  V30 7 C 3.601426 -1.914188 0.491794 0
M  V30 8 C 2.400180 -2.379272 0.072201 0
M  V30 9 C 1.227967 -1.665797 0.143301 0
M  V30 10 N 1.171397 -0.372667 0.703451 0
M  V30 11 C 1.958025 0.610487 1.346882 0
M  V30 12 C 1.215958 1.947295 1.555236 0
M  V30 13 C 2.248760 2.837026 2.242167 0
M  V30 14 C 2.383685 2.415834 3.695226 0
M  V30 15 N 1.869618 1.054644 3.767612 0
M  V30 16 C 2.400712 0.213579 2.741440 0
M  V30 17 C 0.079225 -2.254455 -0.327675 0
M  V30 18 C -1.232973 -1.608460 -0.311116 0
M  V30 19 N -1.673894 -0.417635 0.104474 0
M  V30 20 C -2.959825 -0.212852 -0.060385 0
M  V30 21 C -3.725154 0.896262 0.257390 0
M  V30 22 C -5.074088 0.848272 -0.026305 0
M  V30 23 C -5.598584 -0.286792 -0.606944 0
M  V30 24 C -4.771444 -1.375983 -0.904250 0
M  V30 25 C -3.418289 -1.370465 -0.637621 0
M  V30 26 N -2.356669 -2.166886 -0.765824 0
M  V30 27 H 1.446172 -5.172209 -1.283606 0
M  V30 28 H 5.774555 -2.823537 0.518652 0
M  V30 29 H 4.072870 -1.065368 0.928578 0
M  V30 30 H 0.263562 0.105929 0.677401 0
M  V30 31 H 2.865211 0.898526 0.775751 0
M  V30 32 H 1.047016 2.378143 0.542934 0
M  V30 33 H 0.294162 1.820000 2.137705 0
M  V30 34 H 1.996490 3.903110 2.123395 0
M  V30 35 H 3.224841 2.629570 1.757981 0
M  V30 36 H 1.740783 3.045631 4.319725 0
M  V30 37 H 3.418310 2.457880 4.060125 0
M  V30 38 H 0.856679 1.013820 3.922180 0
M  V30 39 H 2.103764 -0.821642 2.947823 0
M  V30 40 H 3.522411 0.259083 2.851288 0
M  V30 41 H -3.282026 1.773863 0.713664 0
M  V30 42 H -5.689363 1.698600 0.211758 0
M  V30 43 H -6.652438 -0.334403 -0.832849 0
M  V30 44 H -5.181559 -2.276229 -1.363641 0
M  V30 45 H -2.598466 -3.080179 -1.197871 0
M  V30 END ATOM
M  V30 BEGIN BOND
M  V30 1 2 1 2
M  V30 2 1 2 3
M  V30 3 1 3 4
M  V30 4 1 4 5
M  V30 5 1 5 6
M  V30 6 2 6 7
M  V30 7 1 7 8
M  V30 8 1 8 9
M  V30 9 1 9 10
M  V30 10 1 10 11
M  V30 11 1 11 12
M  V30 12 1 12 13
M  V30 13 1 13 14
M  V30 14 1 14 15
M  V30 15 1 15 16
M  V30 16 2 9 17
M  V30 17 1 17 18
M  V30 18 2 18 19
M  V30 19 1 19 20
M  V30 20 2 20 21
M  V30 21 1 21 22
M  V30 22 2 22 23
M  V30 23 1 23 24
M  V30 24 2 24 25
M  V30 25 1 25 26
M  V30 26 1 17 2
M  V30 27 1 26 18
M  V30 28 2 8 4
M  V30 29 1 16 11
M  V30 30 1 25 20
M  V30 31 1 3 27
M  V30 32 1 6 28
M  V30 33 1 7 29
M  V30 34 1 10 30
M  V30 35 1 11 31
M  V30 36 1 12 32
M  V30 37 1 12 33
M  V30 38 1 13 34
M  V30 39 1 13 35
M  V30 40 1 14 36
M  V30 41 1 14 37
M  V30 42 1 15 38
M  V30 43 1 16 39
M  V30 44 1 16 40
M  V30 45 1 21 41
M  V30 46 1 22 42
M  V30 47 1 23 43
M  V30 48 1 24 44
M  V30 49 1 26 45
M  V30 END BOND
M  V30 END CTAB
M  END
>  <Dataset>  (866) 
ChEMBL_Kinases

>  <Ligand_Instance>  (866) 
nan

>  <PDB_ID>  (866) 
nan

>  <Standardized_SMILES>  (866) 
O=c1[nH]c2sccc2c(NC2CCCNC2)c1-c1nc2ccccc2[nH]1

>  <Name>  (866) 
nan

>  <Pocket>  (866) 
nan

>  <ATP_Site>  (866) 
nan

>  <Peripheral>  (866) 
nan

>  <Num_H_Atoms_ProtBoundConf>  (866) 
nan

>  <Num_Resolved_Atoms>  (866) 
nan

>  <Num_Not_Resolved_Atoms>  (866) 
nan

$$$$
CHEMBL3330133
     RDKit          3D

  0  0  0  0  0  0  0  0  0  0999 V3000
M  V30 BEGIN CTAB
M  V30 COUNTS 45 49 0 0 0
M  V30 BEGIN ATOM
M  V30 1 O -0.607985 -4.757734 0.955724 0
M  V30 2 C 0.284727 -3.886038 0.848715 0
M  V30 3 N 1.455198 -4.514015 0.941107 0
M  V30 4 C 2.547139 -3.753376 0.850202 0
M  V30 5 S 4.372415 -4.236796 0.921148 0
M  V30 6 C 4.914237 -2.508586 0.695666 0
M  V30 7 C 3.761901 -1.777286 0.594954 0
M  V30 8 C 2.550911 -2.386626 0.670653 0
M  V30 9 C 1.327782 -1.771648 0.579838 0
M  V30 10 N 1.227048 -0.372213 0.409127 0
M  V30 11 C 2.000591 0.796673 0.307944 0 CFG=1
M  V30 12 C 1.186667 2.058595 -0.039285 0
M  V30 13 C 1.970527 3.251855 0.444641 0
M  V30 14 C 1.951444 3.355953 1.958095 0
M  V30 15 N 1.632227 1.999191 2.428813 0
M  V30 16 C 2.529345 1.106917 1.721007 0
M  V30 17 C 0.189893 -2.532662 0.670113 0
M  V30 18 C -1.163405 -1.989271 0.589023 0
M  V30 19 N -1.650547 -0.757343 0.425331 0
M  V30 20 C -2.959141 -0.655124 0.401418 0
M  V30 21 C -3.769726 0.466001 0.249440 0
M  V30 22 C -5.149756 0.240943 0.267358 0
M  V30 23 C -5.633610 -1.037824 0.429211 0
M  V30 24 C -4.759529 -2.108427 0.575158 0
M  V30 25 C -3.382521 -1.946061 0.565344 0
M  V30 26 N -2.286548 -2.691129 0.670875 0
M  V30 27 H 1.667288 -5.519702 1.075046 0
M  V30 28 H 5.989775 -2.506483 0.699474 0
M  V30 29 H 4.177633 -0.804092 0.466604 0
M  V30 30 H 0.290792 0.017883 0.318553 0
M  V30 31 H 2.820723 0.802161 -0.432427 0
M  V30 32 H 1.141839 2.157020 -1.157120 0
M  V30 33 H 0.158830 2.001259 0.312224 0
M  V30 34 H 1.576742 4.184234 0.029347 0
M  V30 35 H 3.025283 3.101680 0.144450 0
M  V30 36 H 2.964045 3.575252 2.360385 0
M  V30 37 H 1.239736 4.105857 2.320650 0
M  V30 38 H 0.648899 1.756735 2.267127 0
M  V30 39 H 2.547666 0.170301 2.315726 0
M  V30 40 H 3.530592 1.549987 1.636366 0
M  V30 41 H -3.329022 1.448348 0.125665 0
M  V30 42 H -5.820084 1.076534 0.153543 0
M  V30 43 H -6.694746 -1.266897 0.450250 0
M  V30 44 H -5.148428 -3.110233 0.701864 0
M  V30 45 H -2.498014 -3.706816 0.800797 0
M  V30 END ATOM
M  V30 BEGIN BOND
M  V30 1 2 1 2
M  V30 2 1 2 3
M  V30 3 1 3 4
M  V30 4 1 4 5
M  V30 5 1 5 6
M  V30 6 2 6 7
M  V30 7 1 7 8
M  V30 8 1 8 9
M  V30 9 1 9 10
M  V30 10 1 10 11
M  V30 11 1 11 12
M  V30 12 1 12 13
M  V30 13 1 13 14
M  V30 14 1 14 15
M  V30 15 1 15 16
M  V30 16 2 9 17
M  V30 17 1 17 18
M  V30 18 2 18 19
M  V30 19 1 19 20
M  V30 20 2 20 21
M  V30 21 1 21 22
M  V30 22 2 22 23
M  V30 23 1 23 24
M  V30 24 2 24 25
M  V30 25 1 25 26
M  V30 26 1 17 2
M  V30 27 1 26 18
M  V30 28 2 8 4
M  V30 29 1 16 11
M  V30 30 1 25 20
M  V30 31 1 3 27
M  V30 32 1 6 28
M  V30 33 1 7 29
M  V30 34 1 10 30
M  V30 35 1 11 31 CFG=3
M  V30 36 1 12 32
M  V30 37 1 12 33
M  V30 38 1 13 34
M  V30 39 1 13 35
M  V30 40 1 14 36
M  V30 41 1 14 37
M  V30 42 1 15 38
M  V30 43 1 16 39
M  V30 44 1 16 40
M  V30 45 1 21 41
M  V30 46 1 22 42
M  V30 47 1 23 43
M  V30 48 1 24 44
M  V30 49 1 26 45
M  V30 END BOND
M  V30 END CTAB
M  END
>  <Dataset>  (867) 
ChEMBL_Kinases

>  <Ligand_Instance>  (867) 
nan

>  <PDB_ID>  (867) 
nan

>  <Standardized_SMILES>  (867) 
O=c1[nH]c2sccc2c(N[C@H]2CCCNC2)c1-c1nc2ccccc2[nH]1

>  <Name>  (867) 
nan

>  <Pocket>  (867) 
nan

>  <ATP_Site>  (867) 
nan

>  <Peripheral>  (867) 
nan

>  <Num_H_Atoms_ProtBoundConf>  (867) 
nan

>  <Num_Resolved_Atoms>  (867) 
nan

>  <Num_Not_Resolved_Atoms>  (867) 
nan

$$$$
CHEMBL4170043
     RDKit          3D

  0  0  0  0  0  0  0  0  0  0999 V3000
M  V30 BEGIN CTAB
M  V30 COUNTS 63 67 0 0 0
M  V30 BEGIN ATOM
M  V30 1 C 4.426829 1.554124 4.708201 0
M  V30 2 C 4.766820 0.562323 3.617734 0
M  V30 3 C 3.529690 -0.248466 3.349922 0
M  V30 4 C 3.494707 -1.497350 3.880111 0
M  V30 5 C 2.409775 -2.317424 3.718774 0
M  V30 6 C 1.342313 -1.821947 2.993295 0
M  V30 7 C 1.439601 -0.543047 2.480636 0
M  V30 8 C 2.518897 0.306358 2.624180 0
M  V30 9 N 2.603093 1.605059 2.072162 0
M  V30 10 C 1.571394 2.218064 1.237673 0
M  V30 11 O 0.513096 1.657646 0.960505 0
M  V30 12 N 1.657422 3.543657 0.630343 0
M  V30 13 C 0.363364 3.483258 -0.083175 0
M  V30 14 C -0.813914 3.972809 0.454327 0
M  V30 15 C -1.971622 3.700595 -0.262513 0
M  V30 16 C -1.891541 2.997371 -1.411735 0
M  V30 17 C -2.958316 2.309827 -2.314019 0
M  V30 18 C -3.016885 0.920716 -1.637648 0
M  V30 19 N -3.654723 -0.165462 -2.089816 0
M  V30 20 C -4.349074 -1.342719 -2.581728 0
M  V30 21 N -5.398433 -1.478303 -3.361393 0
M  V30 22 C -5.800763 -2.722001 -3.750005 0
M  V30 23 N -5.156958 -3.835562 -3.354385 0
M  V30 24 C -4.068361 -3.688219 -2.542006 0
M  V30 25 O -3.298811 -4.584187 -2.025282 0
M  V30 26 C -2.364531 -4.248591 -1.307907 0
M  V30 27 C -1.304427 -4.860293 -0.550149 0
M  V30 28 C -0.188970 -4.263513 -0.025250 0
M  V30 29 C 0.856248 -4.734121 0.764803 0
M  V30 30 C 0.622840 -6.162063 1.026818 0
M  V30 31 C -0.446980 -6.821447 0.553161 0
M  V30 32 C -1.361967 -6.163674 -0.206668 0
M  V30 33 C -2.502656 -2.861188 -1.310087 0
M  V30 34 Cl -1.633163 -1.639137 -0.420338 0
M  V30 35 C -3.585878 -2.419883 -2.097571 0
M  V30 36 C -0.701487 2.501981 -1.978229 0
M  V30 37 C 0.485457 2.758204 -1.274104 0
M  V30 38 H 4.875838 2.532804 4.628971 0
M  V30 39 H 4.675428 1.149917 5.711438 0
M  V30 40 H 3.292485 1.690029 4.752054 0
M  V30 41 H 5.154306 1.047457 2.688374 0
M  V30 42 H 5.560610 -0.117162 4.034305 0
M  V30 43 H 4.356069 -1.895034 4.455857 0
M  V30 44 H 2.335365 -3.317567 4.110427 0
M  V30 45 H 0.487695 -2.459371 2.854388 0
M  V30 46 H 0.551591 -0.291694 1.940784 0
M  V30 47 H 3.457757 2.164137 2.251225 0
M  V30 48 H 2.496109 4.082771 0.841751 0
M  V30 49 H -0.879303 4.525586 1.349438 0
M  V30 50 H -2.972620 3.988540 -0.038765 0
M  V30 51 H -3.898415 2.835572 -2.085919 0
M  V30 52 H -2.691054 2.294291 -3.339295 0
M  V30 53 H -1.869842 0.690006 -1.610995 0
M  V30 54 H -3.212907 1.094851 -0.527289 0
M  V30 55 H -4.414959 0.497181 -2.431751 0
M  V30 56 H -6.648017 -2.791284 -4.389676 0
M  V30 57 H 0.044032 -3.200721 -0.220485 0
M  V30 58 H 1.694712 -4.142190 1.089293 0
M  V30 59 H 1.435657 -6.580559 1.654948 0
M  V30 60 H -0.440625 -7.871701 0.848151 0
M  V30 61 H -2.166512 -6.877370 -0.510342 0
M  V30 62 H -0.490385 1.936431 -2.899633 0
M  V30 63 H 1.479433 2.409116 -1.625597 0
M  V30 END ATOM
M  V30 BEGIN BOND
M  V30 1 1 1 2
M  V30 2 1 2 3
M  V30 3 2 3 4
M  V30 4 1 4 5
M  V30 5 2 5 6
M  V30 6 1 6 7
M  V30 7 2 7 8
M  V30 8 1 8 9
M  V30 9 1 9 10
M  V30 10 2 10 11
M  V30 11 1 10 12
M  V30 12 1 12 13
M  V30 13 2 13 14
M  V30 14 1 14 15
M  V30 15 2 15 16
M  V30 16 1 16 17
M  V30 17 1 17 18
M  V30 18 1 18 19
M  V30 19 1 19 20
M  V30 20 2 20 21
M  V30 21 1 21 22
M  V30 22 2 22 23
M  V30 23 1 23 24
M  V30 24 1 24 25
M  V30 25 1 25 26
M  V30 26 1 26 27
M  V30 27 2 27 28
M  V30 28 1 28 29
M  V30 29 2 29 30
M  V30 30 1 30 31
M  V30 31 2 31 32
M  V30 32 2 26 33
M  V30 33 1 33 34
M  V30 34 1 33 35
M  V30 35 1 16 36
M  V30 36 2 36 37
M  V30 37 1 8 3
M  V30 38 1 37 13
M  V30 39 1 35 20
M  V30 40 2 35 24
M  V30 41 1 32 27
M  V30 42 1 1 38
M  V30 43 1 1 39
M  V30 44 1 1 40
M  V30 45 1 2 41
M  V30 46 1 2 42
M  V30 47 1 4 43
M  V30 48 1 5 44
M  V30 49 1 6 45
M  V30 50 1 7 46
M  V30 51 1 9 47
M  V30 52 1 12 48
M  V30 53 1 14 49
M  V30 54 1 15 50
M  V30 55 1 17 51
M  V30 56 1 17 52
M  V30 57 1 18 53
M  V30 58 1 18 54
M  V30 59 1 19 55
M  V30 60 1 22 56
M  V30 61 1 28 57
M  V30 62 1 29 58
M  V30 63 1 30 59
M  V30 64 1 31 60
M  V30 65 1 32 61
M  V30 66 1 36 62
M  V30 67 1 37 63
M  V30 END BOND
M  V30 END CTAB
M  END
>  <Dataset>  (868) 
ChEMBL_Kinases

>  <Ligand_Instance>  (868) 
nan

>  <PDB_ID>  (868) 
nan

>  <Standardized_SMILES>  (868) 
CCc1ccccc1NC(=O)Nc1ccc(CCNc2ncnc3oc(-c4ccccc4)c(Cl)c23)cc1

>  <Name>  (868) 
nan

>  <Pocket>  (868) 
nan

>  <ATP_Site>  (868) 
nan

>  <Peripheral>  (868) 
nan

>  <Num_H_Atoms_ProtBoundConf>  (868) 
nan

>  <Num_Resolved_Atoms>  (868) 
nan

>  <Num_Not_Resolved_Atoms>  (868) 
nan

$$$$
CHEMBL3675366
     RDKit          3D

  0  0  0  0  0  0  0  0  0  0999 V3000
M  V30 BEGIN CTAB
M  V30 COUNTS 41 43 0 0 0
M  V30 BEGIN ATOM
M  V30 1 N 1.102134 -6.347548 2.300164 0
M  V30 2 C 1.334019 -5.170246 3.057238 0
M  V30 3 O 1.745729 -5.307992 4.236300 0
M  V30 4 C 1.115091 -3.833135 2.522714 0
M  V30 5 C 1.366073 -2.743444 3.325714 0
M  V30 6 C 1.153912 -1.484197 2.804828 0
M  V30 7 C 0.704728 -1.363252 1.517171 0
M  V30 8 C 0.433795 -2.381146 0.661764 0
M  V30 9 C -0.020098 -2.302095 -0.641696 0
M  V30 10 N -0.231158 -0.991066 -1.159863 0
M  V30 11 C -0.439122 0.288548 -1.671260 0
M  V30 12 C -0.113246 1.425606 -0.718102 0
M  V30 13 C 1.122193 2.038868 -0.608376 0
M  V30 14 C 1.259550 3.063103 0.309754 0
M  V30 15 C 2.618576 3.663000 0.359460 0
M  V30 16 F 3.232912 3.596859 -0.878147 0
M  V30 17 F 2.593715 4.946669 0.842133 0
M  V30 18 F 3.380733 2.874433 1.209810 0
M  V30 19 C 0.219811 3.483982 1.105355 0
M  V30 20 C -1.011710 2.888356 1.010807 0
M  V30 21 C -2.191793 3.268498 1.821428 0
M  V30 22 F -1.813933 3.924075 2.959573 0
M  V30 23 F -3.021093 4.064303 1.028460 0
M  V30 24 F -2.895099 2.100815 2.112499 0
M  V30 25 C -1.163328 1.863737 0.097664 0
M  V30 26 N -0.196083 -3.481225 -1.233310 0
M  V30 27 C 0.007617 -4.691566 -0.732407 0
M  V30 28 N 0.443027 -4.708755 0.521608 0
M  V30 29 C 0.664865 -3.611383 1.239634 0
M  V30 30 H 0.190860 -6.731364 1.928855 0
M  V30 31 H 0.345187 -6.901965 1.847223 0
M  V30 32 H 1.718154 -2.891116 4.331341 0
M  V30 33 H 1.347294 -0.629686 3.424994 0
M  V30 34 H 0.560040 -0.377265 1.172047 0
M  V30 35 H -0.546317 -1.354733 -2.117670 0
M  V30 36 H -1.524814 0.430788 -1.982520 0
M  V30 37 H 0.143956 0.507699 -2.614891 0
M  V30 38 H 1.894531 1.661859 -1.260375 0
M  V30 39 H 0.363901 4.281053 1.805588 0
M  V30 40 H -2.143299 1.372970 0.006489 0
M  V30 41 H -0.198476 -5.538096 -1.386917 0
M  V30 END ATOM
M  V30 BEGIN BOND
M  V30 1 1 1 2
M  V30 2 2 2 3
M  V30 3 1 2 4
M  V30 4 2 4 5
M  V30 5 1 5 6
M  V30 6 2 6 7
M  V30 7 1 7 8
M  V30 8 2 8 9
M  V30 9 1 9 10
M  V30 10 1 10 11
M  V30 11 1 11 12
M  V30 12 2 12 13
M  V30 13 1 13 14
M  V30 14 1 14 15
M  V30 15 1 15 16
M  V30 16 1 15 17
M  V30 17 1 15 18
M  V30 18 2 14 19
M  V30 19 1 19 20
M  V30 20 1 20 21
M  V30 21 1 21 22
M  V30 22 1 21 23
M  V30 23 1 21 24
M  V30 24 2 20 25
M  V30 25 1 9 26
M  V30 26 2 26 27
M  V30 27 1 27 28
M  V30 28 2 28 29
M  V30 29 1 29 4
M  V30 30 1 29 8
M  V30 31 1 25 12
M  V30 32 1 1 30
M  V30 33 1 1 31
M  V30 34 1 5 32
M  V30 35 1 6 33
M  V30 36 1 7 34
M  V30 37 1 10 35
M  V30 38 1 11 36
M  V30 39 1 11 37
M  V30 40 1 13 38
M  V30 41 1 19 39
M  V30 42 1 25 40
M  V30 43 1 27 41
M  V30 END BOND
M  V30 END CTAB
M  END
>  <Dataset>  (869) 
ChEMBL_Kinases

>  <Ligand_Instance>  (869) 
nan

>  <PDB_ID>  (869) 
nan

>  <Standardized_SMILES>  (869) 
NC(=O)c1cccc2c(NCc3cc(C(F)(F)F)cc(C(F)(F)F)c3)ncnc12

>  <Name>  (869) 
nan

>  <Pocket>  (869) 
nan

>  <ATP_Site>  (869) 
nan

>  <Peripheral>  (869) 
nan

>  <Num_H_Atoms_ProtBoundConf>  (869) 
nan

>  <Num_Resolved_Atoms>  (869) 
nan

>  <Num_Not_Resolved_Atoms>  (869) 
nan

$$$$
CHEMBL3675364
     RDKit          3D

  0  0  0  0  0  0  0  0  0  0999 V3000
M  V30 BEGIN CTAB
M  V30 COUNTS 52 54 0 0 0
M  V30 BEGIN ATOM
M  V30 1 C 2.611975 -1.392486 4.345120 0
M  V30 2 C 3.866590 -0.568220 4.334305 0
M  V30 3 C 4.342895 -0.339651 5.747050 0
M  V30 4 C 4.953892 -1.339075 3.604398 0
M  V30 5 O 3.662559 0.693781 3.684644 0
M  V30 6 C 3.261513 0.748312 2.357701 0
M  V30 7 O 3.057312 -0.302211 1.659866 0
M  V30 8 N 3.040325 1.978012 1.650566 0
M  V30 9 C 2.630998 1.726592 0.289970 0
M  V30 10 C 3.481647 1.593832 -0.789892 0
M  V30 11 C 2.946509 1.352959 -2.044969 0
M  V30 12 C 1.569878 1.254855 -2.163619 0
M  V30 13 C 0.723739 1.388245 -1.081546 0
M  V30 14 C -0.742703 1.271542 -1.280766 0
M  V30 15 N -1.160475 -0.113053 -1.122296 0
M  V30 16 C -2.555886 -0.392964 -1.285048 0
M  V30 17 N -3.431969 0.573974 -1.569241 0
M  V30 18 C -4.745166 0.334746 -1.726259 0
M  V30 19 N -5.295863 -0.887286 -1.613434 0
M  V30 20 C -4.457065 -1.899854 -1.327515 0
M  V30 21 C -4.925864 -3.190324 -1.191619 0
M  V30 22 C -6.345725 -3.449995 -1.361214 0
M  V30 23 N -7.282450 -2.417018 -1.664985 0
M  V30 24 O -6.871241 -4.595690 -1.256748 0
M  V30 25 C -4.113185 -4.266470 -0.899451 0
M  V30 26 C -2.753365 -4.014517 -0.737535 0
M  V30 27 C -2.301958 -2.718751 -0.876856 0
M  V30 28 C -3.112736 -1.642343 -1.168782 0
M  V30 29 C 1.240113 1.627061 0.167652 0
M  V30 30 H 2.539453 -1.933756 5.320305 0
M  V30 31 H 1.701414 -0.773948 4.169432 0
M  V30 32 H 2.683755 -2.176216 3.561173 0
M  V30 33 H 4.873953 0.609909 5.902453 0
M  V30 34 H 5.029794 -1.160115 6.102980 0
M  V30 35 H 3.488357 -0.369113 6.457056 0
M  V30 36 H 5.754184 -0.642792 3.248939 0
M  V30 37 H 4.493598 -1.826862 2.731464 0
M  V30 38 H 5.351244 -2.091391 4.310052 0
M  V30 39 H 3.214333 2.839703 2.244450 0
M  V30 40 H 4.529419 1.691575 -0.561969 0
M  V30 41 H 3.643352 1.254548 -2.867820 0
M  V30 42 H 1.189630 1.063335 -3.176812 0
M  V30 43 H -1.042195 1.617289 -2.304546 0
M  V30 44 H -1.217554 1.941755 -0.506847 0
M  V30 45 H -0.431185 -0.800853 -0.904386 0
M  V30 46 H -5.435852 1.136833 -1.956653 0
M  V30 47 H -7.657847 -2.378926 -2.643841 0
M  V30 48 H -7.392952 -1.886056 -0.767970 0
M  V30 49 H -4.462707 -5.286404 -0.788920 0
M  V30 50 H -2.089936 -4.847654 -0.506262 0
M  V30 51 H -1.238314 -2.614802 -0.735372 0
M  V30 52 H 0.546104 1.723398 0.977287 0
M  V30 END ATOM
M  V30 BEGIN BOND
M  V30 1 1 1 2
M  V30 2 1 2 3
M  V30 3 1 2 4
M  V30 4 1 2 5
M  V30 5 1 5 6
M  V30 6 2 6 7
M  V30 7 1 6 8
M  V30 8 1 8 9
M  V30 9 2 9 10
M  V30 10 1 10 11
M  V30 11 2 11 12
M  V30 12 1 12 13
M  V30 13 1 13 14
M  V30 14 1 14 15
M  V30 15 1 15 16
M  V30 16 2 16 17
M  V30 17 1 17 18
M  V30 18 2 18 19
M  V30 19 1 19 20
M  V30 20 2 20 21
M  V30 21 1 21 22
M  V30 22 1 22 23
M  V30 23 2 22 24
M  V30 24 1 21 25
M  V30 25 2 25 26
M  V30 26 1 26 27
M  V30 27 2 27 28
M  V30 28 2 13 29
M  V30 29 1 29 9
M  V30 30 1 28 16
M  V30 31 1 28 20
M  V30 32 1 1 30
M  V30 33 1 1 31
M  V30 34 1 1 32
M  V30 35 1 3 33
M  V30 36 1 3 34
M  V30 37 1 3 35
M  V30 38 1 4 36
M  V30 39 1 4 37
M  V30 40 1 4 38
M  V30 41 1 8 39
M  V30 42 1 10 40
M  V30 43 1 11 41
M  V30 44 1 12 42
M  V30 45 1 14 43
M  V30 46 1 14 44
M  V30 47 1 15 45
M  V30 48 1 18 46
M  V30 49 1 23 47
M  V30 50 1 23 48
M  V30 51 1 25 49
M  V30 52 1 26 50
M  V30 53 1 27 51
M  V30 54 1 29 52
M  V30 END BOND
M  V30 END CTAB
M  END
>  <Dataset>  (870) 
ChEMBL_Kinases

>  <Ligand_Instance>  (870) 
nan

>  <PDB_ID>  (870) 
nan

>  <Standardized_SMILES>  (870) 
CC(C)(C)OC(=O)Nc1cccc(CNc2ncnc3c(C(N)=O)cccc23)c1

>  <Name>  (870) 
nan

>  <Pocket>  (870) 
nan

>  <ATP_Site>  (870) 
nan

>  <Peripheral>  (870) 
nan

>  <Num_H_Atoms_ProtBoundConf>  (870) 
nan

>  <Num_Resolved_Atoms>  (870) 
nan

>  <Num_Not_Resolved_Atoms>  (870) 
nan

$$$$
CHEMBL4170651
     RDKit          3D

  0  0  0  0  0  0  0  0  0  0999 V3000
M  V30 BEGIN CTAB
M  V30 COUNTS 53 56 0 0 0
M  V30 BEGIN ATOM
M  V30 1 C -1.693962 -4.111787 1.317392 0
M  V30 2 N -0.330048 -4.010975 0.813442 0
M  V30 3 C 0.709056 -3.405755 1.427456 0
M  V30 4 C 1.795674 -3.549183 0.610703 0
M  V30 5 C 3.170160 -3.050769 0.829756 0
M  V30 6 C 3.122986 -1.791441 1.291962 0
M  V30 7 C 2.071553 -0.762122 1.640369 0
M  V30 8 C 2.697298 0.535521 1.285467 0
M  V30 9 C 2.726467 0.780405 -0.214198 0
M  V30 10 O 3.372247 -0.332489 -0.795943 0
M  V30 11 C 2.078845 1.660526 2.056532 0
M  V30 12 O 0.772644 1.954991 1.864382 0
M  V30 13 C -0.055802 2.300743 0.873357 0
M  V30 14 O 0.928944 1.974210 1.544750 0
M  V30 15 C -1.431971 2.519729 1.361914 0
M  V30 16 C -2.370113 2.859179 0.471996 0
M  V30 17 C -3.744149 3.094779 0.850456 0
M  V30 18 C -4.732421 3.424576 -0.069639 0
M  V30 19 C -6.004666 3.632424 0.381836 0
M  V30 20 C -6.435913 3.549845 1.697110 0
M  V30 21 C -5.372456 3.214281 2.541487 0
M  V30 22 N -4.103609 2.998293 2.156486 0
M  V30 23 O 4.072149 0.362619 1.725932 0
M  V30 24 C 4.342013 -1.015259 1.616573 0
M  V30 25 O 5.538453 -1.405701 1.801047 0
M  V30 26 C 1.462288 -4.254121 -0.547463 0
M  V30 27 C 2.156454 -4.660595 -1.671209 0
M  V30 28 C 1.487212 -5.360266 -2.659992 0
M  V30 29 C 0.139787 -5.623182 -2.474811 0
M  V30 30 C -0.535877 -5.217136 -1.360460 0
M  V30 31 C 0.101000 -4.516831 -0.354573 0
M  V30 32 H -1.940146 -5.198216 1.403669 0
M  V30 33 H -2.422752 -3.693358 0.583379 0
M  V30 34 H -1.778515 -3.619013 2.303223 0
M  V30 35 H 0.690867 -2.892208 2.402281 0
M  V30 36 H 4.120720 -3.506671 0.690043 0
M  V30 37 H 1.918420 -0.820728 2.730384 0
M  V30 38 H 1.143413 -0.978248 1.059544 0
M  V30 39 H 3.259240 1.725906 -0.379537 0
M  V30 40 H 1.687243 0.815915 -0.583938 0
M  V30 41 H 2.805711 -0.648562 -1.519393 0
M  V30 42 H 2.226968 1.424192 3.163665 0
M  V30 43 H 2.725727 2.596352 1.923654 0
M  V30 44 H -1.835044 2.447536 2.378715 0
M  V30 45 H -2.121913 2.966666 -0.563685 0
M  V30 46 H -4.455817 3.501819 -1.107100 0
M  V30 47 H -6.754162 3.886567 -0.368144 0
M  V30 48 H -7.439229 3.714457 2.043289 0
M  V30 49 H -5.570590 3.116757 3.618983 0
M  V30 50 H 3.206014 -4.403464 -1.710746 0
M  V30 51 H 2.094854 -5.636467 -3.493222 0
M  V30 52 H -0.338700 -6.176591 -3.281071 0
M  V30 53 H -1.570488 -5.431131 -1.238508 0
M  V30 END ATOM
M  V30 BEGIN BOND
M  V30 1 1 1 2
M  V30 2 1 2 3
M  V30 3 2 3 4
M  V30 4 1 4 5
M  V30 5 2 5 6
M  V30 6 1 6 7
M  V30 7 1 7 8
M  V30 8 1 8 9
M  V30 9 1 9 10
M  V30 10 1 8 11
M  V30 11 1 11 12
M  V30 12 1 12 13
M  V30 13 2 13 14
M  V30 14 1 13 15
M  V30 15 2 15 16
M  V30 16 1 16 17
M  V30 17 2 17 18
M  V30 18 1 18 19
M  V30 19 2 19 20
M  V30 20 1 20 21
M  V30 21 2 21 22
M  V30 22 1 8 23
M  V30 23 1 23 24
M  V30 24 2 24 25
M  V30 25 1 4 26
M  V30 26 2 26 27
M  V30 27 1 27 28
M  V30 28 2 28 29
M  V30 29 1 29 30
M  V30 30 2 30 31
M  V30 31 1 31 2
M  V30 32 1 24 6
M  V30 33 1 31 26
M  V30 34 1 22 17
M  V30 35 1 1 32
M  V30 36 1 1 33
M  V30 37 1 1 34
M  V30 38 1 3 35
M  V30 39 1 5 36
M  V30 40 1 7 37
M  V30 41 1 7 38
M  V30 42 1 9 39
M  V30 43 1 9 40
M  V30 44 1 10 41
M  V30 45 1 11 42
M  V30 46 1 11 43
M  V30 47 1 15 44
M  V30 48 1 16 45
M  V30 49 1 18 46
M  V30 50 1 19 47
M  V30 51 1 20 48
M  V30 52 1 21 49
M  V30 53 1 27 50
M  V30 54 1 28 51
M  V30 55 1 29 52
M  V30 56 1 30 53
M  V30 END BOND
M  V30 END CTAB
M  END
>  <Dataset>  (871) 
ChEMBL_Kinases

>  <Ligand_Instance>  (871) 
nan

>  <PDB_ID>  (871) 
nan

>  <Standardized_SMILES>  (871) 
Cn1cc(/C=C2\CC(CO)(COC(=O)/C=C/c3ccccn3)OC2=O)c2ccccc21

>  <Name>  (871) 
nan

>  <Pocket>  (871) 
nan

>  <ATP_Site>  (871) 
nan

>  <Peripheral>  (871) 
nan

>  <Num_H_Atoms_ProtBoundConf>  (871) 
nan

>  <Num_Resolved_Atoms>  (871) 
nan

>  <Num_Not_Resolved_Atoms>  (871) 
nan

$$$$
CHEMBL4174257
     RDKit          3D

  0  0  0  0  0  0  0  0  0  0999 V3000
M  V30 BEGIN CTAB
M  V30 COUNTS 66 70 0 0 0
M  V30 BEGIN ATOM
M  V30 1 C 5.530608 0.942401 6.797256 0
M  V30 2 C 5.569142 -0.106278 5.701483 0
M  V30 3 C 4.174148 -0.504053 5.361339 0
M  V30 4 C 6.417845 0.304479 4.572062 0
M  V30 5 C 7.755175 -0.088806 4.503377 0
M  V30 6 C 8.669020 0.217875 3.519885 0
M  V30 7 C 8.213774 1.001365 2.486253 0
M  V30 8 C 6.899092 1.435861 2.475686 0
M  V30 9 C 6.050865 1.080986 3.502346 0
M  V30 10 N 4.738599 1.595972 3.379872 0
M  V30 11 C 3.491340 1.263812 2.783639 0
M  V30 12 O 3.221944 0.228343 2.091643 0
M  V30 13 N 2.378199 2.115506 2.922341 0
M  V30 14 C 1.249206 1.542890 2.223196 0
M  V30 15 C 1.210883 1.979257 0.903552 0
M  V30 16 C 0.213197 1.542901 0.070093 0
M  V30 17 C -0.749063 0.660990 0.576308 0
M  V30 18 C -1.821104 0.197886 -0.349398 0
M  V30 19 C -1.399571 -1.057359 -1.065223 0
M  V30 20 N -2.464366 -1.469875 -1.958396 0
M  V30 21 C -3.726822 -1.861170 -1.448348 0
M  V30 22 N -3.966789 -1.872693 -0.127193 0
M  V30 23 C -5.130357 -2.236279 0.433666 0
M  V30 24 N -6.144010 -2.621630 -0.382057 0
M  V30 25 C -6.008947 -2.646104 -1.715588 0
M  V30 26 O -6.777193 -2.957953 -2.714276 0
M  V30 27 C -6.185837 -2.818797 -3.870477 0
M  V30 28 C -6.903972 -3.124897 -5.090905 0
M  V30 29 C -8.210635 -3.557920 -5.037754 0
M  V30 30 C -8.944458 -3.863543 -6.171974 0
M  V30 31 C -8.395890 -3.747815 -7.428606 0
M  V30 32 C -7.089932 -3.317070 -7.518934 0
M  V30 33 C -6.398364 -3.024448 -6.362490 0
M  V30 34 C -4.915946 -2.375497 -3.595065 0
M  V30 35 Cl -3.731774 -2.038147 -4.804639 0
M  V30 36 C -4.790532 -2.261408 -2.227128 0
M  V30 37 C -0.697779 0.243503 1.870205 0
M  V30 38 C 0.303176 0.674781 2.724637 0
M  V30 39 H 4.611987 1.558705 6.720678 0
M  V30 40 H 6.449491 1.571163 6.816019 0
M  V30 41 H 5.488480 0.413906 7.776703 0
M  V30 42 H 6.071554 -1.031381 6.134911 0
M  V30 43 H 4.075755 -1.025841 4.405471 0
M  V30 44 H 3.848297 -1.240463 6.160157 0
M  V30 45 H 3.470039 0.338501 5.488772 0
M  V30 46 H 8.125309 -0.717629 5.329689 0
M  V30 47 H 9.680087 -0.156296 3.592744 0
M  V30 48 H 8.908076 1.256736 1.701991 0
M  V30 49 H 6.592405 2.048625 1.640987 0
M  V30 50 H 4.809770 2.487527 3.923145 0
M  V30 51 H 2.398009 3.009149 3.450879 0
M  V30 52 H 1.912912 2.657843 0.434656 0
M  V30 53 H 0.141650 1.860508 -0.980604 0
M  V30 54 H -1.986259 1.015572 -1.085928 0
M  V30 55 H -2.766239 0.111262 0.210218 0
M  V30 56 H -0.458526 -0.845698 -1.591212 0
M  V30 57 H -1.271255 -1.874828 -0.316779 0
M  V30 58 H -2.196502 -1.441919 -2.959959 0
M  V30 59 H -5.255426 -2.221005 1.524216 0
M  V30 60 H -8.747359 -3.687587 -4.115818 0
M  V30 61 H -9.969453 -4.202593 -6.114596 0
M  V30 62 H -8.990420 -3.992428 -8.296909 0
M  V30 63 H -6.640549 -3.219221 -8.495326 0
M  V30 64 H -5.394408 -2.698406 -6.523141 0
M  V30 65 H -1.426445 -0.439203 2.295934 0
M  V30 66 H 0.442935 0.413633 3.759948 0
M  V30 END ATOM
M  V30 BEGIN BOND
M  V30 1 1 1 2
M  V30 2 1 2 3
M  V30 3 1 2 4
M  V30 4 2 4 5
M  V30 5 1 5 6
M  V30 6 2 6 7
M  V30 7 1 7 8
M  V30 8 2 8 9
M  V30 9 1 9 10
M  V30 10 1 10 11
M  V30 11 2 11 12
M  V30 12 1 11 13
M  V30 13 1 13 14
M  V30 14 2 14 15
M  V30 15 1 15 16
M  V30 16 2 16 17
M  V30 17 1 17 18
M  V30 18 1 18 19
M  V30 19 1 19 20
M  V30 20 1 20 21
M  V30 21 2 21 22
M  V30 22 1 22 23
M  V30 23 2 23 24
M  V30 24 1 24 25
M  V30 25 1 25 26
M  V30 26 1 26 27
M  V30 27 1 27 28
M  V30 28 2 28 29
M  V30 29 1 29 30
M  V30 30 2 30 31
M  V30 31 1 31 32
M  V30 32 2 32 33
M  V30 33 2 27 34
M  V30 34 1 34 35
M  V30 35 1 34 36
M  V30 36 1 17 37
M  V30 37 2 37 38
M  V30 38 1 9 4
M  V30 39 1 38 14
M  V30 40 1 36 21
M  V30 41 2 36 25
M  V30 42 1 33 28
M  V30 43 1 1 39
M  V30 44 1 1 40
M  V30 45 1 1 41
M  V30 46 1 2 42
M  V30 47 1 3 43
M  V30 48 1 3 44
M  V30 49 1 3 45
M  V30 50 1 5 46
M  V30 51 1 6 47
M  V30 52 1 7 48
M  V30 53 1 8 49
M  V30 54 1 10 50
M  V30 55 1 13 51
M  V30 56 1 15 52
M  V30 57 1 16 53
M  V30 58 1 18 54
M  V30 59 1 18 55
M  V30 60 1 19 56
M  V30 61 1 19 57
M  V30 62 1 20 58
M  V30 63 1 23 59
M  V30 64 1 29 60
M  V30 65 1 30 61
M  V30 66 1 31 62
M  V30 67 1 32 63
M  V30 68 1 33 64
M  V30 69 1 37 65
M  V30 70 1 38 66
M  V30 END BOND
M  V30 END CTAB
M  END
>  <Dataset>  (872) 
ChEMBL_Kinases

>  <Ligand_Instance>  (872) 
nan

>  <PDB_ID>  (872) 
nan

>  <Standardized_SMILES>  (872) 
CC(C)c1ccccc1NC(=O)Nc1ccc(CCNc2ncnc3oc(-c4ccccc4)c(Cl)c23)cc1

>  <Name>  (872) 
nan

>  <Pocket>  (872) 
nan

>  <ATP_Site>  (872) 
nan

>  <Peripheral>  (872) 
nan

>  <Num_H_Atoms_ProtBoundConf>  (872) 
nan

>  <Num_Resolved_Atoms>  (872) 
nan

>  <Num_Not_Resolved_Atoms>  (872) 
nan

$$$$
CHEMBL4174228
     RDKit          3D

  0  0  0  0  0  0  0  0  0  0999 V3000
M  V30 BEGIN CTAB
M  V30 COUNTS 51 54 0 0 0
M  V30 BEGIN ATOM
M  V30 1 C -3.356589 -1.637135 5.939663 0
M  V30 2 C -1.891574 -1.817894 5.712593 0
M  V30 3 C -1.191634 -1.686967 4.520307 0
M  V30 4 C 0.114689 -1.959140 4.870708 0
M  V30 5 N 1.229146 -1.954112 3.984734 0
M  V30 6 C 1.038384 -1.649355 2.606079 0
M  V30 7 C 1.113205 -0.368527 2.105593 0
M  V30 8 C 0.915284 -0.165728 0.758112 0
M  V30 9 N 0.977141 1.142975 0.163986 0
M  V30 10 C 0.805996 1.371979 -1.246103 0
M  V30 11 C 1.628712 2.560466 -1.694521 0
M  V30 12 N 1.171005 3.698072 -0.971496 0
M  V30 13 C -0.036177 4.263537 -1.533058 0
M  V30 14 C 1.156286 3.595726 0.439962 0
M  V30 15 C 1.218876 2.243520 1.037404 0
M  V30 16 N 0.658998 -1.235020 0.004182 0
M  V30 17 C 0.573029 -2.502551 0.427615 0
M  V30 18 N 0.300059 -3.646557 -0.363608 0
M  V30 19 C 0.056992 -3.704375 -1.736659 0
M  V30 20 C 0.019882 -2.640296 -2.607011 0
M  V30 21 C -0.220516 -2.712832 -3.962628 0
M  V30 22 C -0.446962 -3.953036 -4.518359 0
M  V30 23 F -0.692830 -4.137916 -5.837048 0
M  V30 24 C -0.423382 -5.060919 -3.699640 0
M  V30 25 F -0.644282 -6.288457 -4.231198 0
M  V30 26 C -0.177405 -4.917589 -2.355422 0
M  V30 27 N 0.774511 -2.633840 1.743109 0
M  V30 28 N 0.161288 -2.230494 6.188110 0
M  V30 29 N -1.054717 -2.147785 6.712718 0
M  V30 30 H -3.485685 -0.883897 6.748269 0
M  V30 31 H -3.831034 -1.225054 5.033511 0
M  V30 32 H -3.833226 -2.608230 6.156115 0
M  V30 33 H -1.614251 -1.427376 3.551382 0
M  V30 34 H 2.183927 -2.172301 4.340361 0
M  V30 35 H 1.324598 0.461991 2.764822 0
M  V30 36 H -0.245001 1.578159 -1.535329 0
M  V30 37 H 1.193980 0.460456 -1.769118 0
M  V30 38 H 2.713111 2.386189 -1.586404 0
M  V30 39 H 1.401842 2.720511 -2.769125 0
M  V30 40 H -0.081296 5.337151 -1.210085 0
M  V30 41 H -0.958941 3.784690 -1.153738 0
M  V30 42 H 0.019970 4.288543 -2.639899 0
M  V30 43 H 1.943530 4.280817 0.847215 0
M  V30 44 H 0.189775 4.065670 0.787999 0
M  V30 45 H 2.233390 2.120951 1.519481 0
M  V30 46 H 0.510548 2.122031 1.909886 0
M  V30 47 H 0.278588 -4.572925 0.156758 0
M  V30 48 H 0.185777 -1.656937 -2.241338 0
M  V30 49 H -0.240082 -1.851075 -4.607205 0
M  V30 50 H -0.173322 -5.840026 -1.764778 0
M  V30 51 H -1.245910 -2.321793 7.727757 0
M  V30 END ATOM
M  V30 BEGIN BOND
M  V30 1 1 1 2
M  V30 2 2 2 3
M  V30 3 1 3 4
M  V30 4 1 4 5
M  V30 5 1 5 6
M  V30 6 2 6 7
M  V30 7 1 7 8
M  V30 8 1 8 9
M  V30 9 1 9 10
M  V30 10 1 10 11
M  V30 11 1 11 12
M  V30 12 1 12 13
M  V30 13 1 12 14
M  V30 14 1 14 15
M  V30 15 2 8 16
M  V30 16 1 16 17
M  V30 17 1 17 18
M  V30 18 1 18 19
M  V30 19 2 19 20
M  V30 20 1 20 21
M  V30 21 2 21 22
M  V30 22 1 22 23
M  V30 23 1 22 24
M  V30 24 1 24 25
M  V30 25 2 24 26
M  V30 26 2 17 27
M  V30 27 2 4 28
M  V30 28 1 28 29
M  V30 29 1 29 2
M  V30 30 1 27 6
M  V30 31 1 15 9
M  V30 32 1 26 19
M  V30 33 1 1 30
M  V30 34 1 1 31
M  V30 35 1 1 32
M  V30 36 1 3 33
M  V30 37 1 5 34
M  V30 38 1 7 35
M  V30 39 1 10 36
M  V30 40 1 10 37
M  V30 41 1 11 38
M  V30 42 1 11 39
M  V30 43 1 13 40
M  V30 44 1 13 41
M  V30 45 1 13 42
M  V30 46 1 14 43
M  V30 47 1 14 44
M  V30 48 1 15 45
M  V30 49 1 15 46
M  V30 50 1 18 47
M  V30 51 1 20 48
M  V30 52 1 21 49
M  V30 53 1 26 50
M  V30 54 1 29 51
M  V30 END BOND
M  V30 END CTAB
M  END
>  <Dataset>  (873) 
ChEMBL_Kinases

>  <Ligand_Instance>  (873) 
nan

>  <PDB_ID>  (873) 
nan

>  <Standardized_SMILES>  (873) 
Cc1cc(Nc2cc(N3CCN(C)CC3)nc(Nc3ccc(F)c(F)c3)n2)n[nH]1

>  <Name>  (873) 
nan

>  <Pocket>  (873) 
nan

>  <ATP_Site>  (873) 
nan

>  <Peripheral>  (873) 
nan

>  <Num_H_Atoms_ProtBoundConf>  (873) 
nan

>  <Num_Resolved_Atoms>  (873) 
nan

>  <Num_Not_Resolved_Atoms>  (873) 
nan

$$$$
CHEMBL4174177
     RDKit          3D

  0  0  0  0  0  0  0  0  0  0999 V3000
M  V30 BEGIN CTAB
M  V30 COUNTS 39 42 0 0 0
M  V30 BEGIN ATOM
M  V30 1 O 1.305474 -0.141241 2.880115 0
M  V30 2 C 0.610590 -1.126290 3.178859 0
M  V30 3 N -0.490221 -1.349670 2.292769 0
M  V30 4 C -0.625386 -0.417900 1.209228 0
M  V30 5 C -0.055378 -0.536189 -0.038569 0
M  V30 6 C -0.261901 0.431669 -0.999537 0
M  V30 7 C 0.371376 0.246375 -2.299884 0
M  V30 8 C 1.596873 -0.413706 -2.356202 0
M  V30 9 C 2.256375 -0.624611 -3.560279 0
M  V30 10 C 1.698877 -0.176219 -4.739210 0
M  V30 11 C 0.491390 0.477552 -4.711073 0
M  V30 12 O -0.066228 0.926541 -5.894254 0
M  V30 13 C -0.141777 0.674083 -3.506614 0
M  V30 14 C -1.041947 1.555846 -0.762357 0
M  V30 15 C -1.583159 1.613814 0.505356 0
M  V30 16 N -2.383588 2.580708 1.034168 0
M  V30 17 N -2.728584 2.327074 2.286145 0
M  V30 18 C -2.135955 1.151430 2.597123 0
M  V30 19 C -1.422077 0.691970 1.510022 0
M  V30 20 C 0.859152 -1.998857 4.317329 0
M  V30 21 C 1.968878 -1.673945 5.104181 0
M  V30 22 C 2.271450 -2.465871 6.214133 0
M  V30 23 C 1.404641 -3.519765 6.413080 0
M  V30 24 C 0.306657 -3.854438 5.647969 0
M  V30 25 N 0.050763 -3.057624 4.580062 0
M  V30 26 H -1.143923 -2.154981 2.450114 0
M  V30 27 H 0.538123 -1.425954 -0.166770 0
M  V30 28 H 2.111302 -0.800023 -1.491220 0
M  V30 29 H 3.207549 -1.131185 -3.650035 0
M  V30 30 H 2.197094 -0.328401 -5.706555 0
M  V30 31 H -0.376987 0.286092 -6.604598 0
M  V30 32 H -1.093882 1.186246 -3.461526 0
M  V30 33 H -1.210438 2.314673 -1.499224 0
M  V30 34 H -2.720840 3.458949 0.537800 0
M  V30 35 H -2.178882 0.616172 3.522195 0
M  V30 36 H 2.596083 -0.826674 4.874000 0
M  V30 37 H 3.100508 -2.285002 6.865143 0
M  V30 38 H 1.609666 -4.162383 7.272670 0
M  V30 39 H -0.304701 -4.709067 5.901560 0
M  V30 END ATOM
M  V30 BEGIN BOND
M  V30 1 2 1 2
M  V30 2 1 2 3
M  V30 3 1 3 4
M  V30 4 2 4 5
M  V30 5 1 5 6
M  V30 6 1 6 7
M  V30 7 2 7 8
M  V30 8 1 8 9
M  V30 9 2 9 10
M  V30 10 1 10 11
M  V30 11 1 11 12
M  V30 12 2 11 13
M  V30 13 2 6 14
M  V30 14 1 14 15
M  V30 15 1 15 16
M  V30 16 1 16 17
M  V30 17 2 17 18
M  V30 18 1 18 19
M  V30 19 1 2 20
M  V30 20 2 20 21
M  V30 21 1 21 22
M  V30 22 2 22 23
M  V30 23 1 23 24
M  V30 24 2 24 25
M  V30 25 1 19 4
M  V30 26 1 25 20
M  V30 27 1 13 7
M  V30 28 2 19 15
M  V30 29 1 3 26
M  V30 30 1 5 27
M  V30 31 1 8 28
M  V30 32 1 9 29
M  V30 33 1 10 30
M  V30 34 1 12 31
M  V30 35 1 13 32
M  V30 36 1 14 33
M  V30 37 1 16 34
M  V30 38 1 18 35
M  V30 39 1 21 36
M  V30 40 1 22 37
M  V30 41 1 23 38
M  V30 42 1 24 39
M  V30 END BOND
M  V30 END CTAB
M  END
>  <Dataset>  (874) 
ChEMBL_Kinases

>  <Ligand_Instance>  (874) 
nan

>  <PDB_ID>  (874) 
nan

>  <Standardized_SMILES>  (874) 
O=C(Nc1cc(-c2cccc(O)c2)cc2[nH]ncc12)c1ccccn1

>  <Name>  (874) 
nan

>  <Pocket>  (874) 
nan

>  <ATP_Site>  (874) 
nan

>  <Peripheral>  (874) 
nan

>  <Num_H_Atoms_ProtBoundConf>  (874) 
nan

>  <Num_Resolved_Atoms>  (874) 
nan

>  <Num_Not_Resolved_Atoms>  (874) 
nan

$$$$
CHEMBL4174068
     RDKit          3D

  0  0  0  0  0  0  0  0  0  0999 V3000
M  V30 BEGIN CTAB
M  V30 COUNTS 33 35 0 0 0
M  V30 BEGIN ATOM
M  V30 1 N -0.776502 -2.593535 3.682764 0
M  V30 2 C -0.214054 -3.141333 2.495669 0
M  V30 3 C 0.114118 -4.479163 2.346130 0
M  V30 4 C 0.662579 -4.966326 1.166330 0
M  V30 5 C 0.891140 -4.089918 0.101091 0
M  V30 6 C 0.582331 -2.734305 0.190337 0
M  V30 7 N 0.804471 -1.816743 -0.872831 0
M  V30 8 C 0.410421 -0.448530 -0.648684 0
M  V30 9 N 1.255865 0.438735 -0.095603 0
M  V30 10 C 0.966959 1.726371 0.145061 0
M  V30 11 C 1.875849 2.582454 0.713993 0
M  V30 12 C 1.534422 3.910939 0.947311 0
M  V30 13 C 0.265420 4.345350 0.594444 0
M  V30 14 C -0.648951 3.468379 0.017668 0
M  V30 15 C -0.318057 2.149511 -0.216956 0
M  V30 16 N -1.159758 1.258882 -0.769541 0
M  V30 17 C -0.855214 -0.029124 -1.004476 0
M  V30 18 C -1.824227 -0.934917 -1.608901 0
M  V30 19 O -1.521362 -2.136672 -1.820447 0
M  V30 20 O -3.081030 -0.450704 -1.945250 0
M  V30 21 C 0.044489 -2.353212 1.398292 0
M  V30 22 H -0.708169 -3.076582 4.597130 0
M  V30 23 H -1.266178 -1.675823 3.599014 0
M  V30 24 H -0.077497 -5.135737 3.199761 0
M  V30 25 H 0.912757 -6.012975 1.066384 0
M  V30 26 H 1.318995 -4.472695 -0.816666 0
M  V30 27 H 1.233810 -2.192177 -1.734727 0
M  V30 28 H 2.864024 2.262348 0.994212 0
M  V30 29 H 2.207251 4.639220 1.394547 0
M  V30 30 H -0.062661 5.380436 0.752862 0
M  V30 31 H -1.639426 3.805419 -0.258659 0
M  V30 32 H -3.642581 -0.912094 -2.674317 0
M  V30 33 H -0.208254 -1.297550 1.499164 0
M  V30 END ATOM
M  V30 BEGIN BOND
M  V30 1 1 1 2
M  V30 2 2 2 3
M  V30 3 1 3 4
M  V30 4 2 4 5
M  V30 5 1 5 6
M  V30 6 1 6 7
M  V30 7 1 7 8
M  V30 8 2 8 9
M  V30 9 1 9 10
M  V30 10 2 10 11
M  V30 11 1 11 12
M  V30 12 2 12 13
M  V30 13 1 13 14
M  V30 14 2 14 15
M  V30 15 1 15 16
M  V30 16 2 16 17
M  V30 17 1 17 18
M  V30 18 2 18 19
M  V30 19 1 18 20
M  V30 20 2 6 21
M  V30 21 1 21 2
M  V30 22 1 17 8
M  V30 23 1 15 10
M  V30 24 1 1 22
M  V30 25 1 1 23
M  V30 26 1 3 24
M  V30 27 1 4 25
M  V30 28 1 5 26
M  V30 29 1 7 27
M  V30 30 1 11 28
M  V30 31 1 12 29
M  V30 32 1 13 30
M  V30 33 1 14 31
M  V30 34 1 20 32
M  V30 35 1 21 33
M  V30 END BOND
M  V30 END CTAB
M  END
>  <Dataset>  (875) 
ChEMBL_Kinases

>  <Ligand_Instance>  (875) 
nan

>  <PDB_ID>  (875) 
nan

>  <Standardized_SMILES>  (875) 
Nc1cccc(Nc2nc3ccccc3nc2C(=O)O)c1

>  <Name>  (875) 
nan

>  <Pocket>  (875) 
nan

>  <ATP_Site>  (875) 
nan

>  <Peripheral>  (875) 
nan

>  <Num_H_Atoms_ProtBoundConf>  (875) 
nan

>  <Num_Resolved_Atoms>  (875) 
nan

>  <Num_Not_Resolved_Atoms>  (875) 
nan

$$$$
CHEMBL4173631
     RDKit          3D

  0  0  0  0  0  0  0  0  0  0999 V3000
M  V30 BEGIN CTAB
M  V30 COUNTS 52 55 0 0 0
M  V30 BEGIN ATOM
M  V30 1 C 0.588144 -6.533099 5.134844 0
M  V30 2 N 0.951535 -6.027625 3.814549 0
M  V30 3 C 1.334297 -4.773649 3.512689 0
M  V30 4 C 1.597771 -4.674823 2.151459 0
M  V30 5 C 2.037029 -3.493127 1.418002 0
M  V30 6 C 1.612018 -3.411603 0.105084 0
M  V30 7 C 1.991193 -2.313810 -0.655634 0
M  V30 8 C 2.784796 -1.279115 -0.163222 0
M  V30 9 S 3.204754 0.061588 -1.212720 0
M  V30 10 O 4.580820 0.584012 -0.927991 0
M  V30 11 O 3.162602 -0.429920 -2.630868 0
M  V30 12 N 1.995497 1.262216 -1.057501 0
M  V30 13 C 1.832737 1.823340 0.218313 0
M  V30 14 C 0.644621 1.343625 1.005291 0
M  V30 15 C -0.606896 1.218602 0.219785 0
M  V30 16 N -1.546252 2.261383 0.655190 0
M  V30 17 C -2.846316 2.401617 0.084706 0
M  V30 18 C -3.743587 3.392175 0.496113 0
M  V30 19 C -4.979527 3.478420 -0.088599 0
M  V30 20 C -5.366272 2.598727 -1.088454 0
M  V30 21 C -6.674707 2.726260 -1.674784 0
M  V30 22 N -7.717046 2.837006 -2.145671 0
M  V30 23 C -4.459679 1.625178 -1.479568 0
M  V30 24 N -3.263293 1.570023 -0.888027 0
M  V30 25 C -0.477031 1.176839 -1.254251 0
M  V30 26 C 0.851527 1.063406 -1.867576 0
M  V30 27 C 3.194031 -1.389755 1.153948 0
M  V30 28 C 2.822257 -2.477690 1.918977 0
M  V30 29 C 1.356785 -5.923800 1.647978 0
M  V30 30 N 0.964852 -6.729500 2.679232 0
M  V30 31 H 0.504492 -7.632352 5.100155 0
M  V30 32 H -0.402952 -6.055784 5.390676 0
M  V30 33 H 1.306814 -6.138513 5.863946 0
M  V30 34 H 1.425827 -3.965794 4.207638 0
M  V30 35 H 0.990682 -4.175009 -0.357197 0
M  V30 36 H 1.671216 -2.224539 -1.690087 0
M  V30 37 H 2.733152 1.564633 0.824873 0
M  V30 38 H 1.862793 2.935173 0.141943 0
M  V30 39 H 0.503203 2.071879 1.830470 0
M  V30 40 H 0.942738 0.394025 1.541518 0
M  V30 41 H -1.103146 0.277409 0.607678 0
M  V30 42 H -1.294492 2.946326 1.406578 0
M  V30 43 H -3.385503 4.042349 1.273442 0
M  V30 44 H -5.625296 4.262122 0.271366 0
M  V30 45 H -4.796514 0.959416 -2.259974 0
M  V30 46 H -0.974230 2.109628 -1.656071 0
M  V30 47 H -1.159701 0.371965 -1.640904 0
M  V30 48 H 0.970622 1.750800 -2.746973 0
M  V30 49 H 0.963722 0.043595 -2.322805 0
M  V30 50 H 3.806316 -0.607527 1.559038 0
M  V30 51 H 3.138545 -2.570040 2.949013 0
M  V30 52 H 1.459388 -6.223205 0.608070 0
M  V30 END ATOM
M  V30 BEGIN BOND
M  V30 1 1 1 2
M  V30 2 1 2 3
M  V30 3 2 3 4
M  V30 4 1 4 5
M  V30 5 2 5 6
M  V30 6 1 6 7
M  V30 7 2 7 8
M  V30 8 1 8 9
M  V30 9 2 9 10
M  V30 10 2 9 11
M  V30 11 1 9 12
M  V30 12 1 12 13
M  V30 13 1 13 14
M  V30 14 1 14 15
M  V30 15 1 15 16
M  V30 16 1 16 17
M  V30 17 2 17 18
M  V30 18 1 18 19
M  V30 19 2 19 20
M  V30 20 1 20 21
M  V30 21 3 21 22
M  V30 22 1 20 23
M  V30 23 2 23 24
M  V30 24 1 15 25
M  V30 25 1 25 26
M  V30 26 1 8 27
M  V30 27 2 27 28
M  V30 28 1 4 29
M  V30 29 2 29 30
M  V30 30 1 30 2
M  V30 31 1 28 5
M  V30 32 1 26 12
M  V30 33 1 24 17
M  V30 34 1 1 31
M  V30 35 1 1 32
M  V30 36 1 1 33
M  V30 37 1 3 34
M  V30 38 1 6 35
M  V30 39 1 7 36
M  V30 40 1 13 37
M  V30 41 1 13 38
M  V30 42 1 14 39
M  V30 43 1 14 40
M  V30 44 1 15 41
M  V30 45 1 16 42
M  V30 46 1 18 43
M  V30 47 1 19 44
M  V30 48 1 23 45
M  V30 49 1 25 46
M  V30 50 1 25 47
M  V30 51 1 26 48
M  V30 52 1 26 49
M  V30 53 1 27 50
M  V30 54 1 28 51
M  V30 55 1 29 52
M  V30 END BOND
M  V30 END CTAB
M  END
>  <Dataset>  (876) 
ChEMBL_Kinases

>  <Ligand_Instance>  (876) 
nan

>  <PDB_ID>  (876) 
nan

>  <Standardized_SMILES>  (876) 
Cn1cc(-c2ccc(S(=O)(=O)N3CCC(Nc4ccc(C#N)cn4)CC3)cc2)cn1

>  <Name>  (876) 
nan

>  <Pocket>  (876) 
nan

>  <ATP_Site>  (876) 
nan

>  <Peripheral>  (876) 
nan

>  <Num_H_Atoms_ProtBoundConf>  (876) 
nan

>  <Num_Resolved_Atoms>  (876) 
nan

>  <Num_Not_Resolved_Atoms>  (876) 
nan

$$$$
CHEMBL3326555
     RDKit          3D

  0  0  0  0  0  0  0  0  0  0999 V3000
M  V30 BEGIN CTAB
M  V30 COUNTS 28 31 0 0 0
M  V30 BEGIN ATOM
M  V30 1 O 1.091343 1.280229 4.446997 0
M  V30 2 N 1.675789 0.197048 4.241147 0 CHG=1 VAL=4
M  V30 3 O 2.382619 -0.619337 5.105175 0 CHG=-1 VAL=1
M  V30 4 C 1.671069 -0.372147 2.938899 0
M  V30 5 C 2.681227 -1.136672 2.400524 0
M  V30 6 C 2.626566 -1.665906 1.129838 0
M  V30 7 N 3.575741 -2.432552 0.514445 0
M  V30 8 N 3.007837 -2.661663 -0.683753 0
M  V30 9 C 1.816232 -2.074432 -0.765632 0
M  V30 10 C 1.511384 -1.418611 0.364915 0
M  V30 11 C 0.499178 -0.682882 0.835137 0
M  V30 12 C 0.591824 -0.173888 2.104938 0
M  V30 13 N -0.419246 0.563302 2.580465 0
M  V30 14 C -1.496413 0.790847 1.816194 0
M  V30 15 C -1.611077 0.283927 0.524967 0
M  V30 16 C -2.785610 0.615318 -0.118629 0
M  V30 17 C -2.902843 0.115442 -1.396579 0
M  V30 18 C -1.923708 -0.649714 -1.973709 0
M  V30 19 C -0.806727 -0.899763 -1.213382 0
M  V30 20 C -0.578552 -0.466631 0.044682 0
M  V30 21 H 3.538403 -1.306577 3.035078 0
M  V30 22 H 4.489275 -2.733512 0.917093 0
M  V30 23 H 1.399443 -2.266743 -1.699923 0
M  V30 24 H -2.261186 1.382417 2.253814 0
M  V30 25 H -3.550494 1.218001 0.343465 0
M  V30 26 H -3.807599 0.348032 -1.943574 0
M  V30 27 H -2.088607 -1.005382 -2.979894 0
M  V30 28 H -0.120263 -1.481138 -1.720090 0
M  V30 END ATOM
M  V30 BEGIN BOND
M  V30 1 2 1 2
M  V30 2 1 2 3
M  V30 3 1 2 4
M  V30 4 2 4 5
M  V30 5 1 5 6
M  V30 6 1 6 7
M  V30 7 1 7 8
M  V30 8 2 8 9
M  V30 9 1 9 10
M  V30 10 1 10 11
M  V30 11 2 11 12
M  V30 12 1 12 13
M  V30 13 2 13 14
M  V30 14 1 14 15
M  V30 15 2 15 16
M  V30 16 1 16 17
M  V30 17 2 17 18
M  V30 18 1 18 19
M  V30 19 2 19 20
M  V30 20 1 12 4
M  V30 21 1 20 15
M  V30 22 2 10 6
M  V30 23 1 20 11
M  V30 24 1 5 21
M  V30 25 1 7 22
M  V30 26 1 9 23
M  V30 27 1 14 24
M  V30 28 1 16 25
M  V30 29 1 17 26
M  V30 30 1 18 27
M  V30 31 1 19 28
M  V30 END BOND
M  V30 END CTAB
M  END
>  <Dataset>  (877) 
ChEMBL_Kinases

>  <Ligand_Instance>  (877) 
nan

>  <PDB_ID>  (877) 
nan

>  <Standardized_SMILES>  (877) 
O=[N+]([O-])c1cc2[nH]ncc2c2c1ncc1ccccc12

>  <Name>  (877) 
nan

>  <Pocket>  (877) 
nan

>  <ATP_Site>  (877) 
nan

>  <Peripheral>  (877) 
nan

>  <Num_H_Atoms_ProtBoundConf>  (877) 
nan

>  <Num_Resolved_Atoms>  (877) 
nan

>  <Num_Not_Resolved_Atoms>  (877) 
nan

$$$$
CHEMBL3675383
     RDKit          3D

  0  0  0  0  0  0  0  0  0  0999 V3000
M  V30 BEGIN CTAB
M  V30 COUNTS 53 56 0 0 0
M  V30 BEGIN ATOM
M  V30 1 N 0.160466 0.858317 5.746792 0
M  V30 2 C 1.115278 0.505108 4.792205 0
M  V30 3 O 2.325412 0.552824 5.120084 0
M  V30 4 C 0.767141 0.087988 3.452291 0
M  V30 5 C 1.765622 -0.285806 2.536860 0
M  V30 6 C 1.386737 -0.681862 1.245935 0
M  V30 7 N 2.539642 -0.944988 0.461063 0
M  V30 8 S 2.542890 0.064751 -0.963036 0
M  V30 9 O 1.282175 -0.103911 -1.753386 0
M  V30 10 O 3.702095 -0.279256 -1.806960 0
M  V30 11 C 2.599526 1.761441 -0.481807 0
M  V30 12 C 3.818293 2.376534 -0.378462 0
M  V30 13 C 3.928308 3.700655 -0.003789 0
M  V30 14 C 2.784657 4.429418 0.276206 0
M  V30 15 C 1.539387 3.829698 0.179374 0
M  V30 16 C 1.469248 2.505577 -0.198059 0
M  V30 17 C 0.063929 -0.709952 0.869775 0
M  V30 18 C -0.958126 -0.353982 1.726940 0
M  V30 19 C -2.295865 -0.323034 1.391931 0
M  V30 20 N -2.647353 -0.852783 0.111760 0
M  V30 21 C -2.992781 -1.370855 -1.140931 0
M  V30 22 C -2.158135 -2.562570 -1.535654 0
M  V30 23 C -0.994842 -2.771357 -2.229489 0
M  V30 24 C -0.478991 -4.025580 -2.421991 0
M  V30 25 C -1.073752 -5.162871 -1.946229 0
M  V30 26 Cl -0.332386 -6.715672 -2.250472 0
M  V30 27 C -2.245639 -5.053504 -1.238864 0
M  V30 28 C -2.947298 -6.254055 -0.713196 0
M  V30 29 F -3.251588 -7.036195 -1.831710 0
M  V30 30 F -2.164989 -6.919101 0.170964 0
M  V30 31 F -4.150442 -5.892723 -0.136517 0
M  V30 32 C -2.742661 -3.757668 -1.060512 0
M  V30 33 N -3.114843 0.106702 2.364729 0
M  V30 34 C -2.777076 0.491030 3.585895 0
M  V30 35 N -1.471825 0.423994 3.820387 0
M  V30 36 C -0.523703 0.025907 2.973212 0
M  V30 37 H -0.624639 1.548596 5.837584 0
M  V30 38 H 0.093723 0.389209 6.676779 0
M  V30 39 H 2.779477 -0.235885 2.918204 0
M  V30 40 H 3.296685 -1.638162 0.681072 0
M  V30 41 H 4.724035 1.825267 -0.590930 0
M  V30 42 H 4.918511 4.129361 0.057646 0
M  V30 43 H 2.868748 5.464524 0.566333 0
M  V30 44 H 0.640944 4.415496 0.404616 0
M  V30 45 H 0.512479 2.040735 -0.272511 0
M  V30 46 H -0.143115 -1.019987 -0.119095 0
M  V30 47 H -3.651391 -0.514256 0.161654 0
M  V30 48 H -2.835811 -0.612862 -1.988050 0
M  V30 49 H -4.042310 -1.687258 -1.242346 0
M  V30 50 H -0.634527 -1.801961 -2.554244 0
M  V30 51 H 0.450351 -4.017872 -2.987435 0
M  V30 52 H -3.684731 -3.776573 -0.483234 0
M  V30 53 H -3.550874 0.815426 4.266218 0
M  V30 END ATOM
M  V30 BEGIN BOND
M  V30 1 1 1 2
M  V30 2 2 2 3
M  V30 3 1 2 4
M  V30 4 2 4 5
M  V30 5 1 5 6
M  V30 6 1 6 7
M  V30 7 1 7 8
M  V30 8 2 8 9
M  V30 9 2 8 10
M  V30 10 1 8 11
M  V30 11 2 11 12
M  V30 12 1 12 13
M  V30 13 2 13 14
M  V30 14 1 14 15
M  V30 15 2 15 16
M  V30 16 2 6 17
M  V30 17 1 17 18
M  V30 18 2 18 19
M  V30 19 1 19 20
M  V30 20 1 20 21
M  V30 21 1 21 22
M  V30 22 2 22 23
M  V30 23 1 23 24
M  V30 24 2 24 25
M  V30 25 1 25 26
M  V30 26 1 25 27
M  V30 27 1 27 28
M  V30 28 1 28 29
M  V30 29 1 28 30
M  V30 30 1 28 31
M  V30 31 2 27 32
M  V30 32 1 19 33
M  V30 33 2 33 34
M  V30 34 1 34 35
M  V30 35 2 35 36
M  V30 36 1 36 4
M  V30 37 1 16 11
M  V30 38 1 36 18
M  V30 39 1 32 22
M  V30 40 1 1 37
M  V30 41 1 1 38
M  V30 42 1 5 39
M  V30 43 1 7 40
M  V30 44 1 12 41
M  V30 45 1 13 42
M  V30 46 1 14 43
M  V30 47 1 15 44
M  V30 48 1 16 45
M  V30 49 1 17 46
M  V30 50 1 20 47
M  V30 51 1 21 48
M  V30 52 1 21 49
M  V30 53 1 23 50
M  V30 54 1 24 51
M  V30 55 1 32 52
M  V30 56 1 34 53
M  V30 END BOND
M  V30 END CTAB
M  END
>  <Dataset>  (878) 
ChEMBL_Kinases

>  <Ligand_Instance>  (878) 
nan

>  <PDB_ID>  (878) 
nan

>  <Standardized_SMILES>  (878) 
NC(=O)c1cc(NS(=O)(=O)c2ccccc2)cc2c(NCc3ccc(Cl)c(C(F)(F)F)c3)ncnc12

>  <Name>  (878) 
nan

>  <Pocket>  (878) 
nan

>  <ATP_Site>  (878) 
nan

>  <Peripheral>  (878) 
nan

>  <Num_H_Atoms_ProtBoundConf>  (878) 
nan

>  <Num_Resolved_Atoms>  (878) 
nan

>  <Num_Not_Resolved_Atoms>  (878) 
nan

$$$$
CHEMBL3326556
     RDKit          3D

  0  0  0  0  0  0  0  0  0  0999 V3000
M  V30 BEGIN CTAB
M  V30 COUNTS 32 35 0 0 0
M  V30 BEGIN ATOM
M  V30 1 C 0.460376 -5.671544 2.459367 0
M  V30 2 O 1.086889 -4.446369 2.869390 0
M  V30 3 C 0.787294 -3.271573 2.191809 0
M  V30 4 C -0.104667 -3.275283 1.131623 0
M  V30 5 C -0.337560 -2.063391 0.523665 0
M  V30 6 C 0.202388 -0.873168 0.841091 0
M  V30 7 C 1.074153 -0.964872 1.903269 0
M  V30 8 C 1.705564 0.176705 2.343255 0
M  V30 9 N 1.478196 1.360122 1.750183 0
M  V30 10 C 0.623984 1.471988 0.703455 0
M  V30 11 C 0.454721 2.723611 0.160221 0
M  V30 12 N 1.161065 3.830813 0.698383 0 CHG=1 VAL=4
M  V30 13 O 0.535728 4.907745 0.510169 0
M  V30 14 O 2.366282 3.793706 1.347160 0 CHG=-1 VAL=1
M  V30 15 C -0.426494 2.748815 -0.895751 0
M  V30 16 C -1.080564 1.636363 -1.370816 0
M  V30 17 N -1.966585 1.559126 -2.404968 0
M  V30 18 N -2.281904 0.263862 -2.426987 0
M  V30 19 C -1.630395 -0.394159 -1.471377 0
M  V30 20 C -0.839867 0.430020 -0.754861 0
M  V30 21 C 0.014617 0.327046 0.290517 0
M  V30 22 C 1.412741 -2.118813 2.621146 0
M  V30 23 H -0.652281 -5.481205 2.476336 0
M  V30 24 H 0.732658 -6.500395 3.120688 0
M  V30 25 H 0.711957 -5.875139 1.398491 0
M  V30 26 H -0.527136 -4.215433 0.884886 0
M  V30 27 H -1.001533 -2.165446 -0.238292 0
M  V30 28 H 2.394734 0.173132 3.163906 0
M  V30 29 H -0.589034 3.714679 -1.353405 0
M  V30 30 H -2.285583 2.361179 -3.003358 0
M  V30 31 H -1.883911 -1.405410 -1.497581 0
M  V30 32 H 2.102054 -2.101010 3.435760 0
M  V30 END ATOM
M  V30 BEGIN BOND
M  V30 1 1 1 2
M  V30 2 1 2 3
M  V30 3 2 3 4
M  V30 4 1 4 5
M  V30 5 2 5 6
M  V30 6 1 6 7
M  V30 7 1 7 8
M  V30 8 2 8 9
M  V30 9 1 9 10
M  V30 10 2 10 11
M  V30 11 1 11 12
M  V30 12 2 12 13
M  V30 13 1 12 14
M  V30 14 1 11 15
M  V30 15 2 15 16
M  V30 16 1 16 17
M  V30 17 1 17 18
M  V30 18 2 18 19
M  V30 19 1 19 20
M  V30 20 2 20 21
M  V30 21 2 7 22
M  V30 22 1 22 3
M  V30 23 1 21 6
M  V30 24 1 21 10
M  V30 25 1 20 16
M  V30 26 1 1 23
M  V30 27 1 1 24
M  V30 28 1 1 25
M  V30 29 1 4 26
M  V30 30 1 5 27
M  V30 31 1 8 28
M  V30 32 1 15 29
M  V30 33 1 17 30
M  V30 34 1 19 31
M  V30 35 1 22 32
M  V30 END BOND
M  V30 END CTAB
M  END
>  <Dataset>  (879) 
ChEMBL_Kinases

>  <Ligand_Instance>  (879) 
nan

>  <PDB_ID>  (879) 
nan

>  <Standardized_SMILES>  (879) 
COc1ccc2c(cnc3c([N+](=O)[O-])cc4[nH]ncc4c32)c1

>  <Name>  (879) 
nan

>  <Pocket>  (879) 
nan

>  <ATP_Site>  (879) 
nan

>  <Peripheral>  (879) 
nan

>  <Num_H_Atoms_ProtBoundConf>  (879) 
nan

>  <Num_Resolved_Atoms>  (879) 
nan

>  <Num_Not_Resolved_Atoms>  (879) 
nan

$$$$
CHEMBL3675382
     RDKit          3D

  0  0  0  0  0  0  0  0  0  0999 V3000
M  V30 BEGIN CTAB
M  V30 COUNTS 45 47 0 0 0
M  V30 BEGIN ATOM
M  V30 1 C 1.320736 1.184660 7.079132 0
M  V30 2 C 1.963435 1.007287 5.752717 0
M  V30 3 O 3.214969 0.977976 5.682458 0
M  V30 4 N 1.286566 0.864452 4.529044 0
M  V30 5 C 1.726731 0.689207 3.201051 0
M  V30 6 C 3.048913 0.571496 2.838125 0
M  V30 7 C 3.459035 0.407940 1.529300 0
M  V30 8 C 4.882579 0.292763 1.237383 0
M  V30 9 N 5.241286 0.123028 -0.120708 0
M  V30 10 O 5.750110 0.340635 2.136263 0
M  V30 11 C 2.479941 0.364814 0.566800 0
M  V30 12 N 2.882015 0.207353 -0.724988 0
M  V30 13 C 1.943402 0.165426 -1.689513 0
M  V30 14 N 0.652458 0.280222 -1.341138 0
M  V30 15 C 0.183292 0.436033 -0.105407 0
M  V30 16 N -1.197694 0.551230 0.140062 0
M  V30 17 C -2.257888 0.517466 -0.838396 0
M  V30 18 C -2.347291 -0.772952 -1.584253 0
M  V30 19 C -1.767533 -1.075644 -2.822441 0
M  V30 20 C -1.953092 -2.342193 -3.350879 0
M  V30 21 C -2.680708 -3.330529 -2.725843 0
M  V30 22 Cl -2.844492 -4.897431 -3.493265 0
M  V30 23 C -3.242613 -2.998001 -1.500528 0
M  V30 24 C -4.018068 -4.144939 -0.901818 0
M  V30 25 F -5.010322 -4.430954 -1.823307 0
M  V30 26 F -3.199197 -5.265575 -0.884643 0
M  V30 27 F -4.506568 -3.845489 0.345135 0
M  V30 28 C -3.083874 -1.751030 -0.937091 0
M  V30 29 C 1.142956 0.478494 0.881048 0
M  V30 30 C 0.807875 0.636566 2.184258 0
M  V30 31 H 1.954750 0.831039 7.903655 0
M  V30 32 H 0.374311 0.584118 7.126773 0
M  V30 33 H 1.036475 2.249728 7.146192 0
M  V30 34 H 0.237823 0.904135 4.708654 0
M  V30 35 H 3.850010 0.598538 3.554419 0
M  V30 36 H 5.504734 0.031253 -1.109984 0
M  V30 37 H 5.154887 -0.935164 -0.072336 0
M  V30 38 H 2.258837 0.041106 -2.717889 0
M  V30 39 H -1.616626 0.676509 1.086943 0
M  V30 40 H -3.258563 0.736467 -0.462372 0
M  V30 41 H -2.057837 1.362717 -1.571436 0
M  V30 42 H -1.215270 -0.275586 -3.280828 0
M  V30 43 H -1.489968 -2.548122 -4.316688 0
M  V30 44 H -3.561804 -1.599048 0.016050 0
M  V30 45 H -0.219882 0.726995 2.450437 0
M  V30 END ATOM
M  V30 BEGIN BOND
M  V30 1 1 1 2
M  V30 2 2 2 3
M  V30 3 1 2 4
M  V30 4 1 4 5
M  V30 5 2 5 6
M  V30 6 1 6 7
M  V30 7 1 7 8
M  V30 8 1 8 9
M  V30 9 2 8 10
M  V30 10 2 7 11
M  V30 11 1 11 12
M  V30 12 2 12 13
M  V30 13 1 13 14
M  V30 14 2 14 15
M  V30 15 1 15 16
M  V30 16 1 16 17
M  V30 17 1 17 18
M  V30 18 2 18 19
M  V30 19 1 19 20
M  V30 20 2 20 21
M  V30 21 1 21 22
M  V30 22 1 21 23
M  V30 23 1 23 24
M  V30 24 1 24 25
M  V30 25 1 24 26
M  V30 26 1 24 27
M  V30 27 2 23 28
M  V30 28 1 15 29
M  V30 29 2 29 30
M  V30 30 1 30 5
M  V30 31 1 29 11
M  V30 32 1 28 18
M  V30 33 1 1 31
M  V30 34 1 1 32
M  V30 35 1 1 33
M  V30 36 1 4 34
M  V30 37 1 6 35
M  V30 38 1 9 36
M  V30 39 1 9 37
M  V30 40 1 13 38
M  V30 41 1 16 39
M  V30 42 1 17 40
M  V30 43 1 17 41
M  V30 44 1 19 42
M  V30 45 1 20 43
M  V30 46 1 28 44
M  V30 47 1 30 45
M  V30 END BOND
M  V30 END CTAB
M  END
>  <Dataset>  (880) 
ChEMBL_Kinases

>  <Ligand_Instance>  (880) 
nan

>  <PDB_ID>  (880) 
nan

>  <Standardized_SMILES>  (880) 
CC(=O)Nc1cc(C(N)=O)c2ncnc(NCc3ccc(Cl)c(C(F)(F)F)c3)c2c1

>  <Name>  (880) 
nan

>  <Pocket>  (880) 
nan

>  <ATP_Site>  (880) 
nan

>  <Peripheral>  (880) 
nan

>  <Num_H_Atoms_ProtBoundConf>  (880) 
nan

>  <Num_Resolved_Atoms>  (880) 
nan

>  <Num_Not_Resolved_Atoms>  (880) 
nan

$$$$
CHEMBL4172185
     RDKit          3D

  0  0  0  0  0  0  0  0  0  0999 V3000
M  V30 BEGIN CTAB
M  V30 COUNTS 53 57 0 0 0
M  V30 BEGIN ATOM
M  V30 1 C -1.249810 -1.761596 3.760109 0
M  V30 2 C -0.024846 -2.501477 3.308726 0
M  V30 3 C -0.202940 -3.218111 1.980166 0 CFG=2
M  V30 4 C 1.121951 -3.887367 1.714495 0
M  V30 5 O 1.430306 -5.127580 1.665305 0
M  V30 6 N 2.226525 -3.009631 1.476287 0
M  V30 7 C 3.637516 -3.338239 1.736373 0
M  V30 8 C 2.003893 -1.703331 0.945917 0
M  V30 9 C 2.953973 -0.744230 0.663708 0
M  V30 10 N 2.558346 0.444425 0.164597 0
M  V30 11 C 1.273140 0.772789 -0.084902 0
M  V30 12 N 0.900520 2.041147 -0.612660 0
M  V30 13 C 1.345229 2.743523 -1.680951 0
M  V30 14 C 0.613236 3.913013 -1.704571 0
M  V30 15 C -0.261051 3.909846 -0.660018 0
M  V30 16 C -1.183671 4.901125 -0.319860 0
M  V30 17 C -1.974363 4.676941 0.794415 0
M  V30 18 F -2.893466 5.586793 1.192784 0
M  V30 19 C -1.813748 3.504215 1.501586 0
M  V30 20 C -0.886508 2.542695 1.133116 0
M  V30 21 C -0.076951 2.727620 0.026437 0
M  V30 22 N 0.335939 -0.150490 0.184553 0
M  V30 23 C 0.688540 -1.371108 0.691827 0
M  V30 24 N -0.429470 -2.221723 0.916976 0
M  V30 25 C -1.710702 -2.272747 0.304345 0
M  V30 26 C -2.048619 -3.620208 -0.322733 0
M  V30 27 C -1.339215 -3.580194 -1.632890 0
M  V30 28 C -1.164686 -2.105034 -1.982339 0
M  V30 29 C -1.923482 -1.419112 -0.897723 0
M  V30 30 H -1.147981 -1.656016 4.874118 0
M  V30 31 H -1.255288 -0.698878 3.392826 0
M  V30 32 H -2.190737 -2.288256 3.584900 0
M  V30 33 H 0.774443 -1.731997 3.092916 0
M  V30 34 H 0.370720 -3.195084 4.077066 0
M  V30 35 H -0.944114 -4.004702 2.016070 0
M  V30 36 H 3.956184 -2.569586 2.491030 0
M  V30 37 H 4.271241 -3.208433 0.857763 0
M  V30 38 H 3.712498 -4.306808 2.244492 0
M  V30 39 H 3.968178 -1.022109 0.867898 0
M  V30 40 H 2.127151 2.372681 -2.328816 0
M  V30 41 H 0.749564 4.679190 -2.454177 0
M  V30 42 H -1.269501 5.803681 -0.909150 0
M  V30 43 H -2.394654 3.274186 2.370276 0
M  V30 44 H -0.763481 1.621280 1.692526 0
M  V30 45 H -2.467302 -2.033688 1.084699 0
M  V30 46 H -3.151965 -3.563104 -0.530701 0
M  V30 47 H -1.901080 -4.480912 0.304031 0
M  V30 48 H -1.922129 -4.112018 -2.431533 0
M  V30 49 H -0.323586 -4.030972 -1.581268 0
M  V30 50 H -1.611236 -1.889104 -2.989639 0
M  V30 51 H -0.115750 -1.818557 -1.977972 0
M  V30 52 H -3.025228 -1.540516 -1.154360 0
M  V30 53 H -1.765464 -0.346213 -0.788462 0
M  V30 END ATOM
M  V30 BEGIN BOND
M  V30 1 1 1 2
M  V30 2 1 2 3
M  V30 3 1 3 4
M  V30 4 2 4 5
M  V30 5 1 4 6
M  V30 6 1 6 7
M  V30 7 1 6 8
M  V30 8 2 8 9
M  V30 9 1 9 10
M  V30 10 2 10 11
M  V30 11 1 11 12
M  V30 12 1 12 13
M  V30 13 2 13 14
M  V30 14 1 14 15
M  V30 15 2 15 16
M  V30 16 1 16 17
M  V30 17 1 17 18
M  V30 18 2 17 19
M  V30 19 1 19 20
M  V30 20 2 20 21
M  V30 21 1 11 22
M  V30 22 2 22 23
M  V30 23 1 23 24
M  V30 24 1 24 25
M  V30 25 1 25 26
M  V30 26 1 26 27
M  V30 27 1 27 28
M  V30 28 1 28 29
M  V30 29 1 24 3
M  V30 30 1 29 25
M  V30 31 1 23 8
M  V30 32 1 21 12
M  V30 33 1 21 15
M  V30 34 1 1 30
M  V30 35 1 1 31
M  V30 36 1 1 32
M  V30 37 1 2 33
M  V30 38 1 2 34
M  V30 39 1 3 35 CFG=1
M  V30 40 1 7 36
M  V30 41 1 7 37
M  V30 42 1 7 38
M  V30 43 1 9 39
M  V30 44 1 13 40
M  V30 45 1 14 41
M  V30 46 1 16 42
M  V30 47 1 19 43
M  V30 48 1 20 44
M  V30 49 1 25 45
M  V30 50 1 26 46
M  V30 51 1 26 47
M  V30 52 1 27 48
M  V30 53 1 27 49
M  V30 54 1 28 50
M  V30 55 1 28 51
M  V30 56 1 29 52
M  V30 57 1 29 53
M  V30 END BOND
M  V30 END CTAB
M  END
>  <Dataset>  (881) 
ChEMBL_Kinases

>  <Ligand_Instance>  (881) 
nan

>  <PDB_ID>  (881) 
nan

>  <Standardized_SMILES>  (881) 
CC[C@@H]1C(=O)N(C)c2cnc(-n3ccc4cc(F)ccc43)nc2N1C1CCCC1

>  <Name>  (881) 
nan

>  <Pocket>  (881) 
nan

>  <ATP_Site>  (881) 
nan

>  <Peripheral>  (881) 
nan

>  <Num_H_Atoms_ProtBoundConf>  (881) 
nan

>  <Num_Resolved_Atoms>  (881) 
nan

>  <Num_Not_Resolved_Atoms>  (881) 
nan

$$$$
CHEMBL4173300
     RDKit          3D

  0  0  0  0  0  0  0  0  0  0999 V3000
M  V30 BEGIN CTAB
M  V30 COUNTS 44 45 0 0 0
M  V30 BEGIN ATOM
M  V30 1 C -0.235587 -2.912577 1.712483 0
M  V30 2 C 1.226536 -3.312431 1.631074 0
M  V30 3 C 1.401767 -4.641300 2.331707 0
M  V30 4 C 1.578287 -3.457116 0.196012 0
M  V30 5 C 2.015394 -2.284933 2.359898 0
M  V30 6 O 2.788381 -2.348107 3.373820 0
M  V30 7 O 1.790737 -1.097602 1.739019 0
M  V30 8 C 2.393677 0.132647 2.180123 0
M  V30 9 C 1.886987 1.177398 1.235653 0
M  V30 10 C 2.260227 0.862335 -0.203606 0
M  V30 11 O 3.645206 0.968805 -0.323117 0
M  V30 12 C 0.367264 1.339721 1.350740 0
M  V30 13 C 0.210388 2.494056 0.402569 0
M  V30 14 C -0.653642 2.845889 -0.567471 0
M  V30 15 C -1.740405 1.908074 -0.808045 0
M  V30 16 C -2.324395 1.394108 0.352834 0
M  V30 17 C -3.364034 0.467075 0.244310 0
M  V30 18 C -3.814837 0.059378 -0.992394 0
M  V30 19 C -3.201885 0.600742 -2.112461 0
M  V30 20 N -2.202239 1.491745 -1.996221 0
M  V30 21 C 1.385509 3.297425 0.817518 0
M  V30 22 O 1.556556 4.550969 0.618449 0
M  V30 23 O 2.328337 2.486962 1.483796 0
M  V30 24 H -0.896459 -3.736477 2.010662 0
M  V30 25 H -0.392571 -2.055888 2.387360 0
M  V30 26 H -0.628909 -2.565996 0.717168 0
M  V30 27 H 0.761610 -5.397248 1.817302 0
M  V30 28 H 2.457176 -4.944379 2.148948 0
M  V30 29 H 1.148661 -4.552581 3.405998 0
M  V30 30 H 2.295396 -2.732109 -0.209768 0
M  V30 31 H 0.675497 -3.385675 -0.479803 0
M  V30 32 H 1.988725 -4.479142 -0.034982 0
M  V30 33 H 3.480085 0.081388 2.201770 0
M  V30 34 H 2.060993 0.417250 3.196707 0
M  V30 35 H 1.814927 1.585694 -0.909171 0
M  V30 36 H 1.888080 -0.152681 -0.480025 0
M  V30 37 H 4.072017 0.079097 -0.513790 0
M  V30 38 H 0.109969 1.680516 2.349327 0
M  V30 39 H -0.141725 0.420383 0.998730 0
M  V30 40 H -0.439277 3.797304 -1.063635 0
M  V30 41 H -2.115661 1.599846 1.401318 0
M  V30 42 H -3.880038 0.009849 1.092272 0
M  V30 43 H -4.628184 -0.666875 -1.085395 0
M  V30 44 H -3.530657 0.303642 -3.100097 0
M  V30 END ATOM
M  V30 BEGIN BOND
M  V30 1 1 1 2
M  V30 2 1 2 3
M  V30 3 1 2 4
M  V30 4 1 2 5
M  V30 5 2 5 6
M  V30 6 1 5 7
M  V30 7 1 7 8
M  V30 8 1 8 9
M  V30 9 1 9 10
M  V30 10 1 10 11
M  V30 11 1 9 12
M  V30 12 1 12 13
M  V30 13 2 13 14
M  V30 14 1 14 15
M  V30 15 2 15 16
M  V30 16 1 16 17
M  V30 17 2 17 18
M  V30 18 1 18 19
M  V30 19 2 19 20
M  V30 20 1 13 21
M  V30 21 2 21 22
M  V30 22 1 21 23
M  V30 23 1 23 9
M  V30 24 1 20 15
M  V30 25 1 1 24
M  V30 26 1 1 25
M  V30 27 1 1 26
M  V30 28 1 3 27
M  V30 29 1 3 28
M  V30 30 1 3 29
M  V30 31 1 4 30
M  V30 32 1 4 31
M  V30 33 1 4 32
M  V30 34 1 8 33
M  V30 35 1 8 34
M  V30 36 1 10 35
M  V30 37 1 10 36
M  V30 38 1 11 37
M  V30 39 1 12 38
M  V30 40 1 12 39
M  V30 41 1 14 40
M  V30 42 1 16 41
M  V30 43 1 17 42
M  V30 44 1 18 43
M  V30 45 1 19 44
M  V30 END BOND
M  V30 END CTAB
M  END
>  <Dataset>  (882) 
ChEMBL_Kinases

>  <Ligand_Instance>  (882) 
nan

>  <PDB_ID>  (882) 
nan

>  <Standardized_SMILES>  (882) 
CC(C)(C)C(=O)OCC1(CO)C/C(=C\c2ccccn2)C(=O)O1

>  <Name>  (882) 
nan

>  <Pocket>  (882) 
nan

>  <ATP_Site>  (882) 
nan

>  <Peripheral>  (882) 
nan

>  <Num_H_Atoms_ProtBoundConf>  (882) 
nan

>  <Num_Resolved_Atoms>  (882) 
nan

>  <Num_Not_Resolved_Atoms>  (882) 
nan

$$$$
CHEMBL4173067
     RDKit          3D

  0  0  0  0  0  0  0  0  0  0999 V3000
M  V30 BEGIN CTAB
M  V30 COUNTS 44 47 0 0 0
M  V30 BEGIN ATOM
M  V30 1 C 0.561398 -6.385464 -1.328252 0
M  V30 2 O 0.195516 -5.090165 -1.760767 0
M  V30 3 C 0.759944 -4.004523 -1.118289 0
M  V30 4 C 0.398548 -2.728526 -1.545533 0
M  V30 5 C 0.983218 -1.693358 -0.879209 0
M  V30 6 C 1.897635 -1.790312 0.176615 0
M  V30 7 N 2.416940 -0.581695 0.767946 0
M  V30 8 C 1.986474 0.688551 0.254998 0
M  V30 9 N 2.681697 1.274336 -0.735211 0
M  V30 10 C 2.284071 2.474842 -1.230067 0
M  V30 11 C 1.164088 3.129548 -0.739557 0
M  V30 12 C 0.464183 2.494810 0.288432 0
M  V30 13 C -0.724094 3.130200 0.848432 0
M  V30 14 C -1.286794 4.336150 0.487410 0
M  V30 15 N -2.393710 4.580136 1.248970 0
M  V30 16 C -2.496055 3.519379 2.068527 0
M  V30 17 C -3.406566 3.199687 3.054836 0
M  V30 18 C -3.421279 2.071899 3.847047 0
M  V30 19 C -2.388601 1.181225 3.594995 0
M  V30 20 C -1.434733 1.430418 2.621005 0
M  V30 21 C -1.492190 2.597229 1.862502 0
M  V30 22 N 0.905475 1.292245 0.748001 0
M  V30 23 C 2.225673 -3.095004 0.565524 0
M  V30 24 O 3.132630 -3.149548 1.612203 0
M  V30 25 C 3.631378 -4.326339 2.196515 0
M  V30 26 C 1.655049 -4.154312 -0.084376 0
M  V30 27 H 0.066442 -7.133043 -1.991251 0
M  V30 28 H 1.655263 -6.530787 -1.386506 0
M  V30 29 H 0.196990 -6.593747 -0.294946 0
M  V30 30 H -0.292955 -2.536813 -2.344581 0
M  V30 31 H 0.710674 -0.680632 -1.201198 0
M  V30 32 H 3.097068 -0.765561 1.559755 0
M  V30 33 H 2.851615 2.935609 -2.025981 0
M  V30 34 H 0.828070 4.073199 -1.108970 0
M  V30 35 H -0.880294 4.965929 -0.289142 0
M  V30 36 H -3.003922 5.423128 1.178608 0
M  V30 37 H -4.213378 3.925128 3.230974 0
M  V30 38 H -4.192218 1.933302 4.590755 0
M  V30 39 H -2.350933 0.265896 4.196168 0
M  V30 40 H -0.646518 0.711508 2.455494 0
M  V30 41 H 3.339670 -5.258024 1.703689 0
M  V30 42 H 3.258610 -4.390600 3.242650 0
M  V30 43 H 4.740190 -4.273288 2.294418 0
M  V30 44 H 1.933617 -5.143433 0.244953 0
M  V30 END ATOM
M  V30 BEGIN BOND
M  V30 1 1 1 2
M  V30 2 1 2 3
M  V30 3 2 3 4
M  V30 4 1 4 5
M  V30 5 2 5 6
M  V30 6 1 6 7
M  V30 7 1 7 8
M  V30 8 2 8 9
M  V30 9 1 9 10
M  V30 10 2 10 11
M  V30 11 1 11 12
M  V30 12 1 12 13
M  V30 13 2 13 14
M  V30 14 1 14 15
M  V30 15 1 15 16
M  V30 16 2 16 17
M  V30 17 1 17 18
M  V30 18 2 18 19
M  V30 19 1 19 20
M  V30 20 2 20 21
M  V30 21 2 12 22
M  V30 22 1 6 23
M  V30 23 1 23 24
M  V30 24 1 24 25
M  V30 25 2 23 26
M  V30 26 1 26 3
M  V30 27 1 22 8
M  V30 28 1 21 13
M  V30 29 1 21 16
M  V30 30 1 1 27
M  V30 31 1 1 28
M  V30 32 1 1 29
M  V30 33 1 4 30
M  V30 34 1 5 31
M  V30 35 1 7 32
M  V30 36 1 10 33
M  V30 37 1 11 34
M  V30 38 1 14 35
M  V30 39 1 15 36
M  V30 40 1 17 37
M  V30 41 1 18 38
M  V30 42 1 19 39
M  V30 43 1 20 40
M  V30 44 1 25 41
M  V30 45 1 25 42
M  V30 46 1 25 43
M  V30 47 1 26 44
M  V30 END BOND
M  V30 END CTAB
M  END
>  <Dataset>  (883) 
ChEMBL_Kinases

>  <Ligand_Instance>  (883) 
nan

>  <PDB_ID>  (883) 
nan

>  <Standardized_SMILES>  (883) 
COc1ccc(Nc2nccc(-c3c[nH]c4ccccc34)n2)c(OC)c1

>  <Name>  (883) 
nan

>  <Pocket>  (883) 
nan

>  <ATP_Site>  (883) 
nan

>  <Peripheral>  (883) 
nan

>  <Num_H_Atoms_ProtBoundConf>  (883) 
nan

>  <Num_Resolved_Atoms>  (883) 
nan

>  <Num_Not_Resolved_Atoms>  (883) 
nan

$$$$
CHEMBL3675378
     RDKit          3D

  0  0  0  0  0  0  0  0  0  0999 V3000
M  V30 BEGIN CTAB
M  V30 COUNTS 38 41 0 0 0
M  V30 BEGIN ATOM
M  V30 1 N -2.364850 -4.366509 3.305927 0
M  V30 2 C -1.054321 -4.839123 3.024676 0
M  V30 3 O -0.661472 -5.857749 3.629184 0
M  V30 4 C -0.162757 -4.183412 2.065755 0
M  V30 5 C 1.084170 -4.744641 1.885817 0
M  V30 6 C 1.920923 -4.127367 0.984371 0
M  V30 7 C 1.484411 -3.001291 0.317155 0
M  V30 8 C 0.265631 -2.423788 0.470292 0
M  V30 9 C -0.129232 -1.304141 -0.212586 0
M  V30 10 N 0.708734 -0.669795 -1.133125 0
M  V30 11 C 0.419650 0.517322 -1.919450 0
M  V30 12 C 0.194792 1.650263 -0.986158 0
M  V30 13 C -0.945152 2.180443 -0.425195 0
M  V30 14 C -0.836800 3.251318 0.436265 0
M  V30 15 C 0.362435 3.827134 0.770466 0
M  V30 16 O 0.675586 4.827091 1.550881 0
M  V30 17 C 1.963598 5.031239 1.571771 0
M  V30 18 C 2.520117 4.094272 0.744396 0
M  V30 19 C 1.512737 3.312250 0.220313 0
M  V30 20 C 1.425252 2.228134 -0.654069 0
M  V30 21 N -1.368863 -0.912942 0.097325 0
M  V30 22 C -2.186487 -1.513043 0.975768 0
M  V30 23 N -1.789410 -2.608827 1.638785 0
M  V30 24 C -0.551908 -3.059808 1.376901 0
M  V30 25 H -3.334356 -4.450797 2.916507 0
M  V30 26 H -2.150654 -3.788523 4.162174 0
M  V30 27 H 1.402101 -5.619624 2.414837 0
M  V30 28 H 2.896009 -4.571240 0.847589 0
M  V30 29 H 2.217301 -2.599364 -0.363367 0
M  V30 30 H 1.649694 -1.003565 -1.343946 0
M  V30 31 H 1.137460 0.742144 -2.703191 0
M  V30 32 H -0.584854 0.288528 -2.396935 0
M  V30 33 H -1.823553 1.665445 -0.755606 0
M  V30 34 H -1.791833 3.592593 0.822691 0
M  V30 35 H 2.532780 5.784737 2.122151 0
M  V30 36 H 3.574869 3.963126 0.518107 0
M  V30 37 H 2.428163 1.934995 -1.006683 0
M  V30 38 H -3.165191 -1.066618 1.112387 0
M  V30 END ATOM
M  V30 BEGIN BOND
M  V30 1 1 1 2
M  V30 2 2 2 3
M  V30 3 1 2 4
M  V30 4 2 4 5
M  V30 5 1 5 6
M  V30 6 2 6 7
M  V30 7 1 7 8
M  V30 8 2 8 9
M  V30 9 1 9 10
M  V30 10 1 10 11
M  V30 11 1 11 12
M  V30 12 2 12 13
M  V30 13 1 13 14
M  V30 14 2 14 15
M  V30 15 1 15 16
M  V30 16 1 16 17
M  V30 17 2 17 18
M  V30 18 1 18 19
M  V30 19 2 19 20
M  V30 20 1 9 21
M  V30 21 2 21 22
M  V30 22 1 22 23
M  V30 23 2 23 24
M  V30 24 1 24 4
M  V30 25 1 24 8
M  V30 26 1 20 12
M  V30 27 1 19 15
M  V30 28 1 1 25
M  V30 29 1 1 26
M  V30 30 1 5 27
M  V30 31 1 6 28
M  V30 32 1 7 29
M  V30 33 1 10 30
M  V30 34 1 11 31
M  V30 35 1 11 32
M  V30 36 1 13 33
M  V30 37 1 14 34
M  V30 38 1 17 35
M  V30 39 1 18 36
M  V30 40 1 20 37
M  V30 41 1 22 38
M  V30 END BOND
M  V30 END CTAB
M  END
>  <Dataset>  (884) 
ChEMBL_Kinases

>  <Ligand_Instance>  (884) 
nan

>  <PDB_ID>  (884) 
nan

>  <Standardized_SMILES>  (884) 
NC(=O)c1cccc2c(NCc3ccc4occc4c3)ncnc12

>  <Name>  (884) 
nan

>  <Pocket>  (884) 
nan

>  <ATP_Site>  (884) 
nan

>  <Peripheral>  (884) 
nan

>  <Num_H_Atoms_ProtBoundConf>  (884) 
nan

>  <Num_Resolved_Atoms>  (884) 
nan

>  <Num_Not_Resolved_Atoms>  (884) 
nan

$$$$
CHEMBL4172461
     RDKit          3D

  0  0  0  0  0  0  0  0  0  0999 V3000
M  V30 BEGIN CTAB
M  V30 COUNTS 43 45 0 0 0
M  V30 BEGIN ATOM
M  V30 1 O 0.071835 -4.214633 4.289939 0
M  V30 2 C 0.533504 -3.367787 3.485821 0
M  V30 3 O 1.664566 -2.538553 3.473870 0
M  V30 4 C 1.349468 -1.334035 2.809327 0
M  V30 5 C 0.906825 -0.332198 3.817341 0
M  V30 6 O 1.972035 -0.144396 4.712007 0
M  V30 7 C 2.558948 -0.778416 2.047094 0
M  V30 8 O 2.171736 0.406965 1.428568 0
M  V30 9 C 2.902528 1.216145 0.605773 0
M  V30 10 O 3.962987 0.567296 0.593532 0
M  V30 11 C 2.238345 2.409245 0.101036 0
M  V30 12 C 0.948043 2.747216 0.415307 0
M  V30 13 C 0.485071 3.909665 -0.134104 0
M  V30 14 C 1.271193 4.691374 -0.954725 0
M  V30 15 Cl 0.603121 6.175091 -1.621693 0
M  V30 16 C 2.570180 4.365410 -1.281007 0
M  V30 17 C 3.055966 3.177394 -0.724216 0
M  V30 18 C 0.266082 -1.699845 1.796034 0
M  V30 19 C -0.134642 -3.040832 2.210182 0
M  V30 20 C -0.990944 -3.761657 1.516509 0
M  V30 21 C -1.673161 -3.501241 0.264337 0
M  V30 22 C -1.074075 -3.066092 -0.903364 0
M  V30 23 C -1.725301 -2.788750 -2.082550 0
M  V30 24 C -3.090841 -2.949404 -2.136468 0
M  V30 25 Cl -3.946270 -2.600441 -3.620955 0
M  V30 26 C -3.747977 -3.382810 -1.003950 0
M  V30 27 C -3.046550 -3.651647 0.169410 0
M  V30 28 H 0.722426 0.680291 3.352702 0
M  V30 29 H -0.037818 -0.613980 4.331606 0
M  V30 30 H 2.577371 -0.946361 4.709237 0
M  V30 31 H 3.284676 -0.484297 2.853507 0
M  V30 32 H 3.007795 -1.506314 1.367262 0
M  V30 33 H 0.430566 2.064038 1.065012 0
M  V30 34 H -0.531386 4.190548 0.105605 0
M  V30 35 H 3.217739 4.944704 -1.916751 0
M  V30 36 H 4.081217 2.916693 -0.978638 0
M  V30 37 H -0.539344 -0.925073 1.969454 0
M  V30 38 H 0.610348 -1.564794 0.777077 0
M  V30 39 H -1.293863 -4.752362 1.889908 0
M  V30 40 H -0.005157 -2.933084 -0.953094 0
M  V30 41 H -1.189884 -2.448126 -2.970307 0
M  V30 42 H -4.841565 -3.523316 -1.016169 0
M  V30 43 H -3.620826 -3.991013 1.029324 0
M  V30 END ATOM
M  V30 BEGIN BOND
M  V30 1 2 1 2
M  V30 2 1 2 3
M  V30 3 1 3 4
M  V30 4 1 4 5
M  V30 5 1 5 6
M  V30 6 1 4 7
M  V30 7 1 7 8
M  V30 8 1 8 9
M  V30 9 2 9 10
M  V30 10 1 9 11
M  V30 11 2 11 12
M  V30 12 1 12 13
M  V30 13 2 13 14
M  V30 14 1 14 15
M  V30 15 1 14 16
M  V30 16 2 16 17
M  V30 17 1 4 18
M  V30 18 1 18 19
M  V30 19 2 19 20
M  V30 20 1 20 21
M  V30 21 2 21 22
M  V30 22 1 22 23
M  V30 23 2 23 24
M  V30 24 1 24 25
M  V30 25 1 24 26
M  V30 26 2 26 27
M  V30 27 1 19 2
M  V30 28 1 27 21
M  V30 29 1 17 11
M  V30 30 1 5 28
M  V30 31 1 5 29
M  V30 32 1 6 30
M  V30 33 1 7 31
M  V30 34 1 7 32
M  V30 35 1 12 33
M  V30 36 1 13 34
M  V30 37 1 16 35
M  V30 38 1 17 36
M  V30 39 1 18 37
M  V30 40 1 18 38
M  V30 41 1 20 39
M  V30 42 1 22 40
M  V30 43 1 23 41
M  V30 44 1 26 42
M  V30 45 1 27 43
M  V30 END BOND
M  V30 END CTAB
M  END
>  <Dataset>  (885) 
ChEMBL_Kinases

>  <Ligand_Instance>  (885) 
nan

>  <PDB_ID>  (885) 
nan

>  <Standardized_SMILES>  (885) 
O=C1OC(CO)(COC(=O)c2ccc(Cl)cc2)C/C1=C\c1ccc(Cl)cc1

>  <Name>  (885) 
nan

>  <Pocket>  (885) 
nan

>  <ATP_Site>  (885) 
nan

>  <Peripheral>  (885) 
nan

>  <Num_H_Atoms_ProtBoundConf>  (885) 
nan

>  <Num_Resolved_Atoms>  (885) 
nan

>  <Num_Not_Resolved_Atoms>  (885) 
nan

$$$$
CHEMBL4172312
     RDKit          3D

  0  0  0  0  0  0  0  0  0  0999 V3000
M  V30 BEGIN CTAB
M  V30 COUNTS 54 58 0 0 0
M  V30 BEGIN ATOM
M  V30 1 C 2.202444 -2.095767 3.410101 0
M  V30 2 C 2.289724 -3.371804 2.601040 0
M  V30 3 C 2.749157 -3.090255 1.181491 0
M  V30 4 C 4.090879 -2.453144 1.164201 0
M  V30 5 O 5.109662 -3.184560 1.258170 0
M  V30 6 N 4.163287 -1.030459 1.040852 0
M  V30 7 C 5.446364 -0.384753 1.296723 0
M  V30 8 C 3.039524 -0.223595 0.680316 0
M  V30 9 C 3.103537 1.148953 0.560111 0
M  V30 10 N 1.993683 1.839189 0.214862 0
M  V30 11 C 0.805011 1.240928 -0.022206 0
M  V30 12 N -0.337203 2.018192 -0.383862 0
M  V30 13 C -0.330978 3.207276 -1.018284 0
M  V30 14 C -1.629238 3.639658 -1.188570 0
M  V30 15 C -2.431715 2.657053 -0.627242 0
M  V30 16 C -3.822421 2.538390 -0.499356 0
M  V30 17 C -4.396682 1.429729 0.118562 0
M  V30 18 C -5.856241 1.384263 0.210812 0
M  V30 19 N -6.504845 0.278816 0.828619 0
M  V30 20 O -6.481689 2.352703 -0.274765 0
M  V30 21 C -3.585586 0.427980 0.615126 0
M  V30 22 C -2.222411 0.589645 0.465606 0
M  V30 23 C -1.611556 1.651090 -0.128857 0
M  V30 24 N 0.772373 -0.099191 0.102584 0
M  V30 25 C 1.830649 -0.836488 0.439616 0
M  V30 26 N 1.738238 -2.241088 0.556043 0
M  V30 27 C 0.564557 -2.886110 0.020706 0
M  V30 28 C 0.273223 -4.233834 0.029259 0
M  V30 29 C -0.932990 -4.429384 -0.576967 0
M  V30 30 N -1.375861 -3.200491 -0.954568 0
M  V30 31 C -2.628098 -2.980756 -1.634174 0
M  V30 32 N -0.475121 -2.317836 -0.589652 0
M  V30 33 H 1.309011 -1.509587 3.114722 0
M  V30 34 H 3.144112 -1.501464 3.279451 0
M  V30 35 H 2.135855 -2.288817 4.489743 0
M  V30 36 H 1.259795 -3.779749 2.552075 0
M  V30 37 H 2.916890 -4.115116 3.112901 0
M  V30 38 H 2.744814 -4.054958 0.625892 0
M  V30 39 H 6.103352 -1.073973 1.860908 0
M  V30 40 H 5.323247 0.540880 1.912451 0
M  V30 41 H 5.916938 -0.135502 0.305865 0
M  V30 42 H 4.060177 1.659281 0.748073 0
M  V30 43 H 0.529822 3.766291 -1.356395 0
M  V30 44 H -2.007842 4.548085 -1.655480 0
M  V30 45 H -4.408424 3.351750 -0.905740 0
M  V30 46 H -6.238423 -0.178848 1.724158 0
M  V30 47 H -7.338030 -0.266675 0.519979 0
M  V30 48 H -4.021245 -0.431307 1.093517 0
M  V30 49 H -1.625682 -0.223860 0.871758 0
M  V30 50 H 0.925833 -4.984202 0.459157 0
M  V30 51 H -1.416727 -5.398342 -0.713840 0
M  V30 52 H -2.826163 -3.757863 -2.409280 0
M  V30 53 H -3.506539 -3.022765 -0.948076 0
M  V30 54 H -2.639490 -2.011065 -2.169436 0
M  V30 END ATOM
M  V30 BEGIN BOND
M  V30 1 1 1 2
M  V30 2 1 2 3
M  V30 3 1 3 4
M  V30 4 2 4 5
M  V30 5 1 4 6
M  V30 6 1 6 7
M  V30 7 1 6 8
M  V30 8 2 8 9
M  V30 9 1 9 10
M  V30 10 2 10 11
M  V30 11 1 11 12
M  V30 12 1 12 13
M  V30 13 2 13 14
M  V30 14 1 14 15
M  V30 15 2 15 16
M  V30 16 1 16 17
M  V30 17 1 17 18
M  V30 18 1 18 19
M  V30 19 2 18 20
M  V30 20 2 17 21
M  V30 21 1 21 22
M  V30 22 2 22 23
M  V30 23 1 11 24
M  V30 24 2 24 25
M  V30 25 1 25 26
M  V30 26 1 26 27
M  V30 27 1 27 28
M  V30 28 2 28 29
M  V30 29 1 29 30
M  V30 30 1 30 31
M  V30 31 1 30 32
M  V30 32 1 26 3
M  V30 33 2 32 27
M  V30 34 1 25 8
M  V30 35 1 23 12
M  V30 36 1 23 15
M  V30 37 1 1 33
M  V30 38 1 1 34
M  V30 39 1 1 35
M  V30 40 1 2 36
M  V30 41 1 2 37
M  V30 42 1 3 38
M  V30 43 1 7 39
M  V30 44 1 7 40
M  V30 45 1 7 41
M  V30 46 1 9 42
M  V30 47 1 13 43
M  V30 48 1 14 44
M  V30 49 1 16 45
M  V30 50 1 19 46
M  V30 51 1 19 47
M  V30 52 1 21 48
M  V30 53 1 22 49
M  V30 54 1 28 50
M  V30 55 1 29 51
M  V30 56 1 31 52
M  V30 57 1 31 53
M  V30 58 1 31 54
M  V30 END BOND
M  V30 END CTAB
M  END
>  <Dataset>  (886) 
ChEMBL_Kinases

>  <Ligand_Instance>  (886) 
nan

>  <PDB_ID>  (886) 
nan

>  <Standardized_SMILES>  (886) 
CCC1C(=O)N(C)c2cnc(-n3ccc4cc(C(N)=O)ccc43)nc2N1c1ccn(C)n1

>  <Name>  (886) 
nan

>  <Pocket>  (886) 
nan

>  <ATP_Site>  (886) 
nan

>  <Peripheral>  (886) 
nan

>  <Num_H_Atoms_ProtBoundConf>  (886) 
nan

>  <Num_Resolved_Atoms>  (886) 
nan

>  <Num_Not_Resolved_Atoms>  (886) 
nan

$$$$
CHEMBL3675377
     RDKit          3D

  0  0  0  0  0  0  0  0  0  0999 V3000
M  V30 BEGIN CTAB
M  V30 COUNTS 40 43 0 0 0
M  V30 BEGIN ATOM
M  V30 1 N -1.456753 -5.697458 -0.321044 0
M  V30 2 C -0.094862 -5.783446 0.080040 0
M  V30 3 O 0.344300 -6.903949 0.419882 0
M  V30 4 C 0.797111 -4.629836 0.109658 0
M  V30 5 C 2.095863 -4.847635 0.518301 0
M  V30 6 C 2.964301 -3.761865 0.554330 0
M  V30 7 C 2.468570 -2.534691 0.177966 0
M  V30 8 C 1.184072 -2.267384 -0.236189 0
M  V30 9 C 0.764925 -1.016980 -0.595382 0
M  V30 10 N 1.637376 0.096183 -0.567264 0
M  V30 11 C 1.297657 1.458392 -0.923804 0
M  V30 12 C 0.246814 2.003775 -0.022892 0
M  V30 13 C -1.125411 2.056605 -0.127584 0
M  V30 14 C -1.878422 2.610422 0.863880 0
M  V30 15 C -1.291366 3.123239 1.977898 0
M  V30 16 C 0.083936 3.102048 2.145357 0
M  V30 17 C 0.850036 2.531619 1.123155 0
M  V30 18 C 0.377594 3.739741 3.462975 0
M  V30 19 C -0.943136 3.721550 4.157963 0
M  V30 20 O -1.878053 3.728162 3.096944 0
M  V30 21 N -0.510623 -0.948509 -0.968666 0
M  V30 22 C -1.372466 -1.974875 -1.014265 0
M  V30 23 N -0.931033 -3.207415 -0.652232 0
M  V30 24 C 0.364002 -3.373418 -0.254659 0
M  V30 25 H -1.784713 -5.286335 0.588746 0
M  V30 26 H -1.968128 -5.940104 -1.180344 0
M  V30 27 H 2.442124 -5.830224 0.805346 0
M  V30 28 H 3.962099 -3.944465 0.871222 0
M  V30 29 H 3.211828 -1.753757 0.237425 0
M  V30 30 H 2.621126 0.038772 -0.281656 0
M  V30 31 H 0.800728 1.361606 -1.938128 0
M  V30 32 H 2.151486 2.132676 -1.032295 0
M  V30 33 H -1.469100 1.630708 -1.047925 0
M  V30 34 H -2.944198 2.618787 0.717976 0
M  V30 35 H 1.910281 2.570751 1.363006 0
M  V30 36 H 0.761258 4.785253 3.323383 0
M  V30 37 H 1.096313 3.156825 4.052071 0
M  V30 38 H -1.081983 4.512299 4.897925 0
M  V30 39 H -1.083448 2.720590 4.658542 0
M  V30 40 H -2.416630 -1.846105 -1.333837 0
M  V30 END ATOM
M  V30 BEGIN BOND
M  V30 1 1 1 2
M  V30 2 2 2 3
M  V30 3 1 2 4
M  V30 4 2 4 5
M  V30 5 1 5 6
M  V30 6 2 6 7
M  V30 7 1 7 8
M  V30 8 2 8 9
M  V30 9 1 9 10
M  V30 10 1 10 11
M  V30 11 1 11 12
M  V30 12 2 12 13
M  V30 13 1 13 14
M  V30 14 2 14 15
M  V30 15 1 15 16
M  V30 16 2 16 17
M  V30 17 1 16 18
M  V30 18 1 18 19
M  V30 19 1 19 20
M  V30 20 1 9 21
M  V30 21 2 21 22
M  V30 22 1 22 23
M  V30 23 2 23 24
M  V30 24 1 24 4
M  V30 25 1 24 8
M  V30 26 1 17 12
M  V30 27 1 20 15
M  V30 28 1 1 25
M  V30 29 1 1 26
M  V30 30 1 5 27
M  V30 31 1 6 28
M  V30 32 1 7 29
M  V30 33 1 10 30
M  V30 34 1 11 31
M  V30 35 1 11 32
M  V30 36 1 13 33
M  V30 37 1 14 34
M  V30 38 1 17 35
M  V30 39 1 18 36
M  V30 40 1 18 37
M  V30 41 1 19 38
M  V30 42 1 19 39
M  V30 43 1 22 40
M  V30 END BOND
M  V30 END CTAB
M  END
>  <Dataset>  (887) 
ChEMBL_Kinases

>  <Ligand_Instance>  (887) 
nan

>  <PDB_ID>  (887) 
nan

>  <Standardized_SMILES>  (887) 
NC(=O)c1cccc2c(NCc3ccc4c(c3)CCO4)ncnc12

>  <Name>  (887) 
nan

>  <Pocket>  (887) 
nan

>  <ATP_Site>  (887) 
nan

>  <Peripheral>  (887) 
nan

>  <Num_H_Atoms_ProtBoundConf>  (887) 
nan

>  <Num_Resolved_Atoms>  (887) 
nan

>  <Num_Not_Resolved_Atoms>  (887) 
nan

$$$$
CHEMBL4172214
     RDKit          3D

  0  0  0  0  0  0  0  0  0  0999 V3000
M  V30 BEGIN CTAB
M  V30 COUNTS 74 78 0 0 0
M  V30 BEGIN ATOM
M  V30 1 C -2.463860 -4.086839 -2.140223 0
M  V30 2 C -1.089650 -4.649306 -2.178291 0
M  V30 3 N -0.055320 -3.778476 -2.659091 0
M  V30 4 C -0.167099 -3.491985 -4.044963 0
M  V30 5 C -1.321598 -2.654934 -4.467914 0
M  V30 6 C 1.214523 -4.323139 -2.240792 0
M  V30 7 C 2.389562 -3.556620 -2.652364 0
M  V30 8 C 3.022060 -3.856994 -3.851282 0
M  V30 9 C 4.127979 -3.118554 -4.214852 0
M  V30 10 C 4.596341 -2.106035 -3.408806 0
M  V30 11 C 4.003131 -1.772425 -2.213304 0
M  V30 12 N 4.547726 -0.716443 -1.443513 0
M  V30 13 C 4.126637 -0.190024 -0.221010 0
M  V30 14 O 3.132966 -0.663467 0.339176 0
M  V30 15 N 4.745929 0.879838 0.478775 0
M  V30 16 C 4.057680 1.167252 1.693979 0
M  V30 17 C 3.060105 2.123870 1.468303 0
M  V30 18 C 2.253596 2.564865 2.497786 0
M  V30 19 C 2.415800 2.068077 3.776560 0
M  V30 20 C 1.674794 2.377375 5.016114 0
M  V30 21 C 0.506489 1.486499 5.292834 0
M  V30 22 N -0.501290 1.507501 4.283820 0
M  V30 23 C -1.653003 0.684964 4.445164 0
M  V30 24 N -1.784477 -0.095436 5.531240 0
M  V30 25 C -2.846946 -0.892075 5.738839 0
M  V30 26 N -3.833811 -0.902653 4.796669 0
M  V30 27 C -3.738399 -0.138264 3.699566 0
M  V30 28 O -4.545398 0.012622 2.680919 0
M  V30 29 C -4.074548 0.868875 1.806058 0
M  V30 30 C -4.806566 1.178347 0.613409 0
M  V30 31 C -6.025963 0.579567 0.373222 0
M  V30 32 C -6.791401 0.831191 -0.763261 0
M  V30 33 C -6.343922 1.715646 -1.720137 0
M  V30 34 C -5.125155 2.340695 -1.521359 0
M  V30 35 C -4.430407 2.040399 -0.375945 0
M  V30 36 C -2.870321 1.295882 2.311910 0
M  V30 37 Cl -1.825482 2.439076 1.550737 0
M  V30 38 C -2.652535 0.670293 3.496774 0
M  V30 39 C 3.403871 1.124985 3.984903 0
M  V30 40 C 4.220094 0.671484 2.970075 0
M  V30 41 C 2.904365 -2.534346 -1.890985 0
M  V30 42 H -3.003289 -4.131659 -3.105855 0
M  V30 43 H -3.060300 -4.781011 -1.469970 0
M  V30 44 H -2.544227 -3.105961 -1.626176 0
M  V30 45 H -1.116508 -5.510680 -2.909396 0
M  V30 46 H -0.819072 -5.033535 -1.161583 0
M  V30 47 H 0.790818 -2.998063 -4.367427 0
M  V30 48 H -0.269392 -4.475939 -4.573998 0
M  V30 49 H -1.850286 -2.114874 -3.681330 0
M  V30 50 H -0.952279 -1.843699 -5.168312 0
M  V30 51 H -2.075932 -3.194219 -5.092383 0
M  V30 52 H 1.280573 -5.379810 -2.587086 0
M  V30 53 H 1.195154 -4.413875 -1.118320 0
M  V30 54 H 2.706648 -4.629227 -4.519171 0
M  V30 55 H 4.661725 -3.304539 -5.134984 0
M  V30 56 H 5.484776 -1.540338 -3.738503 0
M  V30 57 H 5.403674 -0.219833 -1.806797 0
M  V30 58 H 5.608589 1.324090 0.041343 0
M  V30 59 H 2.809514 2.605625 0.528857 0
M  V30 60 H 1.466785 3.299426 2.414523 0
M  V30 61 H 1.233476 3.407971 4.862924 0
M  V30 62 H 2.338628 2.505734 5.889935 0
M  V30 63 H 0.117402 1.596634 6.317959 0
M  V30 64 H 0.924730 0.433546 5.277426 0
M  V30 65 H -0.301298 2.143378 3.490630 0
M  V30 66 H -2.865241 -1.485226 6.643255 0
M  V30 67 H -6.485632 -0.142573 1.062285 0
M  V30 68 H -7.746704 0.343323 -0.921992 0
M  V30 69 H -6.943384 1.902786 -2.595846 0
M  V30 70 H -4.777439 3.025911 -2.261395 0
M  V30 71 H -3.492107 2.567395 -0.295627 0
M  V30 72 H 3.658617 0.634452 4.935718 0
M  V30 73 H 5.017418 -0.054301 3.009478 0
M  V30 74 H 2.384277 -2.347405 -0.985458 0
M  V30 END ATOM
M  V30 BEGIN BOND
M  V30 1 1 1 2
M  V30 2 1 2 3
M  V30 3 1 3 4
M  V30 4 1 4 5
M  V30 5 1 3 6
M  V30 6 1 6 7
M  V30 7 2 7 8
M  V30 8 1 8 9
M  V30 9 2 9 10
M  V30 10 1 10 11
M  V30 11 1 11 12
M  V30 12 1 12 13
M  V30 13 2 13 14
M  V30 14 1 13 15
M  V30 15 1 15 16
M  V30 16 2 16 17
M  V30 17 1 17 18
M  V30 18 2 18 19
M  V30 19 1 19 20
M  V30 20 1 20 21
M  V30 21 1 21 22
M  V30 22 1 22 23
M  V30 23 2 23 24
M  V30 24 1 24 25
M  V30 25 2 25 26
M  V30 26 1 26 27
M  V30 27 1 27 28
M  V30 28 1 28 29
M  V30 29 1 29 30
M  V30 30 2 30 31
M  V30 31 1 31 32
M  V30 32 2 32 33
M  V30 33 1 33 34
M  V30 34 2 34 35
M  V30 35 2 29 36
M  V30 36 1 36 37
M  V30 37 1 36 38
M  V30 38 1 19 39
M  V30 39 2 39 40
M  V30 40 2 11 41
M  V30 41 1 41 7
M  V30 42 1 40 16
M  V30 43 1 38 23
M  V30 44 2 38 27
M  V30 45 1 35 30
M  V30 46 1 1 42
M  V30 47 1 1 43
M  V30 48 1 1 44
M  V30 49 1 2 45
M  V30 50 1 2 46
M  V30 51 1 4 47
M  V30 52 1 4 48
M  V30 53 1 5 49
M  V30 54 1 5 50
M  V30 55 1 5 51
M  V30 56 1 6 52
M  V30 57 1 6 53
M  V30 58 1 8 54
M  V30 59 1 9 55
M  V30 60 1 10 56
M  V30 61 1 12 57
M  V30 62 1 15 58
M  V30 63 1 17 59
M  V30 64 1 18 60
M  V30 65 1 20 61
M  V30 66 1 20 62
M  V30 67 1 21 63
M  V30 68 1 21 64
M  V30 69 1 22 65
M  V30 70 1 25 66
M  V30 71 1 31 67
M  V30 72 1 32 68
M  V30 73 1 33 69
M  V30 74 1 34 70
M  V30 75 1 35 71
M  V30 76 1 39 72
M  V30 77 1 40 73
M  V30 78 1 41 74
M  V30 END BOND
M  V30 END CTAB
M  END
>  <Dataset>  (888) 
ChEMBL_Kinases

>  <Ligand_Instance>  (888) 
nan

>  <PDB_ID>  (888) 
nan

>  <Standardized_SMILES>  (888) 
CCN(CC)Cc1cccc(NC(=O)Nc2ccc(CCNc3ncnc4oc(-c5ccccc5)c(Cl)c34)cc2)c1

>  <Name>  (888) 
nan

>  <Pocket>  (888) 
nan

>  <ATP_Site>  (888) 
nan

>  <Peripheral>  (888) 
nan

>  <Num_H_Atoms_ProtBoundConf>  (888) 
nan

>  <Num_Resolved_Atoms>  (888) 
nan

>  <Num_Not_Resolved_Atoms>  (888) 
nan

$$$$
CHEMBL4172211
     RDKit          3D

  0  0  0  0  0  0  0  0  0  0999 V3000
M  V30 BEGIN CTAB
M  V30 COUNTS 37 40 0 0 0
M  V30 BEGIN ATOM
M  V30 1 O -0.022826 -2.388210 3.852958 0
M  V30 2 C -1.077115 -1.966886 3.349506 0
M  V30 3 N -1.184072 -1.014904 2.331215 0
M  V30 4 C -0.233371 -0.266190 1.586970 0
M  V30 5 C 0.310829 -0.738169 0.411222 0
M  V30 6 C 1.225413 -0.040091 -0.322356 0
M  V30 7 C 1.759610 -0.601475 -1.557933 0
M  V30 8 C 1.102091 -1.429277 -2.442893 0
M  V30 9 C 1.749617 -1.888502 -3.573195 0
M  V30 10 C 3.056251 -1.549804 -3.866847 0
M  V30 11 O 3.731882 -1.991402 -4.987305 0
M  V30 12 C 3.696355 -0.722860 -2.972570 0
M  V30 13 C 3.066369 -0.255075 -1.839816 0
M  V30 14 C 1.632660 1.205543 0.129182 0
M  V30 15 C 1.131049 1.747790 1.302169 0
M  V30 16 N 1.326154 2.895354 1.974230 0
M  V30 17 N 0.569689 2.905217 3.069294 0
M  V30 18 C -0.124471 1.741194 3.099700 0
M  V30 19 C 0.211168 0.977469 1.983467 0
M  V30 20 C -2.376577 -2.506600 3.855614 0
M  V30 21 C -3.572851 -2.448290 2.974871 0
M  V30 22 C -3.408230 -1.454287 4.128820 0
M  V30 23 H -2.050094 -0.641061 1.887664 0
M  V30 24 H 0.009957 -1.708274 0.033668 0
M  V30 25 H 0.080956 -1.675866 -2.186003 0
M  V30 26 H 1.236424 -2.531265 -4.257222 0
M  V30 27 H 3.291174 -1.992671 -5.905660 0
M  V30 28 H 4.731863 -0.447502 -3.191858 0
M  V30 29 H 3.655373 0.391865 -1.192623 0
M  V30 30 H 2.361860 1.774529 -0.444275 0
M  V30 31 H 1.978431 3.676638 1.684245 0
M  V30 32 H -0.821534 1.480283 3.883861 0
M  V30 33 H -2.301699 -3.267384 4.647969 0
M  V30 34 H -4.394650 -3.173251 3.133437 0
M  V30 35 H -3.507195 -2.075302 1.942007 0
M  V30 36 H -3.166424 -0.407994 3.903828 0
M  V30 37 H -4.076418 -1.569717 5.017630 0
M  V30 END ATOM
M  V30 BEGIN BOND
M  V30 1 2 1 2
M  V30 2 1 2 3
M  V30 3 1 3 4
M  V30 4 2 4 5
M  V30 5 1 5 6
M  V30 6 1 6 7
M  V30 7 2 7 8
M  V30 8 1 8 9
M  V30 9 2 9 10
M  V30 10 1 10 11
M  V30 11 1 10 12
M  V30 12 2 12 13
M  V30 13 2 6 14
M  V30 14 1 14 15
M  V30 15 1 15 16
M  V30 16 1 16 17
M  V30 17 2 17 18
M  V30 18 1 18 19
M  V30 19 1 2 20
M  V30 20 1 20 21
M  V30 21 1 21 22
M  V30 22 1 19 4
M  V30 23 1 22 20
M  V30 24 1 13 7
M  V30 25 2 19 15
M  V30 26 1 3 23
M  V30 27 1 5 24
M  V30 28 1 8 25
M  V30 29 1 9 26
M  V30 30 1 11 27
M  V30 31 1 12 28
M  V30 32 1 13 29
M  V30 33 1 14 30
M  V30 34 1 16 31
M  V30 35 1 18 32
M  V30 36 1 20 33
M  V30 37 1 21 34
M  V30 38 1 21 35
M  V30 39 1 22 36
M  V30 40 1 22 37
M  V30 END BOND
M  V30 END CTAB
M  END
>  <Dataset>  (889) 
ChEMBL_Kinases

>  <Ligand_Instance>  (889) 
nan

>  <PDB_ID>  (889) 
nan

>  <Standardized_SMILES>  (889) 
O=C(Nc1cc(-c2ccc(O)cc2)cc2[nH]ncc12)C1CC1

>  <Name>  (889) 
nan

>  <Pocket>  (889) 
nan

>  <ATP_Site>  (889) 
nan

>  <Peripheral>  (889) 
nan

>  <Num_H_Atoms_ProtBoundConf>  (889) 
nan

>  <Num_Resolved_Atoms>  (889) 
nan

>  <Num_Not_Resolved_Atoms>  (889) 
nan

$$$$
CHEMBL3675376
     RDKit          3D

  0  0  0  0  0  0  0  0  0  0999 V3000
M  V30 BEGIN CTAB
M  V30 COUNTS 39 41 0 0 0
M  V30 BEGIN ATOM
M  V30 1 N 3.208730 -6.814505 3.142836 0
M  V30 2 C 3.299752 -5.450717 3.517488 0
M  V30 3 O 3.730067 -5.387546 4.695874 0
M  V30 4 C 2.948122 -4.321262 2.664242 0
M  V30 5 C 2.476843 -4.424633 1.370158 0
M  V30 6 C 2.177747 -3.274659 0.662053 0
M  V30 7 C 2.326123 -2.008051 1.184388 0
M  V30 8 C 2.005926 -0.771875 0.426802 0
M  V30 9 N 0.633527 -0.342143 0.595646 0
M  V30 10 C 0.202728 0.832107 -0.080410 0
M  V30 11 N 1.047836 1.527789 -0.858023 0
M  V30 12 C 0.675887 2.637403 -1.508927 0
M  V30 13 N -0.573876 3.158302 -1.446044 0
M  V30 14 C -1.461169 2.495446 -0.677001 0
M  V30 15 C -2.746298 2.984944 -0.579972 0
M  V30 16 C -3.107537 4.214203 -1.318493 0
M  V30 17 N -4.452712 4.688047 -1.189827 0
M  V30 18 O -2.234602 4.765535 -2.004466 0
M  V30 19 C -3.662023 2.317318 0.202160 0
M  V30 20 C -3.311004 1.154472 0.897574 0
M  V30 21 C -2.011805 0.712708 0.762239 0
M  V30 22 C -1.069402 1.353057 -0.009898 0
M  V30 23 C 2.804054 -1.930891 2.494158 0
M  V30 24 C 3.116332 -3.070763 3.239123 0
M  V30 25 H 2.574149 -7.632414 3.268417 0
M  V30 26 H 3.725806 -7.551045 2.598544 0
M  V30 27 H 2.359265 -5.418024 0.957205 0
M  V30 28 H 1.808788 -3.355918 -0.351116 0
M  V30 29 H 2.127775 -0.954255 -0.674312 0
M  V30 30 H 2.706696 0.049270 0.648962 0
M  V30 31 H 0.067862 -0.946159 1.213175 0
M  V30 32 H 1.395186 3.160254 -2.122192 0
M  V30 33 H -4.864403 5.594709 -0.922507 0
M  V30 34 H -5.298254 4.092833 -1.376226 0
M  V30 35 H -4.665902 2.721833 0.262424 0
M  V30 36 H -4.032114 0.638778 1.506435 0
M  V30 37 H -1.781333 -0.172540 1.304245 0
M  V30 38 H 2.955214 -0.967322 2.995849 0
M  V30 39 H 3.484981 -2.945088 4.255530 0
M  V30 END ATOM
M  V30 BEGIN BOND
M  V30 1 1 1 2
M  V30 2 2 2 3
M  V30 3 1 2 4
M  V30 4 2 4 5
M  V30 5 1 5 6
M  V30 6 2 6 7
M  V30 7 1 7 8
M  V30 8 1 8 9
M  V30 9 1 9 10
M  V30 10 2 10 11
M  V30 11 1 11 12
M  V30 12 2 12 13
M  V30 13 1 13 14
M  V30 14 2 14 15
M  V30 15 1 15 16
M  V30 16 1 16 17
M  V30 17 2 16 18
M  V30 18 1 15 19
M  V30 19 2 19 20
M  V30 20 1 20 21
M  V30 21 2 21 22
M  V30 22 1 7 23
M  V30 23 2 23 24
M  V30 24 1 24 4
M  V30 25 1 22 10
M  V30 26 1 22 14
M  V30 27 1 1 25
M  V30 28 1 1 26
M  V30 29 1 5 27
M  V30 30 1 6 28
M  V30 31 1 8 29
M  V30 32 1 8 30
M  V30 33 1 9 31
M  V30 34 1 12 32
M  V30 35 1 17 33
M  V30 36 1 17 34
M  V30 37 1 19 35
M  V30 38 1 20 36
M  V30 39 1 21 37
M  V30 40 1 23 38
M  V30 41 1 24 39
M  V30 END BOND
M  V30 END CTAB
M  END
>  <Dataset>  (890) 
ChEMBL_Kinases

>  <Ligand_Instance>  (890) 
nan

>  <PDB_ID>  (890) 
nan

>  <Standardized_SMILES>  (890) 
NC(=O)c1ccc(CNc2ncnc3c(C(N)=O)cccc23)cc1

>  <Name>  (890) 
nan

>  <Pocket>  (890) 
nan

>  <ATP_Site>  (890) 
nan

>  <Peripheral>  (890) 
nan

>  <Num_H_Atoms_ProtBoundConf>  (890) 
nan

>  <Num_Resolved_Atoms>  (890) 
nan

>  <Num_Not_Resolved_Atoms>  (890) 
nan

$$$$
CHEMBL4173353
     RDKit          3D

  0  0  0  0  0  0  0  0  0  0999 V3000
M  V30 BEGIN CTAB
M  V30 COUNTS 63 67 0 0 0
M  V30 BEGIN ATOM
M  V30 1 C 4.288432 2.470474 7.364812 0
M  V30 2 C 4.292704 1.543715 6.181946 0
M  V30 3 C 2.883387 1.167066 5.896709 0
M  V30 4 C 2.336645 0.068660 6.490674 0
M  V30 5 C 1.034648 -0.322777 6.259129 0
M  V30 6 C 0.235867 0.404679 5.401038 0
M  V30 7 C 0.768881 1.520957 4.788366 0
M  V30 8 N 0.099604 2.406806 3.864516 0
M  V30 9 C 0.256940 1.990630 2.526109 0
M  V30 10 O 0.922683 0.964850 2.362237 0
M  V30 11 N -0.274794 2.643456 1.411590 0
M  V30 12 C -0.190178 2.332229 0.032484 0
M  V30 13 C -0.814030 3.148430 -0.883831 0
M  V30 14 C -0.764181 2.893913 -2.236309 0
M  V30 15 C -0.088553 1.809515 -2.753799 0
M  V30 16 C 0.007453 1.527571 -4.195463 0
M  V30 17 C -1.097539 0.752147 -4.808705 0
M  V30 18 N -1.340812 -0.559471 -4.260848 0
M  V30 19 C -1.991261 -0.835571 -3.033940 0
M  V30 20 N -2.510988 0.102067 -2.226857 0
M  V30 21 C -3.148807 -0.119755 -1.083706 0
M  V30 22 N -3.292731 -1.387754 -0.690269 0
M  V30 23 C -2.794327 -2.385375 -1.453203 0
M  V30 24 O -2.827523 -3.659637 -1.253111 0
M  V30 25 C -2.240610 -4.334456 -2.206982 0
M  V30 26 C -2.156696 -5.781678 -2.192991 0
M  V30 27 C -1.566410 -6.577174 -3.138618 0
M  V30 28 C -1.496628 -7.943161 -3.109215 0
M  V30 29 C -2.057613 -8.618356 -2.051690 0
M  V30 30 C -2.667185 -7.876828 -1.066288 0
M  V30 31 C -2.701706 -6.508242 -1.157730 0
M  V30 32 C -1.793486 -3.388221 -3.096282 0
M  V30 33 Cl -0.937759 -3.715454 -4.558413 0
M  V30 34 C -2.134112 -2.146703 -2.637470 0
M  V30 35 C 0.559009 0.956169 -1.848447 0
M  V30 36 C 0.477144 1.257599 -0.505100 0
M  V30 37 C 2.091119 1.901676 5.035936 0
M  V30 38 H 5.102582 2.228027 8.093483 0
M  V30 39 H 3.310822 2.440387 7.914872 0
M  V30 40 H 4.364873 3.508327 6.980125 0
M  V30 41 H 4.679684 2.075955 5.267938 0
M  V30 42 H 4.907425 0.627314 6.335901 0
M  V30 43 H 2.946640 -0.527640 7.176077 0
M  V30 44 H 0.570502 -1.195892 6.719440 0
M  V30 45 H -0.805149 0.200837 5.135146 0
M  V30 46 H -0.465505 3.285699 4.063698 0
M  V30 47 H -0.823387 3.507494 1.691023 0
M  V30 48 H -1.362824 4.019907 -0.533543 0
M  V30 49 H -1.277882 3.579149 -2.891429 0
M  V30 50 H 0.963836 0.941944 -4.370555 0
M  V30 51 H 0.189951 2.465780 -4.790033 0
M  V30 52 H -0.948327 0.734052 -5.926033 0
M  V30 53 H -2.046151 1.369991 -4.676679 0
M  V30 54 H -0.970214 -1.291958 -4.891088 0
M  V30 55 H -3.531702 0.723102 -0.506066 0
M  V30 56 H -1.104585 -6.122852 -3.997846 0
M  V30 57 H -1.020485 -8.512994 -3.879990 0
M  V30 58 H -2.033477 -9.693071 -1.974658 0
M  V30 59 H -3.102736 -8.419826 -0.243141 0
M  V30 60 H -3.209193 -6.023626 -0.322718 0
M  V30 61 H 1.096903 0.097801 -2.223278 0
M  V30 62 H 0.986489 0.575449 0.123917 0
M  V30 63 H 2.559856 2.772080 4.579452 0
M  V30 END ATOM
M  V30 BEGIN BOND
M  V30 1 1 1 2
M  V30 2 1 2 3
M  V30 3 2 3 4
M  V30 4 1 4 5
M  V30 5 2 5 6
M  V30 6 1 6 7
M  V30 7 1 7 8
M  V30 8 1 8 9
M  V30 9 2 9 10
M  V30 10 1 9 11
M  V30 11 1 11 12
M  V30 12 2 12 13
M  V30 13 1 13 14
M  V30 14 2 14 15
M  V30 15 1 15 16
M  V30 16 1 16 17
M  V30 17 1 17 18
M  V30 18 1 18 19
M  V30 19 2 19 20
M  V30 20 1 20 21
M  V30 21 2 21 22
M  V30 22 1 22 23
M  V30 23 1 23 24
M  V30 24 1 24 25
M  V30 25 1 25 26
M  V30 26 2 26 27
M  V30 27 1 27 28
M  V30 28 2 28 29
M  V30 29 1 29 30
M  V30 30 2 30 31
M  V30 31 2 25 32
M  V30 32 1 32 33
M  V30 33 1 32 34
M  V30 34 1 15 35
M  V30 35 2 35 36
M  V30 36 2 7 37
M  V30 37 1 37 3
M  V30 38 1 36 12
M  V30 39 1 34 19
M  V30 40 2 34 23
M  V30 41 1 31 26
M  V30 42 1 1 38
M  V30 43 1 1 39
M  V30 44 1 1 40
M  V30 45 1 2 41
M  V30 46 1 2 42
M  V30 47 1 4 43
M  V30 48 1 5 44
M  V30 49 1 6 45
M  V30 50 1 8 46
M  V30 51 1 11 47
M  V30 52 1 13 48
M  V30 53 1 14 49
M  V30 54 1 16 50
M  V30 55 1 16 51
M  V30 56 1 17 52
M  V30 57 1 17 53
M  V30 58 1 18 54
M  V30 59 1 21 55
M  V30 60 1 27 56
M  V30 61 1 28 57
M  V30 62 1 29 58
M  V30 63 1 30 59
M  V30 64 1 31 60
M  V30 65 1 35 61
M  V30 66 1 36 62
M  V30 67 1 37 63
M  V30 END BOND
M  V30 END CTAB
M  END
>  <Dataset>  (891) 
ChEMBL_Kinases

>  <Ligand_Instance>  (891) 
nan

>  <PDB_ID>  (891) 
nan

>  <Standardized_SMILES>  (891) 
CCc1cccc(NC(=O)Nc2ccc(CCNc3ncnc4oc(-c5ccccc5)c(Cl)c34)cc2)c1

>  <Name>  (891) 
nan

>  <Pocket>  (891) 
nan

>  <ATP_Site>  (891) 
nan

>  <Peripheral>  (891) 
nan

>  <Num_H_Atoms_ProtBoundConf>  (891) 
nan

>  <Num_Resolved_Atoms>  (891) 
nan

>  <Num_Not_Resolved_Atoms>  (891) 
nan

$$$$
CHEMBL415055
     RDKit          3D

  0  0  0  0  0  0  0  0  0  0999 V3000
M  V30 BEGIN CTAB
M  V30 COUNTS 53 58 0 0 0
M  V30 BEGIN ATOM
M  V30 1 C -0.990710 -3.937391 0.036766 0
M  V30 2 C 0.247663 -3.467491 -0.349687 0
M  V30 3 C 0.712708 -2.229241 0.051793 0
M  V30 4 N 1.808328 -1.503024 -0.129908 0
M  V30 5 C 1.784827 -0.308682 0.497097 0
M  V30 6 C 2.892270 0.608012 0.407344 0
M  V30 7 N 4.018303 0.378381 -0.283022 0
M  V30 8 N 4.871124 1.375718 -0.200942 0
M  V30 9 C 4.344240 2.343483 0.566565 0
M  V30 10 C 4.861593 3.567142 0.936654 0
M  V30 11 C 4.037556 4.315867 1.742678 0
M  V30 12 C 4.419910 5.624411 2.222098 0
M  V30 13 C 5.201736 6.402741 1.450910 0
M  V30 14 N 5.687692 7.682881 1.706122 0
M  V30 15 S 4.893230 7.862088 3.385269 0
M  V30 16 C 4.135433 6.352732 3.436117 0
M  V30 17 C 2.792830 3.902887 2.161440 0
M  V30 18 C 2.346037 2.656987 1.743883 0
M  V30 19 C 3.111036 1.851835 0.938884 0
M  V30 20 C 0.562988 -0.335983 1.102886 0
M  V30 21 C -0.135698 -1.498963 0.858346 0
M  V30 22 C -1.383473 -1.928116 1.270608 0
M  V30 23 C -1.824572 -3.168665 0.855691 0
M  V30 24 C -3.130205 -3.727229 1.229868 0
M  V30 25 N -4.192695 -3.424221 0.354185 0
M  V30 26 C -5.469560 -3.956795 0.698845 0
M  V30 27 C -5.800750 -5.250810 0.016344 0
M  V30 28 C -4.826169 -5.663571 -1.051689 0
M  V30 29 C -4.230601 -4.537051 -1.837353 0
M  V30 30 C -3.923371 -3.315674 -1.031040 0
M  V30 31 H -1.313076 -4.904347 -0.297367 0
M  V30 32 H 0.869555 -4.062777 -0.971571 0
M  V30 33 H 2.562505 -1.936041 -0.735736 0
M  V30 34 H 5.792462 1.339397 -0.688058 0
M  V30 35 H 5.830016 3.919106 0.626710 0
M  V30 36 H 5.644696 6.237658 0.454449 0
M  V30 37 H 3.512220 5.828599 4.139832 0
M  V30 38 H 2.139485 4.501157 2.802893 0
M  V30 39 H 1.393095 2.321574 2.054129 0
M  V30 40 H 0.165232 0.454438 1.711431 0
M  V30 41 H -1.989695 -1.316808 1.892840 0
M  V30 42 H -3.082148 -4.847907 1.364943 0
M  V30 43 H -3.360098 -3.352512 2.253361 0
M  V30 44 H -6.249617 -3.214794 0.403228 0
M  V30 45 H -5.527618 -4.037190 1.805053 0
M  V30 46 H -5.771965 -6.054631 0.797665 0
M  V30 47 H -6.846524 -5.255276 -0.355842 0
M  V30 48 H -4.043526 -6.356883 -0.622733 0
M  V30 49 H -5.385159 -6.298769 -1.772291 0
M  V30 50 H -4.861242 -4.322083 -2.725683 0
M  V30 51 H -3.250978 -4.902687 -2.246862 0
M  V30 52 H -4.573161 -2.485488 -1.434179 0
M  V30 53 H -2.890096 -2.939976 -1.175362 0
M  V30 END ATOM
M  V30 BEGIN BOND
M  V30 1 2 1 2
M  V30 2 1 2 3
M  V30 3 1 3 4
M  V30 4 1 4 5
M  V30 5 1 5 6
M  V30 6 2 6 7
M  V30 7 1 7 8
M  V30 8 1 8 9
M  V30 9 2 9 10
M  V30 10 1 10 11
M  V30 11 1 11 12
M  V30 12 1 12 13
M  V30 13 2 13 14
M  V30 14 1 14 15
M  V30 15 1 15 16
M  V30 16 2 11 17
M  V30 17 1 17 18
M  V30 18 2 18 19
M  V30 19 2 5 20
M  V30 20 1 20 21
M  V30 21 1 21 22
M  V30 22 2 22 23
M  V30 23 1 23 24
M  V30 24 1 24 25
M  V30 25 1 25 26
M  V30 26 1 26 27
M  V30 27 1 27 28
M  V30 28 1 28 29
M  V30 29 1 29 30
M  V30 30 1 23 1
M  V30 31 1 30 25
M  V30 32 2 21 3
M  V30 33 1 19 6
M  V30 34 1 19 9
M  V30 35 2 16 12
M  V30 36 1 1 31
M  V30 37 1 2 32
M  V30 38 1 4 33
M  V30 39 1 8 34
M  V30 40 1 10 35
M  V30 41 1 13 36
M  V30 42 1 16 37
M  V30 43 1 17 38
M  V30 44 1 18 39
M  V30 45 1 20 40
M  V30 46 1 22 41
M  V30 47 1 24 42
M  V30 48 1 24 43
M  V30 49 1 26 44
M  V30 50 1 26 45
M  V30 51 1 27 46
M  V30 52 1 27 47
M  V30 53 1 28 48
M  V30 54 1 28 49
M  V30 55 1 29 50
M  V30 56 1 29 51
M  V30 57 1 30 52
M  V30 58 1 30 53
M  V30 END BOND
M  V30 END CTAB
M  END
>  <Dataset>  (892) 
ChEMBL_Kinases

>  <Ligand_Instance>  (892) 
nan

>  <PDB_ID>  (892) 
nan

>  <Standardized_SMILES>  (892) 
c1cc2[nH]c(-c3n[nH]c4cc(-c5cnsc5)ccc34)cc2cc1CN1CCCCC1

>  <Name>  (892) 
nan

>  <Pocket>  (892) 
nan

>  <ATP_Site>  (892) 
nan

>  <Peripheral>  (892) 
nan

>  <Num_H_Atoms_ProtBoundConf>  (892) 
nan

>  <Num_Resolved_Atoms>  (892) 
nan

>  <Num_Not_Resolved_Atoms>  (892) 
nan

$$$$
CHEMBL3780154
     RDKit          3D

  0  0  0  0  0  0  0  0  0  0999 V3000
M  V30 BEGIN CTAB
M  V30 COUNTS 83 87 0 0 0
M  V30 BEGIN ATOM
M  V30 1 C 6.348174 -3.369998 -0.507965 0
M  V30 2 O 6.944734 -2.927364 0.653080 0
M  V30 3 C 7.670241 -1.780759 0.418838 0
M  V30 4 C 6.893594 -0.579101 0.094564 0
M  V30 5 O 7.745127 0.368682 -0.102364 0
M  V30 6 N 5.587836 -0.059778 -0.081555 0
M  V30 7 C 5.420248 1.302654 -0.428861 0
M  V30 8 C 5.304826 2.278159 0.552549 0
M  V30 9 C 5.133261 3.654279 0.376670 0
M  V30 10 C 5.042159 4.452652 1.576052 0
M  V30 11 C 3.720397 4.755750 2.168078 0
M  V30 12 O 2.884363 3.758982 2.551022 0
M  V30 13 C 2.177610 2.770593 1.965208 0
M  V30 14 C 1.964924 2.345555 0.672082 0
M  V30 15 C 1.177623 1.283985 0.296183 0
M  V30 16 C 0.533589 0.565912 1.281304 0
M  V30 17 N -0.250983 -0.493457 0.727596 0
M  V30 18 C -1.610878 -0.455339 0.389877 0
M  V30 19 O -2.197845 0.612614 0.583494 0
M  V30 20 N -2.252011 -1.603817 -0.145644 0
M  V30 21 C -3.623315 -1.587361 -0.513207 0
M  V30 22 C -4.542288 -0.584424 -0.483828 0
M  V30 23 C -5.763744 -1.041127 -0.938225 0
M  V30 24 C -7.080853 -0.352271 -1.106749 0
M  V30 25 C -7.919350 -0.425901 0.133310 0
M  V30 26 C -6.869416 1.061422 -1.559767 0
M  V30 27 C -7.882382 -1.059783 -2.207771 0
M  V30 28 N -5.541766 -2.352884 -1.239391 0
M  V30 29 N -4.288763 -2.656048 -0.986228 0
M  V30 30 C -3.726739 -3.951409 -1.188425 0
M  V30 31 C -2.974492 -4.021188 -2.357926 0
M  V30 32 C -2.357012 -5.214050 -2.702908 0
M  V30 33 C -2.468447 -6.355713 -1.906051 0
M  V30 34 C -1.799591 -7.604174 -2.299115 0
M  V30 35 C -3.214171 -6.245909 -0.768741 0
M  V30 36 C -3.841891 -5.076611 -0.394609 0
M  V30 37 C 0.697508 0.931726 2.598883 0
M  V30 38 C 0.009153 0.146795 3.492969 0
M  V30 39 C 0.125837 0.456334 4.836665 0
M  V30 40 C 0.901427 1.510028 5.268710 0
M  V30 41 C 1.546486 2.228125 4.288404 0
M  V30 42 C 1.499913 2.007613 2.929153 0
M  V30 43 C 5.075497 4.069924 -0.947247 0
M  V30 44 C 5.190923 3.101511 -1.919174 0
M  V30 45 N 5.355121 1.783182 -1.708006 0
M  V30 46 H 5.689818 -2.629448 -0.929908 0
M  V30 47 H 7.116718 -3.610466 -1.301059 0
M  V30 48 H 5.715934 -4.284666 -0.318348 0
M  V30 49 H 8.328156 -1.992292 -0.462925 0
M  V30 50 H 8.403263 -1.576383 1.245231 0
M  V30 51 H 4.900282 -0.816710 0.103487 0
M  V30 52 H 5.359852 1.874858 1.577896 0
M  V30 53 H 5.508180 5.462822 1.326747 0
M  V30 54 H 5.695084 4.081104 2.410620 0
M  V30 55 H 3.148484 5.523065 1.558440 0
M  V30 56 H 3.954354 5.370143 3.107296 0
M  V30 57 H 2.474633 2.943945 -0.055759 0
M  V30 58 H 1.127895 1.096769 -0.772234 0
M  V30 59 H 0.361891 -1.331569 0.604780 0
M  V30 60 H -1.665062 -2.456403 -0.265970 0
M  V30 61 H -4.386611 0.416766 -0.166404 0
M  V30 62 H -8.357222 -1.432547 0.288853 0
M  V30 63 H -8.799502 0.253966 -0.056606 0
M  V30 64 H -7.386522 -0.091799 1.042933 0
M  V30 65 H -5.960125 1.068165 -2.217054 0
M  V30 66 H -7.766042 1.469484 -2.073531 0
M  V30 67 H -6.587267 1.666092 -0.674151 0
M  V30 68 H -8.775793 -1.570656 -1.815055 0
M  V30 69 H -8.122003 -0.389286 -3.037389 0
M  V30 70 H -7.238343 -1.864942 -2.644455 0
M  V30 71 H -2.802184 -3.220324 -3.067956 0
M  V30 72 H -1.751573 -5.328238 -3.609224 0
M  V30 73 H -2.578657 -8.346911 -2.568526 0
M  V30 74 H -1.171814 -7.460492 -3.221553 0
M  V30 75 H -1.157298 -8.052204 -1.510711 0
M  V30 76 H -3.343857 -7.104577 -0.094553 0
M  V30 77 H -4.448531 -4.913957 0.490484 0
M  V30 78 H -0.607002 -0.685967 3.193206 0
M  V30 79 H -0.406606 -0.147850 5.564321 0
M  V30 80 H 1.010503 1.774325 6.305229 0
M  V30 81 H 2.162614 3.068135 4.645576 0
M  V30 82 H 4.944891 5.114677 -1.098649 0
M  V30 83 H 5.141284 3.456689 -2.954610 0
M  V30 END ATOM
M  V30 BEGIN BOND
M  V30 1 1 1 2
M  V30 2 1 2 3
M  V30 3 1 3 4
M  V30 4 2 4 5
M  V30 5 1 4 6
M  V30 6 1 6 7
M  V30 7 2 7 8
M  V30 8 1 8 9
M  V30 9 1 9 10
M  V30 10 1 10 11
M  V30 11 1 11 12
M  V30 12 1 12 13
M  V30 13 2 13 14
M  V30 14 1 14 15
M  V30 15 2 15 16
M  V30 16 1 16 17
M  V30 17 1 17 18
M  V30 18 2 18 19
M  V30 19 1 18 20
M  V30 20 1 20 21
M  V30 21 2 21 22
M  V30 22 1 22 23
M  V30 23 1 23 24
M  V30 24 1 24 25
M  V30 25 1 24 26
M  V30 26 1 24 27
M  V30 27 2 23 28
M  V30 28 1 28 29
M  V30 29 1 29 30
M  V30 30 2 30 31
M  V30 31 1 31 32
M  V30 32 2 32 33
M  V30 33 1 33 34
M  V30 34 1 33 35
M  V30 35 2 35 36
M  V30 36 1 16 37
M  V30 37 2 37 38
M  V30 38 1 38 39
M  V30 39 2 39 40
M  V30 40 1 40 41
M  V30 41 2 41 42
M  V30 42 2 9 43
M  V30 43 1 43 44
M  V30 44 2 44 45
M  V30 45 1 45 7
M  V30 46 1 42 13
M  V30 47 1 29 21
M  V30 48 1 36 30
M  V30 49 1 42 37
M  V30 50 1 1 46
M  V30 51 1 1 47
M  V30 52 1 1 48
M  V30 53 1 3 49
M  V30 54 1 3 50
M  V30 55 1 6 51
M  V30 56 1 8 52
M  V30 57 1 10 53
M  V30 58 1 10 54
M  V30 59 1 11 55
M  V30 60 1 11 56
M  V30 61 1 14 57
M  V30 62 1 15 58
M  V30 63 1 17 59
M  V30 64 1 20 60
M  V30 65 1 22 61
M  V30 66 1 25 62
M  V30 67 1 25 63
M  V30 68 1 25 64
M  V30 69 1 26 65
M  V30 70 1 26 66
M  V30 71 1 26 67
M  V30 72 1 27 68
M  V30 73 1 27 69
M  V30 74 1 27 70
M  V30 75 1 31 71
M  V30 76 1 32 72
M  V30 77 1 34 73
M  V30 78 1 34 74
M  V30 79 1 34 75
M  V30 80 1 35 76
M  V30 81 1 36 77
M  V30 82 1 38 78
M  V30 83 1 39 79
M  V30 84 1 40 80
M  V30 85 1 41 81
M  V30 86 1 43 82
M  V30 87 1 44 83
M  V30 END BOND
M  V30 END CTAB
M  END
>  <Dataset>  (893) 
ChEMBL_Kinases

>  <Ligand_Instance>  (893) 
nan

>  <PDB_ID>  (893) 
nan

>  <Standardized_SMILES>  (893) 
COCC(=O)Nc1cc(CCOc2ccc(NC(=O)Nc3cc(C(C)(C)C)nn3-c3ccc(C)cc3)c3ccccc23)ccn1

>  <Name>  (893) 
nan

>  <Pocket>  (893) 
nan

>  <ATP_Site>  (893) 
nan

>  <Peripheral>  (893) 
nan

>  <Num_H_Atoms_ProtBoundConf>  (893) 
nan

>  <Num_Resolved_Atoms>  (893) 
nan

>  <Num_Not_Resolved_Atoms>  (893) 
nan

$$$$
CHEMBL3780386
     RDKit          3D

  0  0  0  0  0  0  0  0  0  0999 V3000
M  V30 BEGIN CTAB
M  V30 COUNTS 83 87 0 0 0
M  V30 BEGIN ATOM
M  V30 1 C 5.973022 -3.960067 -0.073816 0
M  V30 2 O 5.732645 -2.598445 -0.162846 0
M  V30 3 C 6.939517 -1.883648 -0.307848 0
M  V30 4 C 6.579611 -0.446184 -0.397176 0
M  V30 5 O 5.304315 -0.379781 -0.325381 0
M  V30 6 N 7.287148 0.765882 -0.533406 0
M  V30 7 C 8.718958 0.817499 -0.614323 0
M  V30 8 C 6.160532 1.632175 -0.542560 0
M  V30 9 C 5.584276 2.187712 0.586619 0
M  V30 10 C 4.472235 3.038119 0.513543 0
M  V30 11 C 4.088078 3.486008 1.872113 0
M  V30 12 O 3.292221 2.564629 2.488113 0
M  V30 13 C 2.103297 1.997768 2.282382 0
M  V30 14 C 1.171919 2.163823 1.283297 0
M  V30 15 C -0.006129 1.455995 1.279377 0
M  V30 16 C -0.324983 0.553605 2.254473 0
M  V30 17 N -1.535989 -0.170584 2.233614 0
M  V30 18 C -2.564196 -0.138417 1.289441 0
M  V30 19 O -2.496472 0.606914 0.281589 0
M  V30 20 N -3.780364 -0.875795 1.281517 0
M  V30 21 C -4.772886 -0.779743 0.268535 0
M  V30 22 C -5.912272 -0.076650 -0.066413 0
M  V30 23 C -6.362443 -0.574190 -1.281249 0
M  V30 24 C -7.591987 0.027461 -1.860052 0
M  V30 25 C -7.902017 -0.663330 -3.192628 0
M  V30 26 C -7.393466 1.496381 -2.187021 0
M  V30 27 C -8.762837 -0.084350 -0.923154 0
M  V30 28 N -5.513053 -1.544209 -1.653736 0
M  V30 29 N -4.551731 -1.671023 -0.720003 0
M  V30 30 C -3.613431 -2.703213 -1.076542 0
M  V30 31 C -3.677814 -3.960016 -0.457643 0
M  V30 32 C -2.768395 -4.963752 -0.801973 0
M  V30 33 C -1.808113 -4.702727 -1.756798 0
M  V30 34 C -0.878587 -5.798862 -2.076794 0
M  V30 35 C -1.714072 -3.461114 -2.394977 0
M  V30 36 C -2.635923 -2.478479 -2.030407 0
M  V30 37 C 0.572238 0.354938 3.270963 0
M  V30 38 C 0.307559 -0.545534 4.289701 0
M  V30 39 C 1.176374 -0.776373 5.328091 0
M  V30 40 C 2.365037 -0.085437 5.364442 0
M  V30 41 C 2.617199 0.795941 4.361331 0
M  V30 42 C 1.777419 1.071577 3.285009 0
M  V30 43 C 3.978016 3.296862 -0.740299 0
M  V30 44 C 4.555202 2.741606 -1.859853 0
M  V30 45 N 5.636067 1.916305 -1.769204 0
M  V30 46 H 5.013216 -4.535403 0.047048 0
M  V30 47 H 6.624683 -4.185441 0.789356 0
M  V30 48 H 6.406536 -4.358751 -1.026385 0
M  V30 49 H 7.482493 -2.236637 -1.208842 0
M  V30 50 H 7.598199 -2.072192 0.553354 0
M  V30 51 H 9.167140 0.193751 0.179458 0
M  V30 52 H 9.069943 0.445884 -1.612061 0
M  V30 53 H 9.101505 1.853552 -0.498441 0
M  V30 54 H 6.114641 1.867282 1.486789 0
M  V30 55 H 3.481447 4.432539 1.694923 0
M  V30 56 H 4.979463 3.780441 2.471689 0
M  V30 57 H 1.448920 2.881804 0.539239 0
M  V30 58 H -0.598991 1.707835 0.444363 0
M  V30 59 H -1.824960 -0.853605 2.961933 0
M  V30 60 H -3.910034 -1.519863 2.091092 0
M  V30 61 H -6.190968 0.677088 0.664654 0
M  V30 62 H -8.027012 -1.742060 -3.010339 0
M  V30 63 H -6.952897 -0.559254 -3.776792 0
M  V30 64 H -8.757122 -0.165153 -3.647861 0
M  V30 65 H -8.046123 1.758701 -3.034936 0
M  V30 66 H -6.318656 1.664090 -2.456043 0
M  V30 67 H -7.602420 2.154634 -1.330297 0
M  V30 68 H -8.404254 0.051640 0.108087 0
M  V30 69 H -9.306144 -1.060810 -1.059298 0
M  V30 70 H -9.443900 0.764057 -1.131359 0
M  V30 71 H -4.471687 -4.081045 0.289465 0
M  V30 72 H -2.852333 -5.917799 -0.301971 0
M  V30 73 H -1.421479 -6.742515 -2.287248 0
M  V30 74 H -0.155486 -5.577569 -2.878183 0
M  V30 75 H -0.256685 -5.963474 -1.158323 0
M  V30 76 H -0.947421 -3.281574 -3.143932 0
M  V30 77 H -2.609020 -1.517663 -2.484532 0
M  V30 78 H -0.579005 -1.140662 4.371673 0
M  V30 79 H 1.000568 -1.475379 6.141880 0
M  V30 80 H 3.073626 -0.238407 6.161636 0
M  V30 81 H 3.570110 1.326547 4.422757 0
M  V30 82 H 3.139806 3.958006 -0.699452 0
M  V30 83 H 4.055034 3.039462 -2.771748 0
M  V30 END ATOM
M  V30 BEGIN BOND
M  V30 1 1 1 2
M  V30 2 1 2 3
M  V30 3 1 3 4
M  V30 4 2 4 5
M  V30 5 1 4 6
M  V30 6 1 6 7
M  V30 7 1 6 8
M  V30 8 2 8 9
M  V30 9 1 9 10
M  V30 10 1 10 11
M  V30 11 1 11 12
M  V30 12 1 12 13
M  V30 13 2 13 14
M  V30 14 1 14 15
M  V30 15 2 15 16
M  V30 16 1 16 17
M  V30 17 1 17 18
M  V30 18 2 18 19
M  V30 19 1 18 20
M  V30 20 1 20 21
M  V30 21 2 21 22
M  V30 22 1 22 23
M  V30 23 1 23 24
M  V30 24 1 24 25
M  V30 25 1 24 26
M  V30 26 1 24 27
M  V30 27 2 23 28
M  V30 28 1 28 29
M  V30 29 1 29 30
M  V30 30 2 30 31
M  V30 31 1 31 32
M  V30 32 2 32 33
M  V30 33 1 33 34
M  V30 34 1 33 35
M  V30 35 2 35 36
M  V30 36 1 16 37
M  V30 37 2 37 38
M  V30 38 1 38 39
M  V30 39 2 39 40
M  V30 40 1 40 41
M  V30 41 2 41 42
M  V30 42 2 10 43
M  V30 43 1 43 44
M  V30 44 2 44 45
M  V30 45 1 45 8
M  V30 46 1 42 13
M  V30 47 1 29 21
M  V30 48 1 36 30
M  V30 49 1 42 37
M  V30 50 1 1 46
M  V30 51 1 1 47
M  V30 52 1 1 48
M  V30 53 1 3 49
M  V30 54 1 3 50
M  V30 55 1 7 51
M  V30 56 1 7 52
M  V30 57 1 7 53
M  V30 58 1 9 54
M  V30 59 1 11 55
M  V30 60 1 11 56
M  V30 61 1 14 57
M  V30 62 1 15 58
M  V30 63 1 17 59
M  V30 64 1 20 60
M  V30 65 1 22 61
M  V30 66 1 25 62
M  V30 67 1 25 63
M  V30 68 1 25 64
M  V30 69 1 26 65
M  V30 70 1 26 66
M  V30 71 1 26 67
M  V30 72 1 27 68
M  V30 73 1 27 69
M  V30 74 1 27 70
M  V30 75 1 31 71
M  V30 76 1 32 72
M  V30 77 1 34 73
M  V30 78 1 34 74
M  V30 79 1 34 75
M  V30 80 1 35 76
M  V30 81 1 36 77
M  V30 82 1 38 78
M  V30 83 1 39 79
M  V30 84 1 40 80
M  V30 85 1 41 81
M  V30 86 1 43 82
M  V30 87 1 44 83
M  V30 END BOND
M  V30 END CTAB
M  END
>  <Dataset>  (894) 
ChEMBL_Kinases

>  <Ligand_Instance>  (894) 
nan

>  <PDB_ID>  (894) 
nan

>  <Standardized_SMILES>  (894) 
COCC(=O)N(C)c1cc(COc2ccc(NC(=O)Nc3cc(C(C)(C)C)nn3-c3ccc(C)cc3)c3ccccc23)ccn1

>  <Name>  (894) 
nan

>  <Pocket>  (894) 
nan

>  <ATP_Site>  (894) 
nan

>  <Peripheral>  (894) 
nan

>  <Num_H_Atoms_ProtBoundConf>  (894) 
nan

>  <Num_Resolved_Atoms>  (894) 
nan

>  <Num_Not_Resolved_Atoms>  (894) 
nan

$$$$
CHEMBL413579
     RDKit          3D

  0  0  0  0  0  0  0  0  0  0999 V3000
M  V30 BEGIN CTAB
M  V30 COUNTS 38 42 0 0 0
M  V30 BEGIN ATOM
M  V30 1 N 4.408561 -5.046786 4.206303 0
M  V30 2 C 4.100770 -4.512188 3.237988 0
M  V30 3 C 3.716489 -3.854257 1.999071 0
M  V30 4 C 4.411099 -4.035148 0.835418 0
M  V30 5 C 4.015686 -3.393610 -0.319665 0
M  V30 6 C 2.905318 -2.581852 -0.224152 0
M  V30 7 C 2.157192 -2.360496 0.938586 0
M  V30 8 C 1.025864 -1.451431 0.816369 0
M  V30 9 C 1.402716 -0.231464 0.239556 0
M  V30 10 C 0.459499 0.760398 0.066244 0
M  V30 11 N 0.554360 2.016868 -0.458093 0
M  V30 12 C -0.683467 2.536194 -0.372732 0
M  V30 13 C -1.054796 3.815091 -0.795657 0
M  V30 14 C -2.350941 4.240420 -0.658839 0
M  V30 15 C -3.274555 3.360782 -0.088960 0
M  V30 16 O -4.583029 3.797988 0.046047 0
M  V30 17 C -2.835309 2.119485 0.302871 0
M  V30 18 C -1.565594 1.643878 0.192366 0
M  V30 19 C -0.836071 0.528011 0.465497 0
M  V30 20 C -1.219523 -0.647909 1.025710 0
M  V30 21 C -0.285604 -1.639556 1.201036 0
M  V30 22 C -0.851804 -2.824496 1.800089 0
M  V30 23 O -0.287355 -3.917852 2.099425 0
M  V30 24 N -2.231493 -2.511173 1.997118 0
M  V30 25 C -2.449088 -1.191882 1.526583 0
M  V30 26 O -3.601646 -0.751274 1.620594 0
M  V30 27 C 2.610984 -3.033534 2.052881 0
M  V30 28 H 5.277779 -4.687859 0.824545 0
M  V30 29 H 4.534879 -3.507112 -1.261936 0
M  V30 30 H 2.609677 -2.082476 -1.154300 0
M  V30 31 H 2.402929 0.011239 -0.094125 0
M  V30 32 H 1.422761 2.457202 -0.839403 0
M  V30 33 H -0.361191 4.500477 -1.233519 0
M  V30 34 H -2.637303 5.221205 -0.982810 0
M  V30 35 H -4.986958 3.980781 0.967222 0
M  V30 36 H -3.605276 1.523225 0.723502 0
M  V30 37 H -2.883619 -3.213245 2.426064 0
M  V30 38 H 2.042778 -2.858774 2.955289 0
M  V30 END ATOM
M  V30 BEGIN BOND
M  V30 1 3 1 2
M  V30 2 1 2 3
M  V30 3 2 3 4
M  V30 4 1 4 5
M  V30 5 2 5 6
M  V30 6 1 6 7
M  V30 7 1 7 8
M  V30 8 2 8 9
M  V30 9 1 9 10
M  V30 10 1 10 11
M  V30 11 1 11 12
M  V30 12 2 12 13
M  V30 13 1 13 14
M  V30 14 2 14 15
M  V30 15 1 15 16
M  V30 16 1 15 17
M  V30 17 2 17 18
M  V30 18 1 18 19
M  V30 19 1 19 20
M  V30 20 2 20 21
M  V30 21 1 21 22
M  V30 22 2 22 23
M  V30 23 1 22 24
M  V30 24 1 24 25
M  V30 25 2 25 26
M  V30 26 2 7 27
M  V30 27 1 27 3
M  V30 28 1 21 8
M  V30 29 2 19 10
M  V30 30 1 25 20
M  V30 31 1 18 12
M  V30 32 1 4 28
M  V30 33 1 5 29
M  V30 34 1 6 30
M  V30 35 1 9 31
M  V30 36 1 11 32
M  V30 37 1 13 33
M  V30 38 1 14 34
M  V30 39 1 16 35
M  V30 40 1 17 36
M  V30 41 1 24 37
M  V30 42 1 27 38
M  V30 END BOND
M  V30 END CTAB
M  END
>  <Dataset>  (895) 
ChEMBL_Kinases

>  <Ligand_Instance>  (895) 
nan

>  <PDB_ID>  (895) 
nan

>  <Standardized_SMILES>  (895) 
N#Cc1cccc(-c2cc3[nH]c4ccc(O)cc4c3c3c2C(=O)NC3=O)c1

>  <Name>  (895) 
nan

>  <Pocket>  (895) 
nan

>  <ATP_Site>  (895) 
nan

>  <Peripheral>  (895) 
nan

>  <Num_H_Atoms_ProtBoundConf>  (895) 
nan

>  <Num_Resolved_Atoms>  (895) 
nan

>  <Num_Not_Resolved_Atoms>  (895) 
nan

$$$$
CHEMBL413552
     RDKit          3D

  0  0  0  0  0  0  0  0  0  0999 V3000
M  V30 BEGIN CTAB
M  V30 COUNTS 33 35 0 0 0
M  V30 BEGIN ATOM
M  V30 1 O -1.996843 -1.844704 3.222141 0
M  V30 2 C -1.425014 -1.269739 2.254902 0
M  V30 3 C -0.188059 -1.671010 1.799853 0
M  V30 4 O 0.367229 -2.724261 2.464568 0
M  V30 5 C 0.490457 -1.092968 0.755861 0
M  V30 6 C 1.787258 -1.469283 0.234635 0
M  V30 7 C 2.635001 -2.467546 0.642340 0
M  V30 8 C 3.848564 -2.765783 0.100960 0
M  V30 9 C 4.306575 -2.022330 -0.955001 0
M  V30 10 O 5.536826 -2.306953 -1.521460 0
M  V30 11 C 3.509109 -1.000324 -1.421046 0
M  V30 12 O 3.941717 -0.227288 -2.488893 0
M  V30 13 C 2.291811 -0.750932 -0.828486 0
M  V30 14 O -0.156458 -0.092077 0.206559 0
M  V30 15 C -1.328418 0.324383 0.601595 0
M  V30 16 C -1.852412 1.403077 -0.110047 0
M  V30 17 C -3.093204 1.875214 0.277122 0
M  V30 18 O -3.623050 2.960247 -0.436788 0
M  V30 19 C -3.826516 1.337005 1.319319 0
M  V30 20 O -5.070434 1.840826 1.677112 0
M  V30 21 C -3.292270 0.270680 2.011569 0
M  V30 22 O -3.948717 -0.344465 3.077242 0
M  V30 23 C -2.057349 -0.211557 1.638507 0
M  V30 24 H 0.480078 -2.780122 3.467403 0
M  V30 25 H 2.320283 -3.079461 1.468461 0
M  V30 26 H 4.450143 -3.573723 0.489313 0
M  V30 27 H 5.768385 -3.115336 -2.053740 0
M  V30 28 H 4.393084 0.669373 -2.300584 0
M  V30 29 H 1.716311 0.083059 -1.260749 0
M  V30 30 H -1.314617 1.859943 -0.936238 0
M  V30 31 H -4.020572 2.720121 -1.339283 0
M  V30 32 H -5.936332 1.372952 1.429660 0
M  V30 33 H -4.771590 -0.889089 2.948303 0
M  V30 END ATOM
M  V30 BEGIN BOND
M  V30 1 2 1 2
M  V30 2 1 2 3
M  V30 3 1 3 4
M  V30 4 2 3 5
M  V30 5 1 5 6
M  V30 6 2 6 7
M  V30 7 1 7 8
M  V30 8 2 8 9
M  V30 9 1 9 10
M  V30 10 1 9 11
M  V30 11 1 11 12
M  V30 12 2 11 13
M  V30 13 1 5 14
M  V30 14 1 14 15
M  V30 15 2 15 16
M  V30 16 1 16 17
M  V30 17 1 17 18
M  V30 18 2 17 19
M  V30 19 1 19 20
M  V30 20 1 19 21
M  V30 21 1 21 22
M  V30 22 2 21 23
M  V30 23 1 23 2
M  V30 24 1 13 6
M  V30 25 1 23 15
M  V30 26 1 4 24
M  V30 27 1 7 25
M  V30 28 1 8 26
M  V30 29 1 10 27
M  V30 30 1 12 28
M  V30 31 1 13 29
M  V30 32 1 16 30
M  V30 33 1 18 31
M  V30 34 1 20 32
M  V30 35 1 22 33
M  V30 END BOND
M  V30 END CTAB
M  END
>  <Dataset>  (896) 
ChEMBL_Kinases

>  <Ligand_Instance>  (896) 
nan

>  <PDB_ID>  (896) 
nan

>  <Standardized_SMILES>  (896) 
O=c1c(O)c(-c2ccc(O)c(O)c2)oc2cc(O)c(O)c(O)c12

>  <Name>  (896) 
QUERCETAGETIN

>  <Pocket>  (896) 
nan

>  <ATP_Site>  (896) 
nan

>  <Peripheral>  (896) 
nan

>  <Num_H_Atoms_ProtBoundConf>  (896) 
nan

>  <Num_Resolved_Atoms>  (896) 
nan

>  <Num_Not_Resolved_Atoms>  (896) 
nan

$$$$
CHEMBL3780488
     RDKit          3D

  0  0  0  0  0  0  0  0  0  0999 V3000
M  V30 BEGIN CTAB
M  V30 COUNTS 79 83 0 0 0
M  V30 BEGIN ATOM
M  V30 1 C 1.984035 -2.025796 3.135038 0
M  V30 2 C 3.367380 -2.563338 3.183589 0
M  V30 3 O 3.914073 -2.404545 4.303908 0
M  V30 4 N 4.075539 -3.200736 2.133454 0
M  V30 5 C 5.364044 -3.730561 2.096610 0
M  V30 6 C 6.189617 -3.854049 3.187135 0
M  V30 7 N 7.432347 -4.395071 3.161299 0
M  V30 8 C 7.907113 -4.849842 1.986196 0
M  V30 9 C 7.076022 -4.722702 0.894425 0
M  V30 10 C 5.781630 -4.169520 0.866696 0
M  V30 11 C 5.183846 -4.110434 -0.479839 0
M  V30 12 C 5.452742 -2.830576 -1.181313 0
M  V30 13 O 4.992148 -1.642118 -0.700573 0
M  V30 14 C 3.740600 -1.128768 -0.523317 0
M  V30 15 C 2.493731 -1.691085 -0.810872 0
M  V30 16 C 1.347522 -0.976183 -0.546417 0
M  V30 17 C 1.330069 0.275896 -0.009562 0
M  V30 18 N 0.146364 0.980196 0.253303 0
M  V30 19 C -1.184638 0.546183 0.034542 0
M  V30 20 O -1.434774 -0.558880 -0.436820 0
M  V30 21 N -2.366958 1.254689 0.300403 0
M  V30 22 C -3.685332 0.785052 0.069117 0
M  V30 23 C -4.243297 0.091963 1.154081 0
M  V30 24 C -5.527382 -0.289125 0.748694 0
M  V30 25 C -6.545273 -1.049118 1.517790 0
M  V30 26 C -7.392247 -0.077561 2.274253 0
M  V30 27 C -7.390557 -1.845792 0.529729 0
M  V30 28 C -5.874020 -2.059880 2.442584 0
M  V30 29 N -5.704263 0.158522 -0.503290 0
M  V30 30 N -4.615031 0.792557 -0.902167 0
M  V30 31 C -4.295504 1.433038 -2.104198 0
M  V30 32 C -4.329373 2.797165 -2.302718 0
M  V30 33 C -4.026196 3.463333 -3.466357 0
M  V30 34 C -3.651910 2.671035 -4.534285 0
M  V30 35 C -3.301080 3.265524 -5.845838 0
M  V30 36 C -3.597774 1.288587 -4.399056 0
M  V30 37 C -3.913537 0.654828 -3.200557 0
M  V30 38 C 2.544188 0.849754 0.281458 0
M  V30 39 C 2.643637 2.119590 0.830472 0
M  V30 40 C 3.815764 2.735067 1.137900 0
M  V30 41 C 4.991035 2.073193 0.896989 0
M  V30 42 C 4.923115 0.808964 0.351983 0
M  V30 43 C 3.735791 0.160749 0.029782 0
M  V30 44 H 1.944448 -1.007096 2.699242 0
M  V30 45 H 1.468143 -2.115324 4.087717 0
M  V30 46 H 1.406006 -2.681360 2.419995 0
M  V30 47 H 3.427782 -3.248292 1.321513 0
M  V30 48 H 5.889558 -3.518105 4.164344 0
M  V30 49 H 8.888886 -5.285764 1.933174 0
M  V30 50 H 7.539023 -5.117790 -0.022478 0
M  V30 51 H 4.088411 -4.309697 -0.465906 0
M  V30 52 H 5.605685 -4.936996 -1.086352 0
M  V30 53 H 5.025779 -2.983373 -2.237652 0
M  V30 54 H 6.564497 -2.759594 -1.433985 0
M  V30 55 H 2.560140 -2.663796 -1.229177 0
M  V30 56 H 0.502670 -1.541578 -0.821357 0
M  V30 57 H 0.096513 1.938497 0.653566 0
M  V30 58 H -2.255680 2.210538 0.705313 0
M  V30 59 H -3.902573 -0.184795 2.164866 0
M  V30 60 H -8.414073 -0.480009 2.430854 0
M  V30 61 H -6.866328 0.093923 3.256309 0
M  V30 62 H -7.366138 0.894892 1.752994 0
M  V30 63 H -8.285059 -2.283955 0.994270 0
M  V30 64 H -6.783106 -2.677498 0.107760 0
M  V30 65 H -7.615875 -1.166680 -0.304712 0
M  V30 66 H -6.621640 -2.589003 3.054896 0
M  V30 67 H -5.144030 -1.596365 3.117287 0
M  V30 68 H -5.335978 -2.810776 1.853615 0
M  V30 69 H -4.627997 3.420280 -1.446802 0
M  V30 70 H -4.077527 4.540976 -3.539805 0
M  V30 71 H -3.827130 2.742477 -6.684842 0
M  V30 72 H -2.221969 3.240741 -5.988279 0
M  V30 73 H -3.662144 4.328602 -5.897215 0
M  V30 74 H -3.297026 0.678548 -5.263864 0
M  V30 75 H -3.847160 -0.434312 -3.173203 0
M  V30 76 H 1.787758 2.734942 1.062924 0
M  V30 77 H 3.906010 3.731615 1.568637 0
M  V30 78 H 5.946191 2.512437 1.119857 0
M  V30 79 H 5.871177 0.317207 0.176047 0
M  V30 END ATOM
M  V30 BEGIN BOND
M  V30 1 1 1 2
M  V30 2 2 2 3
M  V30 3 1 2 4
M  V30 4 1 4 5
M  V30 5 2 5 6
M  V30 6 1 6 7
M  V30 7 2 7 8
M  V30 8 1 8 9
M  V30 9 2 9 10
M  V30 10 1 10 11
M  V30 11 1 11 12
M  V30 12 1 12 13
M  V30 13 1 13 14
M  V30 14 2 14 15
M  V30 15 1 15 16
M  V30 16 2 16 17
M  V30 17 1 17 18
M  V30 18 1 18 19
M  V30 19 2 19 20
M  V30 20 1 19 21
M  V30 21 1 21 22
M  V30 22 2 22 23
M  V30 23 1 23 24
M  V30 24 1 24 25
M  V30 25 1 25 26
M  V30 26 1 25 27
M  V30 27 1 25 28
M  V30 28 2 24 29
M  V30 29 1 29 30
M  V30 30 1 30 31
M  V30 31 2 31 32
M  V30 32 1 32 33
M  V30 33 2 33 34
M  V30 34 1 34 35
M  V30 35 1 34 36
M  V30 36 2 36 37
M  V30 37 1 17 38
M  V30 38 2 38 39
M  V30 39 1 39 40
M  V30 40 2 40 41
M  V30 41 1 41 42
M  V30 42 2 42 43
M  V30 43 1 10 5
M  V30 44 1 43 14
M  V30 45 1 30 22
M  V30 46 1 37 31
M  V30 47 1 43 38
M  V30 48 1 1 44
M  V30 49 1 1 45
M  V30 50 1 1 46
M  V30 51 1 4 47
M  V30 52 1 6 48
M  V30 53 1 8 49
M  V30 54 1 9 50
M  V30 55 1 11 51
M  V30 56 1 11 52
M  V30 57 1 12 53
M  V30 58 1 12 54
M  V30 59 1 15 55
M  V30 60 1 16 56
M  V30 61 1 18 57
M  V30 62 1 21 58
M  V30 63 1 23 59
M  V30 64 1 26 60
M  V30 65 1 26 61
M  V30 66 1 26 62
M  V30 67 1 27 63
M  V30 68 1 27 64
M  V30 69 1 27 65
M  V30 70 1 28 66
M  V30 71 1 28 67
M  V30 72 1 28 68
M  V30 73 1 32 69
M  V30 74 1 33 70
M  V30 75 1 35 71
M  V30 76 1 35 72
M  V30 77 1 35 73
M  V30 78 1 36 74
M  V30 79 1 37 75
M  V30 80 1 39 76
M  V30 81 1 40 77
M  V30 82 1 41 78
M  V30 83 1 42 79
M  V30 END BOND
M  V30 END CTAB
M  END
>  <Dataset>  (897) 
ChEMBL_Kinases

>  <Ligand_Instance>  (897) 
nan

>  <PDB_ID>  (897) 
nan

>  <Standardized_SMILES>  (897) 
CC(=O)Nc1cnccc1CCOc1ccc(NC(=O)Nc2cc(C(C)(C)C)nn2-c2ccc(C)cc2)c2ccccc12

>  <Name>  (897) 
nan

>  <Pocket>  (897) 
nan

>  <ATP_Site>  (897) 
nan

>  <Peripheral>  (897) 
nan

>  <Num_H_Atoms_ProtBoundConf>  (897) 
nan

>  <Num_Resolved_Atoms>  (897) 
nan

>  <Num_Not_Resolved_Atoms>  (897) 
nan

$$$$
CHEMBL3780519
     RDKit          3D

  0  0  0  0  0  0  0  0  0  0999 V3000
M  V30 BEGIN CTAB
M  V30 COUNTS 83 88 0 0 0
M  V30 BEGIN ATOM
M  V30 1 C 3.566106 -3.046268 3.730081 0
M  V30 2 C 3.490874 -1.730426 3.067101 0
M  V30 3 C 3.944228 -0.554898 3.671656 0
M  V30 4 C 3.876990 0.682773 3.058299 0
M  V30 5 C 3.331834 0.753496 1.780439 0
M  V30 6 N 3.249407 2.017470 1.126611 0
M  V30 7 N 4.161566 2.287126 0.185472 0
M  V30 8 C 3.927477 3.528385 -0.324042 0
M  V30 9 C 4.684170 4.230813 -1.382576 0
M  V30 10 C 4.049268 5.583362 -1.613251 0
M  V30 11 C 6.150040 4.378058 -1.033499 0
M  V30 12 C 4.504071 3.445860 -2.672653 0
M  V30 13 C 2.826409 4.004121 0.353232 0
M  V30 14 C 2.389870 3.070282 1.264849 0
M  V30 15 N 1.365267 2.904514 2.236434 0
M  V30 16 C 0.159273 2.311519 1.776603 0
M  V30 17 O 0.036893 1.970947 0.551095 0
M  V30 18 N -1.025618 2.018217 2.539419 0
M  V30 19 C -2.120363 1.411286 1.827301 0
M  V30 20 C -2.096751 0.033301 1.780995 0
M  V30 21 C -3.123602 -0.587291 1.110813 0
M  V30 22 C -4.174982 0.031106 0.479611 0
M  V30 23 O -5.261629 -0.393906 -0.219472 0
M  V30 24 C -5.712925 -1.641811 -0.562464 0
M  V30 25 C -4.847038 -2.483068 -1.393849 0
M  V30 26 C -5.011571 -2.211092 -2.752890 0
M  V30 27 C -4.327605 -2.866024 -3.750266 0
M  V30 28 N -3.441414 -3.830392 -3.419648 0
M  V30 29 C -3.261347 -4.116451 -2.100495 0
M  V30 30 N -2.337999 -5.129864 -1.716845 0
M  V30 31 C -2.382588 -6.529783 -1.468149 0
M  V30 32 O -3.512915 -7.071693 -1.608438 0
M  V30 33 C -1.141934 -7.184770 -1.083433 0
M  V30 34 C 0.121876 -6.640394 -0.931360 0
M  V30 35 C 1.181334 -7.439847 -0.554217 0
M  V30 36 C 1.062127 -8.791966 -0.310067 0
M  V30 37 C -0.206963 -9.304903 -0.468936 0
M  V30 38 C -1.294924 -8.548538 -0.843366 0
M  V30 39 C -3.936281 -3.472722 -1.083718 0
M  V30 40 C -4.160192 1.433209 0.551342 0
M  V30 41 C -5.121533 2.272031 -0.010694 0
M  V30 42 C -5.078078 3.643313 0.079957 0
M  V30 43 C -4.037036 4.240012 0.758021 0
M  V30 44 C -3.048175 3.477599 1.340611 0
M  V30 45 C -3.143926 2.108197 1.217548 0
M  V30 46 C 2.889668 -0.416903 1.199530 0
M  V30 47 C 2.953613 -1.650553 1.803795 0
M  V30 48 H 2.752977 -3.707070 3.368045 0
M  V30 49 H 3.435982 -2.969150 4.839798 0
M  V30 50 H 4.510701 -3.581099 3.464654 0
M  V30 51 H 4.362132 -0.637066 4.664252 0
M  V30 52 H 4.223256 1.597999 3.516676 0
M  V30 53 H 4.363861 6.016370 -2.593597 0
M  V30 54 H 4.315362 6.261393 -0.763706 0
M  V30 55 H 2.932098 5.460943 -1.574523 0
M  V30 56 H 6.826479 3.919717 -1.761302 0
M  V30 57 H 6.277446 3.952602 -0.011192 0
M  V30 58 H 6.376643 5.464773 -0.969891 0
M  V30 59 H 4.497718 2.348098 -2.516421 0
M  V30 60 H 5.286830 3.691113 -3.431776 0
M  V30 61 H 3.493397 3.692771 -3.056826 0
M  V30 62 H 2.286473 4.934064 0.285918 0
M  V30 63 H 1.345692 3.142951 3.261027 0
M  V30 64 H -0.951203 2.289538 3.565849 0
M  V30 65 H -1.353417 -0.621126 2.216777 0
M  V30 66 H -3.183033 -1.658926 1.030243 0
M  V30 67 H -6.736482 -1.511088 -1.019453 0
M  V30 68 H -5.962390 -2.174009 0.410206 0
M  V30 69 H -5.689017 -1.462026 -3.173459 0
M  V30 70 H -4.434201 -2.676372 -4.809414 0
M  V30 71 H -1.485578 -4.511374 -1.650913 0
M  V30 72 H 0.164289 -5.579567 -1.132562 0
M  V30 73 H 2.108329 -6.871578 -0.476083 0
M  V30 74 H 1.940810 -9.348692 -0.019376 0
M  V30 75 H -0.302410 -10.378188 -0.275289 0
M  V30 76 H -2.240151 -9.091921 -0.929533 0
M  V30 77 H -3.854425 -3.645233 -0.038359 0
M  V30 78 H -5.931747 1.800576 -0.538237 0
M  V30 79 H -5.853153 4.214618 -0.377781 0
M  V30 80 H -3.982736 5.320334 0.841819 0
M  V30 81 H -2.247748 3.963381 1.862805 0
M  V30 82 H 2.473194 -0.301006 0.198748 0
M  V30 83 H 2.595503 -2.557852 1.315790 0
M  V30 END ATOM
M  V30 BEGIN BOND
M  V30 1 1 1 2
M  V30 2 2 2 3
M  V30 3 1 3 4
M  V30 4 2 4 5
M  V30 5 1 5 6
M  V30 6 1 6 7
M  V30 7 2 7 8
M  V30 8 1 8 9
M  V30 9 1 9 10
M  V30 10 1 9 11
M  V30 11 1 9 12
M  V30 12 1 8 13
M  V30 13 2 13 14
M  V30 14 1 14 15
M  V30 15 1 15 16
M  V30 16 2 16 17
M  V30 17 1 16 18
M  V30 18 1 18 19
M  V30 19 2 19 20
M  V30 20 1 20 21
M  V30 21 2 21 22
M  V30 22 1 22 23
M  V30 23 1 23 24
M  V30 24 1 24 25
M  V30 25 2 25 26
M  V30 26 1 26 27
M  V30 27 2 27 28
M  V30 28 1 28 29
M  V30 29 1 29 30
M  V30 30 1 30 31
M  V30 31 2 31 32
M  V30 32 1 31 33
M  V30 33 2 33 34
M  V30 34 1 34 35
M  V30 35 2 35 36
M  V30 36 1 36 37
M  V30 37 2 37 38
M  V30 38 2 29 39
M  V30 39 1 22 40
M  V30 40 2 40 41
M  V30 41 1 41 42
M  V30 42 2 42 43
M  V30 43 1 43 44
M  V30 44 2 44 45
M  V30 45 1 5 46
M  V30 46 2 46 47
M  V30 47 1 47 2
M  V30 48 1 14 6
M  V30 49 1 45 19
M  V30 50 1 39 25
M  V30 51 1 45 40
M  V30 52 1 38 33
M  V30 53 1 1 48
M  V30 54 1 1 49
M  V30 55 1 1 50
M  V30 56 1 3 51
M  V30 57 1 4 52
M  V30 58 1 10 53
M  V30 59 1 10 54
M  V30 60 1 10 55
M  V30 61 1 11 56
M  V30 62 1 11 57
M  V30 63 1 11 58
M  V30 64 1 12 59
M  V30 65 1 12 60
M  V30 66 1 12 61
M  V30 67 1 13 62
M  V30 68 1 15 63
M  V30 69 1 18 64
M  V30 70 1 20 65
M  V30 71 1 21 66
M  V30 72 1 24 67
M  V30 73 1 24 68
M  V30 74 1 26 69
M  V30 75 1 27 70
M  V30 76 1 30 71
M  V30 77 1 34 72
M  V30 78 1 35 73
M  V30 79 1 36 74
M  V30 80 1 37 75
M  V30 81 1 38 76
M  V30 82 1 39 77
M  V30 83 1 41 78
M  V30 84 1 42 79
M  V30 85 1 43 80
M  V30 86 1 44 81
M  V30 87 1 46 82
M  V30 88 1 47 83
M  V30 END BOND
M  V30 END CTAB
M  END
>  <Dataset>  (898) 
ChEMBL_Kinases

>  <Ligand_Instance>  (898) 
nan

>  <PDB_ID>  (898) 
nan

>  <Standardized_SMILES>  (898) 
Cc1ccc(-n2nc(C(C)(C)C)cc2NC(=O)Nc2ccc(OCc3ccnc(NC(=O)c4ccccc4)c3)c3ccccc23)cc1

>  <Name>  (898) 
nan

>  <Pocket>  (898) 
nan

>  <ATP_Site>  (898) 
nan

>  <Peripheral>  (898) 
nan

>  <Num_H_Atoms_ProtBoundConf>  (898) 
nan

>  <Num_Resolved_Atoms>  (898) 
nan

>  <Num_Not_Resolved_Atoms>  (898) 
nan

$$$$
CHEMBL378066
     RDKit          3D

  0  0  0  0  0  0  0  0  0  0999 V3000
M  V30 BEGIN CTAB
M  V30 COUNTS 39 43 0 0 0
M  V30 BEGIN ATOM
M  V30 1 N -0.354812 -6.901341 2.297310 0
M  V30 2 C -0.140360 -5.525651 2.024548 0
M  V30 3 C 0.982954 -4.914834 2.522251 0
M  V30 4 C 1.122428 -3.576584 2.215247 0
M  V30 5 C 0.177713 -2.916844 1.453861 0
M  V30 6 C 0.239857 -1.506097 1.078927 0
M  V30 7 C 0.882875 -1.204095 -0.105411 0
M  V30 8 C 0.966741 0.116153 -0.501439 0
M  V30 9 N 1.527328 0.676593 -1.590032 0
M  V30 10 C 1.317040 2.021235 -1.474944 0
M  V30 11 C 1.726967 3.007252 -2.379657 0
M  V30 12 C 1.444083 4.356709 -2.138203 0
M  V30 13 C 0.748648 4.660025 -0.976097 0
M  V30 14 O 0.467561 5.997054 -0.735442 0
M  V30 15 C 0.377156 3.639110 -0.132194 0
M  V30 16 C 0.627166 2.315318 -0.320849 0
M  V30 17 C 0.416991 1.110747 0.274856 0
M  V30 18 C -0.215118 0.808978 1.440037 0
M  V30 19 C -0.310845 -0.496827 1.854133 0
M  V30 20 C -1.016179 -0.652752 3.120184 0
M  V30 21 O -1.255219 -1.717506 3.740111 0
M  V30 22 N -1.361427 0.703297 3.469753 0
M  V30 23 C -0.876242 1.565628 2.456462 0
M  V30 24 O -1.106912 2.767424 2.634237 0
M  V30 25 C -0.954092 -3.578786 0.965987 0
M  V30 26 Br -2.282149 -2.704085 -0.088921 0
M  V30 27 C -1.118946 -4.936311 1.263344 0
M  V30 28 H -0.999893 -7.532568 1.779134 0
M  V30 29 H -0.015035 -7.620137 2.971525 0
M  V30 30 H 1.721363 -5.434958 3.118665 0
M  V30 31 H 1.976180 -2.998446 2.560250 0
M  V30 32 H 1.319127 -1.968626 -0.726109 0
M  V30 33 H 2.016573 0.152039 -2.348893 0
M  V30 34 H 2.262532 2.738907 -3.268057 0
M  V30 35 H 1.782812 5.056034 -2.864005 0
M  V30 36 H 0.511207 6.445492 0.166831 0
M  V30 37 H -0.147724 3.972867 0.725160 0
M  V30 38 H -1.894122 0.870138 4.372258 0
M  V30 39 H -1.979262 -5.435358 0.891294 0
M  V30 END ATOM
M  V30 BEGIN BOND
M  V30 1 1 1 2
M  V30 2 2 2 3
M  V30 3 1 3 4
M  V30 4 2 4 5
M  V30 5 1 5 6
M  V30 6 2 6 7
M  V30 7 1 7 8
M  V30 8 1 8 9
M  V30 9 1 9 10
M  V30 10 2 10 11
M  V30 11 1 11 12
M  V30 12 2 12 13
M  V30 13 1 13 14
M  V30 14 1 13 15
M  V30 15 2 15 16
M  V30 16 1 16 17
M  V30 17 1 17 18
M  V30 18 2 18 19
M  V30 19 1 19 20
M  V30 20 2 20 21
M  V30 21 1 20 22
M  V30 22 1 22 23
M  V30 23 2 23 24
M  V30 24 1 5 25
M  V30 25 1 25 26
M  V30 26 2 25 27
M  V30 27 1 27 2
M  V30 28 1 19 6
M  V30 29 2 17 8
M  V30 30 1 23 18
M  V30 31 1 16 10
M  V30 32 1 1 28
M  V30 33 1 1 29
M  V30 34 1 3 30
M  V30 35 1 4 31
M  V30 36 1 7 32
M  V30 37 1 9 33
M  V30 38 1 11 34
M  V30 39 1 12 35
M  V30 40 1 14 36
M  V30 41 1 15 37
M  V30 42 1 22 38
M  V30 43 1 27 39
M  V30 END BOND
M  V30 END CTAB
M  END
>  <Dataset>  (899) 
ChEMBL_Kinases

>  <Ligand_Instance>  (899) 
nan

>  <PDB_ID>  (899) 
nan

>  <Standardized_SMILES>  (899) 
Nc1ccc(-c2cc3[nH]c4ccc(O)cc4c3c3c2C(=O)NC3=O)c(Br)c1

>  <Name>  (899) 
nan

>  <Pocket>  (899) 
nan

>  <ATP_Site>  (899) 
nan

>  <Peripheral>  (899) 
nan

>  <Num_H_Atoms_ProtBoundConf>  (899) 
nan

>  <Num_Resolved_Atoms>  (899) 
nan

>  <Num_Not_Resolved_Atoms>  (899) 
nan

$$$$
CHEMBL3780667
     RDKit          3D

  0  0  0  0  0  0  0  0  0  0999 V3000
M  V30 BEGIN CTAB
M  V30 COUNTS 89 94 0 0 0
M  V30 BEGIN ATOM
M  V30 1 C -0.765043 0.943314 5.102912 0
M  V30 2 C -1.760081 1.428406 4.094474 0
M  V30 3 C -1.286616 2.194649 3.051454 0
M  V30 4 C -2.108115 2.711127 2.040747 0
M  V30 5 C -3.448750 2.428429 2.110654 0
M  V30 6 N -4.513187 2.799465 1.243184 0
M  V30 7 N -5.642174 3.452283 1.520994 0
M  V30 8 C -6.385586 3.574378 0.400687 0
M  V30 9 C -7.708329 4.241863 0.286330 0
M  V30 10 C -7.519332 5.728627 0.005568 0
M  V30 11 C -8.472202 3.673599 -0.903374 0
M  V30 12 C -8.581052 4.016881 1.488065 0
M  V30 13 C -5.637324 2.948835 -0.598771 0
M  V30 14 C -4.450697 2.462828 -0.046956 0
M  V30 15 N -3.463926 1.757661 -0.788952 0
M  V30 16 C -3.288564 0.353959 -0.812892 0
M  V30 17 O -4.009435 -0.352847 -0.109548 0
M  V30 18 N -2.248540 0.006443 -1.697817 0
M  V30 19 C -1.759463 -1.329729 -1.943869 0
M  V30 20 C -0.620727 -1.553331 -1.156344 0
M  V30 21 C -0.059026 -2.805274 -1.286034 0
M  V30 22 C -0.494815 -3.827079 -2.089482 0
M  V30 23 O 0.017137 -5.081626 -2.251789 0
M  V30 24 C 1.117166 -5.711096 -1.722990 0
M  V30 25 C 2.441621 -5.130316 -2.035619 0
M  V30 26 C 2.940806 -5.575279 -3.276405 0
M  V30 27 C 4.172622 -5.187341 -3.802361 0
M  V30 28 N 4.925413 -4.324784 -3.058049 0
M  V30 29 C 4.506501 -3.869449 -1.877407 0
M  V30 30 N 5.298876 -2.975585 -1.121737 0
M  V30 31 C 6.274874 -3.116152 -0.107662 0
M  V30 32 O 6.619051 -4.240177 0.332182 0
M  V30 33 C 6.749030 -1.774521 0.275745 0
M  V30 34 N 7.755900 -1.824905 1.318906 0
M  V30 35 C 8.980626 -2.421166 0.867512 0
M  V30 36 C 10.208829 -2.042630 1.606731 0
M  V30 37 O 10.278970 -0.628781 1.595200 0
M  V30 38 C 9.269956 -0.259476 2.512051 0
M  V30 39 C 7.923027 -0.554385 1.967102 0
M  V30 40 C 3.291367 -4.266998 -1.381440 0
M  V30 41 C -1.631457 -3.544440 -2.848005 0
M  V30 42 C -2.250147 -4.428138 -3.739219 0
M  V30 43 C -3.370782 -4.083228 -4.464871 0
M  V30 44 C -3.938211 -2.808010 -4.329201 0
M  V30 45 C -3.363843 -1.925656 -3.472396 0
M  V30 46 C -2.243989 -2.312458 -2.767914 0
M  V30 47 C -3.974616 1.653915 3.152994 0
M  V30 48 C -3.125503 1.157364 4.140723 0
M  V30 49 H -1.251558 0.905341 6.107938 0
M  V30 50 H 0.068217 1.700857 5.164199 0
M  V30 51 H -0.322163 -0.014728 4.801135 0
M  V30 52 H -0.246592 2.464577 2.920379 0
M  V30 53 H -1.838521 3.313224 1.195636 0
M  V30 54 H -6.627761 5.857472 -0.639067 0
M  V30 55 H -7.460823 6.313295 0.943906 0
M  V30 56 H -8.399265 6.056900 -0.579678 0
M  V30 57 H -8.674419 2.613208 -0.694649 0
M  V30 58 H -7.843998 3.774471 -1.828685 0
M  V30 59 H -9.416627 4.222690 -1.035401 0
M  V30 60 H -8.175869 4.674734 2.306322 0
M  V30 61 H -9.630891 4.260841 1.294718 0
M  V30 62 H -8.538195 2.971123 1.827265 0
M  V30 63 H -5.967612 2.870393 -1.647990 0
M  V30 64 H -2.945405 2.500235 -1.308532 0
M  V30 65 H -1.682097 0.637030 -2.301815 0
M  V30 66 H -0.146302 -0.842466 -0.463852 0
M  V30 67 H 0.808578 -3.022444 -0.691048 0
M  V30 68 H 1.172285 -6.800069 -2.010508 0
M  V30 69 H 0.958557 -5.760193 -0.600821 0
M  V30 70 H 2.410116 -6.259516 -3.930782 0
M  V30 71 H 4.535297 -5.539684 -4.756052 0
M  V30 72 H 4.912777 -2.097243 -1.576529 0
M  V30 73 H 5.906243 -1.165400 0.666151 0
M  V30 74 H 7.194100 -1.216123 -0.563294 0
M  V30 75 H 8.866816 -3.538475 0.995341 0
M  V30 76 H 9.176316 -2.299477 -0.217583 0
M  V30 77 H 11.088092 -2.433655 1.075214 0
M  V30 78 H 10.196310 -2.308515 2.677948 0
M  V30 79 H 9.515108 -0.738639 3.467655 0
M  V30 80 H 9.366676 0.845805 2.625294 0
M  V30 81 H 7.667451 0.246539 1.208399 0
M  V30 82 H 7.169757 -0.464573 2.770936 0
M  V30 83 H 2.903827 -3.953709 -0.439568 0
M  V30 84 H -1.789337 -5.411858 -3.827185 0
M  V30 85 H -3.792624 -4.821757 -5.133184 0
M  V30 86 H -4.814786 -2.599906 -4.924431 0
M  V30 87 H -3.827119 -0.958768 -3.394487 0
M  V30 88 H -5.000294 1.360304 3.326627 0
M  V30 89 H -3.393919 0.549639 4.997504 0
M  V30 END ATOM
M  V30 BEGIN BOND
M  V30 1 1 1 2
M  V30 2 2 2 3
M  V30 3 1 3 4
M  V30 4 2 4 5
M  V30 5 1 5 6
M  V30 6 1 6 7
M  V30 7 2 7 8
M  V30 8 1 8 9
M  V30 9 1 9 10
M  V30 10 1 9 11
M  V30 11 1 9 12
M  V30 12 1 8 13
M  V30 13 2 13 14
M  V30 14 1 14 15
M  V30 15 1 15 16
M  V30 16 2 16 17
M  V30 17 1 16 18
M  V30 18 1 18 19
M  V30 19 2 19 20
M  V30 20 1 20 21
M  V30 21 2 21 22
M  V30 22 1 22 23
M  V30 23 1 23 24
M  V30 24 1 24 25
M  V30 25 2 25 26
M  V30 26 1 26 27
M  V30 27 2 27 28
M  V30 28 1 28 29
M  V30 29 1 29 30
M  V30 30 1 30 31
M  V30 31 2 31 32
M  V30 32 1 31 33
M  V30 33 1 33 34
M  V30 34 1 34 35
M  V30 35 1 35 36
M  V30 36 1 36 37
M  V30 37 1 37 38
M  V30 38 1 38 39
M  V30 39 2 29 40
M  V30 40 1 22 41
M  V30 41 2 41 42
M  V30 42 1 42 43
M  V30 43 2 43 44
M  V30 44 1 44 45
M  V30 45 2 45 46
M  V30 46 1 5 47
M  V30 47 2 47 48
M  V30 48 1 48 2
M  V30 49 1 14 6
M  V30 50 1 46 19
M  V30 51 1 40 25
M  V30 52 1 46 41
M  V30 53 1 39 34
M  V30 54 1 1 49
M  V30 55 1 1 50
M  V30 56 1 1 51
M  V30 57 1 3 52
M  V30 58 1 4 53
M  V30 59 1 10 54
M  V30 60 1 10 55
M  V30 61 1 10 56
M  V30 62 1 11 57
M  V30 63 1 11 58
M  V30 64 1 11 59
M  V30 65 1 12 60
M  V30 66 1 12 61
M  V30 67 1 12 62
M  V30 68 1 13 63
M  V30 69 1 15 64
M  V30 70 1 18 65
M  V30 71 1 20 66
M  V30 72 1 21 67
M  V30 73 1 24 68
M  V30 74 1 24 69
M  V30 75 1 26 70
M  V30 76 1 27 71
M  V30 77 1 30 72
M  V30 78 1 33 73
M  V30 79 1 33 74
M  V30 80 1 35 75
M  V30 81 1 35 76
M  V30 82 1 36 77
M  V30 83 1 36 78
M  V30 84 1 38 79
M  V30 85 1 38 80
M  V30 86 1 39 81
M  V30 87 1 39 82
M  V30 88 1 40 83
M  V30 89 1 42 84
M  V30 90 1 43 85
M  V30 91 1 44 86
M  V30 92 1 45 87
M  V30 93 1 47 88
M  V30 94 1 48 89
M  V30 END BOND
M  V30 END CTAB
M  END
>  <Dataset>  (900) 
ChEMBL_Kinases

>  <Ligand_Instance>  (900) 
nan

>  <PDB_ID>  (900) 
nan

>  <Standardized_SMILES>  (900) 
Cc1ccc(-n2nc(C(C)(C)C)cc2NC(=O)Nc2ccc(OCc3ccnc(NC(=O)CN4CCOCC4)c3)c3ccccc23)cc1

>  <Name>  (900) 
nan

>  <Pocket>  (900) 
nan

>  <ATP_Site>  (900) 
nan

>  <Peripheral>  (900) 
nan

>  <Num_H_Atoms_ProtBoundConf>  (900) 
nan

>  <Num_Resolved_Atoms>  (900) 
nan

>  <Num_Not_Resolved_Atoms>  (900) 
nan

$$$$
CHEMBL3758317
     RDKit          3D

  0  0  0  0  0  0  0  0  0  0999 V3000
M  V30 BEGIN CTAB
M  V30 COUNTS 37 39 0 0 0
M  V30 BEGIN ATOM
M  V30 1 C 4.750827 -7.217592 0.075204 0
M  V30 2 O 5.163954 -5.909626 0.430041 0
M  V30 3 C 4.349436 -4.801244 0.250156 0
M  V30 4 C 3.099562 -4.996372 -0.293481 0
M  V30 5 C 2.307527 -3.857369 -0.459493 0
M  V30 6 C 2.760685 -2.600566 -0.094774 0
M  V30 7 C 1.956841 -1.391069 -0.253938 0
M  V30 8 O 2.384243 -0.245884 0.081082 0
M  V30 9 N 0.660184 -1.415124 -0.786928 0
M  V30 10 C -0.069927 -0.106701 -0.901155 0
M  V30 11 N -0.337854 0.811541 -1.481211 0
M  V30 12 C -1.100329 1.835039 -1.178598 0
M  V30 13 C -1.674205 1.821732 0.011996 0
M  V30 14 C -2.596855 2.704392 0.815808 0
M  V30 15 C -2.987988 2.329045 2.079797 0
M  V30 16 C -3.831364 3.212422 2.719542 0
M  V30 17 C -4.169740 4.348211 2.013477 0
M  V30 18 C -5.055988 5.234144 2.739768 0
M  V30 19 O -5.477514 4.996188 3.899778 0
M  V30 20 O -5.849991 6.304562 3.048046 0
M  V30 21 N -3.781971 4.710288 0.772577 0
M  V30 22 N -2.957648 3.825706 0.173367 0
M  V30 23 S -1.072754 0.258554 0.702030 0
M  V30 24 C 4.038322 -2.480047 0.449709 0
M  V30 25 C 4.860540 -3.575899 0.634335 0
M  V30 26 H 4.436703 -7.216830 -0.984234 0
M  V30 27 H 5.648074 -7.879961 0.235191 0
M  V30 28 H 3.926012 -7.597099 0.689309 0
M  V30 29 H 2.727293 -5.968695 -0.584781 0
M  V30 30 H 1.319499 -3.972768 -0.883852 0
M  V30 31 H 0.207008 -2.279473 -1.093532 0
M  V30 32 H -1.286289 2.676651 -1.832458 0
M  V30 33 H -2.631618 1.398367 2.496436 0
M  V30 34 H -4.174402 2.987098 3.699917 0
M  V30 35 H -6.167850 7.043050 2.464733 0
M  V30 36 H 4.374023 -1.469544 0.731002 0
M  V30 37 H 5.851202 -3.471551 1.058102 0
M  V30 END ATOM
M  V30 BEGIN BOND
M  V30 1 1 1 2
M  V30 2 1 2 3
M  V30 3 2 3 4
M  V30 4 1 4 5
M  V30 5 2 5 6
M  V30 6 1 6 7
M  V30 7 2 7 8
M  V30 8 1 7 9
M  V30 9 1 9 10
M  V30 10 2 10 11
M  V30 11 1 11 12
M  V30 12 2 12 13
M  V30 13 1 13 14
M  V30 14 2 14 15
M  V30 15 1 15 16
M  V30 16 2 16 17
M  V30 17 1 17 18
M  V30 18 2 18 19
M  V30 19 1 18 20
M  V30 20 1 17 21
M  V30 21 2 21 22
M  V30 22 1 13 23
M  V30 23 1 6 24
M  V30 24 2 24 25
M  V30 25 1 25 3
M  V30 26 1 23 10
M  V30 27 1 22 14
M  V30 28 1 1 26
M  V30 29 1 1 27
M  V30 30 1 1 28
M  V30 31 1 4 29
M  V30 32 1 5 30
M  V30 33 1 9 31
M  V30 34 1 12 32
M  V30 35 1 15 33
M  V30 36 1 16 34
M  V30 37 1 20 35
M  V30 38 1 24 36
M  V30 39 1 25 37
M  V30 END BOND
M  V30 END CTAB
M  END
>  <Dataset>  (901) 
ChEMBL_Kinases

>  <Ligand_Instance>  (901) 
nan

>  <PDB_ID>  (901) 
nan

>  <Standardized_SMILES>  (901) 
COc1ccc(C(=O)Nc2ncc(-c3ccc(C(=O)O)nn3)s2)cc1

>  <Name>  (901) 
nan

>  <Pocket>  (901) 
nan

>  <ATP_Site>  (901) 
nan

>  <Peripheral>  (901) 
nan

>  <Num_H_Atoms_ProtBoundConf>  (901) 
nan

>  <Num_Resolved_Atoms>  (901) 
nan

>  <Num_Not_Resolved_Atoms>  (901) 
nan

$$$$
CHEMBL3672512
     RDKit          3D

  0  0  0  0  0  0  0  0  0  0999 V3000
M  V30 BEGIN CTAB
M  V30 COUNTS 59 63 0 0 0
M  V30 BEGIN ATOM
M  V30 1 C 7.826671 -1.251607 0.039499 0
M  V30 2 O 6.734375 -0.422242 0.446652 0
M  V30 3 C 5.433640 -0.837136 0.265813 0
M  V30 4 O 5.358468 -1.984308 -0.277742 0
M  V30 5 C 4.245205 -0.088148 0.635989 0
M  V30 6 C 4.318488 1.100003 1.199025 0
M  V30 7 C 3.159132 1.891199 1.588888 0
M  V30 8 C 3.200853 3.149401 2.184973 0
M  V30 9 C 4.405780 3.938523 2.543443 0
M  V30 10 N 1.920409 3.524224 2.379358 0
M  V30 11 C 1.087052 2.564566 1.935106 0
M  V30 12 C -0.292995 2.572667 1.956940 0
M  V30 13 C -0.930899 1.464050 1.439563 0
M  V30 14 C -2.370989 1.308487 1.384428 0
M  V30 15 C -3.278170 1.272173 2.424580 0
M  V30 16 C -4.626240 1.115301 2.173543 0
M  V30 17 C -5.082280 0.992712 0.874942 0
M  V30 18 C -4.190852 1.026811 -0.174791 0
M  V30 19 C -2.829505 1.186580 0.102442 0
M  V30 20 C -0.118192 0.460897 0.953284 0
M  V30 21 C -0.656632 -0.770104 0.376840 0
M  V30 22 C -0.480781 -1.226766 -0.914249 0
M  V30 23 C -1.055853 -2.417833 -1.316467 0
M  V30 24 C -1.825023 -3.188911 -0.438328 0
M  V30 25 C -2.337842 -4.412144 -1.074954 0
M  V30 26 N -1.398258 -5.067396 -1.978701 0
M  V30 27 C -3.687898 -4.294302 -1.750450 0
M  V30 28 C -4.008040 -5.686489 -1.224899 0
M  V30 29 C -2.939110 -5.418996 -0.157205 0
M  V30 30 C -1.995268 -2.724663 0.849768 0
M  V30 31 C -1.417779 -1.533591 1.245038 0
M  V30 32 N 1.225289 0.530178 0.968621 0
M  V30 33 N 1.866106 1.566788 1.451830 0
M  V30 34 H 7.661839 -1.622989 -1.000299 0
M  V30 35 H 8.776313 -0.707362 0.134170 0
M  V30 36 H 7.828006 -2.154927 0.682934 0
M  V30 37 H 3.293861 -0.520737 0.442506 0
M  V30 38 H 5.312214 1.478879 1.366537 0
M  V30 39 H 4.321225 4.155205 3.639897 0
M  V30 40 H 4.358289 4.866680 1.938357 0
M  V30 41 H 5.316205 3.398730 2.274662 0
M  V30 42 H -0.868210 3.375354 2.345057 0
M  V30 43 H -2.819176 1.376886 3.406213 0
M  V30 44 H -5.293592 1.093436 3.024245 0
M  V30 45 H -6.148515 0.868923 0.682106 0
M  V30 46 H -4.604549 0.925941 -1.173811 0
M  V30 47 H -2.243454 1.196064 -0.813763 0
M  V30 48 H 0.121318 -0.594658 -1.552104 0
M  V30 49 H -0.826288 -2.645815 -2.367924 0
M  V30 50 H -1.681558 -4.864955 -2.944064 0
M  V30 51 H -0.410507 -4.783260 -1.766543 0
M  V30 52 H -4.369820 -3.521281 -1.343224 0
M  V30 53 H -3.671035 -4.317483 -2.855479 0
M  V30 54 H -5.024051 -5.810841 -0.828499 0
M  V30 55 H -3.690791 -6.512513 -1.878618 0
M  V30 56 H -3.447312 -5.084658 0.747595 0
M  V30 57 H -2.267462 -6.312569 0.000126 0
M  V30 58 H -2.594057 -3.371200 1.453431 0
M  V30 59 H -1.618889 -1.265710 2.283265 0
M  V30 END ATOM
M  V30 BEGIN BOND
M  V30 1 1 1 2
M  V30 2 1 2 3
M  V30 3 2 3 4
M  V30 4 1 3 5
M  V30 5 2 5 6
M  V30 6 1 6 7
M  V30 7 2 7 8
M  V30 8 1 8 9
M  V30 9 1 8 10
M  V30 10 2 10 11
M  V30 11 1 11 12
M  V30 12 2 12 13
M  V30 13 1 13 14
M  V30 14 2 14 15
M  V30 15 1 15 16
M  V30 16 2 16 17
M  V30 17 1 17 18
M  V30 18 2 18 19
M  V30 19 1 13 20
M  V30 20 1 20 21
M  V30 21 2 21 22
M  V30 22 1 22 23
M  V30 23 2 23 24
M  V30 24 1 24 25
M  V30 25 1 25 26
M  V30 26 1 25 27
M  V30 27 1 27 28
M  V30 28 1 28 29
M  V30 29 1 24 30
M  V30 30 2 30 31
M  V30 31 2 20 32
M  V30 32 1 32 33
M  V30 33 1 33 7
M  V30 34 1 33 11
M  V30 35 1 19 14
M  V30 36 1 31 21
M  V30 37 1 29 25
M  V30 38 1 1 34
M  V30 39 1 1 35
M  V30 40 1 1 36
M  V30 41 1 5 37
M  V30 42 1 6 38
M  V30 43 1 9 39
M  V30 44 1 9 40
M  V30 45 1 9 41
M  V30 46 1 12 42
M  V30 47 1 15 43
M  V30 48 1 16 44
M  V30 49 1 17 45
M  V30 50 1 18 46
M  V30 51 1 19 47
M  V30 52 1 22 48
M  V30 53 1 23 49
M  V30 54 1 26 50
M  V30 55 1 26 51
M  V30 56 1 27 52
M  V30 57 1 27 53
M  V30 58 1 28 54
M  V30 59 1 28 55
M  V30 60 1 29 56
M  V30 61 1 29 57
M  V30 62 1 30 58
M  V30 63 1 31 59
M  V30 END BOND
M  V30 END CTAB
M  END
>  <Dataset>  (902) 
ChEMBL_Kinases

>  <Ligand_Instance>  (902) 
nan

>  <PDB_ID>  (902) 
nan

>  <Standardized_SMILES>  (902) 
COC(=O)/C=C/c1c(C)nc2cc(-c3ccccc3)c(-c3ccc(C4(N)CCC4)cc3)nn12

>  <Name>  (902) 
nan

>  <Pocket>  (902) 
nan

>  <ATP_Site>  (902) 
nan

>  <Peripheral>  (902) 
nan

>  <Num_H_Atoms_ProtBoundConf>  (902) 
nan

>  <Num_Resolved_Atoms>  (902) 
nan

>  <Num_Not_Resolved_Atoms>  (902) 
nan

$$$$
CHEMBL3672510
     RDKit          3D

  0  0  0  0  0  0  0  0  0  0999 V3000
M  V30 BEGIN CTAB
M  V30 COUNTS 50 54 0 0 0
M  V30 BEGIN ATOM
M  V30 1 C 3.350397 -4.910597 4.952343 0
M  V30 2 C 2.737996 -4.071642 4.134729 0
M  V30 3 C 3.479297 -2.936096 3.599651 0
M  V30 4 C 4.795641 -2.673587 3.892216 0
M  V30 5 N 5.083969 -1.542229 3.195185 0
M  V30 6 C 3.976938 -1.153757 2.517422 0
M  V30 7 C 3.822914 -0.062129 1.687785 0
M  V30 8 C 2.597208 0.148438 1.092945 0
M  V30 9 C 2.201608 1.225254 0.185952 0
M  V30 10 C 1.822514 0.827743 -1.085217 0
M  V30 11 C 1.442237 1.818322 -1.971234 0
M  V30 12 C 1.422917 3.159714 -1.654503 0
M  V30 13 C 1.805926 3.538473 -0.376815 0
M  V30 14 C 2.187947 2.567643 0.520136 0
M  V30 15 C 1.573173 -0.753877 1.360119 0
M  V30 16 C 0.206664 -0.731809 0.847849 0
M  V30 17 C -0.658069 0.303428 1.139965 0
M  V30 18 C -1.954253 0.354058 0.671327 0
M  V30 19 C -2.426708 -0.666380 -0.126889 0
M  V30 20 C -3.755405 -0.862681 -0.758197 0
M  V30 21 N -4.349090 -2.163975 -0.503098 0
M  V30 22 C -4.727385 0.234171 -0.478592 0
M  V30 23 C -5.251044 0.030166 -1.907407 0
M  V30 24 C -3.842520 -0.489929 -2.225659 0
M  V30 25 C -1.569084 -1.727811 -0.437646 0
M  V30 26 C -0.273508 -1.749213 0.048392 0
M  V30 27 N 1.798789 -1.796053 2.180678 0
M  V30 28 N 2.961061 -2.017913 2.760457 0
M  V30 29 H 4.376942 -4.831013 5.269548 0
M  V30 30 H 2.857761 -5.770931 5.382899 0
M  V30 31 H 1.702847 -4.273509 3.900901 0
M  V30 32 H 5.519863 -3.171445 4.508416 0
M  V30 33 H 4.560731 0.667833 1.438481 0
M  V30 34 H 1.820774 -0.214464 -1.382308 0
M  V30 35 H 1.136651 1.531577 -2.986234 0
M  V30 36 H 1.126892 3.933858 -2.344235 0
M  V30 37 H 1.796195 4.573265 -0.115985 0
M  V30 38 H 2.493142 2.840001 1.530173 0
M  V30 39 H -0.343063 1.118205 1.753307 0
M  V30 40 H -2.684859 1.107810 0.845529 0
M  V30 41 H -4.162288 -2.477167 0.468716 0
M  V30 42 H -3.909403 -2.808682 -1.224434 0
M  V30 43 H -5.533852 -0.012061 0.244915 0
M  V30 44 H -4.313419 1.251215 -0.360901 0
M  V30 45 H -6.032650 -0.733666 -1.961967 0
M  V30 46 H -5.496843 0.955243 -2.435995 0
M  V30 47 H -3.920370 -1.389607 -2.839727 0
M  V30 48 H -3.188436 0.314291 -2.567762 0
M  V30 49 H -1.802752 -2.596946 -1.052951 0
M  V30 50 H 0.437528 -2.552976 -0.163013 0
M  V30 END ATOM
M  V30 BEGIN BOND
M  V30 1 2 1 2
M  V30 2 1 2 3
M  V30 3 2 3 4
M  V30 4 1 4 5
M  V30 5 2 5 6
M  V30 6 1 6 7
M  V30 7 2 7 8
M  V30 8 1 8 9
M  V30 9 2 9 10
M  V30 10 1 10 11
M  V30 11 2 11 12
M  V30 12 1 12 13
M  V30 13 2 13 14
M  V30 14 1 8 15
M  V30 15 1 15 16
M  V30 16 2 16 17
M  V30 17 1 17 18
M  V30 18 2 18 19
M  V30 19 1 19 20
M  V30 20 1 20 21
M  V30 21 1 20 22
M  V30 22 1 22 23
M  V30 23 1 23 24
M  V30 24 1 19 25
M  V30 25 2 25 26
M  V30 26 2 15 27
M  V30 27 1 27 28
M  V30 28 1 28 3
M  V30 29 1 28 6
M  V30 30 1 14 9
M  V30 31 1 26 16
M  V30 32 1 24 20
M  V30 33 1 1 29
M  V30 34 1 1 30
M  V30 35 1 2 31
M  V30 36 1 4 32
M  V30 37 1 7 33
M  V30 38 1 10 34
M  V30 39 1 11 35
M  V30 40 1 12 36
M  V30 41 1 13 37
M  V30 42 1 14 38
M  V30 43 1 17 39
M  V30 44 1 18 40
M  V30 45 1 21 41
M  V30 46 1 21 42
M  V30 47 1 22 43
M  V30 48 1 22 44
M  V30 49 1 23 45
M  V30 50 1 23 46
M  V30 51 1 24 47
M  V30 52 1 24 48
M  V30 53 1 25 49
M  V30 54 1 26 50
M  V30 END BOND
M  V30 END CTAB
M  END
>  <Dataset>  (903) 
ChEMBL_Kinases

>  <Ligand_Instance>  (903) 
nan

>  <PDB_ID>  (903) 
nan

>  <Standardized_SMILES>  (903) 
C=Cc1cnc2cc(-c3ccccc3)c(-c3ccc(C4(N)CCC4)cc3)nn12

>  <Name>  (903) 
nan

>  <Pocket>  (903) 
nan

>  <ATP_Site>  (903) 
nan

>  <Peripheral>  (903) 
nan

>  <Num_H_Atoms_ProtBoundConf>  (903) 
nan

>  <Num_Resolved_Atoms>  (903) 
nan

>  <Num_Not_Resolved_Atoms>  (903) 
nan

$$$$
CHEMBL3355112
     RDKit          3D

  0  0  0  0  0  0  0  0  0  0999 V3000
M  V30 BEGIN CTAB
M  V30 COUNTS 44 47 0 0 0
M  V30 BEGIN ATOM
M  V30 1 C 0.062384 -3.114363 0.978176 0
M  V30 2 C -0.093228 -2.935100 -0.450493 0 CFG=2
M  V30 3 C 0.710556 -3.953768 -1.260646 0
M  V30 4 O 1.504163 -4.662254 -0.580048 0
M  V30 5 N 0.631169 -4.151412 -2.664521 0
M  V30 6 N 0.207095 -3.016620 -3.363386 0
M  V30 7 C -0.050484 -1.956306 -2.626443 0
M  V30 8 C -0.493810 -0.814014 -3.515549 0
M  V30 9 O 0.213451 0.361686 -3.125318 0
M  V30 10 C 0.302941 0.705657 -1.771925 0
M  V30 11 C 0.474411 1.982662 -1.297189 0
M  V30 12 C 0.554789 2.264156 0.049144 0
M  V30 13 C 0.740163 3.657903 0.510704 0
M  V30 14 F 0.805198 4.500112 -0.579845 0
M  V30 15 F -0.313357 4.093759 1.289044 0
M  V30 16 F 1.952725 3.802696 1.186456 0
M  V30 17 C 0.453639 1.182837 0.935938 0
M  V30 18 N 0.540472 1.488448 2.310334 0
M  V30 19 C 0.448630 0.488250 3.356453 0
M  V30 20 C -0.874024 -0.269012 3.401227 0
M  V30 21 C 0.823151 0.943220 4.733550 0
M  V30 22 N 1.919470 -0.001592 4.785056 0
M  V30 23 C 1.656780 -0.440807 3.413646 0
M  V30 24 C 0.284501 -0.064034 0.416246 0
M  V30 25 C 0.202373 -0.366564 -0.922258 0
M  V30 26 N 0.025563 -1.749856 -1.175322 0
M  V30 27 H 0.039047 -4.256034 1.210297 0
M  V30 28 H 1.070768 -2.890711 1.409991 0
M  V30 29 H -0.787798 -2.803073 1.621183 0
M  V30 30 H -1.149800 -3.339849 -0.680405 0
M  V30 31 H 0.895082 -5.108175 -3.007428 0
M  V30 32 H -0.396382 -1.025639 -4.572095 0
M  V30 33 H -1.557009 -0.635474 -3.261156 0
M  V30 34 H 0.541042 2.749487 -2.071834 0
M  V30 35 H 0.676284 2.456387 2.659043 0
M  V30 36 H -0.665732 -1.333397 3.506124 0
M  V30 37 H -1.440512 0.014723 4.337381 0
M  V30 38 H -1.557666 0.011077 2.580300 0
M  V30 39 H 0.065041 0.733567 5.543704 0
M  V30 40 H 1.145866 2.010581 4.772795 0
M  V30 41 H 1.796058 -0.754064 5.516560 0
M  V30 42 H 1.332554 -1.516113 3.359938 0
M  V30 43 H 2.484118 -0.166611 2.728398 0
M  V30 44 H 0.218203 -0.793187 1.191760 0
M  V30 END ATOM
M  V30 BEGIN BOND
M  V30 1 1 1 2
M  V30 2 1 2 3
M  V30 3 2 3 4
M  V30 4 1 3 5
M  V30 5 1 5 6
M  V30 6 2 6 7
M  V30 7 1 7 8
M  V30 8 1 8 9
M  V30 9 1 9 10
M  V30 10 2 10 11
M  V30 11 1 11 12
M  V30 12 1 12 13
M  V30 13 1 13 14
M  V30 14 1 13 15
M  V30 15 1 13 16
M  V30 16 2 12 17
M  V30 17 1 17 18
M  V30 18 1 18 19
M  V30 19 1 19 20
M  V30 20 1 19 21
M  V30 21 1 21 22
M  V30 22 1 22 23
M  V30 23 1 17 24
M  V30 24 2 24 25
M  V30 25 1 25 26
M  V30 26 1 26 2
M  V30 27 1 26 7
M  V30 28 1 25 10
M  V30 29 1 23 19
M  V30 30 1 1 27
M  V30 31 1 1 28
M  V30 32 1 1 29
M  V30 33 1 2 30 CFG=1
M  V30 34 1 5 31
M  V30 35 1 8 32
M  V30 36 1 8 33
M  V30 37 1 11 34
M  V30 38 1 18 35
M  V30 39 1 20 36
M  V30 40 1 20 37
M  V30 41 1 20 38
M  V30 42 1 21 39
M  V30 43 1 21 40
M  V30 44 1 22 41
M  V30 45 1 23 42
M  V30 46 1 23 43
M  V30 47 1 24 44
M  V30 END BOND
M  V30 END CTAB
M  END
>  <Dataset>  (904) 
ChEMBL_Kinases

>  <Ligand_Instance>  (904) 
nan

>  <PDB_ID>  (904) 
nan

>  <Standardized_SMILES>  (904) 
C[C@@H]1C(=O)NN=C2COc3cc(C(F)(F)F)c(NC4(C)CNC4)cc3N21

>  <Name>  (904) 
nan

>  <Pocket>  (904) 
nan

>  <ATP_Site>  (904) 
nan

>  <Peripheral>  (904) 
nan

>  <Num_H_Atoms_ProtBoundConf>  (904) 
nan

>  <Num_Resolved_Atoms>  (904) 
nan

>  <Num_Not_Resolved_Atoms>  (904) 
nan

$$$$
CHEMBL4130160
     RDKit          3D

  0  0  0  0  0  0  0  0  0  0999 V3000
M  V30 BEGIN CTAB
M  V30 COUNTS 59 62 0 0 0
M  V30 BEGIN ATOM
M  V30 1 C 3.324532 -1.658152 4.593450 0
M  V30 2 N 3.684634 -1.807650 3.245560 0
M  V30 3 C 3.437988 -3.023426 2.584687 0
M  V30 4 C 4.401749 -0.787407 2.594432 0
M  V30 5 C 3.618753 0.488218 2.382737 0
M  V30 6 C 2.384635 0.248766 1.548483 0
M  V30 7 N 1.621566 1.455192 1.339644 0
M  V30 8 C 0.936461 2.107848 2.432103 0
M  V30 9 C 1.384125 2.207869 0.129958 0
M  V30 10 C 1.979138 3.327250 -0.407972 0
M  V30 11 N 1.504021 3.771270 -1.583815 0
M  V30 12 C 0.492677 3.148818 -2.205387 0
M  V30 13 C -0.132455 2.026764 -1.706013 0
M  V30 14 C -1.227250 1.323804 -2.371593 0
M  V30 15 C -1.790599 1.695912 -3.571735 0
M  V30 16 C -2.820505 0.988523 -4.179747 0
M  V30 17 C -3.292670 -0.154904 -3.523219 0
M  V30 18 N -4.256221 -1.045204 -3.840006 0
M  V30 19 C -4.279339 -1.964919 -2.829275 0
M  V30 20 C -3.332762 -1.657476 -1.874825 0
M  V30 21 C -3.146117 -2.500078 -0.691093 0
M  V30 22 C -4.078760 -3.023045 0.182331 0
M  V30 23 C -3.650846 -3.801596 1.233465 0
M  V30 24 C -2.312916 -4.078262 1.444542 0
M  V30 25 C -1.885104 -4.922148 2.585709 0
M  V30 26 F -2.934428 -5.718835 3.042019 0
M  V30 27 F -0.878093 -5.813930 2.240344 0
M  V30 28 F -1.436329 -4.191374 3.666344 0
M  V30 29 C -1.371962 -3.558590 0.573516 0
M  V30 30 C -1.785848 -2.764704 -0.501787 0
M  V30 31 C -2.714950 -0.507792 -2.326223 0
M  V30 32 C -1.700423 0.189267 -1.726631 0
M  V30 33 N 0.374009 1.611395 -0.521940 0
M  V30 34 H 2.678088 -2.514885 4.883559 0
M  V30 35 H 4.194405 -1.699454 5.291426 0
M  V30 36 H 2.747746 -0.744048 4.838183 0
M  V30 37 H 3.711281 -2.934901 1.523976 0
M  V30 38 H 4.105072 -3.830720 3.001891 0
M  V30 39 H 2.414513 -3.433120 2.700003 0
M  V30 40 H 5.331918 -0.578410 3.162454 0
M  V30 41 H 4.728126 -1.138948 1.601922 0
M  V30 42 H 3.354388 0.988138 3.318193 0
M  V30 43 H 4.275774 1.179503 1.814834 0
M  V30 44 H 2.631417 -0.257058 0.583569 0
M  V30 45 H 1.777282 -0.530287 2.099766 0
M  V30 46 H 1.312545 3.153407 2.502882 0
M  V30 47 H -0.159759 2.095937 2.237760 0
M  V30 48 H 1.075380 1.597423 3.402100 0
M  V30 49 H 2.767246 3.671728 0.242743 0
M  V30 50 H 0.150317 3.547549 -3.149472 0
M  V30 51 H -1.412847 2.580192 -4.062784 0
M  V30 52 H -3.223838 1.330546 -5.123412 0
M  V30 53 H -4.856589 -1.024100 -4.691219 0
M  V30 54 H -4.986301 -2.807105 -2.849314 0
M  V30 55 H -5.083054 -2.740014 -0.083373 0
M  V30 56 H -4.435541 -4.173897 1.873893 0
M  V30 57 H -0.342929 -3.806858 0.786793 0
M  V30 58 H -0.942568 -2.444171 -1.087182 0
M  V30 59 H -1.259913 -0.112791 -0.767704 0
M  V30 END ATOM
M  V30 BEGIN BOND
M  V30 1 1 1 2
M  V30 2 1 2 3
M  V30 3 1 2 4
M  V30 4 1 4 5
M  V30 5 1 5 6
M  V30 6 1 6 7
M  V30 7 1 7 8
M  V30 8 1 7 9
M  V30 9 2 9 10
M  V30 10 1 10 11
M  V30 11 2 11 12
M  V30 12 1 12 13
M  V30 13 1 13 14
M  V30 14 2 14 15
M  V30 15 1 15 16
M  V30 16 2 16 17
M  V30 17 1 17 18
M  V30 18 1 18 19
M  V30 19 2 19 20
M  V30 20 1 20 21
M  V30 21 2 21 22
M  V30 22 1 22 23
M  V30 23 2 23 24
M  V30 24 1 24 25
M  V30 25 1 25 26
M  V30 26 1 25 27
M  V30 27 1 25 28
M  V30 28 1 24 29
M  V30 29 2 29 30
M  V30 30 1 20 31
M  V30 31 2 31 32
M  V30 32 2 13 33
M  V30 33 1 33 9
M  V30 34 1 32 14
M  V30 35 1 31 17
M  V30 36 1 30 21
M  V30 37 1 1 34
M  V30 38 1 1 35
M  V30 39 1 1 36
M  V30 40 1 3 37
M  V30 41 1 3 38
M  V30 42 1 3 39
M  V30 43 1 4 40
M  V30 44 1 4 41
M  V30 45 1 5 42
M  V30 46 1 5 43
M  V30 47 1 6 44
M  V30 48 1 6 45
M  V30 49 1 8 46
M  V30 50 1 8 47
M  V30 51 1 8 48
M  V30 52 1 10 49
M  V30 53 1 12 50
M  V30 54 1 15 51
M  V30 55 1 16 52
M  V30 56 1 18 53
M  V30 57 1 19 54
M  V30 58 1 22 55
M  V30 59 1 23 56
M  V30 60 1 29 57
M  V30 61 1 30 58
M  V30 62 1 32 59
M  V30 END BOND
M  V30 END CTAB
M  END
>  <Dataset>  (905) 
ChEMBL_Kinases

>  <Ligand_Instance>  (905) 
nan

>  <PDB_ID>  (905) 
nan

>  <Standardized_SMILES>  (905) 
CN(C)CCCN(C)c1cncc(-c2ccc3[nH]cc(-c4ccc(C(F)(F)F)cc4)c3c2)n1

>  <Name>  (905) 
nan

>  <Pocket>  (905) 
nan

>  <ATP_Site>  (905) 
nan

>  <Peripheral>  (905) 
nan

>  <Num_H_Atoms_ProtBoundConf>  (905) 
nan

>  <Num_Resolved_Atoms>  (905) 
nan

>  <Num_Not_Resolved_Atoms>  (905) 
nan

$$$$
CHEMBL3672509
     RDKit          3D

  0  0  0  0  0  0  0  0  0  0999 V3000
M  V30 BEGIN CTAB
M  V30 COUNTS 54 58 0 0 0
M  V30 BEGIN ATOM
M  V30 1 N 3.620863 -4.966782 2.768455 0
M  V30 2 C 4.598204 -4.178827 2.054065 0
M  V30 3 O 5.422512 -5.022369 2.441133 0
M  V30 4 C 4.233110 -2.968906 1.333523 0
M  V30 5 C 5.134291 -2.280515 0.699425 0
M  V30 6 C 4.809018 -1.064563 -0.032730 0
M  V30 7 C 5.707241 -0.286622 -0.721267 0
M  V30 8 N 5.026227 0.756911 -1.269589 0
M  V30 9 C 3.718179 0.625803 -0.923283 0
M  V30 10 C 2.671005 1.458066 -1.260769 0
M  V30 11 C 1.410214 1.131565 -0.796676 0
M  V30 12 C 0.231302 1.948206 -1.098496 0
M  V30 13 C -0.209978 2.201134 -2.381227 0
M  V30 14 C -1.345640 2.988668 -2.601653 0
M  V30 15 C -2.021501 3.511966 -1.503923 0
M  V30 16 C -1.599948 3.273214 -0.213323 0
M  V30 17 C -0.462046 2.483029 -0.015986 0
M  V30 18 C 1.318260 -0.016564 -0.026187 0
M  V30 19 C 0.003924 -0.393993 0.482820 0
M  V30 20 C -0.968591 -0.684439 -0.478677 0
M  V30 21 C -2.250577 -1.053632 -0.079600 0
M  V30 22 C -2.609762 -1.146984 1.252126 0
M  V30 23 C -3.934304 -1.525813 1.761430 0
M  V30 24 N -4.473213 -0.705592 2.816740 0
M  V30 25 C -4.979558 -1.824635 0.721482 0
M  V30 26 C -4.490114 -3.243460 0.659592 0
M  V30 27 C -3.925435 -3.029260 2.067181 0
M  V30 28 C -1.630571 -0.854926 2.178568 0
M  V30 29 C -0.360190 -0.488929 1.807097 0
M  V30 30 N 2.390292 -0.776420 0.259014 0
M  V30 31 N 3.605638 -0.485525 -0.172629 0
M  V30 32 H 3.210831 -4.869156 3.745317 0
M  V30 33 H 2.995916 -5.817454 2.673364 0
M  V30 34 H 3.199499 -2.705623 1.369683 0
M  V30 35 H 6.148468 -2.651148 0.736020 0
M  V30 36 H 6.781672 -0.495948 -0.798007 0
M  V30 37 H 2.802592 2.336281 -1.862494 0
M  V30 38 H 0.333856 1.782326 -3.221807 0
M  V30 39 H -1.674041 3.173565 -3.635951 0
M  V30 40 H -2.898772 4.118709 -1.722566 0
M  V30 41 H -2.143669 3.692156 0.631704 0
M  V30 42 H -0.175462 2.328593 1.036630 0
M  V30 43 H -0.760044 -0.632921 -1.556368 0
M  V30 44 H -3.007508 -1.279818 -0.812869 0
M  V30 45 H -4.849113 -1.303703 3.586597 0
M  V30 46 H -3.704408 -0.082106 3.184328 0
M  V30 47 H -4.975412 -1.232127 -0.193208 0
M  V30 48 H -6.010216 -1.803061 1.167725 0
M  V30 49 H -5.306653 -4.014192 0.685978 0
M  V30 50 H -3.758271 -3.502341 -0.111807 0
M  V30 51 H -2.935286 -3.479366 2.143707 0
M  V30 52 H -4.649977 -3.315914 2.866870 0
M  V30 53 H -1.795368 -0.894378 3.243721 0
M  V30 54 H 0.423469 -0.255634 2.525494 0
M  V30 END ATOM
M  V30 BEGIN BOND
M  V30 1 1 1 2
M  V30 2 2 2 3
M  V30 3 1 2 4
M  V30 4 2 4 5
M  V30 5 1 5 6
M  V30 6 2 6 7
M  V30 7 1 7 8
M  V30 8 2 8 9
M  V30 9 1 9 10
M  V30 10 2 10 11
M  V30 11 1 11 12
M  V30 12 2 12 13
M  V30 13 1 13 14
M  V30 14 2 14 15
M  V30 15 1 15 16
M  V30 16 2 16 17
M  V30 17 1 11 18
M  V30 18 1 18 19
M  V30 19 2 19 20
M  V30 20 1 20 21
M  V30 21 2 21 22
M  V30 22 1 22 23
M  V30 23 1 23 24
M  V30 24 1 23 25
M  V30 25 1 25 26
M  V30 26 1 26 27
M  V30 27 1 22 28
M  V30 28 2 28 29
M  V30 29 2 18 30
M  V30 30 1 30 31
M  V30 31 1 31 6
M  V30 32 1 31 9
M  V30 33 1 17 12
M  V30 34 1 29 19
M  V30 35 1 27 23
M  V30 36 1 1 32
M  V30 37 1 1 33
M  V30 38 1 4 34
M  V30 39 1 5 35
M  V30 40 1 7 36
M  V30 41 1 10 37
M  V30 42 1 13 38
M  V30 43 1 14 39
M  V30 44 1 15 40
M  V30 45 1 16 41
M  V30 46 1 17 42
M  V30 47 1 20 43
M  V30 48 1 21 44
M  V30 49 1 24 45
M  V30 50 1 24 46
M  V30 51 1 25 47
M  V30 52 1 25 48
M  V30 53 1 26 49
M  V30 54 1 26 50
M  V30 55 1 27 51
M  V30 56 1 27 52
M  V30 57 1 28 53
M  V30 58 1 29 54
M  V30 END BOND
M  V30 END CTAB
M  END
>  <Dataset>  (906) 
ChEMBL_Kinases

>  <Ligand_Instance>  (906) 
nan

>  <PDB_ID>  (906) 
nan

>  <Standardized_SMILES>  (906) 
NC(=O)/C=C/c1cnc2cc(-c3ccccc3)c(-c3ccc(C4(N)CCC4)cc3)nn12

>  <Name>  (906) 
nan

>  <Pocket>  (906) 
nan

>  <ATP_Site>  (906) 
nan

>  <Peripheral>  (906) 
nan

>  <Num_H_Atoms_ProtBoundConf>  (906) 
nan

>  <Num_Resolved_Atoms>  (906) 
nan

>  <Num_Not_Resolved_Atoms>  (906) 
nan

$$$$
CHEMBL3672508
     RDKit          3D

  0  0  0  0  0  0  0  0  0  0999 V3000
M  V30 BEGIN CTAB
M  V30 COUNTS 56 61 0 0 0
M  V30 BEGIN ATOM
M  V30 1 N 2.344819 -5.418832 -0.559577 0
M  V30 2 C 1.357976 -4.731198 -1.364651 0
M  V30 3 C 0.852445 -3.463976 -0.822181 0
M  V30 4 C 0.640021 -3.400332 0.544976 0
M  V30 5 C 0.164521 -2.254135 1.160711 0
M  V30 6 C -0.117287 -1.112985 0.401236 0
M  V30 7 C -0.615144 0.107801 0.980084 0
M  V30 8 N 0.030785 1.311180 0.991851 0
M  V30 9 N -0.505556 2.386926 1.551974 0
M  V30 10 C -0.053292 3.655793 1.677706 0
M  V30 11 C 1.195593 4.220993 1.217368 0
M  V30 12 C 1.845601 5.026602 2.144581 0
M  V30 13 C 3.061801 5.620407 1.794493 0
M  V30 14 C 3.608462 5.406840 0.541049 0
M  V30 15 F 4.787976 5.950578 0.127256 0
M  V30 16 C 2.958710 4.601747 -0.384958 0
M  V30 17 C 1.767160 4.023598 -0.034160 0
M  V30 18 C -1.003557 4.396142 2.350046 0
M  V30 19 Cl -1.046709 6.082469 2.834598 0
M  V30 20 N -2.046222 3.563980 2.635756 0
M  V30 21 C -1.727135 2.333848 2.139911 0
M  V30 22 C -2.447922 1.153958 2.171587 0
M  V30 23 C -1.857718 0.055976 1.578805 0
M  V30 24 C -2.637619 -1.176661 1.625730 0
M  V30 25 C -3.103719 -1.837463 0.505333 0
M  V30 26 C -3.838568 -3.002976 0.624890 0
M  V30 27 C -4.082414 -3.470855 1.899200 0
M  V30 28 C -3.637435 -2.846426 3.068992 0
M  V30 29 C -2.900833 -1.674025 2.886550 0
M  V30 30 C 0.093167 -1.171663 -0.964778 0
M  V30 31 C 0.564245 -2.320906 -1.541498 0
M  V30 32 C 0.206241 -5.641928 -1.738433 0
M  V30 33 C 0.355462 -5.148990 -3.163624 0
M  V30 34 C 1.755038 -4.722762 -2.812386 0
M  V30 35 H 2.011062 -6.274981 -0.105396 0
M  V30 36 H 2.909677 -4.788412 0.018907 0
M  V30 37 H 0.849199 -4.276898 1.175083 0
M  V30 38 H 0.001450 -2.222078 2.248550 0
M  V30 39 H 1.447568 5.219634 3.141885 0
M  V30 40 H 3.611480 6.265429 2.497097 0
M  V30 41 H 3.361826 4.419281 -1.366742 0
M  V30 42 H 1.210911 3.378418 -0.726791 0
M  V30 43 H -3.417894 1.132177 2.643983 0
M  V30 44 H -2.875744 -1.413868 -0.484710 0
M  V30 45 H -4.200014 -3.515862 -0.247271 0
M  V30 46 H -4.653922 -4.380426 2.071848 0
M  V30 47 H -3.861193 -3.262106 4.043076 0
M  V30 48 H -2.535194 -1.155997 3.786900 0
M  V30 49 H -0.114398 -0.305563 -1.593631 0
M  V30 50 H 0.726609 -2.363962 -2.608017 0
M  V30 51 H -0.761335 -5.390451 -1.290207 0
M  V30 52 H 0.464208 -6.724842 -1.613045 0
M  V30 53 H -0.367120 -4.345690 -3.406792 0
M  V30 54 H 0.291693 -6.024960 -3.845344 0
M  V30 55 H 2.469793 -5.515056 -3.048600 0
M  V30 56 H 2.085952 -3.762378 -3.236374 0
M  V30 END ATOM
M  V30 BEGIN BOND
M  V30 1 1 1 2
M  V30 2 1 2 3
M  V30 3 2 3 4
M  V30 4 1 4 5
M  V30 5 2 5 6
M  V30 6 1 6 7
M  V30 7 2 7 8
M  V30 8 1 8 9
M  V30 9 1 9 10
M  V30 10 1 10 11
M  V30 11 2 11 12
M  V30 12 1 12 13
M  V30 13 2 13 14
M  V30 14 1 14 15
M  V30 15 1 14 16
M  V30 16 2 16 17
M  V30 17 2 10 18
M  V30 18 1 18 19
M  V30 19 1 18 20
M  V30 20 2 20 21
M  V30 21 1 21 22
M  V30 22 2 22 23
M  V30 23 1 23 24
M  V30 24 2 24 25
M  V30 25 1 25 26
M  V30 26 2 26 27
M  V30 27 1 27 28
M  V30 28 2 28 29
M  V30 29 1 6 30
M  V30 30 2 30 31
M  V30 31 1 2 32
M  V30 32 1 32 33
M  V30 33 1 33 34
M  V30 34 1 34 2
M  V30 35 1 31 3
M  V30 36 1 23 7
M  V30 37 1 29 24
M  V30 38 1 21 9
M  V30 39 1 17 11
M  V30 40 1 1 35
M  V30 41 1 1 36
M  V30 42 1 4 37
M  V30 43 1 5 38
M  V30 44 1 12 39
M  V30 45 1 13 40
M  V30 46 1 16 41
M  V30 47 1 17 42
M  V30 48 1 22 43
M  V30 49 1 25 44
M  V30 50 1 26 45
M  V30 51 1 27 46
M  V30 52 1 28 47
M  V30 53 1 29 48
M  V30 54 1 30 49
M  V30 55 1 31 50
M  V30 56 1 32 51
M  V30 57 1 32 52
M  V30 58 1 33 53
M  V30 59 1 33 54
M  V30 60 1 34 55
M  V30 61 1 34 56
M  V30 END BOND
M  V30 END CTAB
M  END
>  <Dataset>  (907) 
ChEMBL_Kinases

>  <Ligand_Instance>  (907) 
nan

>  <PDB_ID>  (907) 
nan

>  <Standardized_SMILES>  (907) 
NC1(c2ccc(-c3nn4c(-c5ccc(F)cc5)c(Cl)nc4cc3-c3ccccc3)cc2)CCC1

>  <Name>  (907) 
nan

>  <Pocket>  (907) 
nan

>  <ATP_Site>  (907) 
nan

>  <Peripheral>  (907) 
nan

>  <Num_H_Atoms_ProtBoundConf>  (907) 
nan

>  <Num_Resolved_Atoms>  (907) 
nan

>  <Num_Not_Resolved_Atoms>  (907) 
nan

$$$$
CHEMBL3672507
     RDKit          3D

  0  0  0  0  0  0  0  0  0  0999 V3000
M  V30 BEGIN CTAB
M  V30 COUNTS 56 61 0 0 0
M  V30 BEGIN ATOM
M  V30 1 N 2.285258 -5.506733 -0.534380 0
M  V30 2 C 1.331961 -4.775332 -1.347582 0
M  V30 3 C 0.863535 -3.487426 -0.775960 0
M  V30 4 C 0.604612 -3.441473 0.578454 0
M  V30 5 C 0.162902 -2.311357 1.234051 0
M  V30 6 C -0.039216 -1.148954 0.517755 0
M  V30 7 C -0.502690 0.130963 1.006462 0
M  V30 8 N 0.103403 1.329659 1.039896 0
M  V30 9 N -0.483817 2.411251 1.528493 0
M  V30 10 C -0.058324 3.680801 1.652512 0
M  V30 11 C 1.214734 4.266636 1.276865 0
M  V30 12 C 1.845869 5.111552 2.170716 0
M  V30 13 C 3.040116 5.676599 1.848430 0
M  V30 14 C 3.677821 5.451382 0.649943 0
M  V30 15 F 4.854932 5.966053 0.249521 0
M  V30 16 C 3.039187 4.600057 -0.247409 0
M  V30 17 C 1.838216 4.018888 0.051338 0
M  V30 18 C -1.079805 4.398551 2.232619 0
M  V30 19 Br -1.144201 6.253152 2.691457 0
M  V30 20 N -2.115573 3.547666 2.452960 0
M  V30 21 C -1.736048 2.319485 2.013259 0
M  V30 22 C -2.468874 1.133091 2.033864 0
M  V30 23 C -1.805341 0.018387 1.506902 0
M  V30 24 C -2.605816 -1.221389 1.546016 0
M  V30 25 C -2.988163 -1.962547 0.447706 0
M  V30 26 C -3.739834 -3.108765 0.603394 0
M  V30 27 C -4.107169 -3.507964 1.877371 0
M  V30 28 C -3.760222 -2.815402 3.022028 0
M  V30 29 C -2.998117 -1.662896 2.793832 0
M  V30 30 C 0.214683 -1.166113 -0.852482 0
M  V30 31 C 0.656180 -2.304913 -1.493104 0
M  V30 32 C 0.123049 -5.587599 -1.763576 0
M  V30 33 C 0.337692 -5.077231 -3.170637 0
M  V30 34 C 1.749751 -4.741898 -2.776537 0
M  V30 35 H 1.893699 -6.331815 -0.058836 0
M  V30 36 H 2.783334 -4.826508 0.061793 0
M  V30 37 H 0.745627 -4.333282 1.206228 0
M  V30 38 H -0.049153 -2.239183 2.288951 0
M  V30 39 H 1.392651 5.328403 3.133566 0
M  V30 40 H 3.569416 6.348895 2.526779 0
M  V30 41 H 3.438768 4.344726 -1.221058 0
M  V30 42 H 1.268671 3.349027 -0.575819 0
M  V30 43 H -3.477345 1.074453 2.426578 0
M  V30 44 H -2.661681 -1.585041 -0.513269 0
M  V30 45 H -4.023741 -3.669678 -0.282590 0
M  V30 46 H -4.707066 -4.422196 2.006783 0
M  V30 47 H -4.040709 -3.116335 4.021317 0
M  V30 48 H -2.716690 -1.105096 3.688793 0
M  V30 49 H 0.086286 -0.307757 -1.495926 0
M  V30 50 H 0.856205 -2.341795 -2.532300 0
M  V30 51 H -0.838644 -5.304994 -1.292988 0
M  V30 52 H 0.324767 -6.692878 -1.757494 0
M  V30 53 H -0.333572 -4.233191 -3.396105 0
M  V30 54 H 0.243416 -5.832587 -3.972635 0
M  V30 55 H 2.412255 -5.603022 -3.023543 0
M  V30 56 H 2.146319 -3.792191 -3.179558 0
M  V30 END ATOM
M  V30 BEGIN BOND
M  V30 1 1 1 2
M  V30 2 1 2 3
M  V30 3 2 3 4
M  V30 4 1 4 5
M  V30 5 2 5 6
M  V30 6 1 6 7
M  V30 7 2 7 8
M  V30 8 1 8 9
M  V30 9 1 9 10
M  V30 10 1 10 11
M  V30 11 2 11 12
M  V30 12 1 12 13
M  V30 13 2 13 14
M  V30 14 1 14 15
M  V30 15 1 14 16
M  V30 16 2 16 17
M  V30 17 2 10 18
M  V30 18 1 18 19
M  V30 19 1 18 20
M  V30 20 2 20 21
M  V30 21 1 21 22
M  V30 22 2 22 23
M  V30 23 1 23 24
M  V30 24 2 24 25
M  V30 25 1 25 26
M  V30 26 2 26 27
M  V30 27 1 27 28
M  V30 28 2 28 29
M  V30 29 1 6 30
M  V30 30 2 30 31
M  V30 31 1 2 32
M  V30 32 1 32 33
M  V30 33 1 33 34
M  V30 34 1 34 2
M  V30 35 1 31 3
M  V30 36 1 23 7
M  V30 37 1 29 24
M  V30 38 1 21 9
M  V30 39 1 17 11
M  V30 40 1 1 35
M  V30 41 1 1 36
M  V30 42 1 4 37
M  V30 43 1 5 38
M  V30 44 1 12 39
M  V30 45 1 13 40
M  V30 46 1 16 41
M  V30 47 1 17 42
M  V30 48 1 22 43
M  V30 49 1 25 44
M  V30 50 1 26 45
M  V30 51 1 27 46
M  V30 52 1 28 47
M  V30 53 1 29 48
M  V30 54 1 30 49
M  V30 55 1 31 50
M  V30 56 1 32 51
M  V30 57 1 32 52
M  V30 58 1 33 53
M  V30 59 1 33 54
M  V30 60 1 34 55
M  V30 61 1 34 56
M  V30 END BOND
M  V30 END CTAB
M  END
>  <Dataset>  (908) 
ChEMBL_Kinases

>  <Ligand_Instance>  (908) 
nan

>  <PDB_ID>  (908) 
nan

>  <Standardized_SMILES>  (908) 
NC1(c2ccc(-c3nn4c(-c5ccc(F)cc5)c(Br)nc4cc3-c3ccccc3)cc2)CCC1

>  <Name>  (908) 
nan

>  <Pocket>  (908) 
nan

>  <ATP_Site>  (908) 
nan

>  <Peripheral>  (908) 
nan

>  <Num_H_Atoms_ProtBoundConf>  (908) 
nan

>  <Num_Resolved_Atoms>  (908) 
nan

>  <Num_Not_Resolved_Atoms>  (908) 
nan

$$$$
CHEMBL3672505
     RDKit          3D

  0  0  0  0  0  0  0  0  0  0999 V3000
M  V30 BEGIN CTAB
M  V30 COUNTS 56 61 0 0 0
M  V30 BEGIN ATOM
M  V30 1 C 1.661138 -6.922895 2.450846 0
M  V30 2 C 1.583184 -5.475251 2.157573 0
M  V30 3 N 2.486717 -4.536143 2.537234 0
M  V30 4 C 2.094642 -3.330485 2.097574 0
M  V30 5 C 2.701508 -2.101709 2.250867 0
M  V30 6 C 2.085552 -0.999862 1.695562 0
M  V30 7 C 2.523564 0.368926 1.724764 0
M  V30 8 C 2.715385 1.142785 2.866457 0
M  V30 9 C 3.138913 2.456129 2.819965 0
M  V30 10 C 3.381078 3.018463 1.567527 0
M  V30 11 C 3.207032 2.295142 0.395422 0
M  V30 12 C 2.780346 0.980374 0.497365 0
M  V30 13 C 0.889790 -1.203128 1.015978 0
M  V30 14 C 0.041748 -0.214327 0.342084 0
M  V30 15 C -0.548037 0.787563 1.090220 0
M  V30 16 C -1.358071 1.750290 0.519803 0
M  V30 17 C -1.584362 1.708175 -0.841927 0
M  V30 18 C -2.409216 2.612819 -1.689980 0
M  V30 19 N -1.673984 2.984345 -2.888438 0
M  V30 20 C -3.122252 3.724708 -1.010360 0
M  V30 21 C -4.384219 2.852566 -1.042610 0
M  V30 22 C -3.743126 1.993873 -2.108402 0
M  V30 23 C -0.989891 0.701076 -1.586166 0
M  V30 24 C -0.178820 -0.264557 -1.021192 0
M  V30 25 N 0.343799 -2.444754 0.901206 0
M  V30 26 N 0.939902 -3.518177 1.439834 0
M  V30 27 C 0.600174 -4.829537 1.460373 0
M  V30 28 C -0.600714 -5.360519 0.833962 0
M  V30 29 C -1.562223 -4.656542 0.140293 0
M  V30 30 C -2.563143 -5.474085 -0.317777 0
M  V30 31 N -2.203278 -6.699796 0.105763 0
M  V30 32 N -1.063431 -6.618947 0.772175 0
M  V30 33 H 0.808099 -7.273862 3.091547 0
M  V30 34 H 2.591453 -7.123400 3.041102 0
M  V30 35 H 1.739134 -7.568552 1.565526 0
M  V30 36 H 3.611147 -1.912425 2.761893 0
M  V30 37 H 2.510380 0.648803 3.807910 0
M  V30 38 H 3.279667 3.035161 3.719505 0
M  V30 39 H 3.713661 4.054428 1.558014 0
M  V30 40 H 3.406301 2.769497 -0.558380 0
M  V30 41 H 2.668415 0.481937 -0.476007 0
M  V30 42 H -0.399655 0.861664 2.163625 0
M  V30 43 H -1.858159 2.561772 1.006414 0
M  V30 44 H -0.646007 3.023967 -2.721858 0
M  V30 45 H -1.882720 2.333266 -3.661862 0
M  V30 46 H -2.840894 4.026344 -0.006857 0
M  V30 47 H -3.300906 4.562179 -1.734067 0
M  V30 48 H -4.545532 2.253831 -0.130957 0
M  V30 49 H -5.278759 3.332469 -1.450880 0
M  V30 50 H -3.717594 0.907283 -1.886060 0
M  V30 51 H -4.026371 2.201814 -3.152595 0
M  V30 52 H -1.087244 0.553434 -2.672869 0
M  V30 53 H 0.300479 -1.061929 -1.565146 0
M  V30 54 H -1.551379 -3.571693 -0.037984 0
M  V30 55 H -3.443313 -5.162334 -0.896216 0
M  V30 56 H -0.616407 -7.466036 1.183051 0
M  V30 END ATOM
M  V30 BEGIN BOND
M  V30 1 1 1 2
M  V30 2 1 2 3
M  V30 3 2 3 4
M  V30 4 1 4 5
M  V30 5 2 5 6
M  V30 6 1 6 7
M  V30 7 2 7 8
M  V30 8 1 8 9
M  V30 9 2 9 10
M  V30 10 1 10 11
M  V30 11 2 11 12
M  V30 12 1 6 13
M  V30 13 1 13 14
M  V30 14 2 14 15
M  V30 15 1 15 16
M  V30 16 2 16 17
M  V30 17 1 17 18
M  V30 18 1 18 19
M  V30 19 1 18 20
M  V30 20 1 20 21
M  V30 21 1 21 22
M  V30 22 1 17 23
M  V30 23 2 23 24
M  V30 24 2 13 25
M  V30 25 1 25 26
M  V30 26 1 26 27
M  V30 27 1 27 28
M  V30 28 2 28 29
M  V30 29 1 29 30
M  V30 30 2 30 31
M  V30 31 1 31 32
M  V30 32 2 27 2
M  V30 33 1 32 28
M  V30 34 1 26 4
M  V30 35 1 12 7
M  V30 36 1 24 14
M  V30 37 1 22 18
M  V30 38 1 1 33
M  V30 39 1 1 34
M  V30 40 1 1 35
M  V30 41 1 5 36
M  V30 42 1 8 37
M  V30 43 1 9 38
M  V30 44 1 10 39
M  V30 45 1 11 40
M  V30 46 1 12 41
M  V30 47 1 15 42
M  V30 48 1 16 43
M  V30 49 1 19 44
M  V30 50 1 19 45
M  V30 51 1 20 46
M  V30 52 1 20 47
M  V30 53 1 21 48
M  V30 54 1 21 49
M  V30 55 1 22 50
M  V30 56 1 22 51
M  V30 57 1 23 52
M  V30 58 1 24 53
M  V30 59 1 29 54
M  V30 60 1 30 55
M  V30 61 1 32 56
M  V30 END BOND
M  V30 END CTAB
M  END
>  <Dataset>  (909) 
ChEMBL_Kinases

>  <Ligand_Instance>  (909) 
nan

>  <PDB_ID>  (909) 
nan

>  <Standardized_SMILES>  (909) 
Cc1nc2cc(-c3ccccc3)c(-c3ccc(C4(N)CCC4)cc3)nn2c1-c1ccn[nH]1

>  <Name>  (909) 
nan

>  <Pocket>  (909) 
nan

>  <ATP_Site>  (909) 
nan

>  <Peripheral>  (909) 
nan

>  <Num_H_Atoms_ProtBoundConf>  (909) 
nan

>  <Num_Resolved_Atoms>  (909) 
nan

>  <Num_Not_Resolved_Atoms>  (909) 
nan

$$$$
CHEMBL3780714
     RDKit          3D

  0  0  0  0  0  0  0  0  0  0999 V3000
M  V30 BEGIN CTAB
M  V30 COUNTS 77 81 0 0 0
M  V30 BEGIN ATOM
M  V30 1 C 3.666006 3.822548 6.907683 0
M  V30 2 C 3.550104 3.465231 5.465536 0
M  V30 3 C 4.300500 2.419457 4.951236 0
M  V30 4 C 4.154735 2.126547 3.596601 0
M  V30 5 C 3.284589 2.859731 2.786953 0
M  V30 6 N 3.332839 2.348625 1.452482 0
M  V30 7 N 4.202266 2.823419 0.575778 0
M  V30 8 C 4.057213 2.189941 -0.604312 0
M  V30 9 C 4.796885 2.372091 -1.880744 0
M  V30 10 C 5.974730 1.457206 -1.881165 0
M  V30 11 C 5.122577 3.826287 -2.052393 0
M  V30 12 C 3.880022 1.959624 -3.029149 0
M  V30 13 C 3.035921 1.295585 -0.380010 0
M  V30 14 C 2.583698 1.400287 0.917492 0
M  V30 15 N 1.550595 0.673811 1.569175 0
M  V30 16 C 0.761537 -0.329019 0.989818 0
M  V30 17 O 0.959811 -0.637671 -0.212455 0
M  V30 18 N -0.269448 -1.046231 1.658480 0
M  V30 19 C -0.881763 -1.999691 0.786271 0
M  V30 20 C -1.963417 -1.543803 0.064110 0
M  V30 21 C -2.548079 -2.464679 -0.773553 0
M  V30 22 C -2.153029 -3.770153 -0.945997 0
M  V30 23 O -2.596665 -4.799859 -1.708854 0
M  V30 24 C -3.621924 -4.940480 -2.608234 0
M  V30 25 C -4.991765 -4.722288 -2.084764 0
M  V30 26 C -5.508387 -5.888318 -1.509242 0
M  V30 27 C -6.771257 -5.951670 -0.959489 0
M  V30 28 N -7.537927 -4.847073 -0.977339 0
M  V30 29 C -7.078864 -3.684823 -1.527782 0
M  V30 30 N -7.837845 -2.478119 -1.581390 0
M  V30 31 S -7.272462 -1.005655 -2.270535 0
M  V30 32 C -5.851051 -0.354930 -1.471187 0
M  V30 33 O -6.957390 -1.169154 -3.729849 0
M  V30 34 O -8.383447 -0.001269 -2.182832 0
M  V30 35 C -5.817491 -3.620061 -2.077524 0
M  V30 36 C -1.047468 -4.179833 -0.186386 0
M  V30 37 C -0.477717 -5.434065 -0.194555 0
M  V30 38 C 0.606195 -5.783537 0.570166 0
M  V30 39 C 1.181812 -4.862833 1.400122 0
M  V30 40 C 0.675490 -3.589161 1.468309 0
M  V30 41 C -0.406311 -3.290582 0.685884 0
M  V30 42 C 2.559289 3.882625 3.319685 0
M  V30 43 C 2.692398 4.184159 4.656590 0
M  V30 44 H 2.683193 3.724271 7.440366 0
M  V30 45 H 4.052202 4.841786 7.077252 0
M  V30 46 H 4.352375 3.110507 7.405491 0
M  V30 47 H 4.946804 1.897741 5.619576 0
M  V30 48 H 4.795242 1.283202 3.302636 0
M  V30 49 H 5.954741 0.718006 -2.722558 0
M  V30 50 H 6.886008 2.062269 -2.020186 0
M  V30 51 H 6.016694 0.824957 -0.958736 0
M  V30 52 H 5.711153 4.025281 -2.956618 0
M  V30 53 H 4.130504 4.353927 -2.084763 0
M  V30 54 H 5.604098 4.220452 -1.129965 0
M  V30 55 H 2.872585 2.437380 -2.928353 0
M  V30 56 H 3.690192 0.867241 -3.011488 0
M  V30 57 H 4.275067 2.295560 -4.008753 0
M  V30 58 H 2.673348 0.624577 -1.145540 0
M  V30 59 H 1.324105 0.870224 2.567222 0
M  V30 60 H -0.456556 -0.814931 2.649755 0
M  V30 61 H -2.393561 -0.555615 0.086063 0
M  V30 62 H -3.396631 -2.213159 -1.386398 0
M  V30 63 H -3.467366 -4.132601 -3.396369 0
M  V30 64 H -3.593655 -5.907968 -3.160164 0
M  V30 65 H -4.983666 -6.850032 -1.433785 0
M  V30 66 H -7.195826 -6.837607 -0.508777 0
M  V30 67 H -8.807360 -2.558526 -1.151236 0
M  V30 68 H -4.909342 -0.474812 -2.051202 0
M  V30 69 H -5.978696 0.739522 -1.354251 0
M  V30 70 H -5.728620 -0.765129 -0.428182 0
M  V30 71 H -5.368611 -2.775947 -2.535017 0
M  V30 72 H -0.930049 -6.167588 -0.850591 0
M  V30 73 H 0.972843 -6.814073 0.479174 0
M  V30 74 H 2.030186 -5.154691 1.991758 0
M  V30 75 H 1.126888 -2.868262 2.118738 0
M  V30 76 H 1.926814 4.365209 2.583350 0
M  V30 77 H 2.091133 5.003622 5.014597 0
M  V30 END ATOM
M  V30 BEGIN BOND
M  V30 1 1 1 2
M  V30 2 2 2 3
M  V30 3 1 3 4
M  V30 4 2 4 5
M  V30 5 1 5 6
M  V30 6 1 6 7
M  V30 7 2 7 8
M  V30 8 1 8 9
M  V30 9 1 9 10
M  V30 10 1 9 11
M  V30 11 1 9 12
M  V30 12 1 8 13
M  V30 13 2 13 14
M  V30 14 1 14 15
M  V30 15 1 15 16
M  V30 16 2 16 17
M  V30 17 1 16 18
M  V30 18 1 18 19
M  V30 19 2 19 20
M  V30 20 1 20 21
M  V30 21 2 21 22
M  V30 22 1 22 23
M  V30 23 1 23 24
M  V30 24 1 24 25
M  V30 25 2 25 26
M  V30 26 1 26 27
M  V30 27 2 27 28
M  V30 28 1 28 29
M  V30 29 1 29 30
M  V30 30 1 30 31
M  V30 31 1 31 32
M  V30 32 2 31 33
M  V30 33 2 31 34
M  V30 34 2 29 35
M  V30 35 1 22 36
M  V30 36 2 36 37
M  V30 37 1 37 38
M  V30 38 2 38 39
M  V30 39 1 39 40
M  V30 40 2 40 41
M  V30 41 1 5 42
M  V30 42 2 42 43
M  V30 43 1 43 2
M  V30 44 1 14 6
M  V30 45 1 41 19
M  V30 46 1 35 25
M  V30 47 1 41 36
M  V30 48 1 1 44
M  V30 49 1 1 45
M  V30 50 1 1 46
M  V30 51 1 3 47
M  V30 52 1 4 48
M  V30 53 1 10 49
M  V30 54 1 10 50
M  V30 55 1 10 51
M  V30 56 1 11 52
M  V30 57 1 11 53
M  V30 58 1 11 54
M  V30 59 1 12 55
M  V30 60 1 12 56
M  V30 61 1 12 57
M  V30 62 1 13 58
M  V30 63 1 15 59
M  V30 64 1 18 60
M  V30 65 1 20 61
M  V30 66 1 21 62
M  V30 67 1 24 63
M  V30 68 1 24 64
M  V30 69 1 26 65
M  V30 70 1 27 66
M  V30 71 1 30 67
M  V30 72 1 32 68
M  V30 73 1 32 69
M  V30 74 1 32 70
M  V30 75 1 35 71
M  V30 76 1 37 72
M  V30 77 1 38 73
M  V30 78 1 39 74
M  V30 79 1 40 75
M  V30 80 1 42 76
M  V30 81 1 43 77
M  V30 END BOND
M  V30 END CTAB
M  END
>  <Dataset>  (910) 
ChEMBL_Kinases

>  <Ligand_Instance>  (910) 
nan

>  <PDB_ID>  (910) 
nan

>  <Standardized_SMILES>  (910) 
Cc1ccc(-n2nc(C(C)(C)C)cc2NC(=O)Nc2ccc(OCc3ccnc(NS(C)(=O)=O)c3)c3ccccc23)cc1

>  <Name>  (910) 
nan

>  <Pocket>  (910) 
nan

>  <ATP_Site>  (910) 
nan

>  <Peripheral>  (910) 
nan

>  <Num_H_Atoms_ProtBoundConf>  (910) 
nan

>  <Num_Resolved_Atoms>  (910) 
nan

>  <Num_Not_Resolved_Atoms>  (910) 
nan

$$$$
CHEMBL378067
     RDKit          3D

  0  0  0  0  0  0  0  0  0  0999 V3000
M  V30 BEGIN CTAB
M  V30 COUNTS 37 41 0 0 0
M  V30 BEGIN ATOM
M  V30 1 O 2.068445 2.011940 2.630788 0
M  V30 2 C 1.630397 0.833240 2.577375 0
M  V30 3 N 1.686808 -0.216112 3.534465 0
M  V30 4 C 1.058116 -1.374608 3.036010 0
M  V30 5 O 1.034797 -2.352689 3.757278 0
M  V30 6 C 0.570474 -1.105089 1.725317 0
M  V30 7 C 0.909744 0.203117 1.453965 0
M  V30 8 C 0.585021 0.819140 0.235810 0
M  V30 9 C 0.929681 2.179767 -0.064867 0
M  V30 10 C 0.050836 3.207685 0.254016 0
M  V30 11 Br -1.617825 2.821433 1.092252 0
M  V30 12 C 0.437514 4.503001 -0.060284 0
M  V30 13 C 1.641848 4.797885 -0.666875 0
M  V30 14 C 2.522659 3.769552 -0.986658 0
M  V30 15 C 2.136193 2.481429 -0.673176 0
M  V30 16 Br 3.350801 1.073375 -1.115145 0
M  V30 17 C -0.097760 0.076568 -0.713411 0
M  V30 18 C -0.438456 -1.233812 -0.443546 0
M  V30 19 N -1.091531 -2.134568 -1.200775 0
M  V30 20 C -1.155334 -3.271912 -0.444628 0
M  V30 21 C -1.744344 -4.460451 -0.830010 0
M  V30 22 C -1.746250 -5.544969 0.023652 0
M  V30 23 C -1.135053 -5.386159 1.273576 0
M  V30 24 O -1.147540 -6.489201 2.118076 0
M  V30 25 C -0.567963 -4.171564 1.589012 0
M  V30 26 C -0.547060 -3.089470 0.780024 0
M  V30 27 C -0.101318 -1.802254 0.764905 0
M  V30 28 H 2.169989 -0.012734 4.461016 0
M  V30 29 H -0.291819 5.247407 0.215166 0
M  V30 30 H 1.836174 5.848692 -0.864637 0
M  V30 31 H 3.438819 4.037772 -1.452474 0
M  V30 32 H -0.364090 0.524492 -1.667160 0
M  V30 33 H -1.454650 -1.969708 -2.148423 0
M  V30 34 H -2.213356 -4.583794 -1.787988 0
M  V30 35 H -2.211472 -6.467120 -0.293875 0
M  V30 36 H -0.396899 -6.570317 2.789408 0
M  V30 37 H -0.137951 -4.156389 2.544792 0
M  V30 END ATOM
M  V30 BEGIN BOND
M  V30 1 2 1 2
M  V30 2 1 2 3
M  V30 3 1 3 4
M  V30 4 2 4 5
M  V30 5 1 4 6
M  V30 6 2 6 7
M  V30 7 1 7 8
M  V30 8 1 8 9
M  V30 9 2 9 10
M  V30 10 1 10 11
M  V30 11 1 10 12
M  V30 12 2 12 13
M  V30 13 1 13 14
M  V30 14 2 14 15
M  V30 15 1 15 16
M  V30 16 2 8 17
M  V30 17 1 17 18
M  V30 18 1 18 19
M  V30 19 1 19 20
M  V30 20 2 20 21
M  V30 21 1 21 22
M  V30 22 2 22 23
M  V30 23 1 23 24
M  V30 24 1 23 25
M  V30 25 2 25 26
M  V30 26 1 26 27
M  V30 27 1 7 2
M  V30 28 1 15 9
M  V30 29 2 27 18
M  V30 30 1 27 6
M  V30 31 1 26 20
M  V30 32 1 3 28
M  V30 33 1 12 29
M  V30 34 1 13 30
M  V30 35 1 14 31
M  V30 36 1 17 32
M  V30 37 1 19 33
M  V30 38 1 21 34
M  V30 39 1 22 35
M  V30 40 1 24 36
M  V30 41 1 25 37
M  V30 END BOND
M  V30 END CTAB
M  END
>  <Dataset>  (911) 
ChEMBL_Kinases

>  <Ligand_Instance>  (911) 
nan

>  <PDB_ID>  (911) 
nan

>  <Standardized_SMILES>  (911) 
O=C1NC(=O)c2c1c(-c1c(Br)cccc1Br)cc1[nH]c3ccc(O)cc3c21

>  <Name>  (911) 
nan

>  <Pocket>  (911) 
nan

>  <ATP_Site>  (911) 
nan

>  <Peripheral>  (911) 
nan

>  <Num_H_Atoms_ProtBoundConf>  (911) 
nan

>  <Num_Resolved_Atoms>  (911) 
nan

>  <Num_Not_Resolved_Atoms>  (911) 
nan

$$$$
CHEMBL377085
     RDKit          3D

  0  0  0  0  0  0  0  0  0  0999 V3000
M  V30 BEGIN CTAB
M  V30 COUNTS 26 27 0 0 0
M  V30 BEGIN ATOM
M  V30 1 C 2.801329 -0.943956 4.089902 0
M  V30 2 C 1.886636 -0.753504 2.942463 0
M  V30 3 C 0.523561 -0.593429 3.056038 0
M  V30 4 C -0.393950 -0.411980 2.046311 0
M  V30 5 C -1.846899 -0.254522 2.360666 0
M  V30 6 C 0.098585 -0.385289 0.759374 0
M  V30 7 C -0.605426 -0.219729 -0.404620 0
M  V30 8 N -2.011024 -0.039256 -0.516215 0
M  V30 9 C 0.079514 -0.222568 -1.606249 0
M  V30 10 C -0.347299 -0.078396 -2.957765 0
M  V30 11 N 0.564285 -0.119138 -4.013311 0
M  V30 12 O -1.565908 0.088607 -3.207173 0
M  V30 13 S 1.771310 -0.463704 -1.120917 0
M  V30 14 C 1.475723 -0.546148 0.631813 0
M  V30 15 N 2.323266 -0.721621 1.680439 0
M  V30 16 H 3.792664 -0.532407 3.765906 0
M  V30 17 H 2.428430 -0.401657 4.986489 0
M  V30 18 H 2.990966 -2.016826 4.289522 0
M  V30 19 H 0.105853 -0.611288 4.077142 0
M  V30 20 H -2.340484 0.538270 1.767928 0
M  V30 21 H -1.901311 0.095821 3.412177 0
M  V30 22 H -2.390336 -1.223345 2.310703 0
M  V30 23 H -2.481234 0.907113 -0.622872 0
M  V30 24 H -2.712383 -0.814359 -0.504191 0
M  V30 25 H 0.300552 -0.864626 -4.721624 0
M  V30 26 H 1.229540 -0.148993 -4.783790 0
M  V30 END ATOM
M  V30 BEGIN BOND
M  V30 1 1 1 2
M  V30 2 2 2 3
M  V30 3 1 3 4
M  V30 4 1 4 5
M  V30 5 2 4 6
M  V30 6 1 6 7
M  V30 7 1 7 8
M  V30 8 2 7 9
M  V30 9 1 9 10
M  V30 10 1 10 11
M  V30 11 2 10 12
M  V30 12 1 9 13
M  V30 13 1 13 14
M  V30 14 2 14 15
M  V30 15 1 15 2
M  V30 16 1 14 6
M  V30 17 1 1 16
M  V30 18 1 1 17
M  V30 19 1 1 18
M  V30 20 1 3 19
M  V30 21 1 5 20
M  V30 22 1 5 21
M  V30 23 1 5 22
M  V30 24 1 8 23
M  V30 25 1 8 24
M  V30 26 1 11 25
M  V30 27 1 11 26
M  V30 END BOND
M  V30 END CTAB
M  END
>  <Dataset>  (912) 
ChEMBL_Kinases

>  <Ligand_Instance>  (912) 
nan

>  <PDB_ID>  (912) 
nan

>  <Standardized_SMILES>  (912) 
Cc1cc(C)c2c(N)c(C(N)=O)sc2n1

>  <Name>  (912) 
nan

>  <Pocket>  (912) 
nan

>  <ATP_Site>  (912) 
nan

>  <Peripheral>  (912) 
nan

>  <Num_H_Atoms_ProtBoundConf>  (912) 
nan

>  <Num_Resolved_Atoms>  (912) 
nan

>  <Num_Not_Resolved_Atoms>  (912) 
nan

$$$$
CHEMBL377201
     RDKit          3D

  0  0  0  0  0  0  0  0  0  0999 V3000
M  V30 BEGIN CTAB
M  V30 COUNTS 38 39 0 0 0
M  V30 BEGIN ATOM
M  V30 1 C 1.895981 -4.504917 4.806842 0
M  V30 2 C 1.713268 -3.665677 3.536034 0
M  V30 3 O 0.383261 -3.740946 3.078887 0
M  V30 4 C -0.113346 -3.101568 1.956941 0
M  V30 5 N 0.536082 -2.295138 1.089470 0
M  V30 6 C -0.124656 -1.772147 0.063916 0
M  V30 7 N 0.528196 -0.917148 -0.866052 0
M  V30 8 C 0.501798 0.493738 -0.567698 0
M  V30 9 O -0.130762 0.644940 0.510031 0
M  V30 10 C 1.190817 1.351079 -1.557788 0
M  V30 11 C 1.143563 2.788844 -1.232036 0
M  V30 12 C 2.198430 3.506586 -0.717072 0
M  V30 13 C 2.118879 4.861022 -0.421997 0
M  V30 14 C 0.885254 5.469877 -0.680834 0
M  V30 15 C -0.205471 4.800371 -1.196013 0
M  V30 16 C -0.041272 3.456753 -1.460943 0
M  V30 17 Cl -1.478907 2.659310 -2.120149 0
M  V30 18 C -1.461679 -1.995704 -0.190764 0
M  V30 19 C -2.154292 -2.814304 0.675365 0
M  V30 20 N -3.526641 -3.066739 0.446517 0
M  V30 21 C -1.472181 -3.373568 1.761480 0
M  V30 22 C -2.262170 -4.219207 2.622347 0
M  V30 23 N -2.868850 -4.896169 3.306645 0
M  V30 24 H 1.443072 -4.043792 5.688667 0
M  V30 25 H 2.974573 -4.611616 4.971787 0
M  V30 26 H 1.439812 -5.491241 4.553458 0
M  V30 27 H 2.452593 -4.065699 2.807129 0
M  V30 28 H 2.018758 -2.612847 3.771882 0
M  V30 29 H 0.967470 -1.406058 -1.683995 0
M  V30 30 H 0.708594 1.226867 -2.560321 0
M  V30 31 H 2.244506 1.001044 -1.691084 0
M  V30 32 H 3.139184 2.994227 -0.530434 0
M  V30 33 H 2.945689 5.429414 -0.017458 0
M  V30 34 H 0.812359 6.543444 -0.450143 0
M  V30 35 H -1.115996 5.360045 -1.360845 0
M  V30 36 H -1.995978 -1.563621 -1.032975 0
M  V30 37 H -4.081301 -2.209445 0.660824 0
M  V30 38 H -3.733921 -4.041140 0.112560 0
M  V30 END ATOM
M  V30 BEGIN BOND
M  V30 1 1 1 2
M  V30 2 1 2 3
M  V30 3 1 3 4
M  V30 4 2 4 5
M  V30 5 1 5 6
M  V30 6 1 6 7
M  V30 7 1 7 8
M  V30 8 2 8 9
M  V30 9 1 8 10
M  V30 10 1 10 11
M  V30 11 2 11 12
M  V30 12 1 12 13
M  V30 13 2 13 14
M  V30 14 1 14 15
M  V30 15 2 15 16
M  V30 16 1 16 17
M  V30 17 2 6 18
M  V30 18 1 18 19
M  V30 19 1 19 20
M  V30 20 2 19 21
M  V30 21 1 21 22
M  V30 22 3 22 23
M  V30 23 1 21 4
M  V30 24 1 16 11
M  V30 25 1 1 24
M  V30 26 1 1 25
M  V30 27 1 1 26
M  V30 28 1 2 27
M  V30 29 1 2 28
M  V30 30 1 7 29
M  V30 31 1 10 30
M  V30 32 1 10 31
M  V30 33 1 12 32
M  V30 34 1 13 33
M  V30 35 1 14 34
M  V30 36 1 15 35
M  V30 37 1 18 36
M  V30 38 1 20 37
M  V30 39 1 20 38
M  V30 END BOND
M  V30 END CTAB
M  END
>  <Dataset>  (913) 
ChEMBL_Kinases

>  <Ligand_Instance>  (913) 
nan

>  <PDB_ID>  (913) 
nan

>  <Standardized_SMILES>  (913) 
CCOc1nc(NC(=O)Cc2ccccc2Cl)cc(N)c1C#N

>  <Name>  (913) 
nan

>  <Pocket>  (913) 
nan

>  <ATP_Site>  (913) 
nan

>  <Peripheral>  (913) 
nan

>  <Num_H_Atoms_ProtBoundConf>  (913) 
nan

>  <Num_Resolved_Atoms>  (913) 
nan

>  <Num_Not_Resolved_Atoms>  (913) 
nan

$$$$
CHEMBL3354188
     RDKit          3D

  0  0  0  0  0  0  0  0  0  0999 V3000
M  V30 BEGIN CTAB
M  V30 COUNTS 53 56 0 0 0
M  V30 BEGIN ATOM
M  V30 1 C -0.612588 -3.834369 0.631280 0
M  V30 2 O -0.241804 -2.874940 -0.284912 0
M  V30 3 C -1.103518 -2.838597 -1.354452 0
M  V30 4 C -1.866847 -1.547922 -1.501897 0
M  V30 5 C -0.983164 -0.380189 -1.867983 0
M  V30 6 N 0.294537 -0.883225 -2.313964 0
M  V30 7 C 1.583906 -0.477127 -1.879850 0
M  V30 8 N 2.789376 -0.916450 -2.269033 0
M  V30 9 C 3.930225 -0.416747 -1.728964 0
M  V30 10 C 3.875840 0.562084 -0.760118 0
M  V30 11 C 2.631967 1.023785 -0.350867 0
M  V30 12 N 2.503930 2.038509 0.670527 0
M  V30 13 C 2.184438 1.175851 1.765401 0
M  V30 14 C 0.799124 1.032260 1.872735 0
M  V30 15 C 0.193519 0.233433 2.853531 0
M  V30 16 C 1.069975 -0.406016 3.711273 0
M  V30 17 C 0.309509 -1.139562 4.598523 0
M  V30 18 C -1.004529 -0.905195 4.229809 0
M  V30 19 N -1.068265 -0.075176 3.174854 0
M  V30 20 C -2.225303 0.438306 2.462199 0
M  V30 21 C -2.325967 1.946376 2.666070 0
M  V30 22 C -3.508670 -0.154520 2.926440 0
M  V30 23 C 2.442296 -0.265758 3.608653 0
M  V30 24 N 2.979157 0.513698 2.649203 0
M  V30 25 N 1.529781 0.478606 -0.934409 0
M  V30 26 C 0.164070 -1.912716 -3.305809 0
M  V30 27 C -0.456716 -3.165329 -2.671916 0
M  V30 28 H -0.626181 -4.845785 0.174753 0
M  V30 29 H 0.076431 -3.830908 1.500299 0
M  V30 30 H -1.618746 -3.644184 1.041741 0
M  V30 31 H -1.879260 -3.628683 -1.166529 0
M  V30 32 H -2.495296 -1.342417 -0.608486 0
M  V30 33 H -2.579263 -1.697366 -2.350871 0
M  V30 34 H -0.880116 0.341058 -1.023731 0
M  V30 35 H -1.460925 0.226957 -2.687319 0
M  V30 36 H 4.846571 -0.838687 -2.113694 0
M  V30 37 H 4.779919 0.954486 -0.337086 0
M  V30 38 H 2.622878 3.072804 0.576980 0
M  V30 39 H 0.071657 1.509370 1.226272 0
M  V30 40 H 0.683106 -1.765652 5.411103 0
M  V30 41 H -1.891264 -1.303572 4.686240 0
M  V30 42 H -2.090326 0.212814 1.389398 0
M  V30 43 H -3.299818 2.248847 3.121809 0
M  V30 44 H -1.542025 2.317678 3.351087 0
M  V30 45 H -2.301423 2.461878 1.672797 0
M  V30 46 H -3.497507 -1.217667 3.189376 0
M  V30 47 H -4.278038 -0.033518 2.116108 0
M  V30 48 H -3.879836 0.425312 3.807686 0
M  V30 49 H 3.162838 -0.743811 4.257392 0
M  V30 50 H -0.481225 -1.507966 -4.105451 0
M  V30 51 H 1.141508 -2.151031 -3.755346 0
M  V30 52 H 0.347268 -3.935950 -2.534312 0
M  V30 53 H -1.229141 -3.547062 -3.368938 0
M  V30 END ATOM
M  V30 BEGIN BOND
M  V30 1 1 1 2
M  V30 2 1 2 3
M  V30 3 1 3 4
M  V30 4 1 4 5
M  V30 5 1 5 6
M  V30 6 1 6 7
M  V30 7 2 7 8
M  V30 8 1 8 9
M  V30 9 2 9 10
M  V30 10 1 10 11
M  V30 11 1 11 12
M  V30 12 1 12 13
M  V30 13 2 13 14
M  V30 14 1 14 15
M  V30 15 2 15 16
M  V30 16 1 16 17
M  V30 17 2 17 18
M  V30 18 1 18 19
M  V30 19 1 19 20
M  V30 20 1 20 21
M  V30 21 1 20 22
M  V30 22 1 16 23
M  V30 23 2 23 24
M  V30 24 2 11 25
M  V30 25 1 6 26
M  V30 26 1 26 27
M  V30 27 1 27 3
M  V30 28 1 25 7
M  V30 29 1 24 13
M  V30 30 1 19 15
M  V30 31 1 1 28
M  V30 32 1 1 29
M  V30 33 1 1 30
M  V30 34 1 3 31
M  V30 35 1 4 32
M  V30 36 1 4 33
M  V30 37 1 5 34
M  V30 38 1 5 35
M  V30 39 1 9 36
M  V30 40 1 10 37
M  V30 41 1 12 38
M  V30 42 1 14 39
M  V30 43 1 17 40
M  V30 44 1 18 41
M  V30 45 1 20 42
M  V30 46 1 21 43
M  V30 47 1 21 44
M  V30 48 1 21 45
M  V30 49 1 22 46
M  V30 50 1 22 47
M  V30 51 1 22 48
M  V30 52 1 23 49
M  V30 53 1 26 50
M  V30 54 1 26 51
M  V30 55 1 27 52
M  V30 56 1 27 53
M  V30 END BOND
M  V30 END CTAB
M  END
>  <Dataset>  (914) 
ChEMBL_Kinases

>  <Ligand_Instance>  (914) 
nan

>  <PDB_ID>  (914) 
nan

>  <Standardized_SMILES>  (914) 
COC1CCN(c2nccc(Nc3cc4c(ccn4C(C)C)cn3)n2)CC1

>  <Name>  (914) 
nan

>  <Pocket>  (914) 
nan

>  <ATP_Site>  (914) 
nan

>  <Peripheral>  (914) 
nan

>  <Num_H_Atoms_ProtBoundConf>  (914) 
nan

>  <Num_Resolved_Atoms>  (914) 
nan

>  <Num_Not_Resolved_Atoms>  (914) 
nan

$$$$
CHEMBL377348
     RDKit          3D

  0  0  0  0  0  0  0  0  0  0999 V3000
M  V30 BEGIN CTAB
M  V30 COUNTS 33 34 0 0 0
M  V30 BEGIN ATOM
M  V30 1 C -1.502305 -3.018330 4.123811 0
M  V30 2 C -0.943842 -2.422111 2.882088 0
M  V30 3 O -1.165181 -1.180825 2.774192 0
M  V30 4 N -0.223471 -3.133149 1.881440 0
M  V30 5 C 0.281232 -2.486794 0.715679 0
M  V30 6 C 0.971424 -3.235510 -0.215680 0
M  V30 7 C 1.465112 -2.605285 -1.355119 0
M  V30 8 N 2.182860 -3.383109 -2.324027 0
M  V30 9 C 1.279294 -1.257621 -1.569612 0
M  V30 10 C 1.802019 -0.629061 -2.760356 0
M  V30 11 N 2.234122 -0.137902 -3.722984 0
M  V30 12 C 0.579695 -0.546520 -0.606132 0
M  V30 13 O 0.384793 0.819178 -0.811672 0
M  V30 14 C -0.318459 1.527148 0.159661 0
M  V30 15 C 0.515786 2.654799 0.782011 0
M  V30 16 C -0.648853 3.400529 1.444433 0
M  V30 17 O -1.651937 3.424048 0.484256 0
M  V30 18 C -1.481899 2.323525 -0.334076 0
M  V30 19 N 0.107487 -1.187499 0.499212 0
M  V30 20 H -0.995851 -2.470620 4.965958 0
M  V30 21 H -2.582184 -2.734551 4.235256 0
M  V30 22 H -1.388332 -4.102949 4.170562 0
M  V30 23 H -0.085757 -4.135233 2.041766 0
M  V30 24 H 1.160074 -4.288985 -0.125680 0
M  V30 25 H 1.788651 -4.094263 -2.971943 0
M  V30 26 H 1.531903 -4.032668 -2.849922 0
M  V30 27 H -0.652841 0.896332 1.014430 0
M  V30 28 H 1.002390 3.264991 -0.000618 0
M  V30 29 H 1.211107 2.283236 1.556745 0
M  V30 30 H -0.350118 4.374491 1.829340 0
M  V30 31 H -1.014147 2.699444 2.249552 0
M  V30 32 H -1.181090 2.742451 -1.333047 0
M  V30 33 H -2.370702 1.690742 -0.394416 0
M  V30 END ATOM
M  V30 BEGIN BOND
M  V30 1 1 1 2
M  V30 2 2 2 3
M  V30 3 1 2 4
M  V30 4 1 4 5
M  V30 5 2 5 6
M  V30 6 1 6 7
M  V30 7 1 7 8
M  V30 8 2 7 9
M  V30 9 1 9 10
M  V30 10 3 10 11
M  V30 11 1 9 12
M  V30 12 1 12 13
M  V30 13 1 13 14
M  V30 14 1 14 15
M  V30 15 1 15 16
M  V30 16 1 16 17
M  V30 17 1 17 18
M  V30 18 2 12 19
M  V30 19 1 19 5
M  V30 20 1 18 14
M  V30 21 1 1 20
M  V30 22 1 1 21
M  V30 23 1 1 22
M  V30 24 1 4 23
M  V30 25 1 6 24
M  V30 26 1 8 25
M  V30 27 1 8 26
M  V30 28 1 14 27
M  V30 29 1 15 28
M  V30 30 1 15 29
M  V30 31 1 16 30
M  V30 32 1 16 31
M  V30 33 1 18 32
M  V30 34 1 18 33
M  V30 END BOND
M  V30 END CTAB
M  END
>  <Dataset>  (915) 
ChEMBL_Kinases

>  <Ligand_Instance>  (915) 
nan

>  <PDB_ID>  (915) 
nan

>  <Standardized_SMILES>  (915) 
CC(=O)Nc1cc(N)c(C#N)c(OC2CCOC2)n1

>  <Name>  (915) 
nan

>  <Pocket>  (915) 
nan

>  <ATP_Site>  (915) 
nan

>  <Peripheral>  (915) 
nan

>  <Num_H_Atoms_ProtBoundConf>  (915) 
nan

>  <Num_Resolved_Atoms>  (915) 
nan

>  <Num_Not_Resolved_Atoms>  (915) 
nan

$$$$
CHEMBL3354189
     RDKit          3D

  0  0  0  0  0  0  0  0  0  0999 V3000
M  V30 BEGIN CTAB
M  V30 COUNTS 57 61 0 0 0
M  V30 BEGIN ATOM
M  V30 1 C -0.128412 -2.949213 2.770400 0
M  V30 2 O 1.066804 -3.491001 2.307996 0
M  V30 3 C 1.765904 -2.584586 1.525892 0
M  V30 4 C 3.129928 -2.379507 2.147124 0
M  V30 5 C 4.094052 -1.955372 1.027944 0
M  V30 6 N 3.266118 -1.234750 0.081334 0
M  V30 7 C 3.208304 0.178900 0.071569 0
M  V30 8 N 4.074803 0.984463 0.654666 0
M  V30 9 C 3.934400 2.344232 0.631576 0
M  V30 10 C 2.811506 2.807865 -0.050957 0
M  V30 11 C 1.877938 1.971691 -0.677844 0
M  V30 12 N 0.793011 2.667063 -1.299031 0
M  V30 13 C -0.148195 2.405587 -0.235288 0
M  V30 14 C -1.006944 1.346703 -0.545651 0
M  V30 15 C -1.971179 0.924162 0.341709 0
M  V30 16 C -2.047612 1.592842 1.546093 0
M  V30 17 C -3.067450 1.018875 2.275575 0
M  V30 18 C -3.566022 0.027936 1.484559 0
M  V30 19 N -2.902448 -0.035254 0.301774 0
M  V30 20 C -3.225396 -0.969067 -0.715253 0
M  V30 21 C -4.414755 -1.844506 -0.370656 0
M  V30 22 C -4.383819 -2.833829 -1.534230 0
M  V30 23 C -2.944218 -2.845065 -2.041589 0
M  V30 24 C -2.183188 -2.031546 -0.980928 0
M  V30 25 C -1.204056 2.641344 1.862640 0
M  V30 26 N -0.278321 3.016352 0.960585 0
M  V30 27 N 2.114238 0.634241 -0.594540 0
M  V30 28 C 2.552601 -2.129299 -0.798644 0
M  V30 29 C 1.848234 -3.125586 0.107820 0
M  V30 30 H 0.099958 -2.057037 3.375640 0
M  V30 31 H -0.801081 -2.682746 1.943391 0
M  V30 32 H -0.614854 -3.718865 3.427067 0
M  V30 33 H 1.194374 -1.619273 1.454872 0
M  V30 34 H 3.498577 -3.255404 2.698578 0
M  V30 35 H 3.098889 -1.509230 2.867266 0
M  V30 36 H 4.836003 -1.214664 1.439677 0
M  V30 37 H 4.627947 -2.797673 0.588134 0
M  V30 38 H 4.632833 3.017804 1.101841 0
M  V30 39 H 2.726741 3.904799 -0.052937 0
M  V30 40 H 0.716667 3.179976 -2.206062 0
M  V30 41 H -0.961378 0.806302 -1.490198 0
M  V30 42 H -3.368758 1.333473 3.274354 0
M  V30 43 H -4.392923 -0.583387 1.840937 0
M  V30 44 H -3.464333 -0.511074 -1.702027 0
M  V30 45 H -4.145029 -2.423108 0.552648 0
M  V30 46 H -5.352172 -1.290263 -0.297257 0
M  V30 47 H -4.999132 -2.409541 -2.354103 0
M  V30 48 H -4.710800 -3.846036 -1.232273 0
M  V30 49 H -2.832593 -2.285427 -2.990686 0
M  V30 50 H -2.559810 -3.862448 -2.156393 0
M  V30 51 H -2.054406 -2.724360 -0.101623 0
M  V30 52 H -1.234722 -1.646041 -1.377110 0
M  V30 53 H -1.222599 3.196833 2.788800 0
M  V30 54 H 1.844014 -1.627634 -1.461981 0
M  V30 55 H 3.325995 -2.717374 -1.347173 0
M  V30 56 H 0.799147 -3.209239 -0.249222 0
M  V30 57 H 2.309635 -4.115792 0.102289 0
M  V30 END ATOM
M  V30 BEGIN BOND
M  V30 1 1 1 2
M  V30 2 1 2 3
M  V30 3 1 3 4
M  V30 4 1 4 5
M  V30 5 1 5 6
M  V30 6 1 6 7
M  V30 7 2 7 8
M  V30 8 1 8 9
M  V30 9 2 9 10
M  V30 10 1 10 11
M  V30 11 1 11 12
M  V30 12 1 12 13
M  V30 13 2 13 14
M  V30 14 1 14 15
M  V30 15 2 15 16
M  V30 16 1 16 17
M  V30 17 2 17 18
M  V30 18 1 18 19
M  V30 19 1 19 20
M  V30 20 1 20 21
M  V30 21 1 21 22
M  V30 22 1 22 23
M  V30 23 1 23 24
M  V30 24 1 16 25
M  V30 25 2 25 26
M  V30 26 2 11 27
M  V30 27 1 6 28
M  V30 28 1 28 29
M  V30 29 1 29 3
M  V30 30 1 27 7
M  V30 31 1 26 13
M  V30 32 1 19 15
M  V30 33 1 24 20
M  V30 34 1 1 30
M  V30 35 1 1 31
M  V30 36 1 1 32
M  V30 37 1 3 33
M  V30 38 1 4 34
M  V30 39 1 4 35
M  V30 40 1 5 36
M  V30 41 1 5 37
M  V30 42 1 9 38
M  V30 43 1 10 39
M  V30 44 1 12 40
M  V30 45 1 14 41
M  V30 46 1 17 42
M  V30 47 1 18 43
M  V30 48 1 20 44
M  V30 49 1 21 45
M  V30 50 1 21 46
M  V30 51 1 22 47
M  V30 52 1 22 48
M  V30 53 1 23 49
M  V30 54 1 23 50
M  V30 55 1 24 51
M  V30 56 1 24 52
M  V30 57 1 25 53
M  V30 58 1 28 54
M  V30 59 1 28 55
M  V30 60 1 29 56
M  V30 61 1 29 57
M  V30 END BOND
M  V30 END CTAB
M  END
>  <Dataset>  (916) 
ChEMBL_Kinases

>  <Ligand_Instance>  (916) 
nan

>  <PDB_ID>  (916) 
nan

>  <Standardized_SMILES>  (916) 
COC1CCN(c2nccc(Nc3cc4c(ccn4C4CCCC4)cn3)n2)CC1

>  <Name>  (916) 
nan

>  <Pocket>  (916) 
nan

>  <ATP_Site>  (916) 
nan

>  <Peripheral>  (916) 
nan

>  <Num_H_Atoms_ProtBoundConf>  (916) 
nan

>  <Num_Resolved_Atoms>  (916) 
nan

>  <Num_Not_Resolved_Atoms>  (916) 
nan

$$$$
CHEMBL4160540
     RDKit          3D

  0  0  0  0  0  0  0  0  0  0999 V3000
M  V30 BEGIN CTAB
M  V30 COUNTS 61 63 0 0 0
M  V30 BEGIN ATOM
M  V30 1 C -2.694092 0.348806 4.163362 0
M  V30 2 C -1.177528 0.232581 4.012083 0
M  V30 3 C -0.638548 -0.939199 4.761789 0
M  V30 4 C 0.841043 -1.100953 4.647177 0
M  V30 5 N 1.283384 -1.288726 3.277114 0
M  V30 6 C 1.671661 -0.408919 2.332360 0
M  V30 7 C 2.000930 -1.066504 1.198871 0
M  V30 8 C 2.457998 -0.554958 -0.090134 0
M  V30 9 C 1.918549 0.515141 -0.638504 0
M  V30 10 C 0.812571 1.331190 -0.064001 0
M  V30 11 C 0.166773 1.949704 -1.233714 0
M  V30 12 C 0.064488 3.499403 -1.038158 0
M  V30 13 O -0.446741 3.949390 -2.260537 0
M  V30 14 C -1.200776 1.503562 -1.589864 0
M  V30 15 O -1.366940 0.249558 -2.114992 0
M  V30 16 C -1.153162 -0.963192 -1.619094 0
M  V30 17 O -0.732565 -1.303220 -0.507730 0
M  V30 18 C -1.478536 -2.064598 -2.568318 0
M  V30 19 C -1.191680 -3.424089 -1.974479 0
M  V30 20 C -2.987087 -1.960411 -2.795938 0
M  V30 21 C -0.774595 -1.888687 -3.878525 0
M  V30 22 O 1.068977 1.867198 -2.353503 0
M  V30 23 C 2.228815 1.196697 -1.911302 0
M  V30 24 O 3.386812 1.127217 -2.439561 0
M  V30 25 C 1.806306 -2.424034 1.455136 0
M  V30 26 C 1.983427 -3.546443 0.652801 0
M  V30 27 C 1.697664 -4.806002 1.190007 0
M  V30 28 C 1.248088 -4.936723 2.491731 0
M  V30 29 C 1.073569 -3.826671 3.284485 0
M  V30 30 C 1.352491 -2.555120 2.770627 0
M  V30 31 H -3.053782 0.882439 3.265099 0
M  V30 32 H -3.183651 -0.661127 4.108005 0
M  V30 33 H -2.983846 0.904369 5.074812 0
M  V30 34 H -0.781968 1.183459 4.447164 0
M  V30 35 H -0.908743 0.121162 2.939172 0
M  V30 36 H -1.194246 -1.868934 4.441417 0
M  V30 37 H -0.878676 -0.855990 5.862402 0
M  V30 38 H 1.286260 -0.147432 5.063897 0
M  V30 39 H 1.201955 -1.885666 5.336648 0
M  V30 40 H 1.704568 0.665243 2.500439 0
M  V30 41 H 3.260720 -0.991985 -0.701587 0
M  V30 42 H 0.195333 0.838833 0.674243 0
M  V30 43 H 1.369346 2.176915 0.473779 0
M  V30 44 H 1.056932 3.908422 -0.850473 0
M  V30 45 H -0.669529 3.711141 -0.264247 0
M  V30 46 H 0.000907 3.436094 -3.000986 0
M  V30 47 H -1.708274 2.294521 -2.232508 0
M  V30 48 H -1.797917 1.512743 -0.608025 0
M  V30 49 H -1.366661 -4.191780 -2.747381 0
M  V30 50 H -0.123274 -3.443973 -1.683888 0
M  V30 51 H -1.792426 -3.596203 -1.062716 0
M  V30 52 H -3.451010 -2.978960 -2.863676 0
M  V30 53 H -3.485806 -1.386316 -1.986474 0
M  V30 54 H -3.165038 -1.477576 -3.780862 0
M  V30 55 H -1.438980 -1.547904 -4.680971 0
M  V30 56 H -0.283821 -2.835738 -4.202465 0
M  V30 57 H 0.063189 -1.143501 -3.766358 0
M  V30 58 H 2.339382 -3.479524 -0.383122 0
M  V30 59 H 1.806700 -5.711638 0.642097 0
M  V30 60 H 1.009947 -5.885613 2.960145 0
M  V30 61 H 0.723296 -3.918095 4.302659 0
M  V30 END ATOM
M  V30 BEGIN BOND
M  V30 1 1 1 2
M  V30 2 1 2 3
M  V30 3 1 3 4
M  V30 4 1 4 5
M  V30 5 1 5 6
M  V30 6 2 6 7
M  V30 7 1 7 8
M  V30 8 2 8 9
M  V30 9 1 9 10
M  V30 10 1 10 11
M  V30 11 1 11 12
M  V30 12 1 12 13
M  V30 13 1 11 14
M  V30 14 1 14 15
M  V30 15 1 15 16
M  V30 16 2 16 17
M  V30 17 1 16 18
M  V30 18 1 18 19
M  V30 19 1 18 20
M  V30 20 1 18 21
M  V30 21 1 11 22
M  V30 22 1 22 23
M  V30 23 2 23 24
M  V30 24 1 7 25
M  V30 25 2 25 26
M  V30 26 1 26 27
M  V30 27 2 27 28
M  V30 28 1 28 29
M  V30 29 2 29 30
M  V30 30 1 30 5
M  V30 31 1 23 9
M  V30 32 1 30 25
M  V30 33 1 1 31
M  V30 34 1 1 32
M  V30 35 1 1 33
M  V30 36 1 2 34
M  V30 37 1 2 35
M  V30 38 1 3 36
M  V30 39 1 3 37
M  V30 40 1 4 38
M  V30 41 1 4 39
M  V30 42 1 6 40
M  V30 43 1 8 41
M  V30 44 1 10 42
M  V30 45 1 10 43
M  V30 46 1 12 44
M  V30 47 1 12 45
M  V30 48 1 13 46
M  V30 49 1 14 47
M  V30 50 1 14 48
M  V30 51 1 19 49
M  V30 52 1 19 50
M  V30 53 1 19 51
M  V30 54 1 20 52
M  V30 55 1 20 53
M  V30 56 1 20 54
M  V30 57 1 21 55
M  V30 58 1 21 56
M  V30 59 1 21 57
M  V30 60 1 26 58
M  V30 61 1 27 59
M  V30 62 1 28 60
M  V30 63 1 29 61
M  V30 END BOND
M  V30 END CTAB
M  END
>  <Dataset>  (917) 
ChEMBL_Kinases

>  <Ligand_Instance>  (917) 
nan

>  <PDB_ID>  (917) 
nan

>  <Standardized_SMILES>  (917) 
CCCCn1cc(/C=C2\CC(CO)(COC(=O)C(C)(C)C)OC2=O)c2ccccc21

>  <Name>  (917) 
nan

>  <Pocket>  (917) 
nan

>  <ATP_Site>  (917) 
nan

>  <Peripheral>  (917) 
nan

>  <Num_H_Atoms_ProtBoundConf>  (917) 
nan

>  <Num_Resolved_Atoms>  (917) 
nan

>  <Num_Not_Resolved_Atoms>  (917) 
nan

$$$$
CHEMBL377430
     RDKit          3D

  0  0  0  0  0  0  0  0  0  0999 V3000
M  V30 BEGIN CTAB
M  V30 COUNTS 36 38 0 0 0
M  V30 BEGIN ATOM
M  V30 1 C 4.036467 -7.220692 0.226618 0
M  V30 2 O 4.029443 -5.842402 -0.161199 0
M  V30 3 C 2.986611 -4.998898 0.193571 0
M  V30 4 C 1.937997 -5.501606 0.934340 0
M  V30 5 C 0.918520 -4.635355 1.269481 0
M  V30 6 C 1.005634 -3.326234 0.847760 0
M  V30 7 C 2.028530 -2.780133 0.109300 0
M  V30 8 N 2.151144 -1.445877 -0.340463 0
M  V30 9 C 1.242575 -0.411140 -0.113879 0
M  V30 10 O 0.203033 -0.548211 0.522596 0
M  V30 11 N 1.519800 0.862054 -0.636353 0
M  V30 12 C 0.614972 2.051342 -0.454734 0
M  V30 13 N 0.446380 3.158407 -0.668142 0
M  V30 14 N -0.544344 3.901846 -0.313499 0
M  V30 15 C -1.478221 3.561201 0.311501 0
M  V30 16 C -2.762935 4.137577 0.879345 0
M  V30 17 C -2.888416 5.457584 0.590414 0
M  V30 18 C -4.064364 6.018005 1.100403 0
M  V30 19 N -4.985283 5.339362 1.804332 0
M  V30 20 C -4.787886 4.020829 2.052252 0
M  V30 21 C -3.660154 3.371882 1.593577 0
M  V30 22 S -0.982327 1.751441 0.535286 0
M  V30 23 C 3.020610 -3.687198 -0.198646 0
M  V30 24 H 3.218353 -7.736040 -0.277360 0
M  V30 25 H 5.043322 -7.608808 0.017120 0
M  V30 26 H 3.891615 -7.305609 1.332749 0
M  V30 27 H 1.950155 -6.529286 1.218860 0
M  V30 28 H 0.082692 -4.989015 1.846357 0
M  V30 29 H 0.178037 -2.702449 1.142590 0
M  V30 30 H 3.000850 -1.204152 -0.896421 0
M  V30 31 H 2.323555 1.159390 -1.183046 0
M  V30 32 H -2.169440 6.035871 0.027829 0
M  V30 33 H -4.219886 7.091178 0.896006 0
M  V30 34 H -5.521204 3.462741 2.617412 0
M  V30 35 H -3.440624 2.329821 1.754230 0
M  V30 36 H 3.888457 -3.364296 -0.785202 0
M  V30 END ATOM
M  V30 BEGIN BOND
M  V30 1 1 1 2
M  V30 2 1 2 3
M  V30 3 2 3 4
M  V30 4 1 4 5
M  V30 5 2 5 6
M  V30 6 1 6 7
M  V30 7 1 7 8
M  V30 8 1 8 9
M  V30 9 2 9 10
M  V30 10 1 9 11
M  V30 11 1 11 12
M  V30 12 2 12 13
M  V30 13 1 13 14
M  V30 14 2 14 15
M  V30 15 1 15 16
M  V30 16 2 16 17
M  V30 17 1 17 18
M  V30 18 2 18 19
M  V30 19 1 19 20
M  V30 20 2 20 21
M  V30 21 1 15 22
M  V30 22 2 7 23
M  V30 23 1 23 3
M  V30 24 1 22 12
M  V30 25 1 21 16
M  V30 26 1 1 24
M  V30 27 1 1 25
M  V30 28 1 1 26
M  V30 29 1 4 27
M  V30 30 1 5 28
M  V30 31 1 6 29
M  V30 32 1 8 30
M  V30 33 1 11 31
M  V30 34 1 17 32
M  V30 35 1 18 33
M  V30 36 1 20 34
M  V30 37 1 21 35
M  V30 38 1 23 36
M  V30 END BOND
M  V30 END CTAB
M  END
>  <Dataset>  (918) 
ChEMBL_Kinases

>  <Ligand_Instance>  (918) 
nan

>  <PDB_ID>  (918) 
nan

>  <Standardized_SMILES>  (918) 
COc1cccc(NC(=O)Nc2nnc(-c3ccncc3)s2)c1

>  <Name>  (918) 
nan

>  <Pocket>  (918) 
nan

>  <ATP_Site>  (918) 
nan

>  <Peripheral>  (918) 
nan

>  <Num_H_Atoms_ProtBoundConf>  (918) 
nan

>  <Num_Resolved_Atoms>  (918) 
nan

>  <Num_Not_Resolved_Atoms>  (918) 
nan

$$$$
CHEMBL3775576
     RDKit          3D

  0  0  0  0  0  0  0  0  0  0999 V3000
M  V30 BEGIN CTAB
M  V30 COUNTS 41 44 0 0 0
M  V30 BEGIN ATOM
M  V30 1 C 3.123715 -5.661614 1.798467 0
M  V30 2 N 2.146824 -5.300160 0.768020 0
M  V30 3 C 2.090105 -3.904122 0.584127 0
M  V30 4 O 2.878311 -3.238276 1.328873 0
M  V30 5 C 1.214130 -3.242671 -0.369842 0
M  V30 6 C 0.352070 -3.954430 -1.193989 0
M  V30 7 C -0.457607 -3.274048 -2.078694 0
M  V30 8 C -0.414422 -1.888961 -2.147963 0
M  V30 9 N -1.040899 -0.955402 -2.866603 0
M  V30 10 N -0.615502 0.248569 -2.529983 0
M  V30 11 C 0.331261 0.175506 -1.554006 0
M  V30 12 C 1.014659 1.346335 -0.941373 0
M  V30 13 C 0.487314 1.684141 0.408132 0
M  V30 14 C 0.942143 1.249027 1.632863 0
M  V30 15 C 0.371427 1.625608 2.821907 0
M  V30 16 C -0.717832 2.486707 2.802598 0
M  V30 17 C -1.220216 2.958790 1.589588 0
M  V30 18 C -2.274095 3.767548 1.961150 0
M  V30 19 N -2.383694 3.770029 3.309868 0
M  V30 20 N -1.439871 2.991904 3.840790 0
M  V30 21 C -1.172351 2.693055 5.243501 0
M  V30 22 C -0.606245 2.546420 0.425393 0
M  V30 23 C 0.441633 -1.176092 -1.329939 0
M  V30 24 C 1.243997 -1.867465 -0.452102 0
M  V30 25 H 2.975186 -5.031644 2.712819 0
M  V30 26 H 3.018495 -6.745388 2.042281 0
M  V30 27 H 4.157860 -5.514687 1.421794 0
M  V30 28 H 1.543502 -5.918957 0.207592 0
M  V30 29 H 0.307710 -5.027813 -1.151338 0
M  V30 30 H -1.138034 -3.801218 -2.731994 0
M  V30 31 H -1.767167 -1.151860 -3.594938 0
M  V30 32 H 0.878795 2.224767 -1.619808 0
M  V30 33 H 2.115396 1.169968 -0.906914 0
M  V30 34 H 1.787203 0.587134 1.595217 0
M  V30 35 H 0.783397 1.242973 3.747195 0
M  V30 36 H -2.886147 4.294993 1.247222 0
M  V30 37 H -0.464132 3.447411 5.670998 0
M  V30 38 H -2.139256 2.727423 5.820630 0
M  V30 39 H -0.739003 1.665899 5.294836 0
M  V30 40 H -1.098871 2.989828 -0.447315 0
M  V30 41 H 1.923045 -1.335277 0.196023 0
M  V30 END ATOM
M  V30 BEGIN BOND
M  V30 1 1 1 2
M  V30 2 1 2 3
M  V30 3 2 3 4
M  V30 4 1 3 5
M  V30 5 2 5 6
M  V30 6 1 6 7
M  V30 7 2 7 8
M  V30 8 1 8 9
M  V30 9 1 9 10
M  V30 10 2 10 11
M  V30 11 1 11 12
M  V30 12 1 12 13
M  V30 13 2 13 14
M  V30 14 1 14 15
M  V30 15 2 15 16
M  V30 16 1 16 17
M  V30 17 1 17 18
M  V30 18 2 18 19
M  V30 19 1 19 20
M  V30 20 1 20 21
M  V30 21 2 17 22
M  V30 22 1 11 23
M  V30 23 2 23 24
M  V30 24 1 24 5
M  V30 25 1 23 8
M  V30 26 1 22 13
M  V30 27 1 20 16
M  V30 28 1 1 25
M  V30 29 1 1 26
M  V30 30 1 1 27
M  V30 31 1 2 28
M  V30 32 1 6 29
M  V30 33 1 7 30
M  V30 34 1 9 31
M  V30 35 1 12 32
M  V30 36 1 12 33
M  V30 37 1 14 34
M  V30 38 1 15 35
M  V30 39 1 18 36
M  V30 40 1 21 37
M  V30 41 1 21 38
M  V30 42 1 21 39
M  V30 43 1 22 40
M  V30 44 1 24 41
M  V30 END BOND
M  V30 END CTAB
M  END
>  <Dataset>  (919) 
ChEMBL_Kinases

>  <Ligand_Instance>  (919) 
nan

>  <PDB_ID>  (919) 
nan

>  <Standardized_SMILES>  (919) 
CNC(=O)c1ccc2[nH]nc(Cc3ccc4c(cnn4C)c3)c2c1

>  <Name>  (919) 
nan

>  <Pocket>  (919) 
nan

>  <ATP_Site>  (919) 
nan

>  <Peripheral>  (919) 
nan

>  <Num_H_Atoms_ProtBoundConf>  (919) 
nan

>  <Num_Resolved_Atoms>  (919) 
nan

>  <Num_Not_Resolved_Atoms>  (919) 
nan

$$$$
CHEMBL377578
     RDKit          3D

  0  0  0  0  0  0  0  0  0  0999 V3000
M  V30 BEGIN CTAB
M  V30 COUNTS 56 57 0 0 0
M  V30 BEGIN ATOM
M  V30 1 C -0.670523 -7.285105 -0.154993 0
M  V30 2 C -0.055307 -5.954571 -0.490751 0
M  V30 3 O -0.139481 -5.695359 -1.881489 0
M  V30 4 C 0.335607 -4.554118 -2.492933 0
M  V30 5 N 0.939963 -3.537950 -1.847672 0
M  V30 6 C 1.391875 -2.428546 -2.505445 0
M  V30 7 N 2.009355 -1.445141 -1.646733 0
M  V30 8 C 1.202463 -0.400931 -1.059960 0
M  V30 9 O 0.051035 -0.644850 -1.495807 0
M  V30 10 C 2.103701 0.461368 -0.225879 0
M  V30 11 N 1.423519 1.542245 0.413811 0
M  V30 12 C 2.232186 2.392071 1.197840 0
M  V30 13 C 1.820225 2.810585 2.535665 0
M  V30 14 C 0.762956 1.984974 3.214288 0
M  V30 15 C -0.567748 2.645123 3.184130 0
M  V30 16 O -0.676403 3.786350 2.617635 0
M  V30 17 N -1.686366 2.003288 3.779546 0
M  V30 18 C -2.940158 2.728258 3.696844 0
M  V30 19 C -3.931397 1.812518 2.983583 0
M  V30 20 C -3.478478 2.943826 5.104046 0
M  V30 21 C 0.676258 0.688493 2.461025 0
M  V30 22 C 0.233782 1.105063 1.068998 0
M  V30 23 C 1.240831 -2.319211 -3.854042 0
M  V30 24 C 0.621073 -3.363148 -4.510116 0
M  V30 25 N 0.454392 -3.265562 -5.919147 0
M  V30 26 C 0.156412 -4.492236 -3.869843 0
M  V30 27 C -0.486772 -5.565008 -4.586037 0
M  V30 28 N -1.029845 -6.433598 -5.164658 0
M  V30 29 H -0.979598 -7.776614 -1.099300 0
M  V30 30 H 0.037994 -7.961157 0.352099 0
M  V30 31 H -1.603322 -7.166961 0.462373 0
M  V30 32 H 0.993319 -5.952602 -0.136787 0
M  V30 33 H -0.593696 -5.172152 0.102575 0
M  V30 34 H 3.030974 -1.743253 -1.638300 0
M  V30 35 H 2.646087 -0.175893 0.500377 0
M  V30 36 H 2.883140 0.894199 -0.902855 0
M  V30 37 H 2.417350 3.317966 0.575224 0
M  V30 38 H 3.260618 1.932215 1.244590 0
M  V30 39 H 1.401405 3.861093 2.529406 0
M  V30 40 H 2.690190 2.860566 3.226538 0
M  V30 41 H 1.019993 1.778053 4.265496 0
M  V30 42 H -1.650976 1.086146 4.247167 0
M  V30 43 H -2.815679 3.689530 3.164760 0
M  V30 44 H -4.971045 2.090180 3.244778 0
M  V30 45 H -3.754187 1.822563 1.887630 0
M  V30 46 H -3.764632 0.789395 3.413824 0
M  V30 47 H -4.513565 3.345869 5.056926 0
M  V30 48 H -3.577492 1.947129 5.580267 0
M  V30 49 H -2.841325 3.567914 5.731512 0
M  V30 50 H 1.697148 0.247122 2.449581 0
M  V30 51 H 0.017456 -0.062769 2.912446 0
M  V30 52 H -0.348590 0.348290 0.561276 0
M  V30 53 H -0.434269 2.016583 1.115829 0
M  V30 54 H 1.616203 -1.421601 -4.326707 0
M  V30 55 H 0.110841 -4.087650 -6.485907 0
M  V30 56 H 0.656005 -2.398854 -6.463880 0
M  V30 END ATOM
M  V30 BEGIN BOND
M  V30 1 1 1 2
M  V30 2 1 2 3
M  V30 3 1 3 4
M  V30 4 2 4 5
M  V30 5 1 5 6
M  V30 6 1 6 7
M  V30 7 1 7 8
M  V30 8 2 8 9
M  V30 9 1 8 10
M  V30 10 1 10 11
M  V30 11 1 11 12
M  V30 12 1 12 13
M  V30 13 1 13 14
M  V30 14 1 14 15
M  V30 15 2 15 16
M  V30 16 1 15 17
M  V30 17 1 17 18
M  V30 18 1 18 19
M  V30 19 1 18 20
M  V30 20 1 14 21
M  V30 21 1 21 22
M  V30 22 2 6 23
M  V30 23 1 23 24
M  V30 24 1 24 25
M  V30 25 2 24 26
M  V30 26 1 26 27
M  V30 27 3 27 28
M  V30 28 1 26 4
M  V30 29 1 22 11
M  V30 30 1 1 29
M  V30 31 1 1 30
M  V30 32 1 1 31
M  V30 33 1 2 32
M  V30 34 1 2 33
M  V30 35 1 7 34
M  V30 36 1 10 35
M  V30 37 1 10 36
M  V30 38 1 12 37
M  V30 39 1 12 38
M  V30 40 1 13 39
M  V30 41 1 13 40
M  V30 42 1 14 41
M  V30 43 1 17 42
M  V30 44 1 18 43
M  V30 45 1 19 44
M  V30 46 1 19 45
M  V30 47 1 19 46
M  V30 48 1 20 47
M  V30 49 1 20 48
M  V30 50 1 20 49
M  V30 51 1 21 50
M  V30 52 1 21 51
M  V30 53 1 22 52
M  V30 54 1 22 53
M  V30 55 1 23 54
M  V30 56 1 25 55
M  V30 57 1 25 56
M  V30 END BOND
M  V30 END CTAB
M  END
>  <Dataset>  (920) 
ChEMBL_Kinases

>  <Ligand_Instance>  (920) 
nan

>  <PDB_ID>  (920) 
nan

>  <Standardized_SMILES>  (920) 
CCOc1nc(NC(=O)CN2CCC(C(=O)NC(C)C)CC2)cc(N)c1C#N

>  <Name>  (920) 
nan

>  <Pocket>  (920) 
nan

>  <ATP_Site>  (920) 
nan

>  <Peripheral>  (920) 
nan

>  <Num_H_Atoms_ProtBoundConf>  (920) 
nan

>  <Num_Resolved_Atoms>  (920) 
nan

>  <Num_Not_Resolved_Atoms>  (920) 
nan

$$$$
CHEMBL4159011
     RDKit          3D

  0  0  0  0  0  0  0  0  0  0999 V3000
M  V30 BEGIN CTAB
M  V30 COUNTS 53 56 0 0 0
M  V30 BEGIN ATOM
M  V30 1 C -2.663368 -6.418216 1.335177 0
M  V30 2 O -1.707815 -6.658617 0.308541 0
M  V30 3 C -0.842448 -5.659328 -0.121577 0
M  V30 4 C -0.894638 -4.404813 0.444016 0
M  V30 5 C 0.004397 -3.497264 -0.056437 0
M  V30 6 C 0.945090 -3.681211 -1.045826 0
M  V30 7 N 1.820818 -2.636822 -1.446225 0
M  V30 8 C 1.945434 -1.269523 -1.108629 0
M  V30 9 N 3.038148 -0.639150 -1.633133 0
M  V30 10 C 3.260000 0.656083 -1.396069 0
M  V30 11 C 2.340608 1.303730 -0.608446 0
M  V30 12 C 1.220629 0.718699 -0.053709 0
M  V30 13 C 0.335894 1.553717 0.741046 0
M  V30 14 C 0.612460 2.884175 1.072882 0
M  V30 15 N -0.414597 3.341314 1.798869 0
M  V30 16 C -0.512029 4.704224 2.348795 0
M  V30 17 C 0.705360 5.507276 1.953545 0
M  V30 18 C -0.597554 4.697737 3.857892 0
M  V30 19 C -1.374857 2.432213 1.992003 0
M  V30 20 C -2.593429 2.384968 2.634658 0
M  V30 21 C -3.353610 1.233135 2.625632 0
M  V30 22 C -2.895382 0.094285 1.961262 0
M  V30 23 C -1.671979 0.199008 1.337149 0
M  V30 24 C -0.889445 1.328181 1.326515 0
M  V30 25 N 1.103893 -0.580831 -0.359737 0
M  V30 26 C 0.949289 -4.979494 -1.582462 0
M  V30 27 O 1.860921 -5.252868 -2.579429 0
M  V30 28 C 1.934434 -6.539362 -3.179905 0
M  V30 29 C 0.066742 -5.923150 -1.112558 0
M  V30 30 H -3.311282 -5.549980 1.055461 0
M  V30 31 H -3.329468 -7.301667 1.409320 0
M  V30 32 H -2.190109 -6.245992 2.330066 0
M  V30 33 H -1.584330 -4.155154 1.216375 0
M  V30 34 H -0.008976 -2.510882 0.377363 0
M  V30 35 H 2.508284 -3.033029 -2.156191 0
M  V30 36 H 4.124497 1.148385 -1.812467 0
M  V30 37 H 2.568355 2.352053 -0.448339 0
M  V30 38 H 1.462390 3.476977 0.824489 0
M  V30 39 H -1.426720 5.143145 1.903289 0
M  V30 40 H 0.641566 5.873018 0.905415 0
M  V30 41 H 0.710847 6.405253 2.632459 0
M  V30 42 H 1.639901 4.979579 2.186477 0
M  V30 43 H 0.085685 5.456195 4.250297 0
M  V30 44 H -0.274586 3.728272 4.265358 0
M  V30 45 H -1.636273 4.946408 4.200327 0
M  V30 46 H -2.962187 3.247804 3.149286 0
M  V30 47 H -4.322754 1.170016 3.127892 0
M  V30 48 H -3.489278 -0.808906 1.952715 0
M  V30 49 H -1.347372 -0.682049 0.831265 0
M  V30 50 H 2.045177 -7.290174 -2.380309 0
M  V30 51 H 2.799427 -6.612253 -3.863262 0
M  V30 52 H 0.988357 -6.753922 -3.740050 0
M  V30 53 H 0.161949 -6.895177 -1.603477 0
M  V30 END ATOM
M  V30 BEGIN BOND
M  V30 1 1 1 2
M  V30 2 1 2 3
M  V30 3 2 3 4
M  V30 4 1 4 5
M  V30 5 2 5 6
M  V30 6 1 6 7
M  V30 7 1 7 8
M  V30 8 2 8 9
M  V30 9 1 9 10
M  V30 10 2 10 11
M  V30 11 1 11 12
M  V30 12 1 12 13
M  V30 13 2 13 14
M  V30 14 1 14 15
M  V30 15 1 15 16
M  V30 16 1 16 17
M  V30 17 1 16 18
M  V30 18 1 15 19
M  V30 19 2 19 20
M  V30 20 1 20 21
M  V30 21 2 21 22
M  V30 22 1 22 23
M  V30 23 2 23 24
M  V30 24 2 12 25
M  V30 25 1 6 26
M  V30 26 1 26 27
M  V30 27 1 27 28
M  V30 28 2 26 29
M  V30 29 1 29 3
M  V30 30 1 25 8
M  V30 31 1 24 13
M  V30 32 1 24 19
M  V30 33 1 1 30
M  V30 34 1 1 31
M  V30 35 1 1 32
M  V30 36 1 4 33
M  V30 37 1 5 34
M  V30 38 1 7 35
M  V30 39 1 10 36
M  V30 40 1 11 37
M  V30 41 1 14 38
M  V30 42 1 16 39
M  V30 43 1 17 40
M  V30 44 1 17 41
M  V30 45 1 17 42
M  V30 46 1 18 43
M  V30 47 1 18 44
M  V30 48 1 18 45
M  V30 49 1 20 46
M  V30 50 1 21 47
M  V30 51 1 22 48
M  V30 52 1 23 49
M  V30 53 1 28 50
M  V30 54 1 28 51
M  V30 55 1 28 52
M  V30 56 1 29 53
M  V30 END BOND
M  V30 END CTAB
M  END
>  <Dataset>  (921) 
ChEMBL_Kinases

>  <Ligand_Instance>  (921) 
nan

>  <PDB_ID>  (921) 
nan

>  <Standardized_SMILES>  (921) 
COc1ccc(Nc2nccc(-c3cn(C(C)C)c4ccccc34)n2)c(OC)c1

>  <Name>  (921) 
nan

>  <Pocket>  (921) 
nan

>  <ATP_Site>  (921) 
nan

>  <Peripheral>  (921) 
nan

>  <Num_H_Atoms_ProtBoundConf>  (921) 
nan

>  <Num_Resolved_Atoms>  (921) 
nan

>  <Num_Not_Resolved_Atoms>  (921) 
nan

$$$$
CHEMBL3354525
     RDKit          3D

  0  0  0  0  0  0  0  0  0  0999 V3000
M  V30 BEGIN CTAB
M  V30 COUNTS 31 33 0 0 0
M  V30 BEGIN ATOM
M  V30 1 O 0.721043 -2.238272 -0.129110 0
M  V30 2 C 1.436759 -1.380711 0.448986 0
M  V30 3 N 2.802309 -1.775692 0.451543 0
M  V30 4 C 2.924424 -3.047863 -0.218300 0
M  V30 5 C 2.824316 -4.253029 0.464159 0
M  V30 6 C 2.959387 -5.402275 -0.292127 0
M  V30 7 C 3.184049 -5.359448 -1.665909 0
M  V30 8 N 3.271891 -4.150464 -2.273723 0
M  V30 9 C 3.147322 -2.988512 -1.582286 0
M  V30 10 C 1.009113 -0.107191 1.071131 0
M  V30 11 C 1.879902 0.765808 1.682192 0
M  V30 12 S 0.649112 2.108939 2.214673 0
M  V30 13 C -0.736701 1.188671 1.496321 0
M  V30 14 C -2.127056 1.784557 1.598640 0
M  V30 15 C -2.327692 2.995447 2.222914 0
M  V30 16 F -1.308181 3.687050 2.759441 0
M  V30 17 C -3.624479 3.459405 2.268528 0
M  V30 18 C -4.640377 2.702478 1.697185 0
M  V30 19 C -4.414399 1.491339 1.076795 0
M  V30 20 C -3.107839 1.008565 1.022539 0
M  V30 21 F -2.839767 -0.179174 0.421517 0
M  V30 22 N -0.291577 0.208611 1.035948 0
M  V30 23 H 3.531764 -1.152832 0.904651 0
M  V30 24 H 2.649375 -4.251717 1.531856 0
M  V30 25 H 2.890899 -6.361010 0.182718 0
M  V30 26 H 3.289142 -6.262929 -2.253801 0
M  V30 27 H 3.224648 -2.037339 -2.110615 0
M  V30 28 H 2.948976 0.601315 1.762617 0
M  V30 29 H -3.873722 4.399020 2.738107 0
M  V30 30 H -5.649881 3.091006 1.747501 0
M  V30 31 H -5.248123 0.931934 0.641371 0
M  V30 END ATOM
M  V30 BEGIN BOND
M  V30 1 2 1 2
M  V30 2 1 2 3
M  V30 3 1 3 4
M  V30 4 2 4 5
M  V30 5 1 5 6
M  V30 6 2 6 7
M  V30 7 1 7 8
M  V30 8 2 8 9
M  V30 9 1 2 10
M  V30 10 2 10 11
M  V30 11 1 11 12
M  V30 12 1 12 13
M  V30 13 1 13 14
M  V30 14 2 14 15
M  V30 15 1 15 16
M  V30 16 1 15 17
M  V30 17 2 17 18
M  V30 18 1 18 19
M  V30 19 2 19 20
M  V30 20 1 20 21
M  V30 21 2 13 22
M  V30 22 1 9 4
M  V30 23 1 22 10
M  V30 24 1 20 14
M  V30 25 1 3 23
M  V30 26 1 5 24
M  V30 27 1 6 25
M  V30 28 1 7 26
M  V30 29 1 9 27
M  V30 30 1 11 28
M  V30 31 1 17 29
M  V30 32 1 18 30
M  V30 33 1 19 31
M  V30 END BOND
M  V30 END CTAB
M  END
>  <Dataset>  (922) 
ChEMBL_Kinases

>  <Ligand_Instance>  (922) 
nan

>  <PDB_ID>  (922) 
nan

>  <Standardized_SMILES>  (922) 
O=C(Nc1cccnc1)c1csc(-c2c(F)cccc2F)n1

>  <Name>  (922) 
nan

>  <Pocket>  (922) 
nan

>  <ATP_Site>  (922) 
nan

>  <Peripheral>  (922) 
nan

>  <Num_H_Atoms_ProtBoundConf>  (922) 
nan

>  <Num_Resolved_Atoms>  (922) 
nan

>  <Num_Not_Resolved_Atoms>  (922) 
nan

$$$$
CHEMBL4160361
     RDKit          3D

  0  0  0  0  0  0  0  0  0  0999 V3000
M  V30 BEGIN CTAB
M  V30 COUNTS 45 46 0 0 0
M  V30 BEGIN ATOM
M  V30 1 C -0.032809 -4.872578 1.154333 0
M  V30 2 C 0.168922 -3.400412 1.404150 0
M  V30 3 C 0.386362 -3.045056 2.841702 0
M  V30 4 C -1.100384 -2.660913 0.959827 0
M  V30 5 C 1.293060 -2.869288 0.605372 0
M  V30 6 O 1.976919 -3.587813 -0.187992 0
M  V30 7 O 1.616363 -1.533298 0.724030 0
M  V30 8 C 2.661294 -0.923780 0.010764 0
M  V30 9 C 2.718305 0.544218 0.398663 0
M  V30 10 C 3.819998 1.214960 -0.385824 0
M  V30 11 O 3.561112 1.183502 -1.749707 0
M  V30 12 C 1.388242 1.218091 0.164963 0
M  V30 13 C 0.874859 1.459649 1.523711 0
M  V30 14 C -0.367635 1.626282 2.010732 0
M  V30 15 C -1.482076 1.571550 1.080883 0
M  V30 16 C -2.602926 0.912469 1.604542 0
M  V30 17 C -3.769498 0.757885 0.873163 0
M  V30 18 C -3.830834 1.266029 -0.405099 0
M  V30 19 Cl -5.340202 1.040556 -1.292390 0
M  V30 20 C -2.737943 1.918979 -0.940349 0
M  V30 21 C -1.599068 2.051734 -0.182389 0
M  V30 22 C 2.082976 1.476437 2.339781 0
M  V30 23 O 2.260376 2.208600 3.370351 0
M  V30 24 O 2.965528 0.565076 1.784585 0
M  V30 25 H -0.241751 -5.409764 2.103134 0
M  V30 26 H -0.808102 -5.069734 0.393236 0
M  V30 27 H 0.933563 -5.284492 0.741235 0
M  V30 28 H 0.973225 -3.839438 3.324797 0
M  V30 29 H 0.962793 -2.102108 2.899280 0
M  V30 30 H -0.567404 -2.913976 3.396525 0
M  V30 31 H -0.933165 -1.596660 1.183410 0
M  V30 32 H -2.013218 -3.074274 1.404673 0
M  V30 33 H -1.125217 -2.810534 -0.156737 0
M  V30 34 H 3.598300 -1.441465 0.207715 0
M  V30 35 H 2.386474 -1.011046 -1.067762 0
M  V30 36 H 3.982180 2.220796 0.012094 0
M  V30 37 H 4.753536 0.618769 -0.235176 0
M  V30 38 H 2.983641 1.975991 -1.955766 0
M  V30 39 H 1.623264 2.224996 -0.289592 0
M  V30 40 H 0.711348 0.624116 -0.459307 0
M  V30 41 H -0.536068 1.802152 3.084305 0
M  V30 42 H -2.629889 0.482586 2.608960 0
M  V30 43 H -4.622558 0.245552 1.294828 0
M  V30 44 H -2.792407 2.309839 -1.928874 0
M  V30 45 H -0.720649 2.552811 -0.548629 0
M  V30 END ATOM
M  V30 BEGIN BOND
M  V30 1 1 1 2
M  V30 2 1 2 3
M  V30 3 1 2 4
M  V30 4 1 2 5
M  V30 5 2 5 6
M  V30 6 1 5 7
M  V30 7 1 7 8
M  V30 8 1 8 9
M  V30 9 1 9 10
M  V30 10 1 10 11
M  V30 11 1 9 12
M  V30 12 1 12 13
M  V30 13 2 13 14
M  V30 14 1 14 15
M  V30 15 2 15 16
M  V30 16 1 16 17
M  V30 17 2 17 18
M  V30 18 1 18 19
M  V30 19 1 18 20
M  V30 20 2 20 21
M  V30 21 1 13 22
M  V30 22 2 22 23
M  V30 23 1 22 24
M  V30 24 1 24 9
M  V30 25 1 21 15
M  V30 26 1 1 25
M  V30 27 1 1 26
M  V30 28 1 1 27
M  V30 29 1 3 28
M  V30 30 1 3 29
M  V30 31 1 3 30
M  V30 32 1 4 31
M  V30 33 1 4 32
M  V30 34 1 4 33
M  V30 35 1 8 34
M  V30 36 1 8 35
M  V30 37 1 10 36
M  V30 38 1 10 37
M  V30 39 1 11 38
M  V30 40 1 12 39
M  V30 41 1 12 40
M  V30 42 1 14 41
M  V30 43 1 16 42
M  V30 44 1 17 43
M  V30 45 1 20 44
M  V30 46 1 21 45
M  V30 END BOND
M  V30 END CTAB
M  END
>  <Dataset>  (923) 
ChEMBL_Kinases

>  <Ligand_Instance>  (923) 
nan

>  <PDB_ID>  (923) 
nan

>  <Standardized_SMILES>  (923) 
CC(C)(C)C(=O)OCC1(CO)C/C(=C\c2ccc(Cl)cc2)C(=O)O1

>  <Name>  (923) 
nan

>  <Pocket>  (923) 
nan

>  <ATP_Site>  (923) 
nan

>  <Peripheral>  (923) 
nan

>  <Num_H_Atoms_ProtBoundConf>  (923) 
nan

>  <Num_Resolved_Atoms>  (923) 
nan

>  <Num_Not_Resolved_Atoms>  (923) 
nan

$$$$
CHEMBL4160260
     RDKit          3D

  0  0  0  0  0  0  0  0  0  0999 V3000
M  V30 BEGIN CTAB
M  V30 COUNTS 51 54 0 0 0
M  V30 BEGIN ATOM
M  V30 1 C -3.204396 -1.648711 6.607968 0
M  V30 2 C -1.861693 -1.958880 6.056907 0
M  V30 3 C -1.392372 -1.767607 4.777775 0
M  V30 4 C -0.096421 -2.222371 4.827376 0
M  V30 5 N 0.879664 -2.270477 3.803416 0
M  V30 6 C 0.764411 -1.875609 2.446501 0
M  V30 7 C 0.974436 -0.573286 2.050216 0
M  V30 8 C 0.865436 -0.249444 0.716855 0
M  V30 9 N 1.060468 1.070594 0.228682 0
M  V30 10 C 1.128497 1.384066 -1.192617 0
M  V30 11 C 2.113040 2.560710 -1.245921 0
M  V30 12 N 1.402570 3.691162 -0.719063 0
M  V30 13 C 0.313506 4.113614 -1.578835 0
M  V30 14 C 1.042549 3.509361 0.644783 0
M  V30 15 C 1.186224 2.118567 1.186702 0
M  V30 16 N 0.557564 -1.233232 -0.123146 0
M  V30 17 C 0.339855 -2.514122 0.183965 0
M  V30 18 N 0.011167 -3.558217 -0.717962 0
M  V30 19 C -0.161923 -3.470746 -2.105636 0
M  V30 20 C -0.070450 -2.340944 -2.889573 0
M  V30 21 C -0.240520 -2.262519 -4.242673 0
M  V30 22 C -0.539493 -3.449874 -4.909214 0
M  V30 23 Cl -0.773645 -3.456405 -6.629896 0
M  V30 24 C -0.644683 -4.600448 -4.196963 0
M  V30 25 F -0.937787 -5.758685 -4.852867 0
M  V30 26 C -0.460490 -4.594209 -2.851733 0
M  V30 27 N 0.461310 -2.753291 1.479882 0
M  V30 28 N 0.162272 -2.652753 6.073953 0
M  V30 29 N -0.906972 -2.498256 6.837721 0
M  V30 30 H -3.139013 -0.566843 6.921618 0
M  V30 31 H -4.022783 -1.721584 5.866628 0
M  V30 32 H -3.449207 -2.266341 7.494811 0
M  V30 33 H -1.915817 -1.356423 3.930275 0
M  V30 34 H 1.850201 -2.622858 3.940119 0
M  V30 35 H 1.223333 0.200439 2.772941 0
M  V30 36 H 0.119482 1.723626 -1.498001 0
M  V30 37 H 1.499018 0.517328 -1.774071 0
M  V30 38 H 2.933517 2.320376 -0.542131 0
M  V30 39 H 2.490750 2.736593 -2.263052 0
M  V30 40 H 0.290257 5.225878 -1.580564 0
M  V30 41 H -0.671340 3.755979 -1.218558 0
M  V30 42 H 0.463875 3.809209 -2.634474 0
M  V30 43 H 1.565470 4.259318 1.263290 0
M  V30 44 H -0.055763 3.763074 0.728812 0
M  V30 45 H 2.183054 2.039392 1.665375 0
M  V30 46 H 0.420287 1.924166 1.986634 0
M  V30 47 H -0.116764 -4.511058 -0.290401 0
M  V30 48 H 0.159586 -1.397154 -2.414591 0
M  V30 49 H -0.152920 -1.339761 -4.792807 0
M  V30 50 H -0.560534 -5.560932 -2.345040 0
M  V30 51 H -0.839110 -2.797122 7.841243 0
M  V30 END ATOM
M  V30 BEGIN BOND
M  V30 1 1 1 2
M  V30 2 2 2 3
M  V30 3 1 3 4
M  V30 4 1 4 5
M  V30 5 1 5 6
M  V30 6 2 6 7
M  V30 7 1 7 8
M  V30 8 1 8 9
M  V30 9 1 9 10
M  V30 10 1 10 11
M  V30 11 1 11 12
M  V30 12 1 12 13
M  V30 13 1 12 14
M  V30 14 1 14 15
M  V30 15 2 8 16
M  V30 16 1 16 17
M  V30 17 1 17 18
M  V30 18 1 18 19
M  V30 19 2 19 20
M  V30 20 1 20 21
M  V30 21 2 21 22
M  V30 22 1 22 23
M  V30 23 1 22 24
M  V30 24 1 24 25
M  V30 25 2 24 26
M  V30 26 2 17 27
M  V30 27 2 4 28
M  V30 28 1 28 29
M  V30 29 1 29 2
M  V30 30 1 27 6
M  V30 31 1 15 9
M  V30 32 1 26 19
M  V30 33 1 1 30
M  V30 34 1 1 31
M  V30 35 1 1 32
M  V30 36 1 3 33
M  V30 37 1 5 34
M  V30 38 1 7 35
M  V30 39 1 10 36
M  V30 40 1 10 37
M  V30 41 1 11 38
M  V30 42 1 11 39
M  V30 43 1 13 40
M  V30 44 1 13 41
M  V30 45 1 13 42
M  V30 46 1 14 43
M  V30 47 1 14 44
M  V30 48 1 15 45
M  V30 49 1 15 46
M  V30 50 1 18 47
M  V30 51 1 20 48
M  V30 52 1 21 49
M  V30 53 1 26 50
M  V30 54 1 29 51
M  V30 END BOND
M  V30 END CTAB
M  END
>  <Dataset>  (924) 
ChEMBL_Kinases

>  <Ligand_Instance>  (924) 
nan

>  <PDB_ID>  (924) 
nan

>  <Standardized_SMILES>  (924) 
Cc1cc(Nc2cc(N3CCN(C)CC3)nc(Nc3ccc(Cl)c(F)c3)n2)n[nH]1

>  <Name>  (924) 
nan

>  <Pocket>  (924) 
nan

>  <ATP_Site>  (924) 
nan

>  <Peripheral>  (924) 
nan

>  <Num_H_Atoms_ProtBoundConf>  (924) 
nan

>  <Num_Resolved_Atoms>  (924) 
nan

>  <Num_Not_Resolved_Atoms>  (924) 
nan

$$$$
CHEMBL4160009
     RDKit          3D

  0  0  0  0  0  0  0  0  0  0999 V3000
M  V30 BEGIN CTAB
M  V30 COUNTS 54 57 0 0 0
M  V30 BEGIN ATOM
M  V30 1 C -2.373569 -1.931420 2.950205 0
M  V30 2 N -1.212236 -2.483528 2.237980 0
M  V30 3 C 0.078949 -2.282454 2.595948 0
M  V30 4 C 0.845913 -2.959149 1.691634 0
M  V30 5 C 2.326843 -2.990876 1.684642 0
M  V30 6 C 2.957389 -1.830075 1.851887 0
M  V30 7 C 2.245180 -0.522884 2.039440 0
M  V30 8 C 3.227311 0.385190 1.301557 0
M  V30 9 C 3.186966 0.059060 -0.182330 0
M  V30 10 O 3.360734 -1.295688 -0.350640 0
M  V30 11 C 2.777805 1.797374 1.563545 0
M  V30 12 O 1.505688 1.911119 0.963652 0
M  V30 13 C 0.744023 3.053130 0.945332 0
M  V30 14 O 1.177711 4.089861 1.480540 0
M  V30 15 C -0.557907 2.898695 0.257649 0
M  V30 16 C -0.955098 1.757267 -0.276051 0
M  V30 17 C -2.187390 1.496022 -0.960094 0
M  V30 18 C -3.168168 2.410112 -1.200729 0
M  V30 19 C -4.359884 2.129695 -1.856800 0
M  V30 20 C -4.614222 0.839260 -2.318050 0
M  V30 21 C -3.625351 -0.080889 -2.075083 0
M  V30 22 C -2.449845 0.213708 -1.423145 0
M  V30 23 O 4.447868 0.010749 1.841876 0
M  V30 24 C 4.375521 -1.403732 1.910428 0
M  V30 25 O 5.279577 -2.291299 2.008010 0
M  V30 26 C 0.053577 -3.591825 0.756896 0
M  V30 27 C 0.306434 -4.381286 -0.346502 0
M  V30 28 C -0.835621 -4.811206 -1.028333 0
M  V30 29 C -2.127229 -4.523368 -0.701926 0
M  V30 30 C -2.327348 -3.732083 0.408276 0
M  V30 31 C -1.256309 -3.264949 1.138808 0
M  V30 32 H -2.675333 -0.956811 2.475653 0
M  V30 33 H -3.213071 -2.625829 3.008397 0
M  V30 34 H -2.050258 -1.654833 3.996259 0
M  V30 35 H 0.357686 -1.689567 3.443361 0
M  V30 36 H 3.011164 -3.815757 1.564832 0
M  V30 37 H 2.232751 -0.232209 3.091352 0
M  V30 38 H 1.264565 -0.487912 1.523951 0
M  V30 39 H 3.985400 0.610812 -0.707106 0
M  V30 40 H 2.164470 0.367761 -0.520797 0
M  V30 41 H 4.221510 -1.552724 -0.772957 0
M  V30 42 H 2.572591 1.851468 2.674840 0
M  V30 43 H 3.476269 2.569308 1.231403 0
M  V30 44 H -1.241385 3.716608 0.163624 0
M  V30 45 H -0.240537 0.924613 -0.171535 0
M  V30 46 H -2.993185 3.413857 -0.855209 0
M  V30 47 H -5.122002 2.872512 -2.035989 0
M  V30 48 H -5.516100 0.596738 -2.821626 0
M  V30 49 H -3.809903 -1.086157 -2.426056 0
M  V30 50 H -1.749849 -0.615925 -1.294305 0
M  V30 51 H 1.304278 -4.622632 -0.625752 0
M  V30 52 H -0.668306 -5.433068 -1.900674 0
M  V30 53 H -2.940267 -4.897024 -1.285566 0
M  V30 54 H -3.326841 -3.451208 0.743975 0
M  V30 END ATOM
M  V30 BEGIN BOND
M  V30 1 1 1 2
M  V30 2 1 2 3
M  V30 3 2 3 4
M  V30 4 1 4 5
M  V30 5 2 5 6
M  V30 6 1 6 7
M  V30 7 1 7 8
M  V30 8 1 8 9
M  V30 9 1 9 10
M  V30 10 1 8 11
M  V30 11 1 11 12
M  V30 12 1 12 13
M  V30 13 2 13 14
M  V30 14 1 13 15
M  V30 15 2 15 16
M  V30 16 1 16 17
M  V30 17 2 17 18
M  V30 18 1 18 19
M  V30 19 2 19 20
M  V30 20 1 20 21
M  V30 21 2 21 22
M  V30 22 1 8 23
M  V30 23 1 23 24
M  V30 24 2 24 25
M  V30 25 1 4 26
M  V30 26 2 26 27
M  V30 27 1 27 28
M  V30 28 2 28 29
M  V30 29 1 29 30
M  V30 30 2 30 31
M  V30 31 1 31 2
M  V30 32 1 24 6
M  V30 33 1 31 26
M  V30 34 1 22 17
M  V30 35 1 1 32
M  V30 36 1 1 33
M  V30 37 1 1 34
M  V30 38 1 3 35
M  V30 39 1 5 36
M  V30 40 1 7 37
M  V30 41 1 7 38
M  V30 42 1 9 39
M  V30 43 1 9 40
M  V30 44 1 10 41
M  V30 45 1 11 42
M  V30 46 1 11 43
M  V30 47 1 15 44
M  V30 48 1 16 45
M  V30 49 1 18 46
M  V30 50 1 19 47
M  V30 51 1 20 48
M  V30 52 1 21 49
M  V30 53 1 22 50
M  V30 54 1 27 51
M  V30 55 1 28 52
M  V30 56 1 29 53
M  V30 57 1 30 54
M  V30 END BOND
M  V30 END CTAB
M  END
>  <Dataset>  (925) 
ChEMBL_Kinases

>  <Ligand_Instance>  (925) 
nan

>  <PDB_ID>  (925) 
nan

>  <Standardized_SMILES>  (925) 
Cn1cc(/C=C2\CC(CO)(COC(=O)/C=C/c3ccccc3)OC2=O)c2ccccc21

>  <Name>  (925) 
nan

>  <Pocket>  (925) 
nan

>  <ATP_Site>  (925) 
nan

>  <Peripheral>  (925) 
nan

>  <Num_H_Atoms_ProtBoundConf>  (925) 
nan

>  <Num_Resolved_Atoms>  (925) 
nan

>  <Num_Not_Resolved_Atoms>  (925) 
nan

$$$$
CHEMBL4159739
     RDKit          3D

  0  0  0  0  0  0  0  0  0  0999 V3000
M  V30 BEGIN CTAB
M  V30 COUNTS 60 64 0 0 0
M  V30 BEGIN ATOM
M  V30 1 C 4.614360 4.808157 3.234501 0
M  V30 2 C 5.607677 4.354216 2.228846 0
M  V30 3 C 6.872059 3.968793 2.606568 0
M  V30 4 C 7.770411 3.555147 1.658981 0
M  V30 5 C 7.454604 3.507079 0.308984 0
M  V30 6 C 6.174141 3.902055 -0.033006 0
M  V30 7 C 5.233012 4.328626 0.901011 0
M  V30 8 N 3.927457 4.714641 0.415847 0
M  V30 9 C 2.896429 3.710709 0.320502 0
M  V30 10 O 3.076787 2.497575 0.645273 0
M  V30 11 N 1.570797 3.954766 -0.143114 0
M  V30 12 C 0.769084 2.754484 -0.122915 0
M  V30 13 C 0.016707 2.432095 0.994846 0
M  V30 14 C -0.720526 1.266441 0.953946 0
M  V30 15 C -0.685456 0.472250 -0.179445 0
M  V30 16 C -1.477210 -0.775169 -0.200340 0
M  V30 17 C -2.879152 -0.481867 -0.774021 0
M  V30 18 N -3.676311 -1.626964 -0.817214 0
M  V30 19 C -4.788660 -2.541473 -1.036070 0
M  V30 20 N -6.008690 -2.322509 -1.552008 0
M  V30 21 C -6.990904 -3.180673 -1.729095 0
M  V30 22 N -6.704692 -4.412741 -1.336138 0
M  V30 23 C -5.518555 -4.730739 -0.810538 0
M  V30 24 O -5.191144 -5.944277 -0.406756 0
M  V30 25 C -3.973339 -5.944929 0.057378 0
M  V30 26 C -3.338817 -7.136576 0.572474 0
M  V30 27 C -4.060171 -8.315973 0.569335 0
M  V30 28 C -3.531295 -9.512265 1.044767 0
M  V30 29 C -2.245693 -9.542606 1.539927 0
M  V30 30 C -1.490524 -8.391560 1.562671 0
M  V30 31 C -2.071407 -7.260117 1.082404 0
M  V30 32 C -3.542654 -4.644757 -0.077240 0
M  V30 33 Cl -1.990018 -4.065625 0.378281 0
M  V30 34 C -4.499473 -3.824470 -0.630384 0
M  V30 35 C 0.078907 0.836367 -1.266490 0
M  V30 36 C 0.844010 2.009009 -1.274588 0
M  V30 37 H 3.608682 4.875357 2.804035 0
M  V30 38 H 4.842841 5.829786 3.640406 0
M  V30 39 H 4.557373 4.065348 4.054182 0
M  V30 40 H 7.102974 4.011323 3.657888 0
M  V30 41 H 8.760927 3.250204 1.927357 0
M  V30 42 H 8.167411 3.176959 -0.458666 0
M  V30 43 H 5.894305 3.876485 -1.075493 0
M  V30 44 H 3.628417 5.662469 0.115894 0
M  V30 45 H 1.334609 4.945638 -0.435365 0
M  V30 46 H 0.059809 3.126753 1.834181 0
M  V30 47 H -1.305279 1.031986 1.844095 0
M  V30 48 H -1.035804 -1.552783 -0.823139 0
M  V30 49 H -1.654531 -1.177716 0.813905 0
M  V30 50 H -2.641240 0.035783 -1.756898 0
M  V30 51 H -3.236814 0.363598 -0.103395 0
M  V30 52 H -4.285387 -0.889129 -1.224083 0
M  V30 53 H -7.901323 -2.812468 -2.160463 0
M  V30 54 H -5.070222 -8.389064 0.203108 0
M  V30 55 H -4.127016 -10.428050 1.028401 0
M  V30 56 H -1.872430 -10.487097 1.898476 0
M  V30 57 H -0.482146 -8.405405 1.947899 0
M  V30 58 H -1.451785 -6.377651 1.114928 0
M  V30 59 H 0.098522 0.209065 -2.144876 0
M  V30 60 H 1.443032 2.296524 -2.124688 0
M  V30 END ATOM
M  V30 BEGIN BOND
M  V30 1 1 1 2
M  V30 2 2 2 3
M  V30 3 1 3 4
M  V30 4 2 4 5
M  V30 5 1 5 6
M  V30 6 2 6 7
M  V30 7 1 7 8
M  V30 8 1 8 9
M  V30 9 2 9 10
M  V30 10 1 9 11
M  V30 11 1 11 12
M  V30 12 2 12 13
M  V30 13 1 13 14
M  V30 14 2 14 15
M  V30 15 1 15 16
M  V30 16 1 16 17
M  V30 17 1 17 18
M  V30 18 1 18 19
M  V30 19 2 19 20
M  V30 20 1 20 21
M  V30 21 2 21 22
M  V30 22 1 22 23
M  V30 23 1 23 24
M  V30 24 1 24 25
M  V30 25 1 25 26
M  V30 26 2 26 27
M  V30 27 1 27 28
M  V30 28 2 28 29
M  V30 29 1 29 30
M  V30 30 2 30 31
M  V30 31 2 25 32
M  V30 32 1 32 33
M  V30 33 1 32 34
M  V30 34 1 15 35
M  V30 35 2 35 36
M  V30 36 1 7 2
M  V30 37 1 36 12
M  V30 38 1 34 19
M  V30 39 2 34 23
M  V30 40 1 31 26
M  V30 41 1 1 37
M  V30 42 1 1 38
M  V30 43 1 1 39
M  V30 44 1 3 40
M  V30 45 1 4 41
M  V30 46 1 5 42
M  V30 47 1 6 43
M  V30 48 1 8 44
M  V30 49 1 11 45
M  V30 50 1 13 46
M  V30 51 1 14 47
M  V30 52 1 16 48
M  V30 53 1 16 49
M  V30 54 1 17 50
M  V30 55 1 17 51
M  V30 56 1 18 52
M  V30 57 1 21 53
M  V30 58 1 27 54
M  V30 59 1 28 55
M  V30 60 1 29 56
M  V30 61 1 30 57
M  V30 62 1 31 58
M  V30 63 1 35 59
M  V30 64 1 36 60
M  V30 END BOND
M  V30 END CTAB
M  END
>  <Dataset>  (926) 
ChEMBL_Kinases

>  <Ligand_Instance>  (926) 
nan

>  <PDB_ID>  (926) 
nan

>  <Standardized_SMILES>  (926) 
Cc1ccccc1NC(=O)Nc1ccc(CCNc2ncnc3oc(-c4ccccc4)c(Cl)c23)cc1

>  <Name>  (926) 
nan

>  <Pocket>  (926) 
nan

>  <ATP_Site>  (926) 
nan

>  <Peripheral>  (926) 
nan

>  <Num_H_Atoms_ProtBoundConf>  (926) 
nan

>  <Num_Resolved_Atoms>  (926) 
nan

>  <Num_Not_Resolved_Atoms>  (926) 
nan

$$$$
CHEMBL4159438
     RDKit          3D

  0  0  0  0  0  0  0  0  0  0999 V3000
M  V30 BEGIN CTAB
M  V30 COUNTS 54 57 0 0 0
M  V30 BEGIN ATOM
M  V30 1 C 2.374901 -5.133462 5.317500 0
M  V30 2 O 2.819043 -3.888090 4.898645 0
M  V30 3 C 3.878623 -3.920044 4.030785 0
M  V30 4 C 3.536099 -4.511284 2.685917 0
M  V30 5 N 2.541120 -3.667041 2.020245 0
M  V30 6 C 2.972718 -2.594409 1.304166 0
M  V30 7 C 1.914272 -1.893839 0.767024 0
M  V30 8 C 2.026275 -0.708038 -0.063105 0
M  V30 9 C 3.301629 -0.310916 -0.481956 0
M  V30 10 C 3.482905 0.783394 -1.289404 0
M  V30 11 N 2.417020 1.483905 -1.682618 0
M  V30 12 C 1.171292 1.126176 -1.293733 0
M  V30 13 N 0.108724 1.918998 -1.784145 0
M  V30 14 C -1.276002 1.997284 -1.486137 0
M  V30 15 C -1.821070 1.293101 -0.414741 0
M  V30 16 C -3.136246 1.312512 -0.021595 0
M  V30 17 C -4.014895 2.098164 -0.743639 0
M  V30 18 O -5.333616 2.101738 -0.329456 0
M  V30 19 C -6.351208 2.843771 -0.950799 0
M  V30 20 C -3.518188 2.806395 -1.804237 0
M  V30 21 C -2.196043 2.763914 -2.170727 0
M  V30 22 O -1.729124 3.499454 -3.257022 0
M  V30 23 C -2.539897 4.328441 -4.055794 0
M  V30 24 N 1.024509 0.050627 -0.503616 0
M  V30 25 C 0.801619 -2.559800 1.166403 0
M  V30 26 C -0.533796 -2.419045 0.985370 0
M  V30 27 C -1.482654 -3.267693 1.506367 0
M  V30 28 C -1.043709 -4.339165 2.266562 0
M  V30 29 C 0.310674 -4.491340 2.455959 0
M  V30 30 C 1.229398 -3.624456 1.921521 0
M  V30 31 H 1.497435 -4.999945 5.976130 0
M  V30 32 H 2.238988 -5.881087 4.539954 0
M  V30 33 H 3.158156 -5.550443 6.050254 0
M  V30 34 H 4.151594 -2.836896 3.847961 0
M  V30 35 H 4.783463 -4.410378 4.460225 0
M  V30 36 H 4.434693 -4.528805 2.033675 0
M  V30 37 H 3.146044 -5.552699 2.777786 0
M  V30 38 H 4.024985 -2.295795 1.154674 0
M  V30 39 H 4.206253 -0.815525 -0.213449 0
M  V30 40 H 4.468466 1.109613 -1.625811 0
M  V30 41 H 0.338993 2.617091 -2.534894 0
M  V30 42 H -1.143140 0.689993 0.163429 0
M  V30 43 H -3.457882 0.724178 0.829267 0
M  V30 44 H -5.935487 3.734871 -1.430152 0
M  V30 45 H -7.074194 3.177551 -0.171533 0
M  V30 46 H -6.898842 2.166054 -1.665683 0
M  V30 47 H -4.170554 3.421833 -2.382095 0
M  V30 48 H -2.025152 4.493980 -5.026266 0
M  V30 49 H -2.685836 5.318264 -3.570446 0
M  V30 50 H -3.538378 3.894598 -4.259304 0
M  V30 51 H -0.856287 -1.591304 0.385828 0
M  V30 52 H -2.536672 -3.130228 1.347692 0
M  V30 53 H -1.774276 -5.017224 2.683744 0
M  V30 54 H 0.604214 -5.340399 3.043975 0
M  V30 END ATOM
M  V30 BEGIN BOND
M  V30 1 1 1 2
M  V30 2 1 2 3
M  V30 3 1 3 4
M  V30 4 1 4 5
M  V30 5 1 5 6
M  V30 6 2 6 7
M  V30 7 1 7 8
M  V30 8 2 8 9
M  V30 9 1 9 10
M  V30 10 2 10 11
M  V30 11 1 11 12
M  V30 12 1 12 13
M  V30 13 1 13 14
M  V30 14 2 14 15
M  V30 15 1 15 16
M  V30 16 2 16 17
M  V30 17 1 17 18
M  V30 18 1 18 19
M  V30 19 1 17 20
M  V30 20 2 20 21
M  V30 21 1 21 22
M  V30 22 1 22 23
M  V30 23 2 12 24
M  V30 24 1 7 25
M  V30 25 2 25 26
M  V30 26 1 26 27
M  V30 27 2 27 28
M  V30 28 1 28 29
M  V30 29 2 29 30
M  V30 30 1 30 5
M  V30 31 1 24 8
M  V30 32 1 30 25
M  V30 33 1 21 14
M  V30 34 1 1 31
M  V30 35 1 1 32
M  V30 36 1 1 33
M  V30 37 1 3 34
M  V30 38 1 3 35
M  V30 39 1 4 36
M  V30 40 1 4 37
M  V30 41 1 6 38
M  V30 42 1 9 39
M  V30 43 1 10 40
M  V30 44 1 13 41
M  V30 45 1 15 42
M  V30 46 1 16 43
M  V30 47 1 19 44
M  V30 48 1 19 45
M  V30 49 1 19 46
M  V30 50 1 20 47
M  V30 51 1 23 48
M  V30 52 1 23 49
M  V30 53 1 23 50
M  V30 54 1 26 51
M  V30 55 1 27 52
M  V30 56 1 28 53
M  V30 57 1 29 54
M  V30 END BOND
M  V30 END CTAB
M  END
>  <Dataset>  (927) 
ChEMBL_Kinases

>  <Ligand_Instance>  (927) 
nan

>  <PDB_ID>  (927) 
nan

>  <Standardized_SMILES>  (927) 
COCCn1cc(-c2ccnc(Nc3ccc(OC)cc3OC)n2)c2ccccc21

>  <Name>  (927) 
nan

>  <Pocket>  (927) 
nan

>  <ATP_Site>  (927) 
nan

>  <Peripheral>  (927) 
nan

>  <Num_H_Atoms_ProtBoundConf>  (927) 
nan

>  <Num_Resolved_Atoms>  (927) 
nan

>  <Num_Not_Resolved_Atoms>  (927) 
nan

$$$$
CHEMBL3355029
     RDKit          3D

  0  0  0  0  0  0  0  0  0  0999 V3000
M  V30 BEGIN CTAB
M  V30 COUNTS 56 60 0 0 0
M  V30 BEGIN ATOM
M  V30 1 O -1.125879 -6.775233 -0.341792 0
M  V30 2 S 0.096876 -6.220098 -1.011133 0
M  V30 3 O 0.976372 -7.316913 -1.504960 0
M  V30 4 N 0.966011 -5.129409 0.023571 0
M  V30 5 C 0.270395 -4.011015 0.548931 0
M  V30 6 C 0.929974 -2.793625 0.498212 0
M  V30 7 C 0.300423 -1.651465 0.999214 0
M  V30 8 C -0.946911 -1.686385 1.540486 0
M  V30 9 C -1.598896 -0.484830 2.063000 0
M  V30 10 N -0.923380 0.685853 1.996142 0
M  V30 11 C -1.421524 1.853467 2.444373 0
M  V30 12 O -0.652435 3.011845 2.333986 0
M  V30 13 C 0.605723 2.889114 1.757083 0 CFG=1
M  V30 14 C 0.826656 3.718005 0.520276 0
M  V30 15 C 2.045442 3.204758 -0.160184 0
M  V30 16 C 3.029262 2.471650 0.672247 0 CFG=2
M  V30 17 O 2.992156 1.117986 0.327413 0
M  V30 18 C 2.964334 2.588211 2.144238 0
M  V30 19 C 1.748624 3.302104 2.678886 0
M  V30 20 C -2.695648 1.799294 2.993563 0
M  V30 21 C -3.460766 2.806233 3.527534 0
M  V30 22 N -4.615736 2.211197 3.918129 0
M  V30 23 N -4.545620 0.920758 3.633844 0
M  V30 24 C -3.368261 0.594449 3.052435 0
M  V30 25 N -2.821117 -0.535547 2.590065 0
M  V30 26 C -1.592857 -2.907077 1.584565 0
M  V30 27 C -1.000298 -4.063907 1.096937 0
M  V30 28 C -0.427939 -5.313904 -2.413641 0
M  V30 29 C -1.703592 -5.089689 -2.870688 0
M  V30 30 C -1.884306 -4.336074 -4.012480 0
M  V30 31 Cl -3.548379 -4.108941 -4.511185 0
M  V30 32 C -0.828680 -3.806152 -4.701779 0
M  V30 33 C 0.459247 -4.018098 -4.261860 0
M  V30 34 C 0.646552 -4.776444 -3.112376 0
M  V30 35 F 1.968825 -4.910755 -2.785025 0
M  V30 36 H 1.983476 -5.326159 0.233279 0
M  V30 37 H 1.913812 -2.697796 0.084691 0
M  V30 38 H 0.842429 -0.714915 0.945006 0
M  V30 39 H 0.765285 1.826638 1.478296 0
M  V30 40 H -0.037422 3.721481 -0.155162 0
M  V30 41 H 0.993551 4.796709 0.808278 0
M  V30 42 H 2.527327 4.076104 -0.678721 0
M  V30 43 H 1.698373 2.569979 -1.018060 0
M  V30 44 H 4.063466 2.792442 0.358652 0
M  V30 45 H 2.684097 1.061327 -0.625952 0
M  V30 46 H 3.849190 3.101928 2.582401 0
M  V30 47 H 2.946439 1.582710 2.646939 0
M  V30 48 H 1.933096 4.389855 2.564877 0
M  V30 49 H 1.581925 3.016085 3.728584 0
M  V30 50 H -3.160727 3.841331 3.599021 0
M  V30 51 H -5.333796 0.263236 3.850993 0
M  V30 52 H -2.592458 -2.989433 2.007657 0
M  V30 53 H -1.500584 -5.000681 1.132782 0
M  V30 54 H -2.454683 -5.558162 -2.243824 0
M  V30 55 H -1.002133 -3.218717 -5.594926 0
M  V30 56 H 1.258190 -3.579194 -4.839995 0
M  V30 END ATOM
M  V30 BEGIN BOND
M  V30 1 2 1 2
M  V30 2 2 2 3
M  V30 3 1 2 4
M  V30 4 1 4 5
M  V30 5 2 5 6
M  V30 6 1 6 7
M  V30 7 2 7 8
M  V30 8 1 8 9
M  V30 9 2 9 10
M  V30 10 1 10 11
M  V30 11 1 11 12
M  V30 12 1 12 13
M  V30 13 1 13 14
M  V30 14 1 14 15
M  V30 15 1 15 16
M  V30 16 1 16 17
M  V30 17 1 16 18
M  V30 18 1 18 19
M  V30 19 2 11 20
M  V30 20 1 20 21
M  V30 21 2 21 22
M  V30 22 1 22 23
M  V30 23 1 23 24
M  V30 24 2 24 25
M  V30 25 1 8 26
M  V30 26 2 26 27
M  V30 27 1 2 28
M  V30 28 2 28 29
M  V30 29 1 29 30
M  V30 30 1 30 31
M  V30 31 2 30 32
M  V30 32 1 32 33
M  V30 33 2 33 34
M  V30 34 1 34 35
M  V30 35 1 27 5
M  V30 36 1 34 28
M  V30 37 1 25 9
M  V30 38 1 19 13
M  V30 39 1 24 20
M  V30 40 1 4 36
M  V30 41 1 6 37
M  V30 42 1 7 38
M  V30 43 1 13 39 CFG=3
M  V30 44 1 14 40
M  V30 45 1 14 41
M  V30 46 1 15 42
M  V30 47 1 15 43
M  V30 48 1 16 44 CFG=3
M  V30 49 1 17 45
M  V30 50 1 18 46
M  V30 51 1 18 47
M  V30 52 1 19 48
M  V30 53 1 19 49
M  V30 54 1 21 50
M  V30 55 1 23 51
M  V30 56 1 26 52
M  V30 57 1 27 53
M  V30 58 1 29 54
M  V30 59 1 32 55
M  V30 60 1 33 56
M  V30 END BOND
M  V30 END CTAB
M  END
>  <Dataset>  (928) 
ChEMBL_Kinases

>  <Ligand_Instance>  (928) 
nan

>  <PDB_ID>  (928) 
nan

>  <Standardized_SMILES>  (928) 
O=S(=O)(Nc1ccc(-c2nc(O[C@H]3CC[C@H](O)CC3)c3cn[nH]c3n2)cc1)c1cc(Cl)ccc1F

>  <Name>  (928) 
nan

>  <Pocket>  (928) 
nan

>  <ATP_Site>  (928) 
nan

>  <Peripheral>  (928) 
nan

>  <Num_H_Atoms_ProtBoundConf>  (928) 
nan

>  <Num_Resolved_Atoms>  (928) 
nan

>  <Num_Not_Resolved_Atoms>  (928) 
nan

$$$$
CHEMBL377839
     RDKit          3D

  0  0  0  0  0  0  0  0  0  0999 V3000
M  V30 BEGIN CTAB
M  V30 COUNTS 34 38 0 0 0
M  V30 BEGIN ATOM
M  V30 1 O 3.291574 -2.824901 1.953594 0
M  V30 2 C 2.113324 -2.389488 2.006282 0
M  V30 3 N 1.133930 -2.737509 3.007405 0
M  V30 4 C -0.061364 -2.036856 2.708778 0
M  V30 5 O -1.007482 -2.231834 3.484997 0
M  V30 6 C 0.113231 -1.232071 1.526908 0
M  V30 7 C 1.406033 -1.445622 1.115475 0
M  V30 8 C 1.855112 -0.798070 -0.013731 0
M  V30 9 C 3.212435 -0.930196 -0.519680 0
M  V30 10 C 3.420110 -1.285868 -1.818994 0
M  V30 11 C 4.693232 -1.415707 -2.366337 0
M  V30 12 S 5.809531 -0.989388 -0.893099 0
M  V30 13 C 4.388660 -0.690370 0.273664 0
M  V30 14 C 1.034291 0.064837 -0.748573 0
M  V30 15 C -0.253794 0.253403 -0.306080 0
M  V30 16 N -1.221322 1.026758 -0.838025 0
M  V30 17 C -2.272212 0.841388 -0.012364 0
M  V30 18 C -3.515605 1.447774 -0.165426 0
M  V30 19 C -4.531336 1.195659 0.732714 0
M  V30 20 C -4.247475 0.315096 1.783524 0
M  V30 21 O -5.294805 0.083055 2.671407 0
M  V30 22 C -3.001056 -0.240833 1.865857 0
M  V30 23 C -1.981243 -0.025729 1.016118 0
M  V30 24 C -0.695066 -0.394807 0.821228 0
M  V30 25 H 1.386933 -3.416328 3.787345 0
M  V30 26 H 2.683380 -1.506214 -2.571022 0
M  V30 27 H 5.157755 -1.654539 -3.258328 0
M  V30 28 H 4.267617 -0.381881 1.365198 0
M  V30 29 H 1.397818 0.575974 -1.646053 0
M  V30 30 H -1.140243 1.616462 -1.689289 0
M  V30 31 H -3.745671 2.126275 -0.968922 0
M  V30 32 H -5.492759 1.666321 0.611912 0
M  V30 33 H -6.000931 0.760549 2.841049 0
M  V30 34 H -2.904210 -0.888824 2.700713 0
M  V30 END ATOM
M  V30 BEGIN BOND
M  V30 1 2 1 2
M  V30 2 1 2 3
M  V30 3 1 3 4
M  V30 4 2 4 5
M  V30 5 1 4 6
M  V30 6 2 6 7
M  V30 7 1 7 8
M  V30 8 1 8 9
M  V30 9 1 9 10
M  V30 10 2 10 11
M  V30 11 1 11 12
M  V30 12 1 12 13
M  V30 13 2 8 14
M  V30 14 1 14 15
M  V30 15 1 15 16
M  V30 16 1 16 17
M  V30 17 2 17 18
M  V30 18 1 18 19
M  V30 19 2 19 20
M  V30 20 1 20 21
M  V30 21 1 20 22
M  V30 22 2 22 23
M  V30 23 1 23 24
M  V30 24 1 7 2
M  V30 25 2 13 9
M  V30 26 2 24 15
M  V30 27 1 24 6
M  V30 28 1 23 17
M  V30 29 1 3 25
M  V30 30 1 10 26
M  V30 31 1 11 27
M  V30 32 1 13 28
M  V30 33 1 14 29
M  V30 34 1 16 30
M  V30 35 1 18 31
M  V30 36 1 19 32
M  V30 37 1 21 33
M  V30 38 1 22 34
M  V30 END BOND
M  V30 END CTAB
M  END
>  <Dataset>  (929) 
ChEMBL_Kinases

>  <Ligand_Instance>  (929) 
nan

>  <PDB_ID>  (929) 
nan

>  <Standardized_SMILES>  (929) 
O=C1NC(=O)c2c1c(-c1ccsc1)cc1[nH]c3ccc(O)cc3c21

>  <Name>  (929) 
nan

>  <Pocket>  (929) 
nan

>  <ATP_Site>  (929) 
nan

>  <Peripheral>  (929) 
nan

>  <Num_H_Atoms_ProtBoundConf>  (929) 
nan

>  <Num_Resolved_Atoms>  (929) 
nan

>  <Num_Not_Resolved_Atoms>  (929) 
nan

$$$$
CHEMBL3780111
     RDKit          3D

  0  0  0  0  0  0  0  0  0  0999 V3000
M  V30 BEGIN CTAB
M  V30 COUNTS 74 78 0 0 0
M  V30 BEGIN ATOM
M  V30 1 C 5.120289 -1.858494 3.030395 0
M  V30 2 C 4.629580 -1.210179 1.785403 0
M  V30 3 C 3.407136 -1.537710 1.255799 0
M  V30 4 C 3.010116 -0.911486 0.113869 0
M  V30 5 C 3.757346 0.047400 -0.566719 0
M  V30 6 N 3.249066 0.644837 -1.757958 0
M  V30 7 N 3.797164 0.202483 -2.878852 0
M  V30 8 C 3.264547 0.811040 -3.943028 0
M  V30 9 C 3.473350 0.729227 -5.412248 0
M  V30 10 C 2.551588 -0.308386 -6.051071 0
M  V30 11 C 4.885009 0.178999 -5.630173 0
M  V30 12 C 3.278299 2.023702 -6.114463 0
M  V30 13 C 2.319366 1.693436 -3.451397 0
M  V30 14 C 2.310305 1.588447 -2.078268 0
M  V30 15 N 1.655453 2.128576 -0.936516 0
M  V30 16 C 0.485128 1.603031 -0.328077 0
M  V30 17 O 0.032627 0.567294 -0.885526 0
M  V30 18 N -0.156905 2.159217 0.810268 0
M  V30 19 C -1.300032 1.398569 1.180735 0
M  V30 20 C -0.996917 0.399959 2.090219 0
M  V30 21 C -2.007378 -0.420522 2.540446 0
M  V30 22 C -3.325092 -0.330788 2.153873 0
M  V30 23 O -4.427216 -1.035447 2.485697 0
M  V30 24 C -4.635467 -2.104279 3.326874 0
M  V30 25 C -3.926403 -3.373578 3.031171 0
M  V30 26 C -4.230275 -4.469479 4.020610 0
M  V30 27 C -3.294680 -4.802591 5.005173 0
M  V30 28 C -3.673821 -5.816734 5.858031 0
M  V30 29 N -4.843502 -6.479812 5.803218 0
M  V30 30 C -5.759986 -6.176908 4.864289 0
M  V30 31 C -5.415491 -5.173762 4.000374 0
M  V30 32 N -6.405449 -4.883715 3.024267 0
M  V30 33 C -3.595554 0.691569 1.232436 0
M  V30 34 C -4.856543 0.945842 0.722495 0
M  V30 35 C -5.119022 1.950135 -0.181230 0
M  V30 36 C -4.087622 2.756061 -0.614000 0
M  V30 37 C -2.806606 2.551540 -0.141042 0
M  V30 38 C -2.603504 1.529352 0.763552 0
M  V30 39 C 4.979840 0.349279 -0.003114 0
M  V30 40 C 5.430312 -0.260241 1.158859 0
M  V30 41 H 4.619087 -2.813896 3.225939 0
M  V30 42 H 4.895412 -1.142749 3.871121 0
M  V30 43 H 6.218582 -2.037581 3.011045 0
M  V30 44 H 2.796915 -2.279913 1.757544 0
M  V30 45 H 2.032662 -1.211817 -0.259256 0
M  V30 46 H 2.144883 -1.019700 -5.300618 0
M  V30 47 H 3.062622 -0.883075 -6.862058 0
M  V30 48 H 1.678894 0.177589 -6.533341 0
M  V30 49 H 4.941561 -0.372013 -6.590536 0
M  V30 50 H 5.099341 -0.550151 -4.824573 0
M  V30 51 H 5.660077 0.976967 -5.557833 0
M  V30 52 H 2.330830 2.057233 -6.687664 0
M  V30 53 H 3.298072 2.913144 -5.462454 0
M  V30 54 H 4.082772 2.135935 -6.886421 0
M  V30 55 H 1.617345 2.411763 -3.847673 0
M  V30 56 H 2.057493 2.995431 -0.491207 0
M  V30 57 H 0.270441 3.019219 1.216415 0
M  V30 58 H -0.005288 0.188839 2.501433 0
M  V30 59 H -1.812778 -1.203709 3.252706 0
M  V30 60 H -5.750241 -2.304773 3.322044 0
M  V30 61 H -4.447168 -1.861567 4.415994 0
M  V30 62 H -2.847646 -3.292748 2.999007 0
M  V30 63 H -4.230900 -3.713418 1.997075 0
M  V30 64 H -2.359013 -4.302326 5.081972 0
M  V30 65 H -3.020052 -6.151911 6.657604 0
M  V30 66 H -6.694792 -6.715341 4.829923 0
M  V30 67 H -6.741889 -4.440294 2.146259 0
M  V30 68 H -6.701203 -4.423726 2.139872 0
M  V30 69 H -5.673129 0.320420 1.054490 0
M  V30 70 H -6.137174 2.071219 -0.522115 0
M  V30 71 H -4.319852 3.536938 -1.323316 0
M  V30 72 H -2.011532 3.198061 -0.495264 0
M  V30 73 H 5.602007 1.100635 -0.507299 0
M  V30 74 H 6.410818 0.006226 1.578280 0
M  V30 END ATOM
M  V30 BEGIN BOND
M  V30 1 1 1 2
M  V30 2 2 2 3
M  V30 3 1 3 4
M  V30 4 2 4 5
M  V30 5 1 5 6
M  V30 6 1 6 7
M  V30 7 2 7 8
M  V30 8 1 8 9
M  V30 9 1 9 10
M  V30 10 1 9 11
M  V30 11 1 9 12
M  V30 12 1 8 13
M  V30 13 2 13 14
M  V30 14 1 14 15
M  V30 15 1 15 16
M  V30 16 2 16 17
M  V30 17 1 16 18
M  V30 18 1 18 19
M  V30 19 2 19 20
M  V30 20 1 20 21
M  V30 21 2 21 22
M  V30 22 1 22 23
M  V30 23 1 23 24
M  V30 24 1 24 25
M  V30 25 1 25 26
M  V30 26 2 26 27
M  V30 27 1 27 28
M  V30 28 2 28 29
M  V30 29 1 29 30
M  V30 30 2 30 31
M  V30 31 1 31 32
M  V30 32 1 22 33
M  V30 33 2 33 34
M  V30 34 1 34 35
M  V30 35 2 35 36
M  V30 36 1 36 37
M  V30 37 2 37 38
M  V30 38 1 5 39
M  V30 39 2 39 40
M  V30 40 1 40 2
M  V30 41 1 14 6
M  V30 42 1 38 19
M  V30 43 1 31 26
M  V30 44 1 38 33
M  V30 45 1 1 41
M  V30 46 1 1 42
M  V30 47 1 1 43
M  V30 48 1 3 44
M  V30 49 1 4 45
M  V30 50 1 10 46
M  V30 51 1 10 47
M  V30 52 1 10 48
M  V30 53 1 11 49
M  V30 54 1 11 50
M  V30 55 1 11 51
M  V30 56 1 12 52
M  V30 57 1 12 53
M  V30 58 1 12 54
M  V30 59 1 13 55
M  V30 60 1 15 56
M  V30 61 1 18 57
M  V30 62 1 20 58
M  V30 63 1 21 59
M  V30 64 1 24 60
M  V30 65 1 24 61
M  V30 66 1 25 62
M  V30 67 1 25 63
M  V30 68 1 27 64
M  V30 69 1 28 65
M  V30 70 1 30 66
M  V30 71 1 32 67
M  V30 72 1 32 68
M  V30 73 1 34 69
M  V30 74 1 35 70
M  V30 75 1 36 71
M  V30 76 1 37 72
M  V30 77 1 39 73
M  V30 78 1 40 74
M  V30 END BOND
M  V30 END CTAB
M  END
>  <Dataset>  (930) 
ChEMBL_Kinases

>  <Ligand_Instance>  (930) 
nan

>  <PDB_ID>  (930) 
nan

>  <Standardized_SMILES>  (930) 
Cc1ccc(-n2nc(C(C)(C)C)cc2NC(=O)Nc2ccc(OCCc3ccncc3N)c3ccccc23)cc1

>  <Name>  (930) 
nan

>  <Pocket>  (930) 
nan

>  <ATP_Site>  (930) 
nan

>  <Peripheral>  (930) 
nan

>  <Num_H_Atoms_ProtBoundConf>  (930) 
nan

>  <Num_Resolved_Atoms>  (930) 
nan

>  <Num_Not_Resolved_Atoms>  (930) 
nan

$$$$
CHEMBL3354524
     RDKit          3D

  0  0  0  0  0  0  0  0  0  0999 V3000
M  V30 BEGIN CTAB
M  V30 COUNTS 32 34 0 0 0
M  V30 BEGIN ATOM
M  V30 1 N 0.256897 -6.841537 2.119202 0
M  V30 2 C -0.538242 -5.704147 2.406516 0
M  V30 3 O -1.544494 -5.814515 3.158137 0
M  V30 4 C -0.062097 -4.477218 1.756697 0
M  V30 5 C 1.042881 -4.368264 0.944780 0
M  V30 6 C 1.370297 -3.144146 0.400339 0
M  V30 7 C 0.649084 -1.992335 0.618368 0
M  V30 8 C 1.028885 -0.717760 0.023923 0
M  V30 9 C 2.148363 -0.577821 -0.805627 0
M  V30 10 S 2.074884 1.269949 -1.224201 0
M  V30 11 C 0.589508 1.462188 -0.219811 0
M  V30 12 C -0.057391 2.818407 -0.106233 0
M  V30 13 C 0.497074 3.879134 -0.768722 0
M  V30 14 F 1.603687 3.784211 -1.528914 0
M  V30 15 C -0.157038 5.106371 -0.616757 0
M  V30 16 C -1.304527 5.199344 0.173088 0
M  V30 17 C -1.809516 4.081609 0.814957 0
M  V30 18 C -1.170647 2.844228 0.676379 0
M  V30 19 F -1.686112 1.765472 1.315763 0
M  V30 20 N 0.351913 0.381610 0.223908 0
M  V30 21 C -0.444163 -2.168129 1.438908 0
M  V30 22 C -0.827199 -3.360503 2.014811 0
M  V30 23 H 1.283899 -6.788752 2.383489 0
M  V30 24 H 0.715086 -7.729334 1.856683 0
M  V30 25 H 1.609793 -5.268034 0.771975 0
M  V30 26 H 2.241839 -3.153201 -0.215617 0
M  V30 27 H 2.884186 -1.458998 -1.102810 0
M  V30 28 H 0.196212 6.010661 -1.097117 0
M  V30 29 H -1.786197 6.164471 0.269347 0
M  V30 30 H -2.704635 4.184639 1.423393 0
M  V30 31 H -1.065292 -1.287315 1.655138 0
M  V30 32 H -1.689056 -3.444583 2.647384 0
M  V30 END ATOM
M  V30 BEGIN BOND
M  V30 1 1 1 2
M  V30 2 2 2 3
M  V30 3 1 2 4
M  V30 4 2 4 5
M  V30 5 1 5 6
M  V30 6 2 6 7
M  V30 7 1 7 8
M  V30 8 2 8 9
M  V30 9 1 9 10
M  V30 10 1 10 11
M  V30 11 1 11 12
M  V30 12 2 12 13
M  V30 13 1 13 14
M  V30 14 1 13 15
M  V30 15 2 15 16
M  V30 16 1 16 17
M  V30 17 2 17 18
M  V30 18 1 18 19
M  V30 19 2 11 20
M  V30 20 1 7 21
M  V30 21 2 21 22
M  V30 22 1 22 4
M  V30 23 1 20 8
M  V30 24 1 18 12
M  V30 25 1 1 23
M  V30 26 1 1 24
M  V30 27 1 5 25
M  V30 28 1 6 26
M  V30 29 1 9 27
M  V30 30 1 15 28
M  V30 31 1 16 29
M  V30 32 1 17 30
M  V30 33 1 21 31
M  V30 34 1 22 32
M  V30 END BOND
M  V30 END CTAB
M  END
>  <Dataset>  (931) 
ChEMBL_Kinases

>  <Ligand_Instance>  (931) 
nan

>  <PDB_ID>  (931) 
nan

>  <Standardized_SMILES>  (931) 
NC(=O)c1ccc(-c2csc(-c3c(F)cccc3F)n2)cc1

>  <Name>  (931) 
nan

>  <Pocket>  (931) 
nan

>  <ATP_Site>  (931) 
nan

>  <Peripheral>  (931) 
nan

>  <Num_H_Atoms_ProtBoundConf>  (931) 
nan

>  <Num_Resolved_Atoms>  (931) 
nan

>  <Num_Not_Resolved_Atoms>  (931) 
nan

$$$$
CHEMBL3672483
     RDKit          3D

  0  0  0  0  0  0  0  0  0  0999 V3000
M  V30 BEGIN CTAB
M  V30 COUNTS 62 67 0 0 0
M  V30 BEGIN ATOM
M  V30 1 C 2.892270 -2.752725 3.636908 0
M  V30 2 O 3.065105 -1.517237 3.005483 0
M  V30 3 C 4.257260 -1.121842 2.376424 0
M  V30 4 O 5.310077 -1.808803 2.295965 0
M  V30 5 C 4.290758 0.201646 1.756982 0
M  V30 6 C 5.450316 0.620201 1.128642 0
M  V30 7 C 5.492801 1.878303 0.535708 0
M  V30 8 C 4.402654 2.724123 0.558108 0
M  V30 9 C 3.229496 2.314020 1.187711 0
M  V30 10 C 1.984442 3.069169 1.309742 0
M  V30 11 C 1.803851 4.412209 1.657816 0
M  V30 12 N 0.464600 4.625970 1.628747 0
M  V30 13 C -0.164171 3.502328 1.287296 0
M  V30 14 C -1.515695 3.231715 1.127781 0
M  V30 15 C -1.916502 1.973176 0.764981 0
M  V30 16 C -3.268885 1.496219 0.550629 0
M  V30 17 C -4.238550 1.493062 1.532197 0
M  V30 18 C -5.524860 1.025727 1.284355 0
M  V30 19 C -5.817587 0.553818 0.004775 0
M  V30 20 C -4.870733 0.540734 -1.007822 0
M  V30 21 C -3.617067 1.015622 -0.701418 0
M  V30 22 C -0.953321 1.003296 0.567334 0
M  V30 23 C -1.109888 -0.399416 0.181440 0
M  V30 24 C -1.771295 -1.361804 0.916740 0
M  V30 25 C -1.844674 -2.671028 0.426472 0
M  V30 26 C -1.264459 -3.035029 -0.793304 0
M  V30 27 C -1.484631 -4.451495 -1.071207 0
M  V30 28 N -2.896211 -4.816306 -0.970733 0
M  V30 29 C -0.877750 -4.906189 -2.356143 0
M  V30 30 C -0.560323 -6.228793 -1.659092 0
M  V30 31 C -0.597033 -5.444544 -0.354588 0
M  V30 32 C -0.612868 -2.046483 -1.498625 0
M  V30 33 C -0.536183 -0.754746 -1.022446 0
M  V30 34 N 0.355596 1.342829 0.742553 0
M  V30 35 N 0.746679 2.557619 1.092999 0
M  V30 36 C 3.212294 1.062867 1.767953 0
M  V30 37 H 2.035610 -3.343899 3.234753 0
M  V30 38 H 3.820758 -3.343300 3.590911 0
M  V30 39 H 2.673650 -2.511705 4.714956 0
M  V30 40 H 6.338989 -0.009939 1.083062 0
M  V30 41 H 6.373968 2.238150 0.038950 0
M  V30 42 H 4.349585 3.708767 0.126468 0
M  V30 43 H 2.614689 5.088112 1.891052 0
M  V30 44 H -2.297235 3.944339 1.268332 0
M  V30 45 H -3.942615 1.874549 2.506218 0
M  V30 46 H -6.264857 1.036470 2.077831 0
M  V30 47 H -6.822834 0.193599 -0.171974 0
M  V30 48 H -5.113051 0.167854 -2.007531 0
M  V30 49 H -2.881838 1.002675 -1.497136 0
M  V30 50 H -2.206285 -1.051392 1.848956 0
M  V30 51 H -2.399890 -3.326775 1.115886 0
M  V30 52 H -3.038151 -5.748224 -1.406515 0
M  V30 53 H -3.419174 -4.131190 -1.575027 0
M  V30 54 H 0.016212 -4.410910 -2.730831 0
M  V30 55 H -1.667407 -5.023914 -3.146199 0
M  V30 56 H 0.457414 -6.601836 -1.900872 0
M  V30 57 H -1.398827 -6.938956 -1.797567 0
M  V30 58 H 0.389211 -5.081595 -0.068451 0
M  V30 59 H -1.082324 -6.043409 0.440080 0
M  V30 60 H -0.198589 -2.417789 -2.423694 0
M  V30 61 H 0.015034 -0.087657 -1.699275 0
M  V30 62 H 2.331261 0.667519 2.280963 0
M  V30 END ATOM
M  V30 BEGIN BOND
M  V30 1 1 1 2
M  V30 2 1 2 3
M  V30 3 2 3 4
M  V30 4 1 3 5
M  V30 5 2 5 6
M  V30 6 1 6 7
M  V30 7 2 7 8
M  V30 8 1 8 9
M  V30 9 1 9 10
M  V30 10 2 10 11
M  V30 11 1 11 12
M  V30 12 2 12 13
M  V30 13 1 13 14
M  V30 14 2 14 15
M  V30 15 1 15 16
M  V30 16 2 16 17
M  V30 17 1 17 18
M  V30 18 2 18 19
M  V30 19 1 19 20
M  V30 20 2 20 21
M  V30 21 1 15 22
M  V30 22 1 22 23
M  V30 23 2 23 24
M  V30 24 1 24 25
M  V30 25 2 25 26
M  V30 26 1 26 27
M  V30 27 1 27 28
M  V30 28 1 27 29
M  V30 29 1 29 30
M  V30 30 1 30 31
M  V30 31 1 26 32
M  V30 32 2 32 33
M  V30 33 2 22 34
M  V30 34 1 34 35
M  V30 35 2 9 36
M  V30 36 1 36 5
M  V30 37 1 35 10
M  V30 38 1 35 13
M  V30 39 1 21 16
M  V30 40 1 33 23
M  V30 41 1 31 27
M  V30 42 1 1 37
M  V30 43 1 1 38
M  V30 44 1 1 39
M  V30 45 1 6 40
M  V30 46 1 7 41
M  V30 47 1 8 42
M  V30 48 1 11 43
M  V30 49 1 14 44
M  V30 50 1 17 45
M  V30 51 1 18 46
M  V30 52 1 19 47
M  V30 53 1 20 48
M  V30 54 1 21 49
M  V30 55 1 24 50
M  V30 56 1 25 51
M  V30 57 1 28 52
M  V30 58 1 28 53
M  V30 59 1 29 54
M  V30 60 1 29 55
M  V30 61 1 30 56
M  V30 62 1 30 57
M  V30 63 1 31 58
M  V30 64 1 31 59
M  V30 65 1 32 60
M  V30 66 1 33 61
M  V30 67 1 36 62
M  V30 END BOND
M  V30 END CTAB
M  END
>  <Dataset>  (932) 
ChEMBL_Kinases

>  <Ligand_Instance>  (932) 
nan

>  <PDB_ID>  (932) 
nan

>  <Standardized_SMILES>  (932) 
COC(=O)c1cccc(-c2cnc3cc(-c4ccccc4)c(-c4ccc(C5(N)CCC5)cc4)nn23)c1

>  <Name>  (932) 
nan

>  <Pocket>  (932) 
nan

>  <ATP_Site>  (932) 
nan

>  <Peripheral>  (932) 
nan

>  <Num_H_Atoms_ProtBoundConf>  (932) 
nan

>  <Num_Resolved_Atoms>  (932) 
nan

>  <Num_Not_Resolved_Atoms>  (932) 
nan

$$$$
CHEMBL3355138
     RDKit          3D

  0  0  0  0  0  0  0  0  0  0999 V3000
M  V30 BEGIN CTAB
M  V30 COUNTS 62 66 0 0 0
M  V30 BEGIN ATOM
M  V30 1 C 2.076756 2.955311 6.603105 0
M  V30 2 O 2.862907 2.533838 5.508648 0
M  V30 3 C 2.324005 1.632019 4.606876 0
M  V30 4 C 3.033761 1.168422 3.503422 0
M  V30 5 C 2.481128 0.263182 2.605758 0
M  V30 6 C 1.188822 -0.204952 2.794143 0
M  V30 7 C 0.766898 -1.142735 1.759243 0
M  V30 8 C 0.988261 -2.486580 1.974846 0
M  V30 9 C 0.605811 -3.404581 1.031965 0
M  V30 10 C -0.003548 -3.051901 -0.149426 0
M  V30 11 C -0.197995 -1.698387 -0.309708 0
M  V30 12 C 0.146795 -0.719352 0.566441 0
M  V30 13 C -0.080576 0.727846 0.350006 0 CFG=2
M  V30 14 C -1.442105 1.149329 0.887721 0
M  V30 15 C -1.955882 2.402032 0.208737 0
M  V30 16 N -2.245929 2.043266 -1.143281 0
M  V30 17 C -3.481816 1.293252 -1.273778 0
M  V30 18 C -1.151246 1.436586 -1.835683 0
M  V30 19 C 0.088855 1.232102 -1.036178 0 CFG=2
M  V30 20 C 1.096394 0.475449 -1.847974 0
M  V30 21 N -0.471924 -3.839486 -1.228125 0
M  V30 22 C -0.217705 -5.252065 -0.938258 0
M  V30 23 N -0.788091 -6.347287 -1.396354 0
M  V30 24 N -1.823645 -6.175428 -2.323061 0
M  V30 25 C -2.064866 -4.805633 -2.596207 0
M  V30 26 O -3.233970 -4.481863 -3.013335 0
M  V30 27 C -1.084810 -3.633073 -2.454130 0 CFG=1
M  V30 28 C -1.636772 -2.402780 -2.976384 0
M  V30 29 C 0.857883 -5.634751 0.055435 0
M  V30 30 O 0.799814 -4.772056 1.181970 0
M  V30 31 C 0.485639 0.246556 3.876797 0
M  V30 32 F -0.761438 -0.255141 3.995416 0
M  V30 33 C 1.030341 1.141264 4.764914 0
M  V30 34 H 1.234803 3.581846 6.243296 0
M  V30 35 H 2.685660 3.569973 7.298960 0
M  V30 36 H 1.703509 2.014503 7.080322 0
M  V30 37 H 4.038259 1.577401 3.419618 0
M  V30 38 H 3.150281 0.000792 1.807748 0
M  V30 39 H 1.461206 -2.861806 2.874943 0
M  V30 40 H -0.646883 -1.300815 -1.170364 0
M  V30 41 H 0.642327 1.243209 1.017854 0
M  V30 42 H -2.179871 0.356877 0.772273 0
M  V30 43 H -1.387209 1.416827 1.983872 0
M  V30 44 H -1.275508 3.254625 0.285240 0
M  V30 45 H -2.906163 2.649137 0.715790 0
M  V30 46 H -3.404028 0.259162 -0.867742 0
M  V30 47 H -4.293637 1.845301 -0.783540 0
M  V30 48 H -3.714497 1.216211 -2.347172 0
M  V30 49 H -1.546574 0.556964 -2.368800 0
M  V30 50 H -0.897202 2.153479 -2.673386 0
M  V30 51 H 0.522078 2.275636 -0.946797 0
M  V30 52 H 0.652248 0.026245 -2.777088 0
M  V30 53 H 1.936222 1.088856 -2.237353 0
M  V30 54 H 1.618957 -0.312878 -1.231049 0
M  V30 55 H -2.427891 -6.859474 -2.830123 0
M  V30 56 H -0.313441 -3.972093 -3.240219 0
M  V30 57 H -2.466798 -1.981547 -2.358419 0
M  V30 58 H -2.247785 -2.646836 -3.936994 0
M  V30 59 H -0.950293 -1.644806 -3.406325 0
M  V30 60 H 1.847035 -5.529599 -0.429384 0
M  V30 61 H 0.759474 -6.643975 0.438327 0
M  V30 62 H 0.412788 1.452140 5.596663 0
M  V30 END ATOM
M  V30 BEGIN BOND
M  V30 1 1 1 2
M  V30 2 1 2 3
M  V30 3 2 3 4
M  V30 4 1 4 5
M  V30 5 2 5 6
M  V30 6 1 6 7
M  V30 7 2 7 8
M  V30 8 1 8 9
M  V30 9 2 9 10
M  V30 10 1 10 11
M  V30 11 2 11 12
M  V30 12 1 12 13
M  V30 13 1 13 14
M  V30 14 1 14 15
M  V30 15 1 15 16
M  V30 16 1 16 17
M  V30 17 1 16 18
M  V30 18 1 18 19
M  V30 19 1 19 20
M  V30 20 1 10 21
M  V30 21 1 21 22
M  V30 22 2 22 23
M  V30 23 1 23 24
M  V30 24 1 24 25
M  V30 25 2 25 26
M  V30 26 1 25 27
M  V30 27 1 27 28
M  V30 28 1 22 29
M  V30 29 1 29 30
M  V30 30 1 6 31
M  V30 31 1 31 32
M  V30 32 2 31 33
M  V30 33 1 33 3
M  V30 34 1 12 7
M  V30 35 1 19 13
M  V30 36 1 27 21
M  V30 37 1 30 9
M  V30 38 1 1 34
M  V30 39 1 1 35
M  V30 40 1 1 36
M  V30 41 1 4 37
M  V30 42 1 5 38
M  V30 43 1 8 39
M  V30 44 1 11 40
M  V30 45 1 13 41 CFG=1
M  V30 46 1 14 42
M  V30 47 1 14 43
M  V30 48 1 15 44
M  V30 49 1 15 45
M  V30 50 1 17 46
M  V30 51 1 17 47
M  V30 52 1 17 48
M  V30 53 1 18 49
M  V30 54 1 18 50
M  V30 55 1 19 51 CFG=1
M  V30 56 1 20 52
M  V30 57 1 20 53
M  V30 58 1 20 54
M  V30 59 1 24 55
M  V30 60 1 27 56 CFG=3
M  V30 61 1 28 57
M  V30 62 1 28 58
M  V30 63 1 28 59
M  V30 64 1 29 60
M  V30 65 1 29 61
M  V30 66 1 33 62
M  V30 END BOND
M  V30 END CTAB
M  END
>  <Dataset>  (933) 
ChEMBL_Kinases

>  <Ligand_Instance>  (933) 
nan

>  <PDB_ID>  (933) 
nan

>  <Standardized_SMILES>  (933) 
COc1ccc(-c2cc3c(cc2[C@@H]2CCN(C)C[C@@H]2C)N2C(=NNC(=O)[C@H]2C)CO3)c(F)c1

>  <Name>  (933) 
nan

>  <Pocket>  (933) 
nan

>  <ATP_Site>  (933) 
nan

>  <Peripheral>  (933) 
nan

>  <Num_H_Atoms_ProtBoundConf>  (933) 
nan

>  <Num_Resolved_Atoms>  (933) 
nan

>  <Num_Not_Resolved_Atoms>  (933) 
nan

$$$$
CHEMBL3672482
     RDKit          3D

  0  0  0  0  0  0  0  0  0  0999 V3000
M  V30 BEGIN CTAB
M  V30 COUNTS 57 62 0 0 0
M  V30 BEGIN ATOM
M  V30 1 N 3.930808 -6.281503 -3.800281 0
M  V30 2 C 3.959076 -5.225213 -3.352414 0
M  V30 3 C 3.981539 -3.910302 -2.776753 0
M  V30 4 C 5.096218 -3.435682 -2.117337 0
M  V30 5 C 5.153705 -2.179596 -1.552930 0
M  V30 6 C 4.060986 -1.341047 -1.637658 0
M  V30 7 C 3.889013 0.016012 -1.126492 0
M  V30 8 C 4.818427 1.035137 -1.245826 0
M  V30 9 N 4.292125 2.142021 -0.648611 0
M  V30 10 C 3.069770 1.796530 -0.178638 0
M  V30 11 C 2.077048 2.471161 0.502592 0
M  V30 12 C 0.899809 1.849773 0.863823 0
M  V30 13 C -0.180820 2.513271 1.583872 0
M  V30 14 C -1.487229 2.735222 1.162062 0
M  V30 15 C -2.356019 3.388283 2.005319 0
M  V30 16 C -2.002556 3.836128 3.248511 0
M  V30 17 C -0.695546 3.620907 3.685688 0
M  V30 18 C 0.175447 2.963460 2.834064 0
M  V30 19 C 0.697620 0.525707 0.543582 0
M  V30 20 C -0.485215 -0.270159 0.849085 0
M  V30 21 C -1.039795 -0.591964 2.061535 0
M  V30 22 C -2.175668 -1.372498 2.119467 0
M  V30 23 C -2.775984 -1.844831 0.954954 0
M  V30 24 C -3.967413 -2.653890 1.181612 0
M  V30 25 N -4.926665 -2.049135 2.108228 0
M  V30 26 C -4.694047 -3.244250 0.030787 0
M  V30 27 C -4.110626 -4.633152 0.310248 0
M  V30 28 C -3.621341 -4.059042 1.644697 0
M  V30 29 C -2.226451 -1.526719 -0.265931 0
M  V30 30 C -1.085469 -0.742617 -0.322279 0
M  V30 31 N 1.696086 -0.098770 -0.124708 0
M  V30 32 N 2.818227 0.506261 -0.465293 0
M  V30 33 C 2.909861 -1.785890 -2.299041 0
M  V30 34 C 2.870129 -3.065923 -2.866728 0
M  V30 35 H 5.975691 -4.052275 -2.023343 0
M  V30 36 H 5.981626 -1.737985 -1.024807 0
M  V30 37 H 5.802780 1.024623 -1.714933 0
M  V30 38 H 2.193240 3.513762 0.774621 0
M  V30 39 H -1.692052 2.355241 0.174087 0
M  V30 40 H -3.365326 3.536471 1.629024 0
M  V30 41 H -2.711590 4.349891 3.893775 0
M  V30 42 H -0.432192 3.981556 4.672304 0
M  V30 43 H 1.163183 2.852581 3.277830 0
M  V30 44 H -0.493643 -0.173972 2.894529 0
M  V30 45 H -2.509915 -1.552743 3.133584 0
M  V30 46 H -5.125152 -1.060168 1.859843 0
M  V30 47 H -4.715958 -2.221841 3.096380 0
M  V30 48 H -4.450554 -2.965194 -0.986189 0
M  V30 49 H -5.806853 -3.300531 0.145384 0
M  V30 50 H -4.847874 -5.438121 0.390790 0
M  V30 51 H -3.282223 -4.930187 -0.373135 0
M  V30 52 H -2.532474 -4.266388 1.745837 0
M  V30 53 H -4.174474 -4.413381 2.519900 0
M  V30 54 H -2.716255 -1.908340 -1.148852 0
M  V30 55 H -0.741849 -0.556907 -1.345444 0
M  V30 56 H 1.994136 -1.217528 -2.427994 0
M  V30 57 H 1.984693 -3.420006 -3.381306 0
M  V30 END ATOM
M  V30 BEGIN BOND
M  V30 1 3 1 2
M  V30 2 1 2 3
M  V30 3 2 3 4
M  V30 4 1 4 5
M  V30 5 2 5 6
M  V30 6 1 6 7
M  V30 7 2 7 8
M  V30 8 1 8 9
M  V30 9 2 9 10
M  V30 10 1 10 11
M  V30 11 2 11 12
M  V30 12 1 12 13
M  V30 13 2 13 14
M  V30 14 1 14 15
M  V30 15 2 15 16
M  V30 16 1 16 17
M  V30 17 2 17 18
M  V30 18 1 12 19
M  V30 19 1 19 20
M  V30 20 2 20 21
M  V30 21 1 21 22
M  V30 22 2 22 23
M  V30 23 1 23 24
M  V30 24 1 24 25
M  V30 25 1 24 26
M  V30 26 1 26 27
M  V30 27 1 27 28
M  V30 28 1 23 29
M  V30 29 2 29 30
M  V30 30 2 19 31
M  V30 31 1 31 32
M  V30 32 1 6 33
M  V30 33 2 33 34
M  V30 34 1 34 3
M  V30 35 1 32 7
M  V30 36 1 32 10
M  V30 37 1 18 13
M  V30 38 1 30 20
M  V30 39 1 28 24
M  V30 40 1 4 35
M  V30 41 1 5 36
M  V30 42 1 8 37
M  V30 43 1 11 38
M  V30 44 1 14 39
M  V30 45 1 15 40
M  V30 46 1 16 41
M  V30 47 1 17 42
M  V30 48 1 18 43
M  V30 49 1 21 44
M  V30 50 1 22 45
M  V30 51 1 25 46
M  V30 52 1 25 47
M  V30 53 1 26 48
M  V30 54 1 26 49
M  V30 55 1 27 50
M  V30 56 1 27 51
M  V30 57 1 28 52
M  V30 58 1 28 53
M  V30 59 1 29 54
M  V30 60 1 30 55
M  V30 61 1 33 56
M  V30 62 1 34 57
M  V30 END BOND
M  V30 END CTAB
M  END
>  <Dataset>  (934) 
ChEMBL_Kinases

>  <Ligand_Instance>  (934) 
nan

>  <PDB_ID>  (934) 
nan

>  <Standardized_SMILES>  (934) 
N#Cc1ccc(-c2cnc3cc(-c4ccccc4)c(-c4ccc(C5(N)CCC5)cc4)nn23)cc1

>  <Name>  (934) 
nan

>  <Pocket>  (934) 
nan

>  <ATP_Site>  (934) 
nan

>  <Peripheral>  (934) 
nan

>  <Num_H_Atoms_ProtBoundConf>  (934) 
nan

>  <Num_Resolved_Atoms>  (934) 
nan

>  <Num_Not_Resolved_Atoms>  (934) 
nan

$$$$
CHEMBL3355145
     RDKit          3D

  0  0  0  0  0  0  0  0  0  0999 V3000
M  V30 BEGIN CTAB
M  V30 COUNTS 51 54 0 0 0
M  V30 BEGIN ATOM
M  V30 1 C -0.798738 -3.664834 7.492082 0
M  V30 2 C 0.030762 -2.637182 6.776372 0
M  V30 3 C -0.500892 -1.371612 6.525556 0
M  V30 4 C 0.274418 -0.438158 5.866569 0
M  V30 5 C 1.559402 -0.818415 5.485076 0
M  V30 6 N 2.354874 0.170041 4.797602 0
M  V30 7 C 2.098687 0.014384 3.398888 0
M  V30 8 O 1.264321 -0.927839 3.178226 0
M  V30 9 C 2.725729 0.844596 2.348586 0
M  V30 10 C 3.627561 1.864906 2.568751 0
M  V30 11 C 4.132240 2.557417 1.481016 0
M  V30 12 C 3.754154 2.249217 0.197429 0
M  V30 13 C 2.840904 1.216085 -0.026481 0
M  V30 14 N 2.411953 0.851384 -1.333151 0
M  V30 15 C 1.157659 1.265091 -1.676025 0
M  V30 16 C 0.924359 0.814403 -2.979602 0
M  V30 17 N -0.256215 0.998951 -3.783669 0
M  V30 18 C -1.246073 -0.034617 -3.647474 0
M  V30 19 O -1.006752 -0.999245 -2.852122 0
M  V30 20 N -2.505271 -0.102338 -4.324704 0
M  V30 21 C -3.340325 -1.239290 -4.029040 0
M  V30 22 C -3.163527 -2.358872 -4.831613 0
M  V30 23 C -3.995708 -3.408650 -4.491707 0
M  V30 24 C -4.914937 -3.378408 -3.468994 0
M  V30 25 C -5.032167 -2.231765 -2.716905 0
M  V30 26 C -4.241879 -1.151646 -2.994448 0
M  V30 27 C 2.068270 0.136766 -3.372615 0
M  V30 28 N 2.919428 0.196792 -2.339238 0
M  V30 29 C 2.336112 0.523086 1.064807 0
M  V30 30 C 2.073542 -2.076467 5.740232 0
M  V30 31 N 1.277348 -2.970244 6.393066 0
M  V30 32 H -0.469519 -3.678764 8.550792 0
M  V30 33 H -1.873435 -3.327772 7.501168 0
M  V30 34 H -0.726862 -4.646582 6.989874 0
M  V30 35 H -1.507966 -1.097338 6.833298 0
M  V30 36 H -0.061953 0.575175 5.629475 0
M  V30 37 H 3.034132 0.926317 5.084732 0
M  V30 38 H 3.884518 2.057260 3.611518 0
M  V30 39 H 4.837102 3.349640 1.705266 0
M  V30 40 H 4.159796 2.803631 -0.654960 0
M  V30 41 H 0.381574 1.824410 -1.175401 0
M  V30 42 H -0.578616 1.729372 -4.466996 0
M  V30 43 H -2.674822 0.708930 -4.975398 0
M  V30 44 H -2.446320 -2.396784 -5.637344 0
M  V30 45 H -3.927153 -4.330385 -5.068167 0
M  V30 46 H -5.524190 -4.243107 -3.272441 0
M  V30 47 H -5.724088 -2.135477 -1.907088 0
M  V30 48 H -4.330603 -0.243726 -2.403424 0
M  V30 49 H 2.265665 -0.352792 -4.316001 0
M  V30 50 H 1.618634 -0.284869 0.852013 0
M  V30 51 H 3.082568 -2.257383 5.397275 0
M  V30 END ATOM
M  V30 BEGIN BOND
M  V30 1 1 1 2
M  V30 2 2 2 3
M  V30 3 1 3 4
M  V30 4 2 4 5
M  V30 5 1 5 6
M  V30 6 1 6 7
M  V30 7 2 7 8
M  V30 8 1 7 9
M  V30 9 2 9 10
M  V30 10 1 10 11
M  V30 11 2 11 12
M  V30 12 1 12 13
M  V30 13 1 13 14
M  V30 14 1 14 15
M  V30 15 2 15 16
M  V30 16 1 16 17
M  V30 17 1 17 18
M  V30 18 2 18 19
M  V30 19 1 18 20
M  V30 20 1 20 21
M  V30 21 2 21 22
M  V30 22 1 22 23
M  V30 23 2 23 24
M  V30 24 1 24 25
M  V30 25 2 25 26
M  V30 26 1 16 27
M  V30 27 2 27 28
M  V30 28 2 13 29
M  V30 29 1 5 30
M  V30 30 2 30 31
M  V30 31 1 31 2
M  V30 32 1 29 9
M  V30 33 1 28 14
M  V30 34 1 26 21
M  V30 35 1 1 32
M  V30 36 1 1 33
M  V30 37 1 1 34
M  V30 38 1 3 35
M  V30 39 1 4 36
M  V30 40 1 6 37
M  V30 41 1 10 38
M  V30 42 1 11 39
M  V30 43 1 12 40
M  V30 44 1 15 41
M  V30 45 1 17 42
M  V30 46 1 20 43
M  V30 47 1 22 44
M  V30 48 1 23 45
M  V30 49 1 24 46
M  V30 50 1 25 47
M  V30 51 1 26 48
M  V30 52 1 27 49
M  V30 53 1 29 50
M  V30 54 1 30 51
M  V30 END BOND
M  V30 END CTAB
M  END
>  <Dataset>  (935) 
ChEMBL_Kinases

>  <Ligand_Instance>  (935) 
nan

>  <PDB_ID>  (935) 
nan

>  <Standardized_SMILES>  (935) 
Cc1ccc(NC(=O)c2cccc(-n3cc(NC(=O)Nc4ccccc4)cn3)c2)cn1

>  <Name>  (935) 
nan

>  <Pocket>  (935) 
nan

>  <ATP_Site>  (935) 
nan

>  <Peripheral>  (935) 
nan

>  <Num_H_Atoms_ProtBoundConf>  (935) 
nan

>  <Num_Resolved_Atoms>  (935) 
nan

>  <Num_Not_Resolved_Atoms>  (935) 
nan

$$$$
CHEMBL3672481
     RDKit          3D

  0  0  0  0  0  0  0  0  0  0999 V3000
M  V30 BEGIN CTAB
M  V30 COUNTS 62 67 0 0 0
M  V30 BEGIN ATOM
M  V30 1 C 5.276621 -3.032865 3.211779 0
M  V30 2 S 6.016054 -1.550379 2.554471 0
M  V30 3 O 6.655188 -1.942660 1.238739 0
M  V30 4 O 7.082653 -1.106081 3.482202 0
M  V30 5 C 4.777183 -0.314042 2.298411 0
M  V30 6 C 4.090939 -0.198529 1.106610 0
M  V30 7 C 3.141476 0.803383 1.013996 0
M  V30 8 C 2.847825 1.688743 2.048744 0
M  V30 9 C 1.812216 2.710680 1.819552 0
M  V30 10 C 1.759114 4.044452 2.089852 0
M  V30 11 N 0.549834 4.463920 1.652588 0
M  V30 12 C -0.130765 3.431590 1.127344 0
M  V30 13 C -1.393014 3.412198 0.570139 0
M  V30 14 C -1.886135 2.201965 0.087786 0
M  V30 15 C -3.178898 1.953342 -0.533793 0
M  V30 16 C -4.303070 2.009382 0.296153 0
M  V30 17 C -5.580537 1.796890 -0.175203 0
M  V30 18 C -5.793438 1.516846 -1.506916 0
M  V30 19 C -4.702946 1.455701 -2.347089 0
M  V30 20 C -3.433692 1.671460 -1.855671 0
M  V30 21 C -1.070614 1.094526 0.201378 0
M  V30 22 C -1.311461 -0.282534 -0.207649 0
M  V30 23 C -1.586377 -1.053683 0.924537 0
M  V30 24 C -1.853658 -2.424560 0.822242 0
M  V30 25 C -1.842536 -3.017910 -0.432656 0
M  V30 26 C -2.118764 -4.457588 -0.580528 0
M  V30 27 N -3.171089 -4.977716 0.267789 0
M  V30 28 C -2.090714 -5.033943 -1.948852 0
M  V30 29 C -0.601544 -5.241763 -1.785509 0
M  V30 30 C -0.836100 -5.248981 -0.288589 0
M  V30 31 C -1.569715 -2.245701 -1.541225 0
M  V30 32 C -1.306721 -0.897346 -1.441197 0
M  V30 33 N 0.142908 1.224205 0.761425 0
M  V30 34 N 0.639406 2.356016 1.227899 0
M  V30 35 C 3.550408 1.552316 3.235057 0
M  V30 36 C 4.512676 0.553976 3.360693 0
M  V30 37 H 5.863200 -3.892430 2.891058 0
M  V30 38 H 4.243529 -3.157218 2.829715 0
M  V30 39 H 5.242433 -2.966446 4.337371 0
M  V30 40 H 4.304878 -0.875826 0.293085 0
M  V30 41 H 2.595540 0.908329 0.089506 0
M  V30 42 H 2.563897 4.579108 2.560169 0
M  V30 43 H -2.058208 4.238490 0.460524 0
M  V30 44 H -4.291282 2.218118 1.359929 0
M  V30 45 H -6.472033 1.829351 0.420897 0
M  V30 46 H -6.726727 1.327293 -2.026528 0
M  V30 47 H -4.767037 1.241728 -3.412092 0
M  V30 48 H -2.581633 1.630458 -2.497663 0
M  V30 49 H -1.630367 -0.728273 1.973543 0
M  V30 50 H -2.071621 -3.063583 1.665841 0
M  V30 51 H -2.875367 -5.137568 1.249921 0
M  V30 52 H -3.638307 -5.808942 -0.157257 0
M  V30 53 H -2.413044 -4.444632 -2.801724 0
M  V30 54 H -2.580637 -6.038715 -1.956611 0
M  V30 55 H -0.206635 -6.222437 -2.153608 0
M  V30 56 H 0.048995 -4.413233 -2.115322 0
M  V30 57 H -0.084220 -4.668993 0.284625 0
M  V30 58 H -1.030682 -6.264270 0.090968 0
M  V30 59 H -1.540881 -2.621329 -2.543304 0
M  V30 60 H -1.077395 -0.189169 -2.223533 0
M  V30 61 H 3.289903 2.250608 3.991964 0
M  V30 62 H 4.999804 0.532030 4.317721 0
M  V30 END ATOM
M  V30 BEGIN BOND
M  V30 1 1 1 2
M  V30 2 2 2 3
M  V30 3 2 2 4
M  V30 4 1 2 5
M  V30 5 2 5 6
M  V30 6 1 6 7
M  V30 7 2 7 8
M  V30 8 1 8 9
M  V30 9 2 9 10
M  V30 10 1 10 11
M  V30 11 2 11 12
M  V30 12 1 12 13
M  V30 13 2 13 14
M  V30 14 1 14 15
M  V30 15 2 15 16
M  V30 16 1 16 17
M  V30 17 2 17 18
M  V30 18 1 18 19
M  V30 19 2 19 20
M  V30 20 1 14 21
M  V30 21 1 21 22
M  V30 22 2 22 23
M  V30 23 1 23 24
M  V30 24 2 24 25
M  V30 25 1 25 26
M  V30 26 1 26 27
M  V30 27 1 26 28
M  V30 28 1 28 29
M  V30 29 1 29 30
M  V30 30 1 25 31
M  V30 31 2 31 32
M  V30 32 2 21 33
M  V30 33 1 33 34
M  V30 34 1 8 35
M  V30 35 2 35 36
M  V30 36 1 36 5
M  V30 37 1 34 9
M  V30 38 1 34 12
M  V30 39 1 20 15
M  V30 40 1 32 22
M  V30 41 1 30 26
M  V30 42 1 1 37
M  V30 43 1 1 38
M  V30 44 1 1 39
M  V30 45 1 6 40
M  V30 46 1 7 41
M  V30 47 1 10 42
M  V30 48 1 13 43
M  V30 49 1 16 44
M  V30 50 1 17 45
M  V30 51 1 18 46
M  V30 52 1 19 47
M  V30 53 1 20 48
M  V30 54 1 23 49
M  V30 55 1 24 50
M  V30 56 1 27 51
M  V30 57 1 27 52
M  V30 58 1 28 53
M  V30 59 1 28 54
M  V30 60 1 29 55
M  V30 61 1 29 56
M  V30 62 1 30 57
M  V30 63 1 30 58
M  V30 64 1 31 59
M  V30 65 1 32 60
M  V30 66 1 35 61
M  V30 67 1 36 62
M  V30 END BOND
M  V30 END CTAB
M  END
>  <Dataset>  (936) 
ChEMBL_Kinases

>  <Ligand_Instance>  (936) 
nan

>  <PDB_ID>  (936) 
nan

>  <Standardized_SMILES>  (936) 
CS(=O)(=O)c1ccc(-c2cnc3cc(-c4ccccc4)c(-c4ccc(C5(N)CCC5)cc4)nn23)cc1

>  <Name>  (936) 
nan

>  <Pocket>  (936) 
nan

>  <ATP_Site>  (936) 
nan

>  <Peripheral>  (936) 
nan

>  <Num_H_Atoms_ProtBoundConf>  (936) 
nan

>  <Num_Resolved_Atoms>  (936) 
nan

>  <Num_Not_Resolved_Atoms>  (936) 
nan

$$$$
CHEMBL3355146
     RDKit          3D

  0  0  0  0  0  0  0  0  0  0999 V3000
M  V30 BEGIN CTAB
M  V30 COUNTS 51 54 0 0 0
M  V30 BEGIN ATOM
M  V30 1 C -0.014657 -8.093689 2.005544 0
M  V30 2 C 0.507369 -6.719080 1.818273 0
M  V30 3 C 1.859881 -6.575458 1.585712 0
M  V30 4 C 2.380277 -5.310845 1.406912 0
M  V30 5 C 1.628159 -4.161742 1.445506 0
M  V30 6 N 2.080100 -2.829002 1.272824 0
M  V30 7 C 3.378280 -2.354155 1.024333 0
M  V30 8 O 4.325099 -3.175060 0.929291 0
M  V30 9 C 3.740092 -0.952971 0.861417 0
M  V30 10 C 5.060574 -0.631289 0.618435 0
M  V30 11 C 5.480910 0.695018 0.451556 0
M  V30 12 C 4.572900 1.722604 0.527278 0
M  V30 13 C 3.247190 1.421995 0.769567 0
M  V30 14 N 2.263965 2.456164 0.857401 0
M  V30 15 C 0.948976 2.335485 0.591827 0
M  V30 16 C 0.284324 3.527478 0.776702 0
M  V30 17 N -1.078544 3.831448 0.610609 0
M  V30 18 C -2.069768 2.911232 0.199230 0
M  V30 19 O -1.768952 1.727153 -0.048363 0
M  V30 20 N -3.447541 3.238142 0.036132 0
M  V30 21 C -4.406731 2.254581 -0.385667 0
M  V30 22 C -5.018696 1.543358 0.615788 0
M  V30 23 C -5.961780 0.569511 0.301578 0
M  V30 24 C -6.205081 0.401880 -1.050203 0
M  V30 25 C -5.613164 1.093864 -2.080731 0
M  V30 26 C -4.675053 2.059580 -1.722638 0
M  V30 27 Cl -3.868965 2.990861 -2.963447 0
M  V30 28 C 1.267123 4.392953 1.172684 0
M  V30 29 N 2.426918 3.712125 1.206356 0
M  V30 30 C 2.885413 0.120948 0.924896 0
M  V30 31 C 0.286943 -4.367148 1.680754 0
M  V30 32 N -0.231660 -5.594521 1.856506 0
M  V30 33 H 0.534920 -8.528188 2.868069 0
M  V30 34 H 0.076571 -8.717413 1.098920 0
M  V30 35 H -1.081890 -8.112049 2.282978 0
M  V30 36 H 2.517885 -7.439384 1.541455 0
M  V30 37 H 3.426492 -5.239733 1.229871 0
M  V30 38 H 1.398804 -2.052283 1.327276 0
M  V30 39 H 5.858348 -1.376427 0.540501 0
M  V30 40 H 6.519156 0.948897 0.260532 0
M  V30 41 H 4.913707 2.741991 0.396064 0
M  V30 42 H 0.516648 1.396244 0.275357 0
M  V30 43 H -1.434469 4.791696 0.791447 0
M  V30 44 H -3.737827 4.226216 0.235704 0
M  V30 45 H -4.831036 1.671107 1.679198 0
M  V30 46 H -6.490069 -0.035948 1.034464 0
M  V30 47 H -6.945323 -0.361653 -1.313017 0
M  V30 48 H -5.877070 0.882564 -3.100059 0
M  V30 49 H 1.193765 5.459746 1.431423 0
M  V30 50 H 1.841760 -0.084286 1.113428 0
M  V30 51 H -0.416569 -3.539223 1.734988 0
M  V30 END ATOM
M  V30 BEGIN BOND
M  V30 1 1 1 2
M  V30 2 2 2 3
M  V30 3 1 3 4
M  V30 4 2 4 5
M  V30 5 1 5 6
M  V30 6 1 6 7
M  V30 7 2 7 8
M  V30 8 1 7 9
M  V30 9 2 9 10
M  V30 10 1 10 11
M  V30 11 2 11 12
M  V30 12 1 12 13
M  V30 13 1 13 14
M  V30 14 1 14 15
M  V30 15 2 15 16
M  V30 16 1 16 17
M  V30 17 1 17 18
M  V30 18 2 18 19
M  V30 19 1 18 20
M  V30 20 1 20 21
M  V30 21 2 21 22
M  V30 22 1 22 23
M  V30 23 2 23 24
M  V30 24 1 24 25
M  V30 25 2 25 26
M  V30 26 1 26 27
M  V30 27 1 16 28
M  V30 28 2 28 29
M  V30 29 2 13 30
M  V30 30 1 5 31
M  V30 31 2 31 32
M  V30 32 1 32 2
M  V30 33 1 30 9
M  V30 34 1 29 14
M  V30 35 1 26 21
M  V30 36 1 1 33
M  V30 37 1 1 34
M  V30 38 1 1 35
M  V30 39 1 3 36
M  V30 40 1 4 37
M  V30 41 1 6 38
M  V30 42 1 10 39
M  V30 43 1 11 40
M  V30 44 1 12 41
M  V30 45 1 15 42
M  V30 46 1 17 43
M  V30 47 1 20 44
M  V30 48 1 22 45
M  V30 49 1 23 46
M  V30 50 1 24 47
M  V30 51 1 25 48
M  V30 52 1 28 49
M  V30 53 1 30 50
M  V30 54 1 31 51
M  V30 END BOND
M  V30 END CTAB
M  END
>  <Dataset>  (937) 
ChEMBL_Kinases

>  <Ligand_Instance>  (937) 
nan

>  <PDB_ID>  (937) 
nan

>  <Standardized_SMILES>  (937) 
Cc1ccc(NC(=O)c2cccc(-n3cc(NC(=O)Nc4ccccc4Cl)cn3)c2)cn1

>  <Name>  (937) 
nan

>  <Pocket>  (937) 
nan

>  <ATP_Site>  (937) 
nan

>  <Peripheral>  (937) 
nan

>  <Num_H_Atoms_ProtBoundConf>  (937) 
nan

>  <Num_Resolved_Atoms>  (937) 
nan

>  <Num_Not_Resolved_Atoms>  (937) 
nan

$$$$
CHEMBL3672480
     RDKit          3D

  0  0  0  0  0  0  0  0  0  0999 V3000
M  V30 BEGIN CTAB
M  V30 COUNTS 57 62 0 0 0
M  V30 BEGIN ATOM
M  V30 1 N 2.070932 -2.284676 -5.287674 0
M  V30 2 C 2.814208 -1.931435 -4.457527 0
M  V30 3 C 3.736481 -1.485203 -3.443624 0
M  V30 4 C 5.000330 -2.028464 -3.311491 0
M  V30 5 C 5.876685 -1.587177 -2.329084 0
M  V30 6 C 5.477392 -0.573042 -1.453201 0
M  V30 7 C 4.196641 -0.053066 -1.620203 0
M  V30 8 C 3.841639 1.015130 -0.660713 0
M  V30 9 C 4.598557 2.095604 -0.264051 0
M  V30 10 N 3.852055 2.781926 0.621084 0
M  V30 11 C 2.661464 2.147086 0.773044 0
M  V30 12 C 1.599015 2.501109 1.580047 0
M  V30 13 C 0.479731 1.686207 1.564602 0
M  V30 14 C -0.746373 1.863587 2.328520 0
M  V30 15 C -1.884097 2.072704 1.555020 0
M  V30 16 C -3.105567 2.253424 2.159495 0
M  V30 17 C -3.222660 2.230663 3.533406 0
M  V30 18 C -2.087097 2.021364 4.322689 0
M  V30 19 C -0.864540 1.840722 3.710264 0
M  V30 20 C 0.495163 0.581363 0.751525 0
M  V30 21 C -0.569439 -0.421099 0.573942 0
M  V30 22 C -0.851945 -1.121298 1.752950 0
M  V30 23 C -1.823786 -2.081249 1.712862 0
M  V30 24 C -2.536874 -2.394152 0.577294 0
M  V30 25 C -3.593039 -3.391903 0.398088 0
M  V30 26 N -4.768140 -2.921805 -0.303898 0
M  V30 27 C -3.974181 -4.210069 1.606375 0
M  V30 28 C -2.874977 -5.177404 1.219984 0
M  V30 29 C -3.043726 -4.680548 -0.205694 0
M  V30 30 C -2.233074 -1.678406 -0.585033 0
M  V30 31 C -1.260075 -0.700785 -0.591802 0
M  V30 32 N 1.570137 0.278265 -0.024779 0
M  V30 33 N 2.642034 1.055745 -0.012083 0
M  V30 34 C 3.306417 -0.471293 -2.585476 0
M  V30 35 H 5.303286 -2.817613 -3.997904 0
M  V30 36 H 6.866095 -2.003494 -2.215837 0
M  V30 37 H 6.145469 -0.216725 -0.682668 0
M  V30 38 H 5.602119 2.329606 -0.611219 0
M  V30 39 H 1.536650 3.358263 2.236445 0
M  V30 40 H -1.852978 2.101269 0.465638 0
M  V30 41 H -3.987080 2.415986 1.540748 0
M  V30 42 H -4.191329 2.373949 4.007874 0
M  V30 43 H -2.133065 1.995473 5.409721 0
M  V30 44 H 0.056497 1.673900 4.252045 0
M  V30 45 H -0.348568 -0.951105 2.695492 0
M  V30 46 H -2.097179 -2.662875 2.584521 0
M  V30 47 H -5.402865 -2.392994 0.331875 0
M  V30 48 H -5.216025 -3.628400 -0.896461 0
M  V30 49 H -4.958043 -4.710138 1.447465 0
M  V30 50 H -3.849644 -3.762856 2.589966 0
M  V30 51 H -3.101026 -6.254215 1.360154 0
M  V30 52 H -1.916530 -4.874661 1.685978 0
M  V30 53 H -2.057716 -4.507007 -0.721753 0
M  V30 54 H -3.775823 -5.283038 -0.758582 0
M  V30 55 H -2.703815 -1.809784 -1.549385 0
M  V30 56 H -0.970432 -0.107470 -1.447213 0
M  V30 57 H 2.334724 -0.011652 -2.640667 0
M  V30 END ATOM
M  V30 BEGIN BOND
M  V30 1 3 1 2
M  V30 2 1 2 3
M  V30 3 2 3 4
M  V30 4 1 4 5
M  V30 5 2 5 6
M  V30 6 1 6 7
M  V30 7 1 7 8
M  V30 8 2 8 9
M  V30 9 1 9 10
M  V30 10 2 10 11
M  V30 11 1 11 12
M  V30 12 2 12 13
M  V30 13 1 13 14
M  V30 14 2 14 15
M  V30 15 1 15 16
M  V30 16 2 16 17
M  V30 17 1 17 18
M  V30 18 2 18 19
M  V30 19 1 13 20
M  V30 20 1 20 21
M  V30 21 2 21 22
M  V30 22 1 22 23
M  V30 23 2 23 24
M  V30 24 1 24 25
M  V30 25 1 25 26
M  V30 26 1 25 27
M  V30 27 1 27 28
M  V30 28 1 28 29
M  V30 29 1 24 30
M  V30 30 2 30 31
M  V30 31 2 20 32
M  V30 32 1 32 33
M  V30 33 2 7 34
M  V30 34 1 34 3
M  V30 35 1 33 8
M  V30 36 1 33 11
M  V30 37 1 19 14
M  V30 38 1 31 21
M  V30 39 1 29 25
M  V30 40 1 4 35
M  V30 41 1 5 36
M  V30 42 1 6 37
M  V30 43 1 9 38
M  V30 44 1 12 39
M  V30 45 1 15 40
M  V30 46 1 16 41
M  V30 47 1 17 42
M  V30 48 1 18 43
M  V30 49 1 19 44
M  V30 50 1 22 45
M  V30 51 1 23 46
M  V30 52 1 26 47
M  V30 53 1 26 48
M  V30 54 1 27 49
M  V30 55 1 27 50
M  V30 56 1 28 51
M  V30 57 1 28 52
M  V30 58 1 29 53
M  V30 59 1 29 54
M  V30 60 1 30 55
M  V30 61 1 31 56
M  V30 62 1 34 57
M  V30 END BOND
M  V30 END CTAB
M  END
>  <Dataset>  (938) 
ChEMBL_Kinases

>  <Ligand_Instance>  (938) 
nan

>  <PDB_ID>  (938) 
nan

>  <Standardized_SMILES>  (938) 
N#Cc1cccc(-c2cnc3cc(-c4ccccc4)c(-c4ccc(C5(N)CCC5)cc4)nn23)c1

>  <Name>  (938) 
nan

>  <Pocket>  (938) 
nan

>  <ATP_Site>  (938) 
nan

>  <Peripheral>  (938) 
nan

>  <Num_H_Atoms_ProtBoundConf>  (938) 
nan

>  <Num_Resolved_Atoms>  (938) 
nan

>  <Num_Not_Resolved_Atoms>  (938) 
nan

$$$$
CHEMBL4129040
     RDKit          3D

  0  0  0  0  0  0  0  0  0  0999 V3000
M  V30 BEGIN CTAB
M  V30 COUNTS 40 42 0 0 0
M  V30 BEGIN ATOM
M  V30 1 C 0.491124 -5.872121 -1.431730 0
M  V30 2 O 0.643246 -4.474522 -1.438102 0
M  V30 3 C 1.406757 -3.822736 -0.503972 0
M  V30 4 C 2.130448 -4.310919 0.559894 0
M  V30 5 C 2.861248 -3.544430 1.433706 0
M  V30 6 C 2.868698 -2.195097 1.228538 0
M  V30 7 C 2.162748 -1.650037 0.180074 0
M  V30 8 C 1.416143 -2.434897 -0.712429 0
M  V30 9 N 0.692090 -1.761730 -1.770994 0
M  V30 10 C 0.820854 -0.326685 -1.845335 0
M  V30 11 N 1.405744 0.504379 -2.729824 0
M  V30 12 C 1.395631 1.837935 -2.489156 0
M  V30 13 C 0.797479 2.355008 -1.356309 0
M  V30 14 C 0.194797 1.503771 -0.444837 0
M  V30 15 C -0.446547 1.952127 0.805922 0
M  V30 16 C -0.968015 0.919707 1.584110 0
M  V30 17 C -1.573790 1.188229 2.791515 0
M  V30 18 C -1.604810 2.517038 3.124756 0
M  V30 19 C -2.222241 2.876521 4.379433 0
M  V30 20 N -2.868388 1.936908 5.207272 0
M  V30 21 O -2.549073 3.687118 5.275535 0
M  V30 22 C -1.106046 3.572409 2.392439 0
M  V30 23 C -0.505093 3.270920 1.187445 0
M  V30 24 N 0.251140 0.211954 -0.761210 0
M  V30 25 H 0.903755 -6.366646 -0.534661 0
M  V30 26 H -0.594793 -6.107228 -1.472654 0
M  V30 27 H 0.965844 -6.345359 -2.322872 0
M  V30 28 H 2.108960 -5.375472 0.698023 0
M  V30 29 H 3.399622 -4.030135 2.245865 0
M  V30 30 H 3.455909 -1.609977 1.934967 0
M  V30 31 H 2.256730 -0.587266 0.128929 0
M  V30 32 H 0.120304 -2.349110 -2.417568 0
M  V30 33 H 1.877493 2.453151 -3.227942 0
M  V30 34 H 0.785337 3.418252 -1.160032 0
M  V30 35 H -0.926200 -0.138160 1.284942 0
M  V30 36 H -1.981317 0.397226 3.402403 0
M  V30 37 H -3.343835 1.283349 5.846379 0
M  V30 38 H -3.222241 0.944741 5.295469 0
M  V30 39 H -1.201948 4.580106 2.778323 0
M  V30 40 H -0.094286 4.043231 0.559517 0
M  V30 END ATOM
M  V30 BEGIN BOND
M  V30 1 1 1 2
M  V30 2 1 2 3
M  V30 3 2 3 4
M  V30 4 1 4 5
M  V30 5 2 5 6
M  V30 6 1 6 7
M  V30 7 2 7 8
M  V30 8 1 8 9
M  V30 9 1 9 10
M  V30 10 2 10 11
M  V30 11 1 11 12
M  V30 12 2 12 13
M  V30 13 1 13 14
M  V30 14 1 14 15
M  V30 15 2 15 16
M  V30 16 1 16 17
M  V30 17 2 17 18
M  V30 18 1 18 19
M  V30 19 1 19 20
M  V30 20 2 19 21
M  V30 21 1 18 22
M  V30 22 2 22 23
M  V30 23 2 14 24
M  V30 24 1 8 3
M  V30 25 1 24 10
M  V30 26 1 23 15
M  V30 27 1 1 25
M  V30 28 1 1 26
M  V30 29 1 1 27
M  V30 30 1 4 28
M  V30 31 1 5 29
M  V30 32 1 6 30
M  V30 33 1 7 31
M  V30 34 1 9 32
M  V30 35 1 12 33
M  V30 36 1 13 34
M  V30 37 1 16 35
M  V30 38 1 17 36
M  V30 39 1 20 37
M  V30 40 1 20 38
M  V30 41 1 22 39
M  V30 42 1 23 40
M  V30 END BOND
M  V30 END CTAB
M  END
>  <Dataset>  (939) 
ChEMBL_Kinases

>  <Ligand_Instance>  (939) 
nan

>  <PDB_ID>  (939) 
nan

>  <Standardized_SMILES>  (939) 
COc1ccccc1Nc1nccc(-c2ccc(C(N)=O)cc2)n1

>  <Name>  (939) 
nan

>  <Pocket>  (939) 
nan

>  <ATP_Site>  (939) 
nan

>  <Peripheral>  (939) 
nan

>  <Num_H_Atoms_ProtBoundConf>  (939) 
nan

>  <Num_Resolved_Atoms>  (939) 
nan

>  <Num_Not_Resolved_Atoms>  (939) 
nan

$$$$
CHEMBL3672479
     RDKit          3D

  0  0  0  0  0  0  0  0  0  0999 V3000
M  V30 BEGIN CTAB
M  V30 COUNTS 49 53 0 0 0
M  V30 BEGIN ATOM
M  V30 1 C 2.232049 -4.905943 4.210936 0
M  V30 2 C 3.131029 -3.953456 3.506225 0
M  V30 3 C 4.526907 -3.889806 3.587813 0
M  V30 4 N 4.960802 -2.886065 2.795346 0
M  V30 5 C 3.881840 -2.301339 2.205330 0
M  V30 6 C 3.790136 -1.246474 1.319812 0
M  V30 7 C 2.527625 -0.866186 0.882156 0
M  V30 8 C 2.421799 0.249637 -0.055181 0
M  V30 9 C 2.800860 1.564548 0.111865 0
M  V30 10 C 2.605772 2.459236 -0.918503 0
M  V30 11 C 2.033187 2.049328 -2.118301 0
M  V30 12 C 1.650087 0.737756 -2.297639 0
M  V30 13 C 1.851656 -0.158520 -1.249869 0
M  V30 14 C 1.427883 -1.558355 1.351417 0
M  V30 15 C 0.092243 -1.176887 0.905976 0
M  V30 16 C -0.272882 0.121749 1.276369 0
M  V30 17 C -1.501354 0.664680 0.946154 0
M  V30 18 C -2.371488 -0.134110 0.224782 0
M  V30 19 C -3.695331 0.344907 -0.174464 0
M  V30 20 N -3.979782 0.246848 -1.614452 0
M  V30 21 C -4.033480 1.762190 0.256491 0
M  V30 22 C -5.485547 1.263789 0.311520 0
M  V30 23 C -4.886795 -0.121624 0.595621 0
M  V30 24 C -2.039831 -1.420474 -0.155555 0
M  V30 25 C -0.806997 -1.938026 0.187099 0
M  V30 26 N 1.594734 -2.577766 2.214695 0
M  V30 27 N 2.800225 -2.965749 2.653350 0
M  V30 28 H 2.699621 -5.918216 4.252843 0
M  V30 29 H 1.965329 -4.530232 5.221284 0
M  V30 30 H 1.306849 -5.011868 3.585741 0
M  V30 31 H 5.173253 -4.525343 4.178510 0
M  V30 32 H 4.701435 -0.759426 1.002746 0
M  V30 33 H 3.230866 1.762392 1.079401 0
M  V30 34 H 2.925896 3.487131 -0.727407 0
M  V30 35 H 1.898523 2.800430 -2.909895 0
M  V30 36 H 1.204692 0.454640 -3.252705 0
M  V30 37 H 1.512196 -1.161658 -1.504713 0
M  V30 38 H 0.392651 0.782851 1.848829 0
M  V30 39 H -1.756550 1.661743 1.242540 0
M  V30 40 H -3.294026 0.851926 -2.124284 0
M  V30 41 H -3.758577 -0.735799 -1.883484 0
M  V30 42 H -3.834869 2.555204 -0.467854 0
M  V30 43 H -3.763306 2.014447 1.314706 0
M  V30 44 H -6.078270 1.686083 1.131255 0
M  V30 45 H -5.894039 1.337200 -0.703219 0
M  V30 46 H -5.449464 -0.935718 0.089381 0
M  V30 47 H -4.749329 -0.252195 1.684522 0
M  V30 48 H -2.667842 -2.097756 -0.718022 0
M  V30 49 H -0.427489 -2.937174 -0.053570 0
M  V30 END ATOM
M  V30 BEGIN BOND
M  V30 1 1 1 2
M  V30 2 2 2 3
M  V30 3 1 3 4
M  V30 4 2 4 5
M  V30 5 1 5 6
M  V30 6 2 6 7
M  V30 7 1 7 8
M  V30 8 2 8 9
M  V30 9 1 9 10
M  V30 10 2 10 11
M  V30 11 1 11 12
M  V30 12 2 12 13
M  V30 13 1 7 14
M  V30 14 1 14 15
M  V30 15 2 15 16
M  V30 16 1 16 17
M  V30 17 2 17 18
M  V30 18 1 18 19
M  V30 19 1 19 20
M  V30 20 1 19 21
M  V30 21 1 21 22
M  V30 22 1 22 23
M  V30 23 1 18 24
M  V30 24 2 24 25
M  V30 25 2 14 26
M  V30 26 1 26 27
M  V30 27 1 27 2
M  V30 28 1 27 5
M  V30 29 1 13 8
M  V30 30 1 25 15
M  V30 31 1 23 19
M  V30 32 1 1 28
M  V30 33 1 1 29
M  V30 34 1 1 30
M  V30 35 1 3 31
M  V30 36 1 6 32
M  V30 37 1 9 33
M  V30 38 1 10 34
M  V30 39 1 11 35
M  V30 40 1 12 36
M  V30 41 1 13 37
M  V30 42 1 16 38
M  V30 43 1 17 39
M  V30 44 1 20 40
M  V30 45 1 20 41
M  V30 46 1 21 42
M  V30 47 1 21 43
M  V30 48 1 22 44
M  V30 49 1 22 45
M  V30 50 1 23 46
M  V30 51 1 23 47
M  V30 52 1 24 48
M  V30 53 1 25 49
M  V30 END BOND
M  V30 END CTAB
M  END
>  <Dataset>  (940) 
ChEMBL_Kinases

>  <Ligand_Instance>  (940) 
nan

>  <PDB_ID>  (940) 
nan

>  <Standardized_SMILES>  (940) 
Cc1cnc2cc(-c3ccccc3)c(-c3ccc(C4(N)CCC4)cc3)nn12

>  <Name>  (940) 
nan

>  <Pocket>  (940) 
nan

>  <ATP_Site>  (940) 
nan

>  <Peripheral>  (940) 
nan

>  <Num_H_Atoms_ProtBoundConf>  (940) 
nan

>  <Num_Resolved_Atoms>  (940) 
nan

>  <Num_Not_Resolved_Atoms>  (940) 
nan

$$$$
CHEMBL3672503
     RDKit          3D

  0  0  0  0  0  0  0  0  0  0999 V3000
M  V30 BEGIN CTAB
M  V30 COUNTS 59 64 0 0 0
M  V30 BEGIN ATOM
M  V30 1 C 4.584831 -5.277070 1.903990 0
M  V30 2 C 3.872075 -3.987064 1.837695 0
M  V30 3 N 4.259241 -2.743476 2.213625 0
M  V30 4 C 3.274487 -1.863133 1.964979 0
M  V30 5 C 3.205648 -0.497345 2.175388 0
M  V30 6 C 2.045527 0.181656 1.819490 0
M  V30 7 C 1.817004 1.612728 1.972090 0
M  V30 8 C 0.995721 2.350100 2.797837 0
M  V30 9 C 0.997737 3.724610 2.694642 0
M  V30 10 C 1.777950 4.415796 1.808411 0
M  V30 11 C 2.609512 3.687819 0.971412 0
M  V30 12 C 2.628338 2.293473 1.053451 0
M  V30 13 C 1.002732 -0.529553 1.268728 0
M  V30 14 C -0.303418 -0.070072 0.819138 0
M  V30 15 C -1.426240 0.366093 1.489371 0
M  V30 16 C -2.540308 0.757188 0.777863 0
M  V30 17 C -2.581512 0.730474 -0.601007 0
M  V30 18 C -3.848467 1.182258 -1.168011 0
M  V30 19 N -5.013003 0.474908 -0.615380 0
M  V30 20 C -3.990094 1.193213 -2.662622 0
M  V30 21 C -4.769279 2.506694 -2.520051 0
M  V30 22 C -4.126860 2.667385 -1.152040 0
M  V30 23 C -1.471673 0.298111 -1.294672 0
M  V30 24 C -0.333878 -0.101544 -0.582184 0
M  V30 25 N 1.139562 -1.866030 1.091165 0
M  V30 26 N 2.235037 -2.528449 1.423547 0
M  V30 27 C 2.594996 -3.839687 1.341242 0
M  V30 28 C 1.674930 -4.849379 0.787962 0
M  V30 29 C 1.440052 -6.090361 1.356983 0
M  V30 30 C 0.550497 -6.955598 0.743511 0
M  V30 31 C -0.116173 -6.610635 -0.433266 0
M  V30 32 F -0.978092 -7.458907 -1.020631 0
M  V30 33 C 0.107546 -5.364849 -1.020871 0
M  V30 34 C 1.000182 -4.527111 -0.383380 0
M  V30 35 H 4.273184 -5.796407 2.829642 0
M  V30 36 H 4.403670 -5.888124 0.999660 0
M  V30 37 H 5.667872 -5.074196 2.010957 0
M  V30 38 H 3.993288 0.089333 2.599779 0
M  V30 39 H 0.442208 1.712478 3.443452 0
M  V30 40 H 0.304241 4.185952 3.403513 0
M  V30 41 H 1.677400 5.493406 1.835912 0
M  V30 42 H 3.200371 4.282002 0.294833 0
M  V30 43 H 3.330054 1.890401 0.332633 0
M  V30 44 H -1.269798 0.336351 2.553059 0
M  V30 45 H -3.352529 1.077930 1.427374 0
M  V30 46 H -5.367263 1.021502 0.196307 0
M  V30 47 H -4.753017 -0.475309 -0.252230 0
M  V30 48 H -3.084631 1.401330 -3.250824 0
M  V30 49 H -4.631809 0.404498 -3.083150 0
M  V30 50 H -4.452357 3.311832 -3.204142 0
M  V30 51 H -5.863525 2.390828 -2.520718 0
M  V30 52 H -3.252096 3.315053 -1.091086 0
M  V30 53 H -4.935651 2.972376 -0.432916 0
M  V30 54 H -1.567196 0.301098 -2.350458 0
M  V30 55 H 0.450825 -0.413000 -1.272795 0
M  V30 56 H 1.970744 -6.328770 2.267589 0
M  V30 57 H 0.358009 -7.933920 1.181982 0
M  V30 58 H -0.373720 -5.029457 -1.932803 0
M  V30 59 H 1.185986 -3.544364 -0.834431 0
M  V30 END ATOM
M  V30 BEGIN BOND
M  V30 1 1 1 2
M  V30 2 1 2 3
M  V30 3 2 3 4
M  V30 4 1 4 5
M  V30 5 2 5 6
M  V30 6 1 6 7
M  V30 7 2 7 8
M  V30 8 1 8 9
M  V30 9 2 9 10
M  V30 10 1 10 11
M  V30 11 2 11 12
M  V30 12 1 6 13
M  V30 13 1 13 14
M  V30 14 2 14 15
M  V30 15 1 15 16
M  V30 16 2 16 17
M  V30 17 1 17 18
M  V30 18 1 18 19
M  V30 19 1 18 20
M  V30 20 1 20 21
M  V30 21 1 21 22
M  V30 22 1 17 23
M  V30 23 2 23 24
M  V30 24 2 13 25
M  V30 25 1 25 26
M  V30 26 1 26 27
M  V30 27 1 27 28
M  V30 28 2 28 29
M  V30 29 1 29 30
M  V30 30 2 30 31
M  V30 31 1 31 32
M  V30 32 1 31 33
M  V30 33 2 33 34
M  V30 34 2 27 2
M  V30 35 1 34 28
M  V30 36 1 26 4
M  V30 37 1 12 7
M  V30 38 1 24 14
M  V30 39 1 22 18
M  V30 40 1 1 35
M  V30 41 1 1 36
M  V30 42 1 1 37
M  V30 43 1 5 38
M  V30 44 1 8 39
M  V30 45 1 9 40
M  V30 46 1 10 41
M  V30 47 1 11 42
M  V30 48 1 12 43
M  V30 49 1 15 44
M  V30 50 1 16 45
M  V30 51 1 19 46
M  V30 52 1 19 47
M  V30 53 1 20 48
M  V30 54 1 20 49
M  V30 55 1 21 50
M  V30 56 1 21 51
M  V30 57 1 22 52
M  V30 58 1 22 53
M  V30 59 1 23 54
M  V30 60 1 24 55
M  V30 61 1 29 56
M  V30 62 1 30 57
M  V30 63 1 33 58
M  V30 64 1 34 59
M  V30 END BOND
M  V30 END CTAB
M  END
>  <Dataset>  (941) 
ChEMBL_Kinases

>  <Ligand_Instance>  (941) 
nan

>  <PDB_ID>  (941) 
nan

>  <Standardized_SMILES>  (941) 
Cc1nc2cc(-c3ccccc3)c(-c3ccc(C4(N)CCC4)cc3)nn2c1-c1ccc(F)cc1

>  <Name>  (941) 
nan

>  <Pocket>  (941) 
nan

>  <ATP_Site>  (941) 
nan

>  <Peripheral>  (941) 
nan

>  <Num_H_Atoms_ProtBoundConf>  (941) 
nan

>  <Num_Resolved_Atoms>  (941) 
nan

>  <Num_Not_Resolved_Atoms>  (941) 
nan

$$$$
CHEMBL3355150
     RDKit          3D

  0  0  0  0  0  0  0  0  0  0999 V3000
M  V30 BEGIN CTAB
M  V30 COUNTS 51 54 0 0 0
M  V30 BEGIN ATOM
M  V30 1 C 0.587352 -6.301752 5.810865 0
M  V30 2 C 0.994224 -5.173107 4.947759 0
M  V30 3 C 1.308890 -5.399781 3.602106 0
M  V30 4 C 1.681685 -4.261942 2.875271 0
M  V30 5 C 1.728264 -3.014162 3.466346 0
M  V30 6 N 2.122478 -1.939471 2.618619 0
M  V30 7 C 3.439631 -1.477239 2.399278 0
M  V30 8 O 4.450320 -1.985609 2.951837 0
M  V30 9 C 3.716203 -0.358094 1.499522 0
M  V30 10 C 5.019407 0.057126 1.317597 0
M  V30 11 C 5.400081 1.115078 0.482119 0
M  V30 12 C 4.398988 1.783922 -0.203184 0
M  V30 13 C 3.077992 1.389565 -0.040938 0
M  V30 14 N 1.987763 2.045131 -0.726427 0
M  V30 15 C 1.145107 1.397412 -1.574095 0
M  V30 16 C 0.280345 2.386619 -1.988626 0
M  V30 17 N -0.788688 2.107832 -2.914538 0
M  V30 18 C -1.985539 1.726269 -2.231752 0
M  V30 19 O -2.050726 1.655702 -0.961517 0
M  V30 20 N -3.195582 1.396918 -2.938717 0
M  V30 21 C -4.386560 1.015986 -2.228101 0
M  V30 22 C -5.401340 1.800107 -1.760602 0
M  V30 23 C -6.455627 1.189623 -1.097505 0
M  V30 24 C -6.487119 -0.181224 -0.909327 0
M  V30 25 C -5.458976 -0.976721 -1.382852 0
M  V30 26 F -5.539964 -2.319279 -1.170634 0
M  V30 27 C -4.407514 -0.368382 -2.044110 0
M  V30 28 C 0.591315 3.598000 -1.408089 0
M  V30 29 N 1.671846 3.328356 -0.624053 0
M  V30 30 C 2.763055 0.344421 0.792160 0
M  V30 31 C 1.402248 -2.848751 4.817705 0
M  V30 32 N 1.043762 -3.942429 5.516946 0
M  V30 33 H 1.393683 -6.732874 6.419275 0
M  V30 34 H -0.271784 -6.036868 6.488965 0
M  V30 35 H 0.174136 -7.097736 5.130213 0
M  V30 36 H 1.259088 -6.394621 3.179375 0
M  V30 37 H 1.931496 -4.418040 1.821674 0
M  V30 38 H 1.294998 -1.506299 2.152048 0
M  V30 39 H 5.862997 -0.417346 1.820628 0
M  V30 40 H 6.416673 1.410638 0.363874 0
M  V30 41 H 4.596796 2.613965 -0.871436 0
M  V30 42 H 1.179073 0.346758 -1.836392 0
M  V30 43 H -0.794298 2.148772 -3.969222 0
M  V30 44 H -3.206766 1.436061 -3.990374 0
M  V30 45 H -5.265829 2.843754 -1.965980 0
M  V30 46 H -7.234755 1.853335 -0.746249 0
M  V30 47 H -7.345381 -0.613312 -0.377597 0
M  V30 48 H -3.659862 -1.087316 -2.370967 0
M  V30 49 H 0.074449 4.536312 -1.560295 0
M  V30 50 H 1.735686 0.048787 0.909105 0
M  V30 51 H 1.453983 -1.850801 5.234954 0
M  V30 END ATOM
M  V30 BEGIN BOND
M  V30 1 1 1 2
M  V30 2 2 2 3
M  V30 3 1 3 4
M  V30 4 2 4 5
M  V30 5 1 5 6
M  V30 6 1 6 7
M  V30 7 2 7 8
M  V30 8 1 7 9
M  V30 9 2 9 10
M  V30 10 1 10 11
M  V30 11 2 11 12
M  V30 12 1 12 13
M  V30 13 1 13 14
M  V30 14 1 14 15
M  V30 15 2 15 16
M  V30 16 1 16 17
M  V30 17 1 17 18
M  V30 18 2 18 19
M  V30 19 1 18 20
M  V30 20 1 20 21
M  V30 21 2 21 22
M  V30 22 1 22 23
M  V30 23 2 23 24
M  V30 24 1 24 25
M  V30 25 1 25 26
M  V30 26 2 25 27
M  V30 27 1 16 28
M  V30 28 2 28 29
M  V30 29 2 13 30
M  V30 30 1 5 31
M  V30 31 2 31 32
M  V30 32 1 32 2
M  V30 33 1 30 9
M  V30 34 1 29 14
M  V30 35 1 27 21
M  V30 36 1 1 33
M  V30 37 1 1 34
M  V30 38 1 1 35
M  V30 39 1 3 36
M  V30 40 1 4 37
M  V30 41 1 6 38
M  V30 42 1 10 39
M  V30 43 1 11 40
M  V30 44 1 12 41
M  V30 45 1 15 42
M  V30 46 1 17 43
M  V30 47 1 20 44
M  V30 48 1 22 45
M  V30 49 1 23 46
M  V30 50 1 24 47
M  V30 51 1 27 48
M  V30 52 1 28 49
M  V30 53 1 30 50
M  V30 54 1 31 51
M  V30 END BOND
M  V30 END CTAB
M  END
>  <Dataset>  (942) 
ChEMBL_Kinases

>  <Ligand_Instance>  (942) 
nan

>  <PDB_ID>  (942) 
nan

>  <Standardized_SMILES>  (942) 
Cc1ccc(NC(=O)c2cccc(-n3cc(NC(=O)Nc4cccc(F)c4)cn3)c2)cn1

>  <Name>  (942) 
nan

>  <Pocket>  (942) 
nan

>  <ATP_Site>  (942) 
nan

>  <Peripheral>  (942) 
nan

>  <Num_H_Atoms_ProtBoundConf>  (942) 
nan

>  <Num_Resolved_Atoms>  (942) 
nan

>  <Num_Not_Resolved_Atoms>  (942) 
nan

$$$$
CHEMBL3780832
     RDKit          3D

  0  0  0  0  0  0  0  0  0  0999 V3000
M  V30 BEGIN CTAB
M  V30 COUNTS 82 86 0 0 0
M  V30 BEGIN ATOM
M  V30 1 C -3.376375 1.673759 7.891107 0
M  V30 2 C -2.084718 1.131548 7.344064 0
M  V30 3 C -0.868609 1.348747 8.000549 0
M  V30 4 C 0.284509 0.815588 7.432850 0
M  V30 5 C 0.217031 0.087575 6.243445 0
M  V30 6 N 1.506624 -0.361221 5.845674 0
M  V30 7 N 2.415402 -1.171531 6.359964 0
M  V30 8 C 3.490801 -1.252282 5.557080 0
M  V30 9 C 4.711759 -2.086446 5.837918 0
M  V30 10 C 5.677975 -1.217061 6.614945 0
M  V30 11 C 5.305065 -2.481124 4.521833 0
M  V30 12 C 4.318383 -3.326906 6.606399 0
M  V30 13 C 3.218741 -0.424717 4.463132 0
M  V30 14 C 1.950947 0.129262 4.672480 0
M  V30 15 N 1.547765 1.000397 3.622939 0
M  V30 16 C 0.843558 0.619014 2.477731 0
M  V30 17 O 0.546502 -0.594022 2.375719 0
M  V30 18 N 0.451411 1.509379 1.441016 0
M  V30 19 C -0.265797 0.940751 0.340133 0
M  V30 20 C -1.640478 0.836124 0.281918 0
M  V30 21 C -2.269521 0.275564 -0.811189 0
M  V30 22 C -1.531262 -0.194745 -1.874794 0
M  V30 23 O -2.037160 -0.777303 -3.028194 0
M  V30 24 C -3.403479 -0.962676 -3.257457 0
M  V30 25 C -3.684896 -1.606225 -4.564028 0
M  V30 26 C -3.758600 -2.987098 -4.660241 0
M  V30 27 C -4.012961 -3.663381 -5.831892 0
M  V30 28 N -4.197353 -2.897975 -6.938047 0
M  V30 29 C -4.122888 -1.554631 -6.829408 0
M  V30 30 N -4.343102 -0.908307 -8.100796 0
M  V30 31 C -3.060264 -0.797771 -8.683429 0
M  V30 32 O -1.824649 -1.043908 -8.517195 0
M  V30 33 C -2.481503 -0.260337 -9.953360 0
M  V30 34 S -0.719458 -0.485787 -9.975960 0
M  V30 35 C 0.005652 0.375783 -8.598960 0
M  V30 36 O -0.223694 0.143420 -11.244153 0
M  V30 37 O -0.379344 -1.945497 -9.909069 0
M  V30 38 C -3.870720 -0.841582 -5.677258 0
M  V30 39 C -0.141000 -0.110852 -1.861320 0
M  V30 40 C 0.653229 -0.567752 -2.902459 0
M  V30 41 C 2.034936 -0.471262 -2.861404 0
M  V30 42 C 2.626062 0.095459 -1.751493 0
M  V30 43 C 1.843018 0.555871 -0.704104 0
M  V30 44 C 0.452649 0.455784 -0.751640 0
M  V30 45 C -0.994694 -0.114310 5.612763 0
M  V30 46 C -2.142096 0.411189 6.169589 0
M  V30 47 H -4.056383 0.794445 8.068770 0
M  V30 48 H -3.215251 2.141937 8.864092 0
M  V30 49 H -3.839123 2.298318 7.123534 0
M  V30 50 H -0.868354 1.923718 8.925561 0
M  V30 51 H 1.166703 1.035394 8.011208 0
M  V30 52 H 6.420137 -1.798968 7.173141 0
M  V30 53 H 5.054397 -0.639443 7.345297 0
M  V30 54 H 6.102499 -0.492814 5.891876 0
M  V30 55 H 5.589634 -3.547488 4.565092 0
M  V30 56 H 6.186159 -1.838227 4.319930 0
M  V30 57 H 4.548733 -2.383015 3.710130 0
M  V30 58 H 4.417359 -4.264061 6.016333 0
M  V30 59 H 3.229972 -3.262421 6.861225 0
M  V30 60 H 4.900627 -3.428360 7.554245 0
M  V30 61 H 3.993233 -0.363273 3.691979 0
M  V30 62 H 1.802137 2.017085 3.718067 0
M  V30 63 H 0.745172 2.512217 1.612680 0
M  V30 64 H -2.214345 1.209219 1.123303 0
M  V30 65 H -3.341184 0.182121 -0.881885 0
M  V30 66 H -3.776850 -1.658201 -2.470178 0
M  V30 67 H -4.007901 -0.045793 -3.217605 0
M  V30 68 H -3.608171 -3.598731 -3.759580 0
M  V30 69 H -4.058325 -4.742793 -5.844592 0
M  V30 70 H -4.978627 -0.478755 -8.810171 0
M  V30 71 H -2.692639 0.835805 -9.979842 0
M  V30 72 H -2.976365 -0.779279 -10.794046 0
M  V30 73 H 0.877571 0.994334 -8.920296 0
M  V30 74 H -0.758015 1.077804 -8.163988 0
M  V30 75 H 0.283555 -0.330352 -7.788016 0
M  V30 76 H -3.831315 0.232022 -5.695523 0
M  V30 77 H 0.175172 -1.012413 -3.771319 0
M  V30 78 H 2.630326 -0.834060 -3.684942 0
M  V30 79 H 3.704606 0.177638 -1.703762 0
M  V30 80 H 2.384493 0.992515 0.140624 0
M  V30 81 H -0.910372 -0.692149 4.703163 0
M  V30 82 H -3.053043 0.208361 5.613821 0
M  V30 END ATOM
M  V30 BEGIN BOND
M  V30 1 1 1 2
M  V30 2 2 2 3
M  V30 3 1 3 4
M  V30 4 2 4 5
M  V30 5 1 5 6
M  V30 6 1 6 7
M  V30 7 2 7 8
M  V30 8 1 8 9
M  V30 9 1 9 10
M  V30 10 1 9 11
M  V30 11 1 9 12
M  V30 12 1 8 13
M  V30 13 2 13 14
M  V30 14 1 14 15
M  V30 15 1 15 16
M  V30 16 2 16 17
M  V30 17 1 16 18
M  V30 18 1 18 19
M  V30 19 2 19 20
M  V30 20 1 20 21
M  V30 21 2 21 22
M  V30 22 1 22 23
M  V30 23 1 23 24
M  V30 24 1 24 25
M  V30 25 2 25 26
M  V30 26 1 26 27
M  V30 27 2 27 28
M  V30 28 1 28 29
M  V30 29 1 29 30
M  V30 30 1 30 31
M  V30 31 2 31 32
M  V30 32 1 31 33
M  V30 33 1 33 34
M  V30 34 1 34 35
M  V30 35 2 34 36
M  V30 36 2 34 37
M  V30 37 2 29 38
M  V30 38 1 22 39
M  V30 39 2 39 40
M  V30 40 1 40 41
M  V30 41 2 41 42
M  V30 42 1 42 43
M  V30 43 2 43 44
M  V30 44 1 5 45
M  V30 45 2 45 46
M  V30 46 1 46 2
M  V30 47 1 14 6
M  V30 48 1 44 19
M  V30 49 1 38 25
M  V30 50 1 44 39
M  V30 51 1 1 47
M  V30 52 1 1 48
M  V30 53 1 1 49
M  V30 54 1 3 50
M  V30 55 1 4 51
M  V30 56 1 10 52
M  V30 57 1 10 53
M  V30 58 1 10 54
M  V30 59 1 11 55
M  V30 60 1 11 56
M  V30 61 1 11 57
M  V30 62 1 12 58
M  V30 63 1 12 59
M  V30 64 1 12 60
M  V30 65 1 13 61
M  V30 66 1 15 62
M  V30 67 1 18 63
M  V30 68 1 20 64
M  V30 69 1 21 65
M  V30 70 1 24 66
M  V30 71 1 24 67
M  V30 72 1 26 68
M  V30 73 1 27 69
M  V30 74 1 30 70
M  V30 75 1 33 71
M  V30 76 1 33 72
M  V30 77 1 35 73
M  V30 78 1 35 74
M  V30 79 1 35 75
M  V30 80 1 38 76
M  V30 81 1 40 77
M  V30 82 1 41 78
M  V30 83 1 42 79
M  V30 84 1 43 80
M  V30 85 1 45 81
M  V30 86 1 46 82
M  V30 END BOND
M  V30 END CTAB
M  END
>  <Dataset>  (943) 
ChEMBL_Kinases

>  <Ligand_Instance>  (943) 
nan

>  <PDB_ID>  (943) 
nan

>  <Standardized_SMILES>  (943) 
Cc1ccc(-n2nc(C(C)(C)C)cc2NC(=O)Nc2ccc(OCc3ccnc(NC(=O)CS(C)(=O)=O)c3)c3ccccc23)cc1

>  <Name>  (943) 
nan

>  <Pocket>  (943) 
nan

>  <ATP_Site>  (943) 
nan

>  <Peripheral>  (943) 
nan

>  <Num_H_Atoms_ProtBoundConf>  (943) 
nan

>  <Num_Resolved_Atoms>  (943) 
nan

>  <Num_Not_Resolved_Atoms>  (943) 
nan

$$$$
CHEMBL3355151
     RDKit          3D

  0  0  0  0  0  0  0  0  0  0999 V3000
M  V30 BEGIN CTAB
M  V30 COUNTS 51 54 0 0 0
M  V30 BEGIN ATOM
M  V30 1 C 0.935743 -7.040093 4.982844 0
M  V30 2 C 1.294267 -5.793132 4.242218 0
M  V30 3 C 1.529047 -5.813562 2.880629 0
M  V30 4 C 1.856420 -4.594715 2.288336 0
M  V30 5 C 1.953964 -3.402471 2.980128 0
M  V30 6 N 2.293882 -2.195364 2.303882 0
M  V30 7 C 3.595417 -1.681861 2.095792 0
M  V30 8 O 4.626476 -2.262506 2.503263 0
M  V30 9 C 3.812465 -0.424572 1.381999 0
M  V30 10 C 5.100986 0.037527 1.202966 0
M  V30 11 C 5.406137 1.221968 0.537474 0
M  V30 12 C 4.377004 1.981545 0.026277 0
M  V30 13 C 3.080887 1.538785 0.193576 0
M  V30 14 N 1.988369 2.316901 -0.332746 0
M  V30 15 C 1.160212 1.634930 -1.174598 0
M  V30 16 C 0.161256 2.509537 -1.599037 0
M  V30 17 N -0.958648 2.367352 -2.465803 0
M  V30 18 C -2.188495 1.962587 -1.895101 0
M  V30 19 O -2.209549 1.751787 -0.636770 0
M  V30 20 N -3.424034 1.761325 -2.579524 0
M  V30 21 C -4.584634 1.350947 -1.867015 0
M  V30 22 C -5.541220 2.162990 -1.271602 0
M  V30 23 C -6.612237 1.588528 -0.615472 0
M  V30 24 C -6.774835 0.238327 -0.524809 0
M  V30 25 F -7.833198 -0.316105 0.123660 0
M  V30 26 C -5.822847 -0.593290 -1.117527 0
M  V30 27 C -4.743189 -0.036053 -1.779105 0
M  V30 28 C 0.458942 3.704205 -0.965771 0
M  V30 29 N 1.563610 3.554323 -0.211810 0
M  V30 30 C 2.822059 0.374973 0.850305 0
M  V30 31 C 1.702159 -3.459365 4.357923 0
M  V30 32 N 1.382543 -4.645044 4.940660 0
M  V30 33 H 1.784091 -7.679853 5.220001 0
M  V30 34 H 0.331418 -6.821643 5.885819 0
M  V30 35 H 0.252039 -7.617103 4.305976 0
M  V30 36 H 1.462006 -6.727311 2.306378 0
M  V30 37 H 2.036538 -4.618067 1.235734 0
M  V30 38 H 1.438616 -1.704468 1.960525 0
M  V30 39 H 5.951549 -0.504375 1.575688 0
M  V30 40 H 6.447865 1.546303 0.421286 0
M  V30 41 H 4.626804 2.895050 -0.485988 0
M  V30 42 H 1.136482 0.611304 -1.548376 0
M  V30 43 H -1.042526 2.517222 -3.513723 0
M  V30 44 H -3.394136 1.938119 -3.615885 0
M  V30 45 H -5.357223 3.218340 -1.377551 0
M  V30 46 H -7.329398 2.257244 -0.168661 0
M  V30 47 H -5.969718 -1.654230 -1.034508 0
M  V30 48 H -4.060216 -0.758689 -2.205224 0
M  V30 49 H -0.046732 4.665991 -0.999866 0
M  V30 50 H 1.800221 0.041921 0.972912 0
M  V30 51 H 1.771062 -2.532866 4.934882 0
M  V30 END ATOM
M  V30 BEGIN BOND
M  V30 1 1 1 2
M  V30 2 2 2 3
M  V30 3 1 3 4
M  V30 4 2 4 5
M  V30 5 1 5 6
M  V30 6 1 6 7
M  V30 7 2 7 8
M  V30 8 1 7 9
M  V30 9 2 9 10
M  V30 10 1 10 11
M  V30 11 2 11 12
M  V30 12 1 12 13
M  V30 13 1 13 14
M  V30 14 1 14 15
M  V30 15 2 15 16
M  V30 16 1 16 17
M  V30 17 1 17 18
M  V30 18 2 18 19
M  V30 19 1 18 20
M  V30 20 1 20 21
M  V30 21 2 21 22
M  V30 22 1 22 23
M  V30 23 2 23 24
M  V30 24 1 24 25
M  V30 25 1 24 26
M  V30 26 2 26 27
M  V30 27 1 16 28
M  V30 28 2 28 29
M  V30 29 2 13 30
M  V30 30 1 5 31
M  V30 31 2 31 32
M  V30 32 1 32 2
M  V30 33 1 30 9
M  V30 34 1 29 14
M  V30 35 1 27 21
M  V30 36 1 1 33
M  V30 37 1 1 34
M  V30 38 1 1 35
M  V30 39 1 3 36
M  V30 40 1 4 37
M  V30 41 1 6 38
M  V30 42 1 10 39
M  V30 43 1 11 40
M  V30 44 1 12 41
M  V30 45 1 15 42
M  V30 46 1 17 43
M  V30 47 1 20 44
M  V30 48 1 22 45
M  V30 49 1 23 46
M  V30 50 1 26 47
M  V30 51 1 27 48
M  V30 52 1 28 49
M  V30 53 1 30 50
M  V30 54 1 31 51
M  V30 END BOND
M  V30 END CTAB
M  END
>  <Dataset>  (944) 
ChEMBL_Kinases

>  <Ligand_Instance>  (944) 
nan

>  <PDB_ID>  (944) 
nan

>  <Standardized_SMILES>  (944) 
Cc1ccc(NC(=O)c2cccc(-n3cc(NC(=O)Nc4ccc(F)cc4)cn3)c2)cn1

>  <Name>  (944) 
nan

>  <Pocket>  (944) 
nan

>  <ATP_Site>  (944) 
nan

>  <Peripheral>  (944) 
nan

>  <Num_H_Atoms_ProtBoundConf>  (944) 
nan

>  <Num_Resolved_Atoms>  (944) 
nan

>  <Num_Not_Resolved_Atoms>  (944) 
nan

$$$$
CHEMBL3672094
     RDKit          3D

  0  0  0  0  0  0  0  0  0  0999 V3000
M  V30 BEGIN CTAB
M  V30 COUNTS 65 71 0 0 0
M  V30 BEGIN ATOM
M  V30 1 O 0.581381 -0.763782 8.185006 0
M  V30 2 C 0.508237 0.644640 8.113795 0
M  V30 3 C 1.496373 1.105992 7.099792 0
M  V30 4 C 2.716406 1.691476 7.370980 0
M  V30 5 N 3.252223 1.935716 6.152571 0
M  V30 6 N 2.417836 1.528028 5.209895 0
M  V30 7 C 2.560602 1.583714 3.874538 0
M  V30 8 C 1.591049 1.112389 3.015737 0
M  V30 9 C 1.775834 1.189060 1.571673 0
M  V30 10 C 1.894687 2.493649 1.112438 0
M  V30 11 F 1.846018 3.589250 1.907078 0
M  V30 12 C 2.077879 2.806704 -0.218033 0
M  V30 13 C 2.147983 1.780161 -1.148610 0
M  V30 14 C 2.031340 0.496386 -0.699351 0
M  V30 15 C 1.848478 0.179803 0.628837 0
M  V30 16 F 1.722874 -1.057093 1.166260 0
M  V30 17 C 0.448382 0.571543 3.565452 0
M  V30 18 C -0.633770 0.045195 2.742509 0
M  V30 19 C -0.919283 -1.296636 2.946261 0
M  V30 20 C -1.925064 -1.873754 2.214553 0
M  V30 21 C -2.684450 -1.182896 1.268504 0
M  V30 22 C -3.746729 -1.931666 0.549369 0
M  V30 23 N -3.162599 -2.503497 -0.635546 0
M  V30 24 C -4.026812 -3.278943 -1.467977 0
M  V30 25 C -2.823022 -4.137246 -1.793624 0
M  V30 26 C -2.022967 -3.546360 -2.885397 0
M  V30 27 N -1.645939 -4.375004 -3.892786 0
M  V30 28 N -0.940165 -3.719893 -4.799739 0
M  V30 29 C -0.845465 -2.442050 -4.393489 0
M  V30 30 C -0.159065 -1.355135 -5.082146 0
M  V30 31 C 0.472251 -1.619290 -6.282860 0
M  V30 32 C 1.150774 -0.695701 -7.035438 0
M  V30 33 C 1.227324 0.604802 -6.586874 0
M  V30 34 C 0.594215 0.856869 -5.388454 0
M  V30 35 N -0.071453 -0.064708 -4.657446 0
M  V30 36 N -1.516167 -2.367517 -3.222484 0
M  V30 37 C -2.372078 -3.697363 -0.419153 0
M  V30 38 C -2.376216 0.149476 1.089085 0
M  V30 39 C -1.368984 0.751332 1.813698 0
M  V30 40 N 0.356671 0.540522 4.902322 0
M  V30 41 C 1.302257 1.000209 5.737412 0
M  V30 42 H 0.805426 -1.119403 7.291327 0
M  V30 43 H 0.791214 1.008048 9.122396 0
M  V30 44 H -0.528078 0.906296 7.878319 0
M  V30 45 H 3.174081 1.919597 8.326922 0
M  V30 46 H 3.461666 2.009750 3.442950 0
M  V30 47 H 2.173407 3.814984 -0.604001 0
M  V30 48 H 2.288799 1.959147 -2.194416 0
M  V30 49 H 2.071365 -0.363085 -1.339978 0
M  V30 50 H -0.383318 -1.911841 3.657414 0
M  V30 51 H -2.146978 -2.937326 2.379919 0
M  V30 52 H -4.597341 -1.264123 0.318920 0
M  V30 53 H -4.095394 -2.770360 1.219590 0
M  V30 54 H -4.824194 -3.850305 -0.937587 0
M  V30 55 H -4.380611 -2.680400 -2.326048 0
M  V30 56 H -3.033872 -5.215918 -1.894974 0
M  V30 57 H -0.530789 -4.123997 -5.673161 0
M  V30 58 H 0.445291 -2.617543 -6.681649 0
M  V30 59 H 1.628850 -0.960848 -7.975017 0
M  V30 60 H 1.749690 1.373033 -7.139799 0
M  V30 61 H 0.613950 1.871315 -4.971046 0
M  V30 62 H -1.285232 -3.526795 -0.351919 0
M  V30 63 H -2.789717 -4.365718 0.382071 0
M  V30 64 H -2.956345 0.695057 0.359675 0
M  V30 65 H -1.113777 1.794246 1.686524 0
M  V30 END ATOM
M  V30 BEGIN BOND
M  V30 1 1 1 2
M  V30 2 1 2 3
M  V30 3 1 3 4
M  V30 4 2 4 5
M  V30 5 1 5 6
M  V30 6 1 6 7
M  V30 7 2 7 8
M  V30 8 1 8 9
M  V30 9 2 9 10
M  V30 10 1 10 11
M  V30 11 1 10 12
M  V30 12 2 12 13
M  V30 13 1 13 14
M  V30 14 2 14 15
M  V30 15 1 15 16
M  V30 16 1 8 17
M  V30 17 1 17 18
M  V30 18 2 18 19
M  V30 19 1 19 20
M  V30 20 2 20 21
M  V30 21 1 21 22
M  V30 22 1 22 23
M  V30 23 1 23 24
M  V30 24 1 24 25
M  V30 25 1 25 26
M  V30 26 2 26 27
M  V30 27 1 27 28
M  V30 28 1 28 29
M  V30 29 1 29 30
M  V30 30 2 30 31
M  V30 31 1 31 32
M  V30 32 2 32 33
M  V30 33 1 33 34
M  V30 34 2 34 35
M  V30 35 2 29 36
M  V30 36 1 25 37
M  V30 37 1 21 38
M  V30 38 2 38 39
M  V30 39 2 17 40
M  V30 40 1 40 41
M  V30 41 2 41 3
M  V30 42 1 41 6
M  V30 43 1 15 9
M  V30 44 1 39 18
M  V30 45 1 37 23
M  V30 46 1 36 26
M  V30 47 1 35 30
M  V30 48 1 1 42
M  V30 49 1 2 43
M  V30 50 1 2 44
M  V30 51 1 4 45
M  V30 52 1 7 46
M  V30 53 1 12 47
M  V30 54 1 13 48
M  V30 55 1 14 49
M  V30 56 1 19 50
M  V30 57 1 20 51
M  V30 58 1 22 52
M  V30 59 1 22 53
M  V30 60 1 24 54
M  V30 61 1 24 55
M  V30 62 1 25 56
M  V30 63 1 28 57
M  V30 64 1 31 58
M  V30 65 1 32 59
M  V30 66 1 33 60
M  V30 67 1 34 61
M  V30 68 1 37 62
M  V30 69 1 37 63
M  V30 70 1 38 64
M  V30 71 1 39 65
M  V30 END BOND
M  V30 END CTAB
M  END
>  <Dataset>  (945) 
ChEMBL_Kinases

>  <Ligand_Instance>  (945) 
nan

>  <PDB_ID>  (945) 
nan

>  <Standardized_SMILES>  (945) 
OCc1cnn2cc(-c3c(F)cccc3F)c(-c3ccc(CN4CC(c5n[nH]c(-c6ccccn6)n5)C4)cc3)nc12

>  <Name>  (945) 
nan

>  <Pocket>  (945) 
nan

>  <ATP_Site>  (945) 
nan

>  <Peripheral>  (945) 
nan

>  <Num_H_Atoms_ProtBoundConf>  (945) 
nan

>  <Num_Resolved_Atoms>  (945) 
nan

>  <Num_Not_Resolved_Atoms>  (945) 
nan

$$$$
CHEMBL3672093
     RDKit          3D

  0  0  0  0  0  0  0  0  0  0999 V3000
M  V30 BEGIN CTAB
M  V30 COUNTS 69 75 0 0 0
M  V30 BEGIN ATOM
M  V30 1 C 2.847786 -1.524723 7.720601 0
M  V30 2 C 2.718625 -1.241294 6.259040 0
M  V30 3 N 1.712365 -0.596233 5.626593 0
M  V30 4 C 1.973449 -0.546973 4.302402 0
M  V30 5 N 1.358063 -0.049741 3.210831 0
M  V30 6 C 1.861260 -0.145642 1.970995 0
M  V30 7 C 1.187242 0.399849 0.797363 0
M  V30 8 C 0.778201 -0.391304 -0.254361 0
M  V30 9 C 0.146992 0.183061 -1.330700 0
M  V30 10 C -0.121282 1.529805 -1.451786 0
M  V30 11 C -0.786741 2.213806 -2.560474 0
M  V30 12 N -2.190267 2.336933 -2.436865 0
M  V30 13 C -2.719493 3.026113 -1.333793 0
M  V30 14 C -3.132290 2.014608 -0.256406 0
M  V30 15 C -4.408298 1.332588 -0.766887 0
M  V30 16 C -4.523083 -0.064550 -0.296344 0
M  V30 17 N -5.482938 -0.713729 0.391939 0
M  V30 18 N -5.053940 -1.958077 0.538540 0
M  V30 19 C -3.848905 -2.148976 -0.027789 0
M  V30 20 C -3.082687 -3.373076 -0.059800 0
M  V30 21 C -1.853174 -3.411659 -0.683099 0
M  V30 22 C -1.088089 -4.581830 -0.729445 0
M  V30 23 C -1.658381 -5.688420 -0.105299 0
M  V30 24 C -2.883970 -5.638692 0.512650 0
M  V30 25 N -3.576562 -4.483916 0.526151 0
M  V30 26 N -3.542660 -0.951732 -0.540575 0
M  V30 27 C -4.348146 1.288773 -2.298191 0
M  V30 28 C -2.897251 1.137022 -2.735073 0
M  V30 29 C 0.300748 2.318878 -0.375224 0
M  V30 30 C 0.944318 1.772289 0.733775 0
M  V30 31 C 3.080053 -0.797169 1.844393 0
M  V30 32 C 3.623805 -0.902828 0.494182 0
M  V30 33 C 4.023587 0.071453 -0.396407 0
M  V30 34 C 4.507196 -0.290092 -1.625719 0
M  V30 35 F 4.879892 0.716335 -2.445667 0
M  V30 36 C 4.607284 -1.628010 -2.005029 0
M  V30 37 C 4.211345 -2.615749 -1.125302 0
M  V30 38 C 3.719538 -2.246820 0.125167 0
M  V30 39 F 3.371659 -3.327964 0.877035 0
M  V30 40 C 3.761725 -1.328417 2.919529 0
M  V30 41 N 3.166395 -1.176758 4.124935 0
M  V30 42 N 3.619876 -1.596640 5.297355 0
M  V30 43 H 2.404568 -0.669899 8.251455 0
M  V30 44 H 3.889145 -1.728979 7.981720 0
M  V30 45 H 2.248605 -2.414371 8.001530 0
M  V30 46 H 0.951731 -1.457549 -0.235439 0
M  V30 47 H -0.164572 -0.447330 -2.151329 0
M  V30 48 H -0.269146 3.183324 -2.747984 0
M  V30 49 H -0.589426 1.614176 -3.487060 0
M  V30 50 H -2.087667 3.819465 -0.909029 0
M  V30 51 H -3.689149 3.552591 -1.587499 0
M  V30 52 H -3.296238 2.481104 0.713345 0
M  V30 53 H -2.377145 1.221493 -0.212305 0
M  V30 54 H -5.264477 1.929161 -0.470364 0
M  V30 55 H -5.628627 -2.684560 1.050549 0
M  V30 56 H -1.409110 -2.532353 -1.174393 0
M  V30 57 H -0.131263 -4.651580 -1.202724 0
M  V30 58 H -1.148075 -6.641179 -0.084803 0
M  V30 59 H -3.309225 -6.505685 0.990543 0
M  V30 60 H -4.875955 0.369251 -2.610742 0
M  V30 61 H -4.834827 2.144352 -2.764355 0
M  V30 62 H -2.427586 0.258621 -2.259737 0
M  V30 63 H -2.940924 0.967643 -3.852735 0
M  V30 64 H 0.180723 3.393531 -0.289278 0
M  V30 65 H 1.276689 2.360442 1.571576 0
M  V30 66 H 3.897202 1.056502 0.012542 0
M  V30 67 H 4.991316 -1.890740 -2.979370 0
M  V30 68 H 4.310702 -3.629564 -1.471402 0
M  V30 69 H 4.698326 -1.824144 2.788376 0
M  V30 END ATOM
M  V30 BEGIN BOND
M  V30 1 1 1 2
M  V30 2 1 2 3
M  V30 3 2 3 4
M  V30 4 1 4 5
M  V30 5 2 5 6
M  V30 6 1 6 7
M  V30 7 2 7 8
M  V30 8 1 8 9
M  V30 9 2 9 10
M  V30 10 1 10 11
M  V30 11 1 11 12
M  V30 12 1 12 13
M  V30 13 1 13 14
M  V30 14 1 14 15
M  V30 15 1 15 16
M  V30 16 2 16 17
M  V30 17 1 17 18
M  V30 18 1 18 19
M  V30 19 1 19 20
M  V30 20 2 20 21
M  V30 21 1 21 22
M  V30 22 2 22 23
M  V30 23 1 23 24
M  V30 24 2 24 25
M  V30 25 2 19 26
M  V30 26 1 15 27
M  V30 27 1 27 28
M  V30 28 1 10 29
M  V30 29 2 29 30
M  V30 30 1 6 31
M  V30 31 1 31 32
M  V30 32 2 32 33
M  V30 33 1 33 34
M  V30 34 1 34 35
M  V30 35 2 34 36
M  V30 36 1 36 37
M  V30 37 2 37 38
M  V30 38 1 38 39
M  V30 39 2 31 40
M  V30 40 1 40 41
M  V30 41 1 41 42
M  V30 42 2 42 2
M  V30 43 1 41 4
M  V30 44 1 30 7
M  V30 45 1 38 32
M  V30 46 1 28 12
M  V30 47 1 26 16
M  V30 48 1 25 20
M  V30 49 1 1 43
M  V30 50 1 1 44
M  V30 51 1 1 45
M  V30 52 1 8 46
M  V30 53 1 9 47
M  V30 54 1 11 48
M  V30 55 1 11 49
M  V30 56 1 13 50
M  V30 57 1 13 51
M  V30 58 1 14 52
M  V30 59 1 14 53
M  V30 60 1 15 54
M  V30 61 1 18 55
M  V30 62 1 21 56
M  V30 63 1 22 57
M  V30 64 1 23 58
M  V30 65 1 24 59
M  V30 66 1 27 60
M  V30 67 1 27 61
M  V30 68 1 28 62
M  V30 69 1 28 63
M  V30 70 1 29 64
M  V30 71 1 30 65
M  V30 72 1 33 66
M  V30 73 1 36 67
M  V30 74 1 37 68
M  V30 75 1 40 69
M  V30 END BOND
M  V30 END CTAB
M  END
>  <Dataset>  (946) 
ChEMBL_Kinases

>  <Ligand_Instance>  (946) 
nan

>  <PDB_ID>  (946) 
nan

>  <Standardized_SMILES>  (946) 
Cc1nc2nc(-c3ccc(CN4CCC(c5n[nH]c(-c6ccccn6)n5)CC4)cc3)c(-c3cc(F)ccc3F)cn2n1

>  <Name>  (946) 
nan

>  <Pocket>  (946) 
nan

>  <ATP_Site>  (946) 
nan

>  <Peripheral>  (946) 
nan

>  <Num_H_Atoms_ProtBoundConf>  (946) 
nan

>  <Num_Resolved_Atoms>  (946) 
nan

>  <Num_Not_Resolved_Atoms>  (946) 
nan

$$$$
CHEMBL3672092
     RDKit          3D

  0  0  0  0  0  0  0  0  0  0999 V3000
M  V30 BEGIN CTAB
M  V30 COUNTS 65 71 0 0 0
M  V30 BEGIN ATOM
M  V30 1 O 6.685053 -0.194504 6.048438 0
M  V30 2 C 6.011028 -1.287125 5.462679 0
M  V30 3 C 5.095731 -0.812390 4.419870 0
M  V30 4 C 5.404693 -0.665232 3.070624 0
M  V30 5 N 4.293059 -0.195649 2.427093 0
M  V30 6 C 4.166624 0.080470 1.116776 0
M  V30 7 C 2.962368 0.544106 0.652261 0
M  V30 8 C 2.821292 0.825932 -0.750685 0
M  V30 9 C 1.916060 -0.049964 -1.361876 0
M  V30 10 C 1.642050 0.059272 -2.724342 0
M  V30 11 C 2.270777 1.045366 -3.490587 0
M  V30 12 C 3.164837 1.903040 -2.863762 0
M  V30 13 C 3.438147 1.797876 -1.515144 0
M  V30 14 C 1.949081 0.696951 1.581303 0
M  V30 15 C 0.650215 1.183505 1.165096 0
M  V30 16 C -0.318276 0.175223 1.168733 0
M  V30 17 C -1.613533 0.490536 0.794407 0
M  V30 18 C -2.025190 1.777636 0.405443 0
M  V30 19 C -3.441854 1.882826 0.038450 0
M  V30 20 N -3.735338 1.756401 -1.352821 0
M  V30 21 C -3.202482 0.663970 -2.093332 0
M  V30 22 C -4.547981 0.106973 -2.435905 0
M  V30 23 C -4.717101 -1.330932 -2.059787 0
M  V30 24 N -5.419815 -2.357702 -2.547243 0
M  V30 25 N -5.172517 -3.461919 -1.825252 0
M  V30 26 C -4.296881 -3.127427 -0.862991 0
M  V30 27 C -3.799118 -4.102290 0.099126 0
M  V30 28 C -2.886951 -3.703408 1.061883 0
M  V30 29 C -2.307600 -4.508825 2.048953 0
M  V30 30 C -2.708189 -5.827384 2.031834 0
M  V30 31 C -3.614773 -6.239153 1.080233 0
M  V30 32 N -4.135547 -5.401369 0.152619 0
M  V30 33 N -4.012420 -1.827084 -0.996582 0
M  V30 34 C -5.069230 1.122996 -1.473045 0
M  V30 35 C -1.033667 2.730462 0.420152 0
M  V30 36 C 0.259783 2.442620 0.787542 0
M  V30 37 N 2.116162 0.405544 2.905808 0
M  V30 38 C 3.314818 -0.054724 3.358146 0
M  V30 39 N 3.820164 -0.433143 4.557976 0
M  V30 40 H 7.582930 -0.440239 6.338820 0
M  V30 41 H 5.482978 -1.842859 6.243235 0
M  V30 42 H 6.850829 -1.885400 4.994955 0
M  V30 43 H 6.376106 -0.891082 2.618064 0
M  V30 44 H 4.999556 -0.059215 0.432850 0
M  V30 45 H 1.344859 -0.864318 -0.939756 0
M  V30 46 H 0.961787 -0.566809 -3.284034 0
M  V30 47 H 2.117602 1.200475 -4.549760 0
M  V30 48 H 3.721372 2.709452 -3.326376 0
M  V30 49 H 4.095390 2.379617 -0.900791 0
M  V30 50 H -0.118870 -0.871491 1.453114 0
M  V30 51 H -2.353919 -0.326546 0.813724 0
M  V30 52 H -4.034549 1.133270 0.612645 0
M  V30 53 H -3.801019 2.871645 0.411436 0
M  V30 54 H -2.610071 -0.094936 -1.544021 0
M  V30 55 H -2.684832 1.033800 -3.028041 0
M  V30 56 H -4.960449 0.306499 -3.441756 0
M  V30 57 H -5.648950 -4.380506 -2.071038 0
M  V30 58 H -2.595138 -2.664529 1.044918 0
M  V30 59 H -1.601383 -4.030181 2.734652 0
M  V30 60 H -2.245874 -6.434204 2.804330 0
M  V30 61 H -3.888396 -7.282058 1.119810 0
M  V30 62 H -5.411481 0.607486 -0.548867 0
M  V30 63 H -5.866970 1.804054 -1.812840 0
M  V30 64 H -1.349556 3.699190 0.126002 0
M  V30 65 H 1.033507 3.169601 0.801426 0
M  V30 END ATOM
M  V30 BEGIN BOND
M  V30 1 1 1 2
M  V30 2 1 2 3
M  V30 3 2 3 4
M  V30 4 1 4 5
M  V30 5 1 5 6
M  V30 6 2 6 7
M  V30 7 1 7 8
M  V30 8 2 8 9
M  V30 9 1 9 10
M  V30 10 2 10 11
M  V30 11 1 11 12
M  V30 12 2 12 13
M  V30 13 1 7 14
M  V30 14 1 14 15
M  V30 15 2 15 16
M  V30 16 1 16 17
M  V30 17 2 17 18
M  V30 18 1 18 19
M  V30 19 1 19 20
M  V30 20 1 20 21
M  V30 21 1 21 22
M  V30 22 1 22 23
M  V30 23 2 23 24
M  V30 24 1 24 25
M  V30 25 1 25 26
M  V30 26 1 26 27
M  V30 27 2 27 28
M  V30 28 1 28 29
M  V30 29 2 29 30
M  V30 30 1 30 31
M  V30 31 2 31 32
M  V30 32 2 26 33
M  V30 33 1 22 34
M  V30 34 1 18 35
M  V30 35 2 35 36
M  V30 36 2 14 37
M  V30 37 1 37 38
M  V30 38 2 38 39
M  V30 39 1 39 3
M  V30 40 1 38 5
M  V30 41 1 13 8
M  V30 42 1 36 15
M  V30 43 1 34 20
M  V30 44 1 33 23
M  V30 45 1 32 27
M  V30 46 1 1 40
M  V30 47 1 2 41
M  V30 48 1 2 42
M  V30 49 1 4 43
M  V30 50 1 6 44
M  V30 51 1 9 45
M  V30 52 1 10 46
M  V30 53 1 11 47
M  V30 54 1 12 48
M  V30 55 1 13 49
M  V30 56 1 16 50
M  V30 57 1 17 51
M  V30 58 1 19 52
M  V30 59 1 19 53
M  V30 60 1 21 54
M  V30 61 1 21 55
M  V30 62 1 22 56
M  V30 63 1 25 57
M  V30 64 1 28 58
M  V30 65 1 29 59
M  V30 66 1 30 60
M  V30 67 1 31 61
M  V30 68 1 34 62
M  V30 69 1 34 63
M  V30 70 1 35 64
M  V30 71 1 36 65
M  V30 END BOND
M  V30 END CTAB
M  END
>  <Dataset>  (947) 
ChEMBL_Kinases

>  <Ligand_Instance>  (947) 
nan

>  <PDB_ID>  (947) 
nan

>  <Standardized_SMILES>  (947) 
OCc1cn2cc(-c3ccccc3)c(-c3ccc(CN4CC(c5n[nH]c(-c6ccccn6)n5)C4)cc3)nc2n1

>  <Name>  (947) 
nan

>  <Pocket>  (947) 
nan

>  <ATP_Site>  (947) 
nan

>  <Peripheral>  (947) 
nan

>  <Num_H_Atoms_ProtBoundConf>  (947) 
nan

>  <Num_Resolved_Atoms>  (947) 
nan

>  <Num_Not_Resolved_Atoms>  (947) 
nan

$$$$
CHEMBL3672091
     RDKit          3D

  0  0  0  0  0  0  0  0  0  0999 V3000
M  V30 BEGIN CTAB
M  V30 COUNTS 67 73 0 0 0
M  V30 BEGIN ATOM
M  V30 1 C 5.272042 -1.407547 9.090371 0
M  V30 2 O 4.753340 -0.968419 7.859573 0
M  V30 3 C 5.384598 -0.146579 6.960063 0
M  V30 4 O 6.534635 0.232881 7.298214 0
M  V30 5 C 4.746170 0.244153 5.708504 0
M  V30 6 C 5.248129 1.055256 4.712951 0
M  V30 7 N 4.307549 1.134709 3.744882 0
M  V30 8 C 4.331364 1.808751 2.569898 0
M  V30 9 C 3.232744 1.729521 1.742643 0
M  V30 10 C 3.062124 2.373648 0.447968 0
M  V30 11 C 2.911290 1.663886 -0.720524 0
M  V30 12 C 2.755350 2.352826 -1.895124 0
M  V30 13 C 2.750949 3.741382 -1.896309 0
M  V30 14 C 2.899775 4.471699 -0.743890 0
M  V30 15 C 3.057481 3.768310 0.444178 0
M  V30 16 C 2.113040 0.973423 2.097781 0
M  V30 17 C 0.905152 0.823060 1.295101 0
M  V30 18 C 0.010691 1.769566 0.876982 0
M  V30 19 C -1.083232 1.408508 0.114905 0
M  V30 20 C -1.320076 0.103541 -0.252561 0
M  V30 21 C -2.530773 -0.149176 -1.072293 0
M  V30 22 N -2.129023 -0.039701 -2.472409 0
M  V30 23 C -3.191123 -0.242529 -3.432791 0
M  V30 24 C -2.485224 -1.363572 -4.125278 0
M  V30 25 C -3.287298 -2.619546 -4.042082 0
M  V30 26 N -3.626704 -3.592601 -4.919502 0
M  V30 27 N -4.378076 -4.493008 -4.273255 0
M  V30 28 C -4.533841 -4.118894 -2.981120 0
M  V30 29 C -5.264877 -4.779494 -1.906488 0
M  V30 30 C -5.935268 -5.973287 -2.132618 0
M  V30 31 C -6.632322 -6.611999 -1.124735 0
M  V30 32 C -6.636473 -6.010734 0.129247 0
M  V30 33 C -5.961612 -4.809297 0.355956 0
M  V30 34 N -5.303454 -4.244476 -0.674239 0
M  V30 35 N -3.855493 -2.969124 -2.869195 0
M  V30 36 C -1.507280 -1.242486 -2.991461 0
M  V30 37 C -0.423355 -0.857445 0.164674 0
M  V30 38 C 0.684263 -0.511956 0.932873 0
M  V30 39 N 2.138744 0.313098 3.292184 0
M  V30 40 C 3.235960 0.399869 4.104716 0
M  V30 41 N 3.533404 -0.132460 5.309451 0
M  V30 42 H 6.364165 -1.276914 9.199580 0
M  V30 43 H 5.075262 -2.518462 9.143190 0
M  V30 44 H 4.733859 -0.982491 9.959327 0
M  V30 45 H 6.221196 1.546273 4.699013 0
M  V30 46 H 5.143541 2.413274 2.212485 0
M  V30 47 H 2.927624 0.579380 -0.621674 0
M  V30 48 H 2.636725 1.783284 -2.816173 0
M  V30 49 H 2.624653 4.250633 -2.848446 0
M  V30 50 H 2.885792 5.552492 -0.824957 0
M  V30 51 H 3.176768 4.361902 1.364803 0
M  V30 52 H 0.274544 2.768026 1.211283 0
M  V30 53 H -1.728353 2.206531 -0.167704 0
M  V30 54 H -2.858227 -1.199188 -0.832590 0
M  V30 55 H -3.325606 0.586556 -0.850410 0
M  V30 56 H -4.108654 -0.538924 -2.881260 0
M  V30 57 H -3.430232 0.639727 -4.057445 0
M  V30 58 H -2.069439 -1.173619 -5.130427 0
M  V30 59 H -4.798612 -5.360765 -4.662452 0
M  V30 60 H -5.937130 -6.454689 -3.118835 0
M  V30 61 H -7.162597 -7.543679 -1.277009 0
M  V30 62 H -7.169918 -6.466858 0.967451 0
M  V30 63 H -5.967618 -4.341932 1.340183 0
M  V30 64 H -0.475900 -1.060419 -3.375950 0
M  V30 65 H -1.514481 -2.122660 -2.333270 0
M  V30 66 H -0.613973 -1.877822 -0.125744 0
M  V30 67 H 1.324083 -1.353630 1.204564 0
M  V30 END ATOM
M  V30 BEGIN BOND
M  V30 1 1 1 2
M  V30 2 1 2 3
M  V30 3 2 3 4
M  V30 4 1 3 5
M  V30 5 2 5 6
M  V30 6 1 6 7
M  V30 7 1 7 8
M  V30 8 2 8 9
M  V30 9 1 9 10
M  V30 10 2 10 11
M  V30 11 1 11 12
M  V30 12 2 12 13
M  V30 13 1 13 14
M  V30 14 2 14 15
M  V30 15 1 9 16
M  V30 16 1 16 17
M  V30 17 2 17 18
M  V30 18 1 18 19
M  V30 19 2 19 20
M  V30 20 1 20 21
M  V30 21 1 21 22
M  V30 22 1 22 23
M  V30 23 1 23 24
M  V30 24 1 24 25
M  V30 25 2 25 26
M  V30 26 1 26 27
M  V30 27 1 27 28
M  V30 28 1 28 29
M  V30 29 2 29 30
M  V30 30 1 30 31
M  V30 31 2 31 32
M  V30 32 1 32 33
M  V30 33 2 33 34
M  V30 34 2 28 35
M  V30 35 1 24 36
M  V30 36 1 20 37
M  V30 37 2 37 38
M  V30 38 2 16 39
M  V30 39 1 39 40
M  V30 40 2 40 41
M  V30 41 1 41 5
M  V30 42 1 40 7
M  V30 43 1 15 10
M  V30 44 1 38 17
M  V30 45 1 36 22
M  V30 46 1 35 25
M  V30 47 1 34 29
M  V30 48 1 1 42
M  V30 49 1 1 43
M  V30 50 1 1 44
M  V30 51 1 6 45
M  V30 52 1 8 46
M  V30 53 1 11 47
M  V30 54 1 12 48
M  V30 55 1 13 49
M  V30 56 1 14 50
M  V30 57 1 15 51
M  V30 58 1 18 52
M  V30 59 1 19 53
M  V30 60 1 21 54
M  V30 61 1 21 55
M  V30 62 1 23 56
M  V30 63 1 23 57
M  V30 64 1 24 58
M  V30 65 1 27 59
M  V30 66 1 30 60
M  V30 67 1 31 61
M  V30 68 1 32 62
M  V30 69 1 33 63
M  V30 70 1 36 64
M  V30 71 1 36 65
M  V30 72 1 37 66
M  V30 73 1 38 67
M  V30 END BOND
M  V30 END CTAB
M  END
>  <Dataset>  (948) 
ChEMBL_Kinases

>  <Ligand_Instance>  (948) 
nan

>  <PDB_ID>  (948) 
nan

>  <Standardized_SMILES>  (948) 
COC(=O)c1cn2cc(-c3ccccc3)c(-c3ccc(CN4CC(c5n[nH]c(-c6ccccn6)n5)C4)cc3)nc2n1

>  <Name>  (948) 
nan

>  <Pocket>  (948) 
nan

>  <ATP_Site>  (948) 
nan

>  <Peripheral>  (948) 
nan

>  <Num_H_Atoms_ProtBoundConf>  (948) 
nan

>  <Num_Resolved_Atoms>  (948) 
nan

>  <Num_Not_Resolved_Atoms>  (948) 
nan

$$$$
CHEMBL3672090
     RDKit          3D

  0  0  0  0  0  0  0  0  0  0999 V3000
M  V30 BEGIN CTAB
M  V30 COUNTS 70 76 0 0 0
M  V30 BEGIN ATOM
M  V30 1 C 7.259161 -0.034299 9.280263 0
M  V30 2 O 6.370690 -0.240264 8.194459 0
M  V30 3 C 6.817739 -0.466601 6.899875 0
M  V30 4 O 8.054262 -0.491440 6.673849 0
M  V30 5 C 5.864378 -0.672791 5.816436 0
M  V30 6 C 6.177381 -0.906275 4.494318 0
M  V30 7 N 5.001729 -1.038795 3.835250 0
M  V30 8 C 4.697603 -1.276829 2.530293 0
M  V30 9 C 3.381312 -1.365193 2.127217 0
M  V30 10 C 3.072841 -1.620879 0.724754 0
M  V30 11 C 2.406424 -2.730155 0.216922 0
M  V30 12 C 2.189121 -2.828188 -1.146032 0
M  V30 13 C 2.630797 -1.831231 -1.998401 0
M  V30 14 C 3.298978 -0.714080 -1.512042 0
M  V30 15 C 3.515207 -0.618758 -0.145694 0
M  V30 16 C 2.328200 -1.214503 3.037305 0
M  V30 17 C 0.976465 -1.324840 2.519920 0
M  V30 18 C 0.487927 -0.464421 1.590000 0
M  V30 19 C -0.795438 -0.546425 1.078295 0
M  V30 20 C -1.654794 -1.530364 1.501587 0
M  V30 21 C -3.051789 -1.782447 1.067859 0
M  V30 22 N -3.075643 -2.717533 -0.025648 0
M  V30 23 C -2.372181 -2.252334 -1.220941 0
M  V30 24 C -3.489748 -2.868067 -2.074123 0
M  V30 25 C -3.968801 -1.880120 -3.072774 0
M  V30 26 N -4.101863 -2.231351 -4.364640 0
M  V30 27 N -4.540575 -1.188685 -5.050158 0
M  V30 28 C -4.699496 -0.137983 -4.205741 0
M  V30 29 C -5.163457 1.205685 -4.535737 0
M  V30 30 C -5.486861 1.472450 -5.850480 0
M  V30 31 C -5.939511 2.715382 -6.281086 0
M  V30 32 C -6.055810 3.704161 -5.306824 0
M  V30 33 C -5.729406 3.433654 -3.982166 0
M  V30 34 C -5.845817 4.472392 -2.929053 0
M  V30 35 N -5.298508 2.205093 -3.645677 0
M  V30 36 N -4.335117 -0.593801 -2.970634 0
M  V30 37 C -4.307177 -2.817499 -0.779163 0
M  V30 38 C -1.133141 -2.402689 2.456490 0
M  V30 39 C 0.147393 -2.347717 2.989306 0
M  V30 40 N 2.676455 -0.979720 4.321180 0
M  V30 41 C 3.967958 -0.894328 4.709614 0
M  V30 42 N 4.524347 -0.668016 5.932874 0
M  V30 43 H 6.672009 -0.097995 10.210903 0
M  V30 44 H 7.770992 0.944265 9.255005 0
M  V30 45 H 8.012627 -0.863203 9.320585 0
M  V30 46 H 7.181756 -0.969909 4.072251 0
M  V30 47 H 5.522663 -1.395559 1.812062 0
M  V30 48 H 2.094988 -3.466291 0.968409 0
M  V30 49 H 1.665980 -3.709975 -1.496751 0
M  V30 50 H 2.463364 -1.903378 -3.063145 0
M  V30 51 H 3.625516 0.041303 -2.223928 0
M  V30 52 H 4.042291 0.280954 0.152893 0
M  V30 53 H 1.106164 0.354645 1.194185 0
M  V30 54 H -1.194512 0.132747 0.342475 0
M  V30 55 H -3.612709 -2.260474 1.907888 0
M  V30 56 H -3.582839 -0.838658 0.823331 0
M  V30 57 H -1.410275 -2.753064 -1.372873 0
M  V30 58 H -2.320741 -1.148262 -1.315282 0
M  V30 59 H -3.270223 -3.856755 -2.466034 0
M  V30 60 H -4.728952 -1.199169 -6.088837 0
M  V30 61 H -5.385145 0.678325 -6.588406 0
M  V30 62 H -6.172114 2.850702 -7.319143 0
M  V30 63 H -6.406175 4.686053 -5.606151 0
M  V30 64 H -4.797273 4.631544 -2.557342 0
M  V30 65 H -6.185318 5.414876 -3.420795 0
M  V30 66 H -6.540493 4.212773 -2.113807 0
M  V30 67 H -4.885442 -3.745934 -0.628805 0
M  V30 68 H -4.883157 -1.894516 -0.652471 0
M  V30 69 H -1.762469 -3.216875 2.843427 0
M  V30 70 H 0.460025 -3.072690 3.727809 0
M  V30 END ATOM
M  V30 BEGIN BOND
M  V30 1 1 1 2
M  V30 2 1 2 3
M  V30 3 2 3 4
M  V30 4 1 3 5
M  V30 5 2 5 6
M  V30 6 1 6 7
M  V30 7 1 7 8
M  V30 8 2 8 9
M  V30 9 1 9 10
M  V30 10 2 10 11
M  V30 11 1 11 12
M  V30 12 2 12 13
M  V30 13 1 13 14
M  V30 14 2 14 15
M  V30 15 1 9 16
M  V30 16 1 16 17
M  V30 17 2 17 18
M  V30 18 1 18 19
M  V30 19 2 19 20
M  V30 20 1 20 21
M  V30 21 1 21 22
M  V30 22 1 22 23
M  V30 23 1 23 24
M  V30 24 1 24 25
M  V30 25 2 25 26
M  V30 26 1 26 27
M  V30 27 1 27 28
M  V30 28 1 28 29
M  V30 29 2 29 30
M  V30 30 1 30 31
M  V30 31 2 31 32
M  V30 32 1 32 33
M  V30 33 1 33 34
M  V30 34 2 33 35
M  V30 35 2 28 36
M  V30 36 1 24 37
M  V30 37 1 20 38
M  V30 38 2 38 39
M  V30 39 2 16 40
M  V30 40 1 40 41
M  V30 41 2 41 42
M  V30 42 1 42 5
M  V30 43 1 41 7
M  V30 44 1 15 10
M  V30 45 1 39 17
M  V30 46 1 37 22
M  V30 47 1 36 25
M  V30 48 1 35 29
M  V30 49 1 1 43
M  V30 50 1 1 44
M  V30 51 1 1 45
M  V30 52 1 6 46
M  V30 53 1 8 47
M  V30 54 1 11 48
M  V30 55 1 12 49
M  V30 56 1 13 50
M  V30 57 1 14 51
M  V30 58 1 15 52
M  V30 59 1 18 53
M  V30 60 1 19 54
M  V30 61 1 21 55
M  V30 62 1 21 56
M  V30 63 1 23 57
M  V30 64 1 23 58
M  V30 65 1 24 59
M  V30 66 1 27 60
M  V30 67 1 30 61
M  V30 68 1 31 62
M  V30 69 1 32 63
M  V30 70 1 34 64
M  V30 71 1 34 65
M  V30 72 1 34 66
M  V30 73 1 37 67
M  V30 74 1 37 68
M  V30 75 1 38 69
M  V30 76 1 39 70
M  V30 END BOND
M  V30 END CTAB
M  END
>  <Dataset>  (949) 
ChEMBL_Kinases

>  <Ligand_Instance>  (949) 
nan

>  <PDB_ID>  (949) 
nan

>  <Standardized_SMILES>  (949) 
COC(=O)c1cn2cc(-c3ccccc3)c(-c3ccc(CN4CC(c5n[nH]c(-c6cccc(C)n6)n5)C4)cc3)nc2n1

>  <Name>  (949) 
nan

>  <Pocket>  (949) 
nan

>  <ATP_Site>  (949) 
nan

>  <Peripheral>  (949) 
nan

>  <Num_H_Atoms_ProtBoundConf>  (949) 
nan

>  <Num_Resolved_Atoms>  (949) 
nan

>  <Num_Not_Resolved_Atoms>  (949) 
nan

$$$$
CHEMBL3672089
     RDKit          3D

  0  0  0  0  0  0  0  0  0  0999 V3000
M  V30 BEGIN CTAB
M  V30 COUNTS 72 78 0 0 0
M  V30 BEGIN ATOM
M  V30 1 C 7.707460 2.564291 6.634543 0
M  V30 2 S 8.169103 2.405754 4.908731 0
M  V30 3 O 8.815628 3.696409 4.476714 0
M  V30 4 O 9.090855 1.247191 4.809134 0
M  V30 5 C 6.726149 2.110306 3.960959 0
M  V30 6 N 5.858633 2.968429 3.348339 0
M  V30 7 C 4.923835 2.202606 2.758063 0
M  V30 8 N 3.841224 2.518904 2.024794 0
M  V30 9 C 3.017472 1.580455 1.515670 0
M  V30 10 C 1.821758 1.784550 0.709430 0
M  V30 11 C 0.667799 2.441788 1.082967 0
M  V30 12 C -0.390867 2.556923 0.207092 0
M  V30 13 C -0.307102 2.013831 -1.057488 0
M  V30 14 C -1.390267 2.077891 -2.078088 0
M  V30 15 N -2.276152 0.944133 -1.992749 0
M  V30 16 C -3.314470 1.033881 -3.001534 0
M  V30 17 C -4.279050 -0.114210 -2.919147 0
M  V30 18 C -4.853479 -0.309983 -1.556702 0
M  V30 19 C -5.591982 -1.610464 -1.480976 0
M  V30 20 N -6.878409 -1.951778 -1.243826 0
M  V30 21 N -6.958335 -3.284468 -1.301134 0
M  V30 22 C -5.734751 -3.757616 -1.570495 0
M  V30 23 C -5.384296 -5.173570 -1.718267 0
M  V30 24 C -4.091395 -5.553088 -1.997144 0
M  V30 25 C -3.706155 -6.881742 -2.147676 0
M  V30 26 C -4.681777 -7.839132 -2.006276 0
M  V30 27 C -5.991830 -7.451928 -1.723674 0
M  V30 28 N -6.314674 -6.136960 -1.586336 0
M  V30 29 N -4.900055 -2.735443 -1.680413 0
M  V30 30 C -3.792033 -0.249363 -0.482569 0
M  V30 31 C -2.829524 0.876972 -0.658786 0
M  V30 32 C 0.863862 1.346734 -1.437256 0
M  V30 33 C 1.923388 1.230882 -0.562168 0
M  V30 34 C 3.299257 0.250779 1.758151 0
M  V30 35 C 2.506589 -0.905086 1.279171 0
M  V30 36 C 3.086574 -1.838777 0.443345 0
M  V30 37 C 2.343280 -2.921388 -0.004787 0
M  V30 38 C 1.027185 -3.014030 0.417809 0
M  V30 39 C 0.436090 -2.088970 1.251959 0
M  V30 40 C 1.175617 -1.015622 1.695247 0
M  V30 41 C 4.400592 -0.112348 2.506000 0
M  V30 42 N 5.166873 0.897310 2.973864 0
M  V30 43 N 6.266650 0.851619 3.707454 0
M  V30 44 H 8.459942 3.133672 7.197694 0
M  V30 45 H 6.732189 3.090075 6.730679 0
M  V30 46 H 7.582500 1.572827 7.104984 0
M  V30 47 H 0.658727 2.844692 2.079232 0
M  V30 48 H -1.292084 3.066034 0.488394 0
M  V30 49 H -1.951491 3.036032 -1.947395 0
M  V30 50 H -0.911064 2.164895 -3.073195 0
M  V30 51 H -3.892715 1.967366 -2.879812 0
M  V30 52 H -2.814490 0.998703 -3.991107 0
M  V30 53 H -3.683764 -1.046050 -3.146325 0
M  V30 54 H -5.085266 -0.025559 -3.660788 0
M  V30 55 H -5.565418 0.511212 -1.370046 0
M  V30 56 H -7.854699 -3.803968 -1.151570 0
M  V30 57 H -3.323507 -4.787266 -2.107416 0
M  V30 58 H -2.658126 -7.111622 -2.369061 0
M  V30 59 H -4.388323 -8.883956 -2.122566 0
M  V30 60 H -6.733857 -8.246076 -1.620017 0
M  V30 61 H -3.255860 -1.221637 -0.502294 0
M  V30 62 H -4.239720 -0.133998 0.531040 0
M  V30 63 H -3.295902 1.849907 -0.429632 0
M  V30 64 H -1.983081 0.683201 0.041380 0
M  V30 65 H 0.934850 0.912477 -2.443151 0
M  V30 66 H 2.796995 0.696966 -0.935405 0
M  V30 67 H 4.136545 -1.662963 0.174152 0
M  V30 68 H 2.830474 -3.631416 -0.657506 0
M  V30 69 H 0.437853 -3.869984 0.063997 0
M  V30 70 H -0.604669 -2.265957 1.517104 0
M  V30 71 H 0.701112 -0.285847 2.356351 0
M  V30 72 H 4.675848 -1.125566 2.730965 0
M  V30 END ATOM
M  V30 BEGIN BOND
M  V30 1 1 1 2
M  V30 2 2 2 3
M  V30 3 2 2 4
M  V30 4 1 2 5
M  V30 5 1 5 6
M  V30 6 2 6 7
M  V30 7 1 7 8
M  V30 8 2 8 9
M  V30 9 1 9 10
M  V30 10 2 10 11
M  V30 11 1 11 12
M  V30 12 2 12 13
M  V30 13 1 13 14
M  V30 14 1 14 15
M  V30 15 1 15 16
M  V30 16 1 16 17
M  V30 17 1 17 18
M  V30 18 1 18 19
M  V30 19 2 19 20
M  V30 20 1 20 21
M  V30 21 1 21 22
M  V30 22 1 22 23
M  V30 23 2 23 24
M  V30 24 1 24 25
M  V30 25 2 25 26
M  V30 26 1 26 27
M  V30 27 2 27 28
M  V30 28 2 22 29
M  V30 29 1 18 30
M  V30 30 1 30 31
M  V30 31 1 13 32
M  V30 32 2 32 33
M  V30 33 1 9 34
M  V30 34 1 34 35
M  V30 35 2 35 36
M  V30 36 1 36 37
M  V30 37 2 37 38
M  V30 38 1 38 39
M  V30 39 2 39 40
M  V30 40 2 34 41
M  V30 41 1 41 42
M  V30 42 1 42 43
M  V30 43 2 43 5
M  V30 44 1 42 7
M  V30 45 1 33 10
M  V30 46 1 40 35
M  V30 47 1 31 15
M  V30 48 1 29 19
M  V30 49 1 28 23
M  V30 50 1 1 44
M  V30 51 1 1 45
M  V30 52 1 1 46
M  V30 53 1 11 47
M  V30 54 1 12 48
M  V30 55 1 14 49
M  V30 56 1 14 50
M  V30 57 1 16 51
M  V30 58 1 16 52
M  V30 59 1 17 53
M  V30 60 1 17 54
M  V30 61 1 18 55
M  V30 62 1 21 56
M  V30 63 1 24 57
M  V30 64 1 25 58
M  V30 65 1 26 59
M  V30 66 1 27 60
M  V30 67 1 30 61
M  V30 68 1 30 62
M  V30 69 1 31 63
M  V30 70 1 31 64
M  V30 71 1 32 65
M  V30 72 1 33 66
M  V30 73 1 36 67
M  V30 74 1 37 68
M  V30 75 1 38 69
M  V30 76 1 39 70
M  V30 77 1 40 71
M  V30 78 1 41 72
M  V30 END BOND
M  V30 END CTAB
M  END
>  <Dataset>  (950) 
ChEMBL_Kinases

>  <Ligand_Instance>  (950) 
nan

>  <PDB_ID>  (950) 
nan

>  <Standardized_SMILES>  (950) 
CS(=O)(=O)c1nc2nc(-c3ccc(CN4CCC(c5n[nH]c(-c6ccccn6)n5)CC4)cc3)c(-c3ccccc3)cn2n1

>  <Name>  (950) 
nan

>  <Pocket>  (950) 
nan

>  <ATP_Site>  (950) 
nan

>  <Peripheral>  (950) 
nan

>  <Num_H_Atoms_ProtBoundConf>  (950) 
nan

>  <Num_Resolved_Atoms>  (950) 
nan

>  <Num_Not_Resolved_Atoms>  (950) 
nan

$$$$
CHEMBL3355149
     RDKit          3D

  0  0  0  0  0  0  0  0  0  0999 V3000
M  V30 BEGIN CTAB
M  V30 COUNTS 51 54 0 0 0
M  V30 BEGIN ATOM
M  V30 1 C 1.150112 -7.110389 3.551338 0
M  V30 2 C 1.911160 -5.901765 3.143324 0
M  V30 3 C 2.426772 -5.777851 1.854174 0
M  V30 4 C 3.126412 -4.606750 1.566549 0
M  V30 5 C 3.265328 -3.651790 2.562249 0
M  V30 6 N 3.986699 -2.428227 2.289107 0
M  V30 7 C 3.031194 -1.480870 1.802257 0
M  V30 8 O 1.848581 -1.965846 1.747434 0
M  V30 9 C 3.382883 -0.099302 1.409664 0
M  V30 10 C 4.641927 0.465607 1.452021 0
M  V30 11 C 4.800756 1.775980 1.047867 0
M  V30 12 C 3.749248 2.545594 0.602236 0
M  V30 13 C 2.493875 1.955210 0.568966 0
M  V30 14 N 1.394927 2.737317 0.110583 0
M  V30 15 C 0.149986 2.323269 -0.191190 0
M  V30 16 C -0.650955 3.365155 -0.604215 0
M  V30 17 N -2.012069 3.366085 -1.010039 0
M  V30 18 C -2.830495 2.230047 -1.063855 0
M  V30 19 O -2.384552 1.105415 -0.742728 0
M  V30 20 N -4.182648 2.265854 -1.472863 0
M  V30 21 C -4.822033 0.994187 -1.450608 0
M  V30 22 C -5.428811 0.708399 -0.230620 0
M  V30 23 C -6.083873 -0.491636 -0.073985 0
M  V30 24 C -6.135573 -1.393128 -1.111773 0
M  V30 25 C -5.538342 -1.123970 -2.328361 0
M  V30 26 C -4.877878 0.085401 -2.487015 0
M  V30 27 F -4.261099 0.445868 -3.636023 0
M  V30 28 C 0.178113 4.456535 -0.539710 0
M  V30 29 N 1.376370 4.037767 -0.112517 0
M  V30 30 C 2.321519 0.658956 0.965993 0
M  V30 31 C 2.743529 -3.797112 3.837832 0
M  V30 32 N 2.075354 -4.941751 4.074337 0
M  V30 33 H 0.192644 -6.766675 3.978387 0
M  V30 34 H 1.676020 -7.689935 4.325360 0
M  V30 35 H 0.891552 -7.753423 2.683369 0
M  V30 36 H 2.270776 -6.576626 1.134764 0
M  V30 37 H 3.534580 -4.479747 0.588179 0
M  V30 38 H 4.981027 -2.102288 2.362237 0
M  V30 39 H 5.425554 -0.187874 1.810540 0
M  V30 40 H 5.812513 2.170945 1.101399 0
M  V30 41 H 3.921995 3.559315 0.298651 0
M  V30 42 H -0.150020 1.287868 -0.107379 0
M  V30 43 H -2.464457 4.249692 -1.292735 0
M  V30 44 H -4.624612 3.182744 -1.758041 0
M  V30 45 H -5.419674 1.389389 0.631818 0
M  V30 46 H -6.565760 -0.736532 0.871557 0
M  V30 47 H -6.647658 -2.347797 -1.010880 0
M  V30 48 H -5.572738 -1.819324 -3.143235 0
M  V30 49 H -0.046363 5.490846 -0.779656 0
M  V30 50 H 1.311014 0.274105 0.909343 0
M  V30 51 H 2.874894 -3.023655 4.590553 0
M  V30 END ATOM
M  V30 BEGIN BOND
M  V30 1 1 1 2
M  V30 2 2 2 3
M  V30 3 1 3 4
M  V30 4 2 4 5
M  V30 5 1 5 6
M  V30 6 1 6 7
M  V30 7 2 7 8
M  V30 8 1 7 9
M  V30 9 2 9 10
M  V30 10 1 10 11
M  V30 11 2 11 12
M  V30 12 1 12 13
M  V30 13 1 13 14
M  V30 14 1 14 15
M  V30 15 2 15 16
M  V30 16 1 16 17
M  V30 17 1 17 18
M  V30 18 2 18 19
M  V30 19 1 18 20
M  V30 20 1 20 21
M  V30 21 2 21 22
M  V30 22 1 22 23
M  V30 23 2 23 24
M  V30 24 1 24 25
M  V30 25 2 25 26
M  V30 26 1 26 27
M  V30 27 1 16 28
M  V30 28 2 28 29
M  V30 29 2 13 30
M  V30 30 1 5 31
M  V30 31 2 31 32
M  V30 32 1 32 2
M  V30 33 1 30 9
M  V30 34 1 29 14
M  V30 35 1 26 21
M  V30 36 1 1 33
M  V30 37 1 1 34
M  V30 38 1 1 35
M  V30 39 1 3 36
M  V30 40 1 4 37
M  V30 41 1 6 38
M  V30 42 1 10 39
M  V30 43 1 11 40
M  V30 44 1 12 41
M  V30 45 1 15 42
M  V30 46 1 17 43
M  V30 47 1 20 44
M  V30 48 1 22 45
M  V30 49 1 23 46
M  V30 50 1 24 47
M  V30 51 1 25 48
M  V30 52 1 28 49
M  V30 53 1 30 50
M  V30 54 1 31 51
M  V30 END BOND
M  V30 END CTAB
M  END
>  <Dataset>  (951) 
ChEMBL_Kinases

>  <Ligand_Instance>  (951) 
nan

>  <PDB_ID>  (951) 
nan

>  <Standardized_SMILES>  (951) 
Cc1ccc(NC(=O)c2cccc(-n3cc(NC(=O)Nc4ccccc4F)cn3)c2)cn1

>  <Name>  (951) 
nan

>  <Pocket>  (951) 
nan

>  <ATP_Site>  (951) 
nan

>  <Peripheral>  (951) 
nan

>  <Num_H_Atoms_ProtBoundConf>  (951) 
nan

>  <Num_Resolved_Atoms>  (951) 
nan

>  <Num_Not_Resolved_Atoms>  (951) 
nan

$$$$
CHEMBL3672499
     RDKit          3D

  0  0  0  0  0  0  0  0  0  0999 V3000
M  V30 BEGIN CTAB
M  V30 COUNTS 59 64 0 0 0
M  V30 BEGIN ATOM
M  V30 1 C 3.672306 -2.990657 3.538104 0
M  V30 2 O 3.267305 -2.658205 4.844502 0
M  V30 3 C 2.676568 -1.453162 5.186617 0
M  V30 4 C 2.305955 -1.208546 6.511307 0
M  V30 5 N 1.729175 -0.051320 6.887074 0
M  V30 6 C 1.465258 0.958279 6.016717 0
M  V30 7 C 1.828654 0.733078 4.685992 0
M  V30 8 C 1.524126 1.839204 3.799264 0
M  V30 9 C 1.778462 3.164554 4.084049 0
M  V30 10 N 1.347588 3.882419 3.004816 0
M  V30 11 C 0.847468 3.038379 2.089992 0
M  V30 12 C 0.269055 3.120718 0.817992 0
M  V30 13 C -0.125327 1.984808 0.190006 0
M  V30 14 C -0.735633 2.073484 -1.154465 0
M  V30 15 C -2.050073 1.633534 -1.285548 0
M  V30 16 C -2.575911 1.735738 -2.556133 0
M  V30 17 C -1.947514 2.218127 -3.684803 0
M  V30 18 C -0.629464 2.643893 -3.485807 0
M  V30 19 C -0.041118 2.569941 -2.241145 0
M  V30 20 C -0.009001 0.725862 0.695284 0
M  V30 21 C -0.411101 -0.531112 0.076770 0
M  V30 22 C 0.207031 -0.862612 -1.110244 0
M  V30 23 C -0.132807 -2.041528 -1.739397 0
M  V30 24 C -1.072560 -2.908912 -1.225896 0
M  V30 25 C -1.550632 -4.194102 -1.762334 0
M  V30 26 N -1.767059 -5.231958 -0.747593 0
M  V30 27 C -2.752470 -4.092246 -2.677661 0
M  V30 28 C -1.852218 -4.290060 -3.865495 0
M  V30 29 C -0.785369 -4.781764 -2.906622 0
M  V30 30 C -1.699367 -2.572718 -0.022204 0
M  V30 31 C -1.372100 -1.382766 0.634901 0
M  V30 32 N 0.557945 0.685007 1.934263 0
M  V30 33 N 0.947547 1.761989 2.563869 0
M  V30 34 C 2.420107 -0.445181 4.282618 0
M  V30 35 H 4.736891 -2.743351 3.347736 0
M  V30 36 H 3.016843 -2.528631 2.760756 0
M  V30 37 H 3.555185 -4.101124 3.438363 0
M  V30 38 H 2.483956 -1.970171 7.273300 0
M  V30 39 H 0.996846 1.878346 6.363488 0
M  V30 40 H 2.231513 3.598267 4.979073 0
M  V30 41 H 0.165470 4.090232 0.398025 0
M  V30 42 H -2.636454 1.237267 -0.468468 0
M  V30 43 H -3.613860 1.388150 -2.659087 0
M  V30 44 H -2.452203 2.254356 -4.633437 0
M  V30 45 H -0.075272 3.038041 -4.344289 0
M  V30 46 H 0.981221 2.898944 -2.081016 0
M  V30 47 H 0.944574 -0.292179 -1.616818 0
M  V30 48 H 0.302733 -2.365403 -2.662095 0
M  V30 49 H -1.591354 -4.896710 0.215804 0
M  V30 50 H -1.231873 -6.111172 -0.965013 0
M  V30 51 H -3.457036 -4.946401 -2.567196 0
M  V30 52 H -3.297835 -3.131868 -2.617879 0
M  V30 53 H -1.565351 -3.355302 -4.397084 0
M  V30 54 H -2.151258 -5.095449 -4.569113 0
M  V30 55 H 0.214680 -4.364473 -3.011183 0
M  V30 56 H -0.686272 -5.905880 -2.914013 0
M  V30 57 H -2.454423 -3.084739 0.564274 0
M  V30 58 H -1.764536 -1.004723 1.546325 0
M  V30 59 H 2.681855 -0.573129 3.250305 0
M  V30 END ATOM
M  V30 BEGIN BOND
M  V30 1 1 1 2
M  V30 2 1 2 3
M  V30 3 2 3 4
M  V30 4 1 4 5
M  V30 5 2 5 6
M  V30 6 1 6 7
M  V30 7 1 7 8
M  V30 8 2 8 9
M  V30 9 1 9 10
M  V30 10 2 10 11
M  V30 11 1 11 12
M  V30 12 2 12 13
M  V30 13 1 13 14
M  V30 14 2 14 15
M  V30 15 1 15 16
M  V30 16 2 16 17
M  V30 17 1 17 18
M  V30 18 2 18 19
M  V30 19 1 13 20
M  V30 20 1 20 21
M  V30 21 2 21 22
M  V30 22 1 22 23
M  V30 23 2 23 24
M  V30 24 1 24 25
M  V30 25 1 25 26
M  V30 26 1 25 27
M  V30 27 1 27 28
M  V30 28 1 28 29
M  V30 29 1 24 30
M  V30 30 2 30 31
M  V30 31 2 20 32
M  V30 32 1 32 33
M  V30 33 2 7 34
M  V30 34 1 34 3
M  V30 35 1 33 8
M  V30 36 1 33 11
M  V30 37 1 19 14
M  V30 38 1 31 21
M  V30 39 1 29 25
M  V30 40 1 1 35
M  V30 41 1 1 36
M  V30 42 1 1 37
M  V30 43 1 4 38
M  V30 44 1 6 39
M  V30 45 1 9 40
M  V30 46 1 12 41
M  V30 47 1 15 42
M  V30 48 1 16 43
M  V30 49 1 17 44
M  V30 50 1 18 45
M  V30 51 1 19 46
M  V30 52 1 22 47
M  V30 53 1 23 48
M  V30 54 1 26 49
M  V30 55 1 26 50
M  V30 56 1 27 51
M  V30 57 1 27 52
M  V30 58 1 28 53
M  V30 59 1 28 54
M  V30 60 1 29 55
M  V30 61 1 29 56
M  V30 62 1 30 57
M  V30 63 1 31 58
M  V30 64 1 34 59
M  V30 END BOND
M  V30 END CTAB
M  END
>  <Dataset>  (952) 
ChEMBL_Kinases

>  <Ligand_Instance>  (952) 
nan

>  <PDB_ID>  (952) 
nan

>  <Standardized_SMILES>  (952) 
COc1cncc(-c2cnc3cc(-c4ccccc4)c(-c4ccc(C5(N)CCC5)cc4)nn23)c1

>  <Name>  (952) 
nan

>  <Pocket>  (952) 
nan

>  <ATP_Site>  (952) 
nan

>  <Peripheral>  (952) 
nan

>  <Num_H_Atoms_ProtBoundConf>  (952) 
nan

>  <Num_Resolved_Atoms>  (952) 
nan

>  <Num_Not_Resolved_Atoms>  (952) 
nan

$$$$
CHEMBL3672498
     RDKit          3D

  0  0  0  0  0  0  0  0  0  0999 V3000
M  V30 BEGIN CTAB
M  V30 COUNTS 64 69 0 0 0
M  V30 BEGIN ATOM
M  V30 1 C 4.490328 -2.786220 1.998378 0
M  V30 2 C 5.586334 -1.818946 2.396971 0
M  V30 3 O 5.449101 -0.664695 1.564557 0
M  V30 4 C 4.275101 0.048484 1.609509 0
M  V30 5 O 3.320745 -0.285464 2.360629 0
M  V30 6 C 4.120397 1.227484 0.766603 0
M  V30 7 C 5.092417 1.706987 -0.106278 0
M  V30 8 N 4.876866 2.809365 -0.858668 0
M  V30 9 C 3.726779 3.507802 -0.816663 0
M  V30 10 C 2.701264 3.101636 0.026184 0
M  V30 11 C 1.398454 3.754084 0.181050 0
M  V30 12 C 1.006977 5.071895 0.321082 0
M  V30 13 N -0.344838 5.057339 0.423101 0
M  V30 14 C -0.796556 3.800312 0.352513 0
M  V30 15 C -2.104528 3.364082 0.415516 0
M  V30 16 C -2.303256 2.002095 0.316434 0
M  V30 17 C -3.586728 1.310549 0.355776 0
M  V30 18 C -3.657697 0.448896 1.457276 0
M  V30 19 C -4.774199 -0.326703 1.723805 0
M  V30 20 C -5.844710 -0.219136 0.842929 0
M  V30 21 C -5.784725 0.626981 -0.245423 0
M  V30 22 C -4.668721 1.395041 -0.502197 0
M  V30 23 C -1.220166 1.174508 0.164584 0
M  V30 24 C -1.205799 -0.279496 0.041343 0
M  V30 25 C -1.846588 -0.791664 -1.065758 0
M  V30 26 C -1.882156 -2.155677 -1.261713 0
M  V30 27 C -1.291926 -3.034094 -0.377803 0
M  V30 28 C -1.239554 -4.503066 -0.438757 0
M  V30 29 N 0.118324 -4.988068 -0.160301 0
M  V30 30 C -1.904749 -5.171357 -1.598728 0
M  V30 31 C -2.331621 -6.270567 -0.643312 0
M  V30 32 C -2.183617 -5.252183 0.476796 0
M  V30 33 C -0.653406 -2.509655 0.726850 0
M  V30 34 C -0.597330 -1.149656 0.956127 0
M  V30 35 N 0.020091 1.691874 0.113524 0
M  V30 36 N 0.267411 3.001027 0.204424 0
M  V30 37 C 2.961962 1.972713 0.776348 0
M  V30 38 H 4.236288 -2.608891 0.937975 0
M  V30 39 H 4.811774 -3.854330 2.103769 0
M  V30 40 H 3.620874 -2.583871 2.652934 0
M  V30 41 H 5.441235 -1.539473 3.471095 0
M  V30 42 H 6.593950 -2.263545 2.300748 0
M  V30 43 H 6.029909 1.161653 -0.159412 0
M  V30 44 H 3.524660 4.394085 -1.406733 0
M  V30 45 H 1.735498 5.870063 0.332036 0
M  V30 46 H -2.975036 3.964230 0.531930 0
M  V30 47 H -2.873218 0.293885 2.204596 0
M  V30 48 H -4.872483 -0.992844 2.545089 0
M  V30 49 H -6.746799 -0.812178 1.013727 0
M  V30 50 H -6.588448 0.746727 -0.959402 0
M  V30 51 H -4.493065 2.088047 -1.306250 0
M  V30 52 H -2.326508 -0.150911 -1.791837 0
M  V30 53 H -2.363155 -2.619589 -2.101042 0
M  V30 54 H 0.226963 -4.928248 0.878078 0
M  V30 55 H 0.802648 -4.341141 -0.610975 0
M  V30 56 H -1.196981 -5.499633 -2.380789 0
M  V30 57 H -2.743007 -4.617785 -2.030446 0
M  V30 58 H -3.365475 -6.587268 -0.833952 0
M  V30 59 H -1.570456 -7.069893 -0.614349 0
M  V30 60 H -3.087620 -4.703260 0.730402 0
M  V30 61 H -1.720973 -5.742061 1.355900 0
M  V30 62 H -0.133149 -3.030805 1.531935 0
M  V30 63 H -0.124973 -0.640843 1.784903 0
M  V30 64 H 2.178330 1.615992 1.457077 0
M  V30 END ATOM
M  V30 BEGIN BOND
M  V30 1 1 1 2
M  V30 2 1 2 3
M  V30 3 1 3 4
M  V30 4 2 4 5
M  V30 5 1 4 6
M  V30 6 2 6 7
M  V30 7 1 7 8
M  V30 8 2 8 9
M  V30 9 1 9 10
M  V30 10 1 10 11
M  V30 11 2 11 12
M  V30 12 1 12 13
M  V30 13 2 13 14
M  V30 14 1 14 15
M  V30 15 2 15 16
M  V30 16 1 16 17
M  V30 17 2 17 18
M  V30 18 1 18 19
M  V30 19 2 19 20
M  V30 20 1 20 21
M  V30 21 2 21 22
M  V30 22 1 16 23
M  V30 23 1 23 24
M  V30 24 2 24 25
M  V30 25 1 25 26
M  V30 26 2 26 27
M  V30 27 1 27 28
M  V30 28 1 28 29
M  V30 29 1 28 30
M  V30 30 1 30 31
M  V30 31 1 31 32
M  V30 32 1 27 33
M  V30 33 2 33 34
M  V30 34 2 23 35
M  V30 35 1 35 36
M  V30 36 2 10 37
M  V30 37 1 37 6
M  V30 38 1 36 11
M  V30 39 1 36 14
M  V30 40 1 22 17
M  V30 41 1 34 24
M  V30 42 1 32 28
M  V30 43 1 1 38
M  V30 44 1 1 39
M  V30 45 1 1 40
M  V30 46 1 2 41
M  V30 47 1 2 42
M  V30 48 1 7 43
M  V30 49 1 9 44
M  V30 50 1 12 45
M  V30 51 1 15 46
M  V30 52 1 18 47
M  V30 53 1 19 48
M  V30 54 1 20 49
M  V30 55 1 21 50
M  V30 56 1 22 51
M  V30 57 1 25 52
M  V30 58 1 26 53
M  V30 59 1 29 54
M  V30 60 1 29 55
M  V30 61 1 30 56
M  V30 62 1 30 57
M  V30 63 1 31 58
M  V30 64 1 31 59
M  V30 65 1 32 60
M  V30 66 1 32 61
M  V30 67 1 33 62
M  V30 68 1 34 63
M  V30 69 1 37 64
M  V30 END BOND
M  V30 END CTAB
M  END
>  <Dataset>  (953) 
ChEMBL_Kinases

>  <Ligand_Instance>  (953) 
nan

>  <PDB_ID>  (953) 
nan

>  <Standardized_SMILES>  (953) 
CCOC(=O)c1cncc(-c2cnc3cc(-c4ccccc4)c(-c4ccc(C5(N)CCC5)cc4)nn23)c1

>  <Name>  (953) 
nan

>  <Pocket>  (953) 
nan

>  <ATP_Site>  (953) 
nan

>  <Peripheral>  (953) 
nan

>  <Num_H_Atoms_ProtBoundConf>  (953) 
nan

>  <Num_Resolved_Atoms>  (953) 
nan

>  <Num_Not_Resolved_Atoms>  (953) 
nan

$$$$
CHEMBL3672497
     RDKit          3D

  0  0  0  0  0  0  0  0  0  0999 V3000
M  V30 BEGIN CTAB
M  V30 COUNTS 59 65 0 0 0
M  V30 BEGIN ATOM
M  V30 1 N 2.957442 -4.678090 2.521468 0
M  V30 2 C 3.321774 -3.388920 1.949647 0
M  V30 3 C 2.199040 -2.740125 1.279079 0
M  V30 4 C 2.088188 -2.069125 0.055549 0
M  V30 5 C 0.893351 -1.550787 -0.387157 0
M  V30 6 C -0.281387 -1.658054 0.350120 0
M  V30 7 C -1.421941 -1.035995 -0.290324 0
M  V30 8 N -1.334398 0.312897 -0.268396 0
M  V30 9 N -2.264782 1.126147 -0.786930 0
M  V30 10 C -2.373304 2.465813 -0.867233 0
M  V30 11 C -1.433302 3.463998 -0.369486 0
M  V30 12 C -1.027139 4.588487 -1.052980 0
M  V30 13 C -0.129046 5.499025 -0.527000 0
M  V30 14 C 0.366262 5.246659 0.738317 0
M  V30 15 C 1.269491 5.995528 1.480340 0
M  V30 16 N 1.407310 5.304345 2.632836 0
M  V30 17 N 0.649196 4.227854 2.589105 0
M  V30 18 C -0.039997 4.121561 1.422572 0
M  V30 19 C -0.932515 3.206789 0.912620 0
M  V30 20 C -3.556695 2.785061 -1.511433 0
M  V30 21 N -4.140346 1.593772 -1.807391 0
M  V30 22 C -3.371401 0.588339 -1.375601 0
M  V30 23 C -3.493038 -0.782868 -1.415667 0
M  V30 24 C -2.529300 -1.606692 -0.878376 0
M  V30 25 C -2.557851 -3.063020 -0.871095 0
M  V30 26 C -3.625508 -3.641172 -0.170389 0
M  V30 27 C -3.731079 -4.996198 -0.120714 0
M  V30 28 C -2.853397 -5.873660 -0.717320 0
M  V30 29 C -1.806749 -5.285900 -1.404255 0
M  V30 30 C -1.666509 -3.915753 -1.476597 0
M  V30 31 C -0.197234 -2.312897 1.555869 0
M  V30 32 C 1.000121 -2.832249 1.998755 0
M  V30 33 C 4.613875 -3.486209 1.180957 0
M  V30 34 C 5.221713 -2.433162 2.048967 0
M  V30 35 C 4.041029 -2.576705 2.990446 0
M  V30 36 H 2.314987 -5.205870 1.891052 0
M  V30 37 H 2.570265 -4.570869 3.486166 0
M  V30 38 H 3.001767 -2.005113 -0.472484 0
M  V30 39 H 0.962139 -1.055296 -1.363297 0
M  V30 40 H -1.483957 4.679430 -2.037840 0
M  V30 41 H 0.156826 6.369102 -1.108845 0
M  V30 42 H 1.760105 6.907203 1.234568 0
M  V30 43 H 0.614235 3.557030 3.388576 0
M  V30 44 H -1.202375 2.338000 1.523134 0
M  V30 45 H -3.919553 3.788590 -1.724639 0
M  V30 46 H -4.343884 -1.280654 -1.868032 0
M  V30 47 H -4.404613 -3.074129 0.355225 0
M  V30 48 H -4.558984 -5.467921 0.422664 0
M  V30 49 H -2.975806 -6.939917 -0.652180 0
M  V30 50 H -1.066679 -5.907325 -1.906991 0
M  V30 51 H -0.854049 -3.442683 -2.010268 0
M  V30 52 H -1.126681 -2.366652 2.083439 0
M  V30 53 H 0.889315 -3.311106 2.960137 0
M  V30 54 H 5.078980 -4.504936 1.219067 0
M  V30 55 H 4.499091 -3.163923 0.128662 0
M  V30 56 H 6.200629 -2.787488 2.448867 0
M  V30 57 H 5.293947 -1.459824 1.524781 0
M  V30 58 H 3.650998 -1.565672 3.210724 0
M  V30 59 H 4.350291 -3.143610 3.868759 0
M  V30 END ATOM
M  V30 BEGIN BOND
M  V30 1 1 1 2
M  V30 2 1 2 3
M  V30 3 2 3 4
M  V30 4 1 4 5
M  V30 5 2 5 6
M  V30 6 1 6 7
M  V30 7 2 7 8
M  V30 8 1 8 9
M  V30 9 1 9 10
M  V30 10 1 10 11
M  V30 11 2 11 12
M  V30 12 1 12 13
M  V30 13 2 13 14
M  V30 14 1 14 15
M  V30 15 2 15 16
M  V30 16 1 16 17
M  V30 17 1 17 18
M  V30 18 2 18 19
M  V30 19 2 10 20
M  V30 20 1 20 21
M  V30 21 2 21 22
M  V30 22 1 22 23
M  V30 23 2 23 24
M  V30 24 1 24 25
M  V30 25 2 25 26
M  V30 26 1 26 27
M  V30 27 2 27 28
M  V30 28 1 28 29
M  V30 29 2 29 30
M  V30 30 1 6 31
M  V30 31 2 31 32
M  V30 32 1 2 33
M  V30 33 1 33 34
M  V30 34 1 34 35
M  V30 35 1 35 2
M  V30 36 1 32 3
M  V30 37 1 24 7
M  V30 38 1 30 25
M  V30 39 1 22 9
M  V30 40 1 19 11
M  V30 41 1 18 14
M  V30 42 1 1 36
M  V30 43 1 1 37
M  V30 44 1 4 38
M  V30 45 1 5 39
M  V30 46 1 12 40
M  V30 47 1 13 41
M  V30 48 1 15 42
M  V30 49 1 17 43
M  V30 50 1 19 44
M  V30 51 1 20 45
M  V30 52 1 23 46
M  V30 53 1 26 47
M  V30 54 1 27 48
M  V30 55 1 28 49
M  V30 56 1 29 50
M  V30 57 1 30 51
M  V30 58 1 31 52
M  V30 59 1 32 53
M  V30 60 1 33 54
M  V30 61 1 33 55
M  V30 62 1 34 56
M  V30 63 1 34 57
M  V30 64 1 35 58
M  V30 65 1 35 59
M  V30 END BOND
M  V30 END CTAB
M  END
>  <Dataset>  (954) 
ChEMBL_Kinases

>  <Ligand_Instance>  (954) 
nan

>  <PDB_ID>  (954) 
nan

>  <Standardized_SMILES>  (954) 
NC1(c2ccc(-c3nn4c(-c5ccc6cn[nH]c6c5)cnc4cc3-c3ccccc3)cc2)CCC1

>  <Name>  (954) 
nan

>  <Pocket>  (954) 
nan

>  <ATP_Site>  (954) 
nan

>  <Peripheral>  (954) 
nan

>  <Num_H_Atoms_ProtBoundConf>  (954) 
nan

>  <Num_Resolved_Atoms>  (954) 
nan

>  <Num_Not_Resolved_Atoms>  (954) 
nan

$$$$
CHEMBL3672496
     RDKit          3D

  0  0  0  0  0  0  0  0  0  0999 V3000
M  V30 BEGIN CTAB
M  V30 COUNTS 53 58 0 0 0
M  V30 BEGIN ATOM
M  V30 1 N -2.481626 0.118535 4.828042 0
M  V30 2 C -3.033993 0.240915 3.495665 0
M  V30 3 C -2.051262 0.008864 2.416569 0
M  V30 4 C -1.821953 0.680287 1.228934 0
M  V30 5 C -0.826313 0.257833 0.383039 0
M  V30 6 C -0.022551 -0.830842 0.665670 0
M  V30 7 C 0.978427 -1.126396 -0.352603 0
M  V30 8 N 1.863027 -0.129520 -0.583104 0
M  V30 9 N 2.836309 -0.240309 -1.481267 0
M  V30 10 C 3.802441 0.621411 -1.854209 0
M  V30 11 C 4.018160 1.963960 -1.323790 0
M  V30 12 C 3.277035 2.605018 -0.342595 0
M  V30 13 C 3.901621 3.851750 -0.215750 0
M  V30 14 N 4.941524 3.949681 -1.060142 0
M  V30 15 N 4.993497 2.802655 -1.717146 0
M  V30 16 C 4.586700 0.049132 -2.835683 0
M  V30 17 N 4.051254 -1.189196 -3.034992 0
M  V30 18 C 3.001492 -1.348310 -2.215022 0
M  V30 19 C 2.120204 -2.404763 -2.019189 0
M  V30 20 C 1.107246 -2.289199 -1.084246 0
M  V30 21 C 0.129563 -3.327229 -0.793489 0
M  V30 22 C 0.781400 -4.474992 -0.327544 0
M  V30 23 C 0.052610 -5.616451 0.021578 0
M  V30 24 C -1.316925 -5.578091 -0.105843 0
M  V30 25 C -1.951164 -4.455004 -0.561507 0
M  V30 26 C -1.239236 -3.332037 -0.905397 0
M  V30 27 C -0.236443 -1.519992 1.854499 0
M  V30 28 C -1.237985 -1.093354 2.703126 0
M  V30 29 C -4.357488 -0.469289 3.300497 0
M  V30 30 C -4.865597 0.795539 2.606382 0
M  V30 31 C -3.780275 1.549432 3.378037 0
M  V30 32 H -2.577632 0.962648 5.405334 0
M  V30 33 H -2.662402 -0.784572 5.284901 0
M  V30 34 H -2.497373 1.507742 1.102625 0
M  V30 35 H -0.767981 0.889768 -0.514388 0
M  V30 36 H 2.420756 2.203131 0.181273 0
M  V30 37 H 3.478298 4.544387 0.519108 0
M  V30 38 H 5.740666 2.628480 -2.454484 0
M  V30 39 H 5.440182 0.504155 -3.328768 0
M  V30 40 H 2.194394 -3.330721 -2.577394 0
M  V30 41 H 1.854433 -4.620957 -0.186053 0
M  V30 42 H 0.510703 -6.525681 0.385802 0
M  V30 43 H -1.887659 -6.454118 0.161189 0
M  V30 44 H -3.013987 -4.388032 -0.673681 0
M  V30 45 H -1.607311 -2.384752 -1.275913 0
M  V30 46 H 0.412040 -2.346122 2.014774 0
M  V30 47 H -1.291903 -1.716384 3.583013 0
M  V30 48 H -4.364477 -1.307258 2.583749 0
M  V30 49 H -4.878352 -0.661182 4.256773 0
M  V30 50 H -4.769341 0.800231 1.520558 0
M  V30 51 H -5.875322 1.114778 2.915203 0
M  V30 52 H -3.352336 2.326964 2.747958 0
M  V30 53 H -4.139031 1.953473 4.347500 0
M  V30 END ATOM
M  V30 BEGIN BOND
M  V30 1 1 1 2
M  V30 2 1 2 3
M  V30 3 2 3 4
M  V30 4 1 4 5
M  V30 5 2 5 6
M  V30 6 1 6 7
M  V30 7 2 7 8
M  V30 8 1 8 9
M  V30 9 1 9 10
M  V30 10 1 10 11
M  V30 11 2 11 12
M  V30 12 1 12 13
M  V30 13 2 13 14
M  V30 14 1 14 15
M  V30 15 2 10 16
M  V30 16 1 16 17
M  V30 17 2 17 18
M  V30 18 1 18 19
M  V30 19 2 19 20
M  V30 20 1 20 21
M  V30 21 2 21 22
M  V30 22 1 22 23
M  V30 23 2 23 24
M  V30 24 1 24 25
M  V30 25 2 25 26
M  V30 26 1 6 27
M  V30 27 2 27 28
M  V30 28 1 2 29
M  V30 29 1 29 30
M  V30 30 1 30 31
M  V30 31 1 31 2
M  V30 32 1 28 3
M  V30 33 1 20 7
M  V30 34 1 26 21
M  V30 35 1 18 9
M  V30 36 1 15 11
M  V30 37 1 1 32
M  V30 38 1 1 33
M  V30 39 1 4 34
M  V30 40 1 5 35
M  V30 41 1 12 36
M  V30 42 1 13 37
M  V30 43 1 15 38
M  V30 44 1 16 39
M  V30 45 1 19 40
M  V30 46 1 22 41
M  V30 47 1 23 42
M  V30 48 1 24 43
M  V30 49 1 25 44
M  V30 50 1 26 45
M  V30 51 1 27 46
M  V30 52 1 28 47
M  V30 53 1 29 48
M  V30 54 1 29 49
M  V30 55 1 30 50
M  V30 56 1 30 51
M  V30 57 1 31 52
M  V30 58 1 31 53
M  V30 END BOND
M  V30 END CTAB
M  END
>  <Dataset>  (955) 
ChEMBL_Kinases

>  <Ligand_Instance>  (955) 
nan

>  <PDB_ID>  (955) 
nan

>  <Standardized_SMILES>  (955) 
NC1(c2ccc(-c3nn4c(-c5ccn[nH]5)cnc4cc3-c3ccccc3)cc2)CCC1

>  <Name>  (955) 
nan

>  <Pocket>  (955) 
nan

>  <ATP_Site>  (955) 
nan

>  <Peripheral>  (955) 
nan

>  <Num_H_Atoms_ProtBoundConf>  (955) 
nan

>  <Num_Resolved_Atoms>  (955) 
nan

>  <Num_Not_Resolved_Atoms>  (955) 
nan

$$$$
CHEMBL3672495
     RDKit          3D

  0  0  0  0  0  0  0  0  0  0999 V3000
M  V30 BEGIN CTAB
M  V30 COUNTS 61 66 0 0 0
M  V30 BEGIN ATOM
M  V30 1 C 7.665648 -2.121750 5.082797 0
M  V30 2 O 6.631506 -1.319904 4.612544 0
M  V30 3 C 6.065763 -1.329736 3.368163 0
M  V30 4 O 6.699064 -2.226794 2.760980 0
M  V30 5 C 4.982068 -0.469881 2.919557 0
M  V30 6 C 4.492967 -0.573988 1.635223 0
M  V30 7 C 3.450447 0.311912 1.331210 0
M  V30 8 C 2.985587 1.203716 2.286730 0
M  V30 9 C 1.902698 2.152217 2.031184 0
M  V30 10 C 1.924310 3.492742 2.398924 0
M  V30 11 N 0.770879 4.056530 2.007828 0
M  V30 12 C 0.029114 3.095778 1.403293 0
M  V30 13 C -1.218184 3.071440 0.811473 0
M  V30 14 C -1.753862 1.935950 0.257355 0
M  V30 15 C -3.043665 1.826987 -0.377013 0
M  V30 16 C -4.130548 1.053418 -0.004651 0
M  V30 17 C -5.298310 1.084696 -0.750363 0
M  V30 18 C -5.364614 1.901321 -1.875236 0
M  V30 19 C -4.302278 2.681107 -2.270770 0
M  V30 20 C -3.137563 2.632380 -1.503809 0
M  V30 21 C -1.011678 0.773127 0.295623 0
M  V30 22 C -1.377359 -0.513937 -0.219024 0
M  V30 23 C -1.469805 -1.554576 0.713259 0
M  V30 24 C -1.818426 -2.862247 0.339864 0
M  V30 25 C -2.081024 -3.126811 -1.011922 0
M  V30 26 C -2.434651 -4.525197 -1.277302 0
M  V30 27 N -3.356483 -5.143546 -0.345248 0
M  V30 28 C -2.729146 -4.908414 -2.702262 0
M  V30 29 C -1.233609 -5.127882 -2.884132 0
M  V30 30 C -1.213202 -5.447067 -1.387367 0
M  V30 31 C -1.994591 -2.109105 -1.949635 0
M  V30 32 C -1.648055 -0.840763 -1.531741 0
M  V30 33 N 0.214335 0.813924 0.881773 0
M  V30 34 N 0.717180 1.919914 1.412678 0
M  V30 35 C 3.523066 1.261502 3.573675 0
M  V30 36 N 4.527919 0.397002 3.843610 0
M  V30 37 H 8.648783 -1.617378 5.078292 0
M  V30 38 H 7.768781 -3.096709 4.567403 0
M  V30 39 H 7.472626 -2.371718 6.162636 0
M  V30 40 H 4.874268 -1.277177 0.913132 0
M  V30 41 H 2.999997 0.309149 0.353692 0
M  V30 42 H 2.715541 4.041723 2.916769 0
M  V30 43 H -1.808095 3.968209 0.773268 0
M  V30 44 H -3.965074 0.463537 0.879052 0
M  V30 45 H -6.127532 0.454031 -0.412636 0
M  V30 46 H -6.302851 1.872425 -2.402194 0
M  V30 47 H -4.398770 3.302453 -3.154183 0
M  V30 48 H -2.355416 3.281572 -1.894796 0
M  V30 49 H -1.270660 -1.382721 1.781531 0
M  V30 50 H -1.867933 -3.614403 1.127053 0
M  V30 51 H -2.842427 -5.712078 0.360422 0
M  V30 52 H -4.162999 -5.613455 -0.777086 0
M  V30 53 H -3.100668 -4.142151 -3.379856 0
M  V30 54 H -3.272713 -5.882279 -2.735156 0
M  V30 55 H -0.966842 -5.981941 -3.526928 0
M  V30 56 H -0.676460 -4.209444 -3.126564 0
M  V30 57 H -1.390235 -6.498961 -1.149256 0
M  V30 58 H -0.355173 -4.950765 -0.918231 0
M  V30 59 H -2.202267 -2.362691 -2.954835 0
M  V30 60 H -1.578666 -0.050512 -2.243810 0
M  V30 61 H 3.171468 1.946607 4.320445 0
M  V30 END ATOM
M  V30 BEGIN BOND
M  V30 1 1 1 2
M  V30 2 1 2 3
M  V30 3 2 3 4
M  V30 4 1 3 5
M  V30 5 2 5 6
M  V30 6 1 6 7
M  V30 7 2 7 8
M  V30 8 1 8 9
M  V30 9 2 9 10
M  V30 10 1 10 11
M  V30 11 2 11 12
M  V30 12 1 12 13
M  V30 13 2 13 14
M  V30 14 1 14 15
M  V30 15 2 15 16
M  V30 16 1 16 17
M  V30 17 2 17 18
M  V30 18 1 18 19
M  V30 19 2 19 20
M  V30 20 1 14 21
M  V30 21 1 21 22
M  V30 22 2 22 23
M  V30 23 1 23 24
M  V30 24 2 24 25
M  V30 25 1 25 26
M  V30 26 1 26 27
M  V30 27 1 26 28
M  V30 28 1 28 29
M  V30 29 1 29 30
M  V30 30 1 25 31
M  V30 31 2 31 32
M  V30 32 2 21 33
M  V30 33 1 33 34
M  V30 34 1 8 35
M  V30 35 2 35 36
M  V30 36 1 36 5
M  V30 37 1 34 9
M  V30 38 1 34 12
M  V30 39 1 20 15
M  V30 40 1 32 22
M  V30 41 1 30 26
M  V30 42 1 1 37
M  V30 43 1 1 38
M  V30 44 1 1 39
M  V30 45 1 6 40
M  V30 46 1 7 41
M  V30 47 1 10 42
M  V30 48 1 13 43
M  V30 49 1 16 44
M  V30 50 1 17 45
M  V30 51 1 18 46
M  V30 52 1 19 47
M  V30 53 1 20 48
M  V30 54 1 23 49
M  V30 55 1 24 50
M  V30 56 1 27 51
M  V30 57 1 27 52
M  V30 58 1 28 53
M  V30 59 1 28 54
M  V30 60 1 29 55
M  V30 61 1 29 56
M  V30 62 1 30 57
M  V30 63 1 30 58
M  V30 64 1 31 59
M  V30 65 1 32 60
M  V30 66 1 35 61
M  V30 END BOND
M  V30 END CTAB
M  END
>  <Dataset>  (956) 
ChEMBL_Kinases

>  <Ligand_Instance>  (956) 
nan

>  <PDB_ID>  (956) 
nan

>  <Standardized_SMILES>  (956) 
COC(=O)c1ccc(-c2cnc3cc(-c4ccccc4)c(-c4ccc(C5(N)CCC5)cc4)nn23)cn1

>  <Name>  (956) 
nan

>  <Pocket>  (956) 
nan

>  <ATP_Site>  (956) 
nan

>  <Peripheral>  (956) 
nan

>  <Num_H_Atoms_ProtBoundConf>  (956) 
nan

>  <Num_Resolved_Atoms>  (956) 
nan

>  <Num_Not_Resolved_Atoms>  (956) 
nan

$$$$
CHEMBL4129843
     RDKit          3D

  0  0  0  0  0  0  0  0  0  0999 V3000
M  V30 BEGIN CTAB
M  V30 COUNTS 46 49 0 0 0
M  V30 BEGIN ATOM
M  V30 1 N -0.723081 -4.993466 2.978509 0
M  V30 2 C 0.646389 -4.676583 3.166687 0
M  V30 3 O 1.234982 -5.358976 4.057666 0
M  V30 4 C 1.251753 -3.631023 2.357115 0
M  V30 5 C 2.545135 -3.139610 2.539453 0
M  V30 6 C 3.082358 -2.135014 1.755738 0
M  V30 7 C 2.349358 -1.581173 0.757177 0
M  V30 8 C 2.762166 -0.498774 -0.147186 0
M  V30 9 C 3.973716 0.145467 -0.118564 0
M  V30 10 C 4.240013 1.171852 -1.002801 0
M  V30 11 N 3.288528 1.517310 -1.883231 0
M  V30 12 C 2.098670 0.923617 -1.950430 0
M  V30 13 N 0.945468 1.159553 -2.796111 0
M  V30 14 C -0.343948 1.210902 -2.191745 0
M  V30 15 C -0.597573 1.069589 -0.846630 0
M  V30 16 C -1.810763 1.089661 -0.157138 0
M  V30 17 C -1.796595 0.904112 1.280920 0
M  V30 18 C -2.756263 0.291203 2.031618 0
M  V30 19 C -2.707729 0.138952 3.398558 0
M  V30 20 C -1.614507 0.635595 4.084436 0
M  V30 21 C -0.620799 1.259137 3.385167 0
M  V30 22 C -0.731765 1.378500 2.021271 0
M  V30 23 C -2.914573 1.284629 -0.963089 0
M  V30 24 C -2.769397 1.442284 -2.346823 0
M  V30 25 C -1.514609 1.405952 -2.937564 0
M  V30 26 F -1.390326 1.565106 -4.289326 0
M  V30 27 N 1.920044 -0.049414 -1.073210 0
M  V30 28 C 1.068203 -2.073965 0.580260 0
M  V30 29 C 0.504456 -3.069573 1.340389 0
M  V30 30 H -1.310978 -4.919076 3.857134 0
M  V30 31 H -1.590127 -5.272404 2.494247 0
M  V30 32 H 3.043397 -3.628399 3.338250 0
M  V30 33 H 4.073933 -1.774511 1.912669 0
M  V30 34 H 4.712931 -0.169941 0.606836 0
M  V30 35 H 5.166628 1.720284 -1.038160 0
M  V30 36 H 0.932438 1.299295 -3.841265 0
M  V30 37 H 0.237508 0.931704 -0.164476 0
M  V30 38 H -3.617710 -0.106286 1.477813 0
M  V30 39 H -3.521291 -0.374111 3.942206 0
M  V30 40 H -1.549677 0.526425 5.171650 0
M  V30 41 H 0.197745 1.622804 3.966449 0
M  V30 42 H 0.131731 1.903531 1.591131 0
M  V30 43 H -3.873887 1.312829 -0.473536 0
M  V30 44 H -3.668687 1.600030 -2.934273 0
M  V30 45 H 0.414216 -1.687591 -0.204252 0
M  V30 46 H -0.509184 -3.416902 1.154361 0
M  V30 END ATOM
M  V30 BEGIN BOND
M  V30 1 1 1 2
M  V30 2 2 2 3
M  V30 3 1 2 4
M  V30 4 2 4 5
M  V30 5 1 5 6
M  V30 6 2 6 7
M  V30 7 1 7 8
M  V30 8 2 8 9
M  V30 9 1 9 10
M  V30 10 2 10 11
M  V30 11 1 11 12
M  V30 12 1 12 13
M  V30 13 1 13 14
M  V30 14 2 14 15
M  V30 15 1 15 16
M  V30 16 1 16 17
M  V30 17 2 17 18
M  V30 18 1 18 19
M  V30 19 2 19 20
M  V30 20 1 20 21
M  V30 21 2 21 22
M  V30 22 2 16 23
M  V30 23 1 23 24
M  V30 24 2 24 25
M  V30 25 1 25 26
M  V30 26 2 12 27
M  V30 27 1 7 28
M  V30 28 2 28 29
M  V30 29 1 29 4
M  V30 30 1 27 8
M  V30 31 1 25 14
M  V30 32 1 22 17
M  V30 33 1 1 30
M  V30 34 1 1 31
M  V30 35 1 5 32
M  V30 36 1 6 33
M  V30 37 1 9 34
M  V30 38 1 10 35
M  V30 39 1 13 36
M  V30 40 1 15 37
M  V30 41 1 18 38
M  V30 42 1 19 39
M  V30 43 1 20 40
M  V30 44 1 21 41
M  V30 45 1 22 42
M  V30 46 1 23 43
M  V30 47 1 24 44
M  V30 48 1 28 45
M  V30 49 1 29 46
M  V30 END BOND
M  V30 END CTAB
M  END
>  <Dataset>  (957) 
ChEMBL_Kinases

>  <Ligand_Instance>  (957) 
nan

>  <PDB_ID>  (957) 
nan

>  <Standardized_SMILES>  (957) 
NC(=O)c1ccc(-c2ccnc(Nc3cc(-c4ccccc4)ccc3F)n2)cc1

>  <Name>  (957) 
nan

>  <Pocket>  (957) 
nan

>  <ATP_Site>  (957) 
nan

>  <Peripheral>  (957) 
nan

>  <Num_H_Atoms_ProtBoundConf>  (957) 
nan

>  <Num_Resolved_Atoms>  (957) 
nan

>  <Num_Not_Resolved_Atoms>  (957) 
nan

$$$$
CHEMBL3672494
     RDKit          3D

  0  0  0  0  0  0  0  0  0  0999 V3000
M  V30 BEGIN CTAB
M  V30 COUNTS 56 61 0 0 0
M  V30 BEGIN ATOM
M  V30 1 N 0.425412 -1.649643 -4.387084 0
M  V30 2 C 0.661089 -2.707787 -3.389472 0
M  V30 3 C 0.427113 -2.229907 -2.008954 0
M  V30 4 C 1.084395 -2.459629 -0.821243 0
M  V30 5 C 0.683623 -1.887210 0.365279 0
M  V30 6 C -0.408676 -1.046619 0.418360 0
M  V30 7 C -0.837668 -0.429447 1.666689 0
M  V30 8 N -0.198161 0.757433 1.896267 0
M  V30 9 N -0.470167 1.460528 2.998217 0
M  V30 10 C 0.044339 2.645375 3.414273 0
M  V30 11 C 1.054841 3.421457 2.690937 0
M  V30 12 C 1.035819 4.785505 2.466392 0
M  V30 13 C 2.101012 5.347888 1.750957 0
M  V30 14 C 3.130113 4.553499 1.290808 0
M  V30 15 O 4.180063 5.121470 0.583279 0
M  V30 16 N 3.137731 3.209095 1.518400 0
M  V30 17 C 2.112665 2.637914 2.212191 0
M  V30 18 C -0.529589 2.990991 4.609766 0
M  V30 19 N -1.389727 1.997110 4.897248 0
M  V30 20 C -1.368623 1.061627 3.935241 0
M  V30 21 C -2.024209 -0.126159 3.728550 0
M  V30 22 C -1.744560 -0.853107 2.591885 0
M  V30 23 C -2.378081 -2.107759 2.294665 0
M  V30 24 C -3.584512 -2.372464 1.680823 0
M  V30 25 C -4.005228 -3.694399 1.499985 0
M  V30 26 C -3.218487 -4.728984 1.933069 0
M  V30 27 C -1.992431 -4.504465 2.558091 0
M  V30 28 C -1.596490 -3.176476 2.725771 0
M  V30 29 C -1.103605 -0.786180 -0.758795 0
M  V30 30 C -0.683209 -1.371604 -1.936509 0
M  V30 31 C -0.000777 -3.995053 -3.794104 0
M  V30 32 C 1.296676 -4.328625 -4.543263 0
M  V30 33 C 1.995486 -3.366845 -3.570363 0
M  V30 34 H 0.702687 -0.725143 -3.964333 0
M  V30 35 H -0.595277 -1.663006 -4.609062 0
M  V30 36 H 1.923282 -3.126247 -0.950608 0
M  V30 37 H 1.265130 -2.128628 1.244072 0
M  V30 38 H 0.186694 5.320746 2.867088 0
M  V30 39 H 2.057488 6.431264 1.588588 0
M  V30 40 H 5.107544 5.254561 0.982701 0
M  V30 41 H 2.172863 1.566634 2.363232 0
M  V30 42 H -0.367168 3.862491 5.235888 0
M  V30 43 H -2.740114 -0.494501 4.425401 0
M  V30 44 H -4.109315 -1.492954 1.387678 0
M  V30 45 H -4.975465 -3.829918 1.004783 0
M  V30 46 H -3.602913 -5.741800 1.762133 0
M  V30 47 H -1.418124 -5.353940 2.877116 0
M  V30 48 H -0.632638 -3.117394 3.221091 0
M  V30 49 H -1.945213 -0.129877 -0.679074 0
M  V30 50 H -1.309884 -1.088472 -2.783037 0
M  V30 51 H -0.817912 -3.904744 -4.538183 0
M  V30 52 H -0.221099 -4.721677 -2.995386 0
M  V30 53 H 1.362367 -3.920500 -5.556817 0
M  V30 54 H 1.630495 -5.377449 -4.443140 0
M  V30 55 H 2.699677 -2.665951 -4.102619 0
M  V30 56 H 2.414220 -3.926889 -2.732027 0
M  V30 END ATOM
M  V30 BEGIN BOND
M  V30 1 1 1 2
M  V30 2 1 2 3
M  V30 3 2 3 4
M  V30 4 1 4 5
M  V30 5 2 5 6
M  V30 6 1 6 7
M  V30 7 2 7 8
M  V30 8 1 8 9
M  V30 9 1 9 10
M  V30 10 1 10 11
M  V30 11 2 11 12
M  V30 12 1 12 13
M  V30 13 2 13 14
M  V30 14 1 14 15
M  V30 15 1 14 16
M  V30 16 2 16 17
M  V30 17 2 10 18
M  V30 18 1 18 19
M  V30 19 2 19 20
M  V30 20 1 20 21
M  V30 21 2 21 22
M  V30 22 1 22 23
M  V30 23 2 23 24
M  V30 24 1 24 25
M  V30 25 2 25 26
M  V30 26 1 26 27
M  V30 27 2 27 28
M  V30 28 1 6 29
M  V30 29 2 29 30
M  V30 30 1 2 31
M  V30 31 1 31 32
M  V30 32 1 32 33
M  V30 33 1 33 2
M  V30 34 1 30 3
M  V30 35 1 22 7
M  V30 36 1 28 23
M  V30 37 1 20 9
M  V30 38 1 17 11
M  V30 39 1 1 34
M  V30 40 1 1 35
M  V30 41 1 4 36
M  V30 42 1 5 37
M  V30 43 1 12 38
M  V30 44 1 13 39
M  V30 45 1 15 40
M  V30 46 1 17 41
M  V30 47 1 18 42
M  V30 48 1 21 43
M  V30 49 1 24 44
M  V30 50 1 25 45
M  V30 51 1 26 46
M  V30 52 1 27 47
M  V30 53 1 28 48
M  V30 54 1 29 49
M  V30 55 1 30 50
M  V30 56 1 31 51
M  V30 57 1 31 52
M  V30 58 1 32 53
M  V30 59 1 32 54
M  V30 60 1 33 55
M  V30 61 1 33 56
M  V30 END BOND
M  V30 END CTAB
M  END
>  <Dataset>  (958) 
ChEMBL_Kinases

>  <Ligand_Instance>  (958) 
nan

>  <PDB_ID>  (958) 
nan

>  <Standardized_SMILES>  (958) 
NC1(c2ccc(-c3nn4c(-c5ccc(O)nc5)cnc4cc3-c3ccccc3)cc2)CCC1

>  <Name>  (958) 
nan

>  <Pocket>  (958) 
nan

>  <ATP_Site>  (958) 
nan

>  <Peripheral>  (958) 
nan

>  <Num_H_Atoms_ProtBoundConf>  (958) 
nan

>  <Num_Resolved_Atoms>  (958) 
nan

>  <Num_Not_Resolved_Atoms>  (958) 
nan

$$$$
CHEMBL3672493
     RDKit          3D

  0  0  0  0  0  0  0  0  0  0999 V3000
M  V30 BEGIN CTAB
M  V30 COUNTS 53 58 0 0 0
M  V30 BEGIN ATOM
M  V30 1 N -3.381393 0.531252 3.927065 0
M  V30 2 C -3.689758 0.025342 2.602700 0
M  V30 3 C -2.495202 -0.138801 1.744963 0
M  V30 4 C -1.523559 -0.838431 2.474861 0
M  V30 5 C -0.281194 -1.136885 1.900830 0
M  V30 6 C -0.031700 -0.728921 0.602805 0
M  V30 7 C 1.264626 -1.030181 -0.020755 0
M  V30 8 N 1.937961 0.109840 -0.343594 0
M  V30 9 N 3.134845 0.063414 -0.919924 0
M  V30 10 C 4.003471 1.031439 -1.337215 0
M  V30 11 C 3.671678 2.454388 -1.175776 0
M  V30 12 C 2.548912 3.058543 -0.634258 0
M  V30 13 N 2.711135 4.393062 -0.710945 0
M  V30 14 N 3.881122 4.678684 -1.274213 0
M  V30 15 C 4.482634 3.507478 -1.565266 0
M  V30 16 C 5.113862 0.403787 -1.872730 0
M  V30 17 N 4.894606 -0.916176 -1.768643 0
M  V30 18 C 3.696697 -1.126155 -1.191926 0
M  V30 19 C 3.060595 -2.306947 -0.887078 0
M  V30 20 C 1.821336 -2.240188 -0.290266 0
M  V30 21 C 0.980351 -3.371130 0.113953 0
M  V30 22 C 1.397699 -4.294784 1.052324 0
M  V30 23 C 0.550565 -5.333490 1.382126 0
M  V30 24 C -0.703355 -5.436044 0.769860 0
M  V30 25 C -1.096880 -4.498532 -0.166048 0
M  V30 26 C -0.254259 -3.456720 -0.500834 0
M  V30 27 C -0.998776 -0.034933 -0.117366 0
M  V30 28 C -2.203860 0.240207 0.475327 0
M  V30 29 C -4.855691 0.769271 2.021503 0
M  V30 30 C -5.546041 -0.534133 1.677830 0
M  V30 31 C -4.580859 -1.199795 2.666276 0
M  V30 32 H -2.796520 1.369639 3.889694 0
M  V30 33 H -3.052214 -0.212921 4.572627 0
M  V30 34 H -1.569085 -1.226744 3.505449 0
M  V30 35 H 0.512904 -1.671423 2.402307 0
M  V30 36 H 1.713515 2.501852 -0.232631 0
M  V30 37 H 4.298271 5.619190 -1.474252 0
M  V30 38 H 5.458895 3.404290 -2.035611 0
M  V30 39 H 5.953253 0.950599 -2.276385 0
M  V30 40 H 3.435319 -3.298092 -1.068826 0
M  V30 41 H 2.376072 -4.199798 1.518010 0
M  V30 42 H 0.903286 -6.056470 2.131274 0
M  V30 43 H -1.289719 -6.294419 1.104712 0
M  V30 44 H -2.086607 -4.647772 -0.597078 0
M  V30 45 H -0.651657 -2.776394 -1.241351 0
M  V30 46 H -0.840168 0.294065 -1.117640 0
M  V30 47 H -3.004168 0.761288 0.009649 0
M  V30 48 H -4.589077 1.323015 1.112928 0
M  V30 49 H -5.437171 1.379158 2.756814 0
M  V30 50 H -5.447139 -0.866306 0.632980 0
M  V30 51 H -6.606982 -0.562815 1.981475 0
M  V30 52 H -5.100082 -1.366981 3.630958 0
M  V30 53 H -4.104429 -2.081405 2.226917 0
M  V30 END ATOM
M  V30 BEGIN BOND
M  V30 1 1 1 2
M  V30 2 1 2 3
M  V30 3 2 3 4
M  V30 4 1 4 5
M  V30 5 2 5 6
M  V30 6 1 6 7
M  V30 7 2 7 8
M  V30 8 1 8 9
M  V30 9 1 9 10
M  V30 10 1 10 11
M  V30 11 1 11 12
M  V30 12 2 12 13
M  V30 13 1 13 14
M  V30 14 1 14 15
M  V30 15 2 10 16
M  V30 16 1 16 17
M  V30 17 2 17 18
M  V30 18 1 18 19
M  V30 19 2 19 20
M  V30 20 1 20 21
M  V30 21 2 21 22
M  V30 22 1 22 23
M  V30 23 2 23 24
M  V30 24 1 24 25
M  V30 25 2 25 26
M  V30 26 1 6 27
M  V30 27 2 27 28
M  V30 28 1 2 29
M  V30 29 1 29 30
M  V30 30 1 30 31
M  V30 31 1 31 2
M  V30 32 1 28 3
M  V30 33 1 20 7
M  V30 34 1 26 21
M  V30 35 1 18 9
M  V30 36 2 15 11
M  V30 37 1 1 32
M  V30 38 1 1 33
M  V30 39 1 4 34
M  V30 40 1 5 35
M  V30 41 1 12 36
M  V30 42 1 14 37
M  V30 43 1 15 38
M  V30 44 1 16 39
M  V30 45 1 19 40
M  V30 46 1 22 41
M  V30 47 1 23 42
M  V30 48 1 24 43
M  V30 49 1 25 44
M  V30 50 1 26 45
M  V30 51 1 27 46
M  V30 52 1 28 47
M  V30 53 1 29 48
M  V30 54 1 29 49
M  V30 55 1 30 50
M  V30 56 1 30 51
M  V30 57 1 31 52
M  V30 58 1 31 53
M  V30 END BOND
M  V30 END CTAB
M  END
>  <Dataset>  (959) 
ChEMBL_Kinases

>  <Ligand_Instance>  (959) 
nan

>  <PDB_ID>  (959) 
nan

>  <Standardized_SMILES>  (959) 
NC1(c2ccc(-c3nn4c(-c5cn[nH]c5)cnc4cc3-c3ccccc3)cc2)CCC1

>  <Name>  (959) 
nan

>  <Pocket>  (959) 
nan

>  <ATP_Site>  (959) 
nan

>  <Peripheral>  (959) 
nan

>  <Num_H_Atoms_ProtBoundConf>  (959) 
nan

>  <Num_Resolved_Atoms>  (959) 
nan

>  <Num_Not_Resolved_Atoms>  (959) 
nan

$$$$
CHEMBL3672492
     RDKit          3D

  0  0  0  0  0  0  0  0  0  0999 V3000
M  V30 BEGIN CTAB
M  V30 COUNTS 60 65 0 0 0
M  V30 BEGIN ATOM
M  V30 1 N 4.180783 -1.607663 -1.083917 0
M  V30 2 C 4.876697 -1.338900 0.111140 0
M  V30 3 O 5.797334 -2.190907 0.203991 0
M  V30 4 C 4.691558 -0.320043 1.136861 0
M  V30 5 C 5.590491 -0.380633 2.179472 0
M  V30 6 C 5.444542 0.577410 3.179516 0
M  V30 7 C 4.447038 1.520659 3.102769 0
M  V30 8 C 3.568517 1.545460 2.041389 0
M  V30 9 C 2.477837 2.534142 1.906392 0
M  V30 10 C 2.424348 3.895786 2.084134 0
M  V30 11 N 1.149155 4.301951 1.820308 0
M  V30 12 C 0.421654 3.221073 1.485499 0
M  V30 13 C -0.906406 3.149282 1.141379 0
M  V30 14 C -1.419017 1.902151 0.837328 0
M  V30 15 C -2.791951 1.595466 0.448191 0
M  V30 16 C -3.516612 0.758193 1.299358 0
M  V30 17 C -4.828782 0.443167 0.961918 0
M  V30 18 C -5.393647 0.955958 -0.197733 0
M  V30 19 C -4.682840 1.793110 -1.057535 0
M  V30 20 C -3.385223 2.088669 -0.698706 0
M  V30 21 C -0.590460 0.804391 0.891577 0
M  V30 22 C -0.901024 -0.595370 0.616693 0
M  V30 23 C -1.301392 -0.868662 -0.674833 0
M  V30 24 C -1.632793 -2.136758 -1.106931 0
M  V30 25 C -1.570717 -3.212568 -0.222495 0
M  V30 26 C -1.894761 -4.611206 -0.545645 0
M  V30 27 N -2.784792 -5.260255 0.398586 0
M  V30 28 C -2.325870 -4.897185 -1.939801 0
M  V30 29 C -0.854081 -5.103496 -2.285514 0
M  V30 30 C -0.619429 -5.393291 -0.817389 0
M  V30 31 C -1.171481 -2.925841 1.056433 0
M  V30 32 C -0.838840 -1.659200 1.493388 0
M  V30 33 N 0.697881 0.982024 1.240580 0
M  V30 34 N 1.219592 2.159523 1.537181 0
M  V30 35 C 3.675579 0.602993 1.012287 0
M  V30 36 H 3.282476 -2.109893 -0.920941 0
M  V30 37 H 4.573070 -1.311790 -1.994001 0
M  V30 38 H 6.378381 -1.116487 2.251212 0
M  V30 39 H 6.132917 0.557478 4.010573 0
M  V30 40 H 4.314179 2.280946 3.874708 0
M  V30 41 H 3.301498 4.437670 2.381072 0
M  V30 42 H -1.592401 3.963367 1.082959 0
M  V30 43 H -3.146307 0.320969 2.217525 0
M  V30 44 H -5.408744 -0.207199 1.611977 0
M  V30 45 H -6.400869 0.722954 -0.470565 0
M  V30 46 H -5.108282 2.202810 -1.967787 0
M  V30 47 H -2.819314 2.732354 -1.347617 0
M  V30 48 H -1.382487 -0.106826 -1.436654 0
M  V30 49 H -1.944237 -2.352896 -2.108333 0
M  V30 50 H -3.410638 -5.952857 -0.069515 0
M  V30 51 H -2.339672 -5.604761 1.253990 0
M  V30 52 H -2.846841 -5.881542 -2.015836 0
M  V30 53 H -2.848895 -4.133938 -2.514755 0
M  V30 54 H -0.334473 -4.181247 -2.619317 0
M  V30 55 H -0.660347 -5.985204 -2.946233 0
M  V30 56 H -0.709031 -6.497182 -0.649506 0
M  V30 57 H 0.289768 -4.932530 -0.380071 0
M  V30 58 H -1.097065 -3.709577 1.806292 0
M  V30 59 H -0.520799 -1.403136 2.495436 0
M  V30 60 H 3.001902 0.594124 0.164384 0
M  V30 END ATOM
M  V30 BEGIN BOND
M  V30 1 1 1 2
M  V30 2 2 2 3
M  V30 3 1 2 4
M  V30 4 2 4 5
M  V30 5 1 5 6
M  V30 6 2 6 7
M  V30 7 1 7 8
M  V30 8 1 8 9
M  V30 9 2 9 10
M  V30 10 1 10 11
M  V30 11 2 11 12
M  V30 12 1 12 13
M  V30 13 2 13 14
M  V30 14 1 14 15
M  V30 15 2 15 16
M  V30 16 1 16 17
M  V30 17 2 17 18
M  V30 18 1 18 19
M  V30 19 2 19 20
M  V30 20 1 14 21
M  V30 21 1 21 22
M  V30 22 2 22 23
M  V30 23 1 23 24
M  V30 24 2 24 25
M  V30 25 1 25 26
M  V30 26 1 26 27
M  V30 27 1 26 28
M  V30 28 1 28 29
M  V30 29 1 29 30
M  V30 30 1 25 31
M  V30 31 2 31 32
M  V30 32 2 21 33
M  V30 33 1 33 34
M  V30 34 2 8 35
M  V30 35 1 35 4
M  V30 36 1 34 9
M  V30 37 1 34 12
M  V30 38 1 20 15
M  V30 39 1 32 22
M  V30 40 1 30 26
M  V30 41 1 1 36
M  V30 42 1 1 37
M  V30 43 1 5 38
M  V30 44 1 6 39
M  V30 45 1 7 40
M  V30 46 1 10 41
M  V30 47 1 13 42
M  V30 48 1 16 43
M  V30 49 1 17 44
M  V30 50 1 18 45
M  V30 51 1 19 46
M  V30 52 1 20 47
M  V30 53 1 23 48
M  V30 54 1 24 49
M  V30 55 1 27 50
M  V30 56 1 27 51
M  V30 57 1 28 52
M  V30 58 1 28 53
M  V30 59 1 29 54
M  V30 60 1 29 55
M  V30 61 1 30 56
M  V30 62 1 30 57
M  V30 63 1 31 58
M  V30 64 1 32 59
M  V30 65 1 35 60
M  V30 END BOND
M  V30 END CTAB
M  END
>  <Dataset>  (960) 
ChEMBL_Kinases

>  <Ligand_Instance>  (960) 
nan

>  <PDB_ID>  (960) 
nan

>  <Standardized_SMILES>  (960) 
NC(=O)c1cccc(-c2cnc3cc(-c4ccccc4)c(-c4ccc(C5(N)CCC5)cc4)nn23)c1

>  <Name>  (960) 
nan

>  <Pocket>  (960) 
nan

>  <ATP_Site>  (960) 
nan

>  <Peripheral>  (960) 
nan

>  <Num_H_Atoms_ProtBoundConf>  (960) 
nan

>  <Num_Resolved_Atoms>  (960) 
nan

>  <Num_Not_Resolved_Atoms>  (960) 
nan

$$$$
CHEMBL3672484
     RDKit          3D

  0  0  0  0  0  0  0  0  0  0999 V3000
M  V30 BEGIN CTAB
M  V30 COUNTS 56 61 0 0 0
M  V30 BEGIN ATOM
M  V30 1 N 2.678134 -4.518455 -1.304964 0
M  V30 2 C 1.812120 -3.647622 -2.092759 0
M  V30 3 C 0.941957 -2.797992 -1.236960 0
M  V30 4 C 1.652659 -2.244350 -0.172135 0
M  V30 5 C 0.958432 -1.417683 0.720519 0
M  V30 6 C -0.386848 -1.156683 0.554908 0
M  V30 7 C -1.087327 -0.294062 1.497722 0
M  V30 8 N -0.552373 0.954716 1.531773 0
M  V30 9 N -1.031638 1.904065 2.320771 0
M  V30 10 C -0.681781 3.193605 2.531039 0
M  V30 11 C 0.430915 3.823968 1.824155 0
M  V30 12 C 1.317160 4.594577 2.572121 0
M  V30 13 C 2.352596 5.163768 1.827019 0
M  V30 14 C 2.474937 4.971820 0.471469 0
M  V30 15 F 3.479893 5.521455 -0.265638 0
M  V30 16 C 1.558247 4.193035 -0.212885 0
M  V30 17 C 0.511012 3.605607 0.483581 0
M  V30 18 C -1.557402 3.706824 3.488838 0
M  V30 19 N -2.399400 2.701338 3.815143 0
M  V30 20 C -2.082023 1.600015 3.104899 0
M  V30 21 C -2.686128 0.360384 3.134071 0
M  V30 22 C -2.164192 -0.610732 2.299758 0
M  V30 23 C -2.633980 -1.983495 2.159496 0
M  V30 24 C -3.913992 -2.291686 1.737718 0
M  V30 25 C -4.383899 -3.580609 1.595759 0
M  V30 26 C -3.498090 -4.615009 1.901312 0
M  V30 27 C -2.210622 -4.323343 2.325788 0
M  V30 28 C -1.766402 -3.029646 2.459183 0
M  V30 29 C -1.065953 -1.719214 -0.510084 0
M  V30 30 C -0.383532 -2.533658 -1.390007 0
M  V30 31 C 1.177592 -4.307778 -3.263577 0
M  V30 32 C 1.711939 -3.236120 -4.193358 0
M  V30 33 C 2.593201 -2.760771 -3.060288 0
M  V30 34 H 3.119199 -5.191307 -1.993260 0
M  V30 35 H 3.492915 -3.899737 -1.011053 0
M  V30 36 H 2.700645 -2.362540 0.077034 0
M  V30 37 H 1.441721 -0.956020 1.565552 0
M  V30 38 H 1.217217 4.743426 3.639976 0
M  V30 39 H 3.091229 5.785489 2.350237 0
M  V30 40 H 1.623272 4.019407 -1.283485 0
M  V30 41 H -0.188678 3.005457 -0.066819 0
M  V30 42 H -1.512479 4.718091 3.851453 0
M  V30 43 H -3.517584 0.064950 3.733334 0
M  V30 44 H -4.560271 -1.432663 1.513630 0
M  V30 45 H -5.410940 -3.718538 1.256336 0
M  V30 46 H -3.900926 -5.623853 1.778417 0
M  V30 47 H -1.563382 -5.168019 2.549870 0
M  V30 48 H -0.751549 -2.824180 2.794051 0
M  V30 49 H -2.137268 -1.535869 -0.676867 0
M  V30 50 H -0.853670 -2.999931 -2.236117 0
M  V30 51 H 0.100830 -4.471195 -3.274909 0
M  V30 52 H 1.704103 -5.279672 -3.496250 0
M  V30 53 H 0.942597 -2.478645 -4.508550 0
M  V30 54 H 2.284963 -3.600051 -5.061342 0
M  V30 55 H 2.512813 -1.677131 -2.843788 0
M  V30 56 H 3.623535 -3.149605 -3.188991 0
M  V30 END ATOM
M  V30 BEGIN BOND
M  V30 1 1 1 2
M  V30 2 1 2 3
M  V30 3 2 3 4
M  V30 4 1 4 5
M  V30 5 2 5 6
M  V30 6 1 6 7
M  V30 7 2 7 8
M  V30 8 1 8 9
M  V30 9 1 9 10
M  V30 10 1 10 11
M  V30 11 2 11 12
M  V30 12 1 12 13
M  V30 13 2 13 14
M  V30 14 1 14 15
M  V30 15 1 14 16
M  V30 16 2 16 17
M  V30 17 2 10 18
M  V30 18 1 18 19
M  V30 19 2 19 20
M  V30 20 1 20 21
M  V30 21 2 21 22
M  V30 22 1 22 23
M  V30 23 2 23 24
M  V30 24 1 24 25
M  V30 25 2 25 26
M  V30 26 1 26 27
M  V30 27 2 27 28
M  V30 28 1 6 29
M  V30 29 2 29 30
M  V30 30 1 2 31
M  V30 31 1 31 32
M  V30 32 1 32 33
M  V30 33 1 33 2
M  V30 34 1 30 3
M  V30 35 1 22 7
M  V30 36 1 28 23
M  V30 37 1 20 9
M  V30 38 1 17 11
M  V30 39 1 1 34
M  V30 40 1 1 35
M  V30 41 1 4 36
M  V30 42 1 5 37
M  V30 43 1 12 38
M  V30 44 1 13 39
M  V30 45 1 16 40
M  V30 46 1 17 41
M  V30 47 1 18 42
M  V30 48 1 21 43
M  V30 49 1 24 44
M  V30 50 1 25 45
M  V30 51 1 26 46
M  V30 52 1 27 47
M  V30 53 1 28 48
M  V30 54 1 29 49
M  V30 55 1 30 50
M  V30 56 1 31 51
M  V30 57 1 31 52
M  V30 58 1 32 53
M  V30 59 1 32 54
M  V30 60 1 33 55
M  V30 61 1 33 56
M  V30 END BOND
M  V30 END CTAB
M  END
>  <Dataset>  (961) 
ChEMBL_Kinases

>  <Ligand_Instance>  (961) 
nan

>  <PDB_ID>  (961) 
nan

>  <Standardized_SMILES>  (961) 
NC1(c2ccc(-c3nn4c(-c5ccc(F)cc5)cnc4cc3-c3ccccc3)cc2)CCC1

>  <Name>  (961) 
nan

>  <Pocket>  (961) 
nan

>  <ATP_Site>  (961) 
nan

>  <Peripheral>  (961) 
nan

>  <Num_H_Atoms_ProtBoundConf>  (961) 
nan

>  <Num_Resolved_Atoms>  (961) 
nan

>  <Num_Not_Resolved_Atoms>  (961) 
nan

$$$$
CHEMBL3355127
     RDKit          3D

  0  0  0  0  0  0  0  0  0  0999 V3000
M  V30 BEGIN CTAB
M  V30 COUNTS 58 62 0 0 0
M  V30 BEGIN ATOM
M  V30 1 C 1.780756 1.579273 -1.887770 0
M  V30 2 C 1.353602 2.329772 -0.635347 0 CFG=2
M  V30 3 C 1.864774 3.717657 -0.794941 0
M  V30 4 O 1.267967 4.532673 -1.557915 0
M  V30 5 N 3.017181 4.215408 -0.129153 0
M  V30 6 N 3.599521 3.413687 0.840424 0
M  V30 7 C 3.139025 2.249618 1.154578 0
M  V30 8 C 3.877456 1.507607 2.218952 0
M  V30 9 O 3.122234 0.427922 2.721584 0
M  V30 10 C 2.017402 -0.095751 2.112210 0
M  V30 11 C 1.470172 -1.263302 2.599633 0
M  V30 12 C 0.356558 -1.770203 1.967281 0
M  V30 13 C -0.172378 -3.024853 2.548345 0
M  V30 14 C 0.188979 -4.308316 2.190716 0
M  V30 15 C -0.394370 -5.378760 2.825891 0
M  V30 16 C -1.339903 -5.232180 3.820789 0
M  V30 17 C -1.721323 -3.969631 4.199970 0
M  V30 18 C -1.118864 -2.909662 3.544819 0
M  V30 19 F -1.522251 -1.672746 3.947692 0
M  V30 20 C -0.300729 -1.216086 0.852523 0
M  V30 21 C -1.468053 -1.925017 0.343251 0 CFG=2
M  V30 22 C -1.138353 -2.976934 -0.714786 0
M  V30 23 C -1.311839 -2.452575 -2.102900 0
M  V30 24 N -1.483722 -1.072025 -2.214730 0
M  V30 25 C -1.119368 -0.445691 -3.425369 0
M  V30 26 C -2.408467 -0.429750 -1.386860 0
M  V30 27 C -2.628198 -1.130099 -0.110299 0 CFG=2
M  V30 28 C -3.160226 -0.191606 0.965769 0
M  V30 29 C 0.327336 -0.061484 0.454127 0
M  V30 30 C 1.426170 0.500589 1.024319 0
M  V30 31 N 1.976036 1.702260 0.509769 0
M  V30 32 H 2.787282 1.963348 -2.159758 0
M  V30 33 H 1.121042 1.790895 -2.742708 0
M  V30 34 H 1.924670 0.500567 -1.689699 0
M  V30 35 H 0.255961 2.442305 -0.549775 0
M  V30 36 H 3.456870 5.142618 -0.318328 0
M  V30 37 H 4.799521 1.068832 1.771883 0
M  V30 38 H 4.189155 2.193589 3.031813 0
M  V30 39 H 1.908834 -1.758076 3.452220 0
M  V30 40 H 0.936407 -4.376342 1.403398 0
M  V30 41 H -0.062539 -6.374964 2.494121 0
M  V30 42 H -1.767878 -6.105084 4.288396 0
M  V30 43 H -2.454267 -3.850292 4.971071 0
M  V30 44 H -1.894055 -2.536630 1.235156 0
M  V30 45 H -1.812715 -3.850307 -0.592978 0
M  V30 46 H -0.101747 -3.389961 -0.544003 0
M  V30 47 H -2.141929 -2.963580 -2.632119 0
M  V30 48 H -0.386697 -2.738334 -2.683889 0
M  V30 49 H -1.513159 -1.061050 -4.280341 0
M  V30 50 H -0.063999 -0.250180 -3.609828 0
M  V30 51 H -1.689546 0.510871 -3.496738 0
M  V30 52 H -2.236815 0.675284 -1.261328 0
M  V30 53 H -3.413399 -0.433530 -1.936162 0
M  V30 54 H -3.472600 -1.864133 -0.262880 0
M  V30 55 H -2.420870 0.526380 1.327606 0
M  V30 56 H -3.664443 -0.790031 1.730582 0
M  V30 57 H -3.949781 0.401977 0.439213 0
M  V30 58 H -0.085820 0.438184 -0.380233 0
M  V30 END ATOM
M  V30 BEGIN BOND
M  V30 1 1 1 2
M  V30 2 1 2 3
M  V30 3 2 3 4
M  V30 4 1 3 5
M  V30 5 1 5 6
M  V30 6 2 6 7
M  V30 7 1 7 8
M  V30 8 1 8 9
M  V30 9 1 9 10
M  V30 10 2 10 11
M  V30 11 1 11 12
M  V30 12 1 12 13
M  V30 13 2 13 14
M  V30 14 1 14 15
M  V30 15 2 15 16
M  V30 16 1 16 17
M  V30 17 2 17 18
M  V30 18 1 18 19
M  V30 19 2 12 20
M  V30 20 1 20 21
M  V30 21 1 21 22
M  V30 22 1 22 23
M  V30 23 1 23 24
M  V30 24 1 24 25
M  V30 25 1 24 26
M  V30 26 1 26 27
M  V30 27 1 27 28
M  V30 28 1 20 29
M  V30 29 2 29 30
M  V30 30 1 30 31
M  V30 31 1 31 2
M  V30 32 1 31 7
M  V30 33 1 30 10
M  V30 34 1 18 13
M  V30 35 1 27 21
M  V30 36 1 1 32
M  V30 37 1 1 33
M  V30 38 1 1 34
M  V30 39 1 2 35 CFG=1
M  V30 40 1 5 36
M  V30 41 1 8 37
M  V30 42 1 8 38
M  V30 43 1 11 39
M  V30 44 1 14 40
M  V30 45 1 15 41
M  V30 46 1 16 42
M  V30 47 1 17 43
M  V30 48 1 21 44 CFG=1
M  V30 49 1 22 45
M  V30 50 1 22 46
M  V30 51 1 23 47
M  V30 52 1 23 48
M  V30 53 1 25 49
M  V30 54 1 25 50
M  V30 55 1 25 51
M  V30 56 1 26 52
M  V30 57 1 26 53
M  V30 58 1 27 54 CFG=3
M  V30 59 1 28 55
M  V30 60 1 28 56
M  V30 61 1 28 57
M  V30 62 1 29 58
M  V30 END BOND
M  V30 END CTAB
M  END
>  <Dataset>  (962) 
ChEMBL_Kinases

>  <Ligand_Instance>  (962) 
nan

>  <PDB_ID>  (962) 
nan

>  <Standardized_SMILES>  (962) 
C[C@@H]1C(=O)NN=C2COc3cc(-c4ccccc4F)c([C@@H]4CCN(C)C[C@@H]4C)cc3N21

>  <Name>  (962) 
nan

>  <Pocket>  (962) 
nan

>  <ATP_Site>  (962) 
nan

>  <Peripheral>  (962) 
nan

>  <Num_H_Atoms_ProtBoundConf>  (962) 
nan

>  <Num_Resolved_Atoms>  (962) 
nan

>  <Num_Not_Resolved_Atoms>  (962) 
nan

$$$$
CHEMBL3672490
     RDKit          3D

  0  0  0  0  0  0  0  0  0  0999 V3000
M  V30 BEGIN CTAB
M  V30 COUNTS 60 65 0 0 0
M  V30 BEGIN ATOM
M  V30 1 N 2.955684 -4.061754 3.158824 0
M  V30 2 C 3.027016 -3.739763 1.744928 0
M  V30 3 C 1.876523 -2.922785 1.292623 0
M  V30 4 C 1.949340 -1.973375 0.288903 0
M  V30 5 C 0.845249 -1.236412 -0.096179 0
M  V30 6 C -0.347763 -1.491585 0.572117 0
M  V30 7 C -1.489824 -0.682034 0.125259 0
M  V30 8 N -1.445179 0.659478 0.229449 0
M  V30 9 N -2.442450 1.452581 -0.155491 0
M  V30 10 C -2.527545 2.802843 -0.107201 0
M  V30 11 C -1.487851 3.711340 0.403807 0
M  V30 12 C -1.658686 4.776176 1.232420 0
M  V30 13 C -0.570487 5.529259 1.618468 0
M  V30 14 C 0.718827 5.254191 1.198421 0
M  V30 15 F 1.774216 6.011836 1.592689 0
M  V30 16 C 0.868351 4.159008 0.350536 0
M  V30 17 C 2.279760 3.890204 -0.085193 0
M  V30 18 O 2.664635 4.798101 -1.052778 0
M  V30 19 C -0.207107 3.391784 -0.048283 0
M  V30 20 C -3.766800 3.161669 -0.625030 0
M  V30 21 N -4.367629 2.015548 -0.959602 0
M  V30 22 C -3.575822 0.948031 -0.681727 0
M  V30 23 C -3.675227 -0.427487 -0.811973 0
M  V30 24 C -2.635810 -1.257184 -0.410976 0
M  V30 25 C -2.725435 -2.708987 -0.541151 0
M  V30 26 C -1.955079 -3.568648 -1.297965 0
M  V30 27 C -2.218841 -4.919413 -1.268738 0
M  V30 28 C -3.247493 -5.398984 -0.485585 0
M  V30 29 C -4.042363 -4.566656 0.287669 0
M  V30 30 C -3.757351 -3.209234 0.241844 0
M  V30 31 C -0.474157 -2.426701 1.579307 0
M  V30 32 C 0.670588 -3.129980 1.915846 0
M  V30 33 C 3.093791 -5.017768 0.930539 0
M  V30 34 C 4.174005 -4.347695 0.095698 0
M  V30 35 C 4.372773 -3.376577 1.218607 0
M  V30 36 H 2.518553 -3.315276 3.725989 0
M  V30 37 H 2.566558 -5.009155 3.313752 0
M  V30 38 H 2.916755 -1.811258 -0.206418 0
M  V30 39 H 0.922219 -0.500061 -0.882074 0
M  V30 40 H -2.659205 4.970517 1.543710 0
M  V30 41 H -0.701767 6.376698 2.277238 0
M  V30 42 H 2.375917 2.828406 -0.410309 0
M  V30 43 H 2.922144 4.013621 0.820056 0
M  V30 44 H 3.168819 4.324165 -1.754809 0
M  V30 45 H 0.062340 2.575984 -0.706266 0
M  V30 46 H -4.112869 4.175493 -0.711549 0
M  V30 47 H -4.586878 -0.840305 -1.235666 0
M  V30 48 H -1.182236 -3.048027 -1.863785 0
M  V30 49 H -1.571577 -5.526115 -1.888460 0
M  V30 50 H -3.435699 -6.463470 -0.478531 0
M  V30 51 H -4.826416 -5.014687 0.872518 0
M  V30 52 H -4.434551 -2.631677 0.882624 0
M  V30 53 H -1.449561 -2.557148 2.044658 0
M  V30 54 H 0.543148 -3.866167 2.717748 0
M  V30 55 H 2.178082 -5.264972 0.350325 0
M  V30 56 H 3.506825 -5.852613 1.512775 0
M  V30 57 H 5.060103 -4.988863 -0.095253 0
M  V30 58 H 3.811266 -3.939194 -0.868407 0
M  V30 59 H 4.536761 -2.318628 0.944863 0
M  V30 60 H 5.176082 -3.761259 1.910059 0
M  V30 END ATOM
M  V30 BEGIN BOND
M  V30 1 1 1 2
M  V30 2 1 2 3
M  V30 3 2 3 4
M  V30 4 1 4 5
M  V30 5 2 5 6
M  V30 6 1 6 7
M  V30 7 2 7 8
M  V30 8 1 8 9
M  V30 9 1 9 10
M  V30 10 1 10 11
M  V30 11 2 11 12
M  V30 12 1 12 13
M  V30 13 2 13 14
M  V30 14 1 14 15
M  V30 15 1 14 16
M  V30 16 1 16 17
M  V30 17 1 17 18
M  V30 18 2 16 19
M  V30 19 2 10 20
M  V30 20 1 20 21
M  V30 21 2 21 22
M  V30 22 1 22 23
M  V30 23 2 23 24
M  V30 24 1 24 25
M  V30 25 2 25 26
M  V30 26 1 26 27
M  V30 27 2 27 28
M  V30 28 1 28 29
M  V30 29 2 29 30
M  V30 30 1 6 31
M  V30 31 2 31 32
M  V30 32 1 2 33
M  V30 33 1 33 34
M  V30 34 1 34 35
M  V30 35 1 35 2
M  V30 36 1 32 3
M  V30 37 1 24 7
M  V30 38 1 30 25
M  V30 39 1 22 9
M  V30 40 1 19 11
M  V30 41 1 1 36
M  V30 42 1 1 37
M  V30 43 1 4 38
M  V30 44 1 5 39
M  V30 45 1 12 40
M  V30 46 1 13 41
M  V30 47 1 17 42
M  V30 48 1 17 43
M  V30 49 1 18 44
M  V30 50 1 19 45
M  V30 51 1 20 46
M  V30 52 1 23 47
M  V30 53 1 26 48
M  V30 54 1 27 49
M  V30 55 1 28 50
M  V30 56 1 29 51
M  V30 57 1 30 52
M  V30 58 1 31 53
M  V30 59 1 32 54
M  V30 60 1 33 55
M  V30 61 1 33 56
M  V30 62 1 34 57
M  V30 63 1 34 58
M  V30 64 1 35 59
M  V30 65 1 35 60
M  V30 END BOND
M  V30 END CTAB
M  END
>  <Dataset>  (963) 
ChEMBL_Kinases

>  <Ligand_Instance>  (963) 
nan

>  <PDB_ID>  (963) 
nan

>  <Standardized_SMILES>  (963) 
NC1(c2ccc(-c3nn4c(-c5ccc(F)c(CO)c5)cnc4cc3-c3ccccc3)cc2)CCC1

>  <Name>  (963) 
nan

>  <Pocket>  (963) 
nan

>  <ATP_Site>  (963) 
nan

>  <Peripheral>  (963) 
nan

>  <Num_H_Atoms_ProtBoundConf>  (963) 
nan

>  <Num_Resolved_Atoms>  (963) 
nan

>  <Num_Not_Resolved_Atoms>  (963) 
nan

$$$$
CHEMBL4129590
     RDKit          3D

  0  0  0  0  0  0  0  0  0  0999 V3000
M  V30 BEGIN CTAB
M  V30 COUNTS 48 50 0 0 0
M  V30 BEGIN ATOM
M  V30 1 C 4.744147 0.795449 6.032714 0
M  V30 2 O 4.214715 0.668990 4.748611 0
M  V30 3 C 3.973292 1.660320 3.841008 0
M  V30 4 C 4.176355 3.018804 3.932422 0
M  V30 5 C 3.889694 3.925815 2.937080 0
M  V30 6 C 3.359652 3.396157 1.773526 0
M  V30 7 C 3.119858 2.051055 1.586367 0
M  V30 8 C 3.436774 1.189852 2.643714 0
M  V30 9 N 3.155872 -0.175790 2.373795 0
M  V30 10 C 2.624755 -0.799278 1.211688 0
M  V30 11 N 3.418995 -1.329509 0.258087 0
M  V30 12 C 2.914489 -1.905873 -0.827683 0
M  V30 13 C 1.559168 -1.957349 -0.972080 0
M  V30 14 C 0.702559 -1.431532 -0.029227 0
M  V30 15 C -0.751737 -1.434860 -0.101157 0
M  V30 16 C -1.445683 -0.853525 0.938115 0
M  V30 17 C -2.812767 -0.861774 0.857586 0
M  V30 18 C -3.513360 -1.412885 -0.192116 0
M  V30 19 C -4.958868 -1.289810 -0.119544 0
M  V30 20 O -5.881334 -1.627360 -0.898406 0
M  V30 21 O -5.635125 -0.714171 0.941312 0
M  V30 22 C -2.863004 -1.993901 -1.229742 0
M  V30 23 C -3.580539 -2.629859 -2.361067 0
M  V30 24 C -4.199749 -1.631236 -3.296854 0
M  V30 25 C -4.456101 -3.776648 -2.009144 0
M  V30 26 C -1.463457 -1.982558 -1.143700 0
M  V30 27 N 1.295720 -0.867662 1.036710 0
M  V30 28 H 5.832262 0.993086 5.955887 0
M  V30 29 H 4.310964 1.643742 6.612820 0
M  V30 30 H 4.619688 -0.171547 6.566373 0
M  V30 31 H 4.601239 3.305860 4.907106 0
M  V30 32 H 4.084315 4.977003 3.102632 0
M  V30 33 H 3.115928 4.077394 0.954167 0
M  V30 34 H 2.704622 1.707266 0.654367 0
M  V30 35 H 3.276555 -1.022185 2.968235 0
M  V30 36 H 3.560219 -2.334845 -1.598263 0
M  V30 37 H 1.121550 -2.418508 -1.841921 0
M  V30 38 H -0.932978 -0.410174 1.781008 0
M  V30 39 H -3.327144 -0.394705 1.694754 0
M  V30 40 H -6.496016 -1.033504 1.352341 0
M  V30 41 H -2.733722 -3.089355 -2.979895 0
M  V30 42 H -5.209825 -1.987636 -3.622583 0
M  V30 43 H -4.247823 -0.614969 -2.857662 0
M  V30 44 H -3.628664 -1.520486 -4.238772 0
M  V30 45 H -4.028478 -4.754074 -2.403607 0
M  V30 46 H -5.433976 -3.720420 -2.551570 0
M  V30 47 H -4.566184 -3.986379 -0.924871 0
M  V30 48 H -0.902829 -2.443641 -1.967832 0
M  V30 END ATOM
M  V30 BEGIN BOND
M  V30 1 1 1 2
M  V30 2 1 2 3
M  V30 3 2 3 4
M  V30 4 1 4 5
M  V30 5 2 5 6
M  V30 6 1 6 7
M  V30 7 2 7 8
M  V30 8 1 8 9
M  V30 9 1 9 10
M  V30 10 2 10 11
M  V30 11 1 11 12
M  V30 12 2 12 13
M  V30 13 1 13 14
M  V30 14 1 14 15
M  V30 15 2 15 16
M  V30 16 1 16 17
M  V30 17 2 17 18
M  V30 18 1 18 19
M  V30 19 2 19 20
M  V30 20 1 19 21
M  V30 21 1 18 22
M  V30 22 1 22 23
M  V30 23 1 23 24
M  V30 24 1 23 25
M  V30 25 2 22 26
M  V30 26 2 14 27
M  V30 27 1 8 3
M  V30 28 1 27 10
M  V30 29 1 26 15
M  V30 30 1 1 28
M  V30 31 1 1 29
M  V30 32 1 1 30
M  V30 33 1 4 31
M  V30 34 1 5 32
M  V30 35 1 6 33
M  V30 36 1 7 34
M  V30 37 1 9 35
M  V30 38 1 12 36
M  V30 39 1 13 37
M  V30 40 1 16 38
M  V30 41 1 17 39
M  V30 42 1 21 40
M  V30 43 1 23 41
M  V30 44 1 24 42
M  V30 45 1 24 43
M  V30 46 1 24 44
M  V30 47 1 25 45
M  V30 48 1 25 46
M  V30 49 1 25 47
M  V30 50 1 26 48
M  V30 END BOND
M  V30 END CTAB
M  END
>  <Dataset>  (964) 
ChEMBL_Kinases

>  <Ligand_Instance>  (964) 
nan

>  <PDB_ID>  (964) 
nan

>  <Standardized_SMILES>  (964) 
COc1ccccc1Nc1nccc(-c2ccc(C(=O)O)c(C(C)C)c2)n1

>  <Name>  (964) 
nan

>  <Pocket>  (964) 
nan

>  <ATP_Site>  (964) 
nan

>  <Peripheral>  (964) 
nan

>  <Num_H_Atoms_ProtBoundConf>  (964) 
nan

>  <Num_Resolved_Atoms>  (964) 
nan

>  <Num_Not_Resolved_Atoms>  (964) 
nan

$$$$
CHEMBL3672489
     RDKit          3D

  0  0  0  0  0  0  0  0  0  0999 V3000
M  V30 BEGIN CTAB
M  V30 COUNTS 46 50 0 0 0
M  V30 BEGIN ATOM
M  V30 1 N 1.569629 -4.951036 0.803765 0
M  V30 2 C 0.292937 -4.340118 0.494693 0
M  V30 3 C 0.369348 -2.896830 0.198293 0
M  V30 4 C -0.187007 -2.183721 -0.837119 0
M  V30 5 C 0.012991 -0.817582 -0.934482 0
M  V30 6 C 0.783177 -0.135824 0.015431 0
M  V30 7 C 0.870457 1.291487 -0.261771 0
M  V30 8 N 1.361335 1.854021 -1.389211 0
M  V30 9 N 1.386394 3.188360 -1.534626 0
M  V30 10 C 1.810227 3.985303 -2.531607 0
M  V30 11 Br 2.579289 3.415524 -4.201739 0
M  V30 12 C 1.602408 5.313541 -2.160777 0
M  V30 13 N 1.049185 5.264145 -0.927645 0
M  V30 14 C 0.921910 3.984853 -0.557019 0
M  V30 15 C 0.403013 3.494451 0.627934 0
M  V30 16 C 0.383507 2.108598 0.764329 0
M  V30 17 C -0.157428 1.572095 2.001320 0
M  V30 18 C -1.259419 0.777567 2.163420 0
M  V30 19 C -1.667331 0.334730 3.405064 0
M  V30 20 C -0.946084 0.697709 4.544024 0
M  V30 21 C 0.175802 1.506813 4.374810 0
M  V30 22 C 0.568827 1.939706 3.130411 0
M  V30 23 C 1.343547 -0.851222 1.057311 0
M  V30 24 C 1.132678 -2.216840 1.138661 0
M  V30 25 C -0.476611 -5.181302 -0.467925 0
M  V30 26 C -1.719653 -4.902710 0.348457 0
M  V30 27 C -0.792926 -4.645212 1.525919 0
M  V30 28 H 2.300555 -4.218064 0.666126 0
M  V30 29 H 1.542390 -5.247297 1.811452 0
M  V30 30 H -0.759295 -2.790801 -1.512317 0
M  V30 31 H -0.478551 -0.362714 -1.798095 0
M  V30 32 H 1.864502 6.146755 -2.800551 0
M  V30 33 H 0.021353 4.112001 1.433418 0
M  V30 34 H -1.779979 0.528926 1.231528 0
M  V30 35 H -2.558071 -0.297697 3.460709 0
M  V30 36 H -1.300811 0.326401 5.508091 0
M  V30 37 H 0.658524 1.727180 5.319296 0
M  V30 38 H 1.466063 2.560331 3.204143 0
M  V30 39 H 1.918195 -0.247380 1.736664 0
M  V30 40 H 1.629406 -2.648983 2.004176 0
M  V30 41 H -0.509104 -4.835104 -1.515115 0
M  V30 42 H -0.201086 -6.239357 -0.389832 0
M  V30 43 H -2.264900 -3.968885 0.050056 0
M  V30 44 H -2.379666 -5.777296 0.468071 0
M  V30 45 H -0.598653 -5.617407 2.050921 0
M  V30 46 H -1.092781 -3.803581 2.169241 0
M  V30 END ATOM
M  V30 BEGIN BOND
M  V30 1 1 1 2
M  V30 2 1 2 3
M  V30 3 2 3 4
M  V30 4 1 4 5
M  V30 5 2 5 6
M  V30 6 1 6 7
M  V30 7 2 7 8
M  V30 8 1 8 9
M  V30 9 1 9 10
M  V30 10 1 10 11
M  V30 11 2 10 12
M  V30 12 1 12 13
M  V30 13 2 13 14
M  V30 14 1 14 15
M  V30 15 2 15 16
M  V30 16 1 16 17
M  V30 17 2 17 18
M  V30 18 1 18 19
M  V30 19 2 19 20
M  V30 20 1 20 21
M  V30 21 2 21 22
M  V30 22 1 6 23
M  V30 23 2 23 24
M  V30 24 1 2 25
M  V30 25 1 25 26
M  V30 26 1 26 27
M  V30 27 1 27 2
M  V30 28 1 24 3
M  V30 29 1 16 7
M  V30 30 1 22 17
M  V30 31 1 14 9
M  V30 32 1 1 28
M  V30 33 1 1 29
M  V30 34 1 4 30
M  V30 35 1 5 31
M  V30 36 1 12 32
M  V30 37 1 15 33
M  V30 38 1 18 34
M  V30 39 1 19 35
M  V30 40 1 20 36
M  V30 41 1 21 37
M  V30 42 1 22 38
M  V30 43 1 23 39
M  V30 44 1 24 40
M  V30 45 1 25 41
M  V30 46 1 25 42
M  V30 47 1 26 43
M  V30 48 1 26 44
M  V30 49 1 27 45
M  V30 50 1 27 46
M  V30 END BOND
M  V30 END CTAB
M  END
>  <Dataset>  (965) 
ChEMBL_Kinases

>  <Ligand_Instance>  (965) 
nan

>  <PDB_ID>  (965) 
nan

>  <Standardized_SMILES>  (965) 
NC1(c2ccc(-c3nn4c(Br)cnc4cc3-c3ccccc3)cc2)CCC1

>  <Name>  (965) 
nan

>  <Pocket>  (965) 
nan

>  <ATP_Site>  (965) 
nan

>  <Peripheral>  (965) 
nan

>  <Num_H_Atoms_ProtBoundConf>  (965) 
nan

>  <Num_Resolved_Atoms>  (965) 
nan

>  <Num_Not_Resolved_Atoms>  (965) 
nan

$$$$
CHEMBL3672488
     RDKit          3D

  0  0  0  0  0  0  0  0  0  0999 V3000
M  V30 BEGIN CTAB
M  V30 COUNTS 61 66 0 0 0
M  V30 BEGIN ATOM
M  V30 1 N 3.329858 -1.462395 3.750685 0
M  V30 2 C 3.294670 -2.514853 2.747312 0
M  V30 3 C 2.187149 -2.341641 1.794125 0
M  V30 4 C 2.178590 -2.616073 0.441577 0
M  V30 5 C 1.068152 -2.409765 -0.349611 0
M  V30 6 C -0.102150 -1.908619 0.201336 0
M  V30 7 C -1.296194 -1.677436 -0.616947 0
M  V30 8 N -1.627744 -0.349522 -0.592826 0
M  V30 9 N -2.683447 0.119977 -1.262175 0
M  V30 10 C -3.220198 1.347570 -1.407452 0
M  V30 11 C -2.620480 2.513832 -0.745709 0
M  V30 12 C -1.246049 2.714309 -0.755658 0
M  V30 13 C -0.684724 3.812277 -0.135711 0
M  V30 14 C -1.471476 4.746081 0.513984 0
M  V30 15 S -0.720182 6.126074 1.288978 0
M  V30 16 N -0.561376 7.443641 0.185334 0
M  V30 17 O -1.589622 6.633053 2.423979 0
M  V30 18 O 0.611833 5.783512 1.878243 0
M  V30 19 C -2.853768 4.565726 0.537151 0
M  V30 20 C -3.387676 3.456592 -0.092311 0
M  V30 21 C -4.334842 1.220995 -2.238497 0
M  V30 22 N -4.456749 -0.071434 -2.582293 0
M  V30 23 C -3.457804 -0.710922 -1.986444 0
M  V30 24 C -3.148972 -2.054697 -2.030113 0
M  V30 25 C -2.084967 -2.561156 -1.362146 0
M  V30 26 C -1.575376 -3.912337 -1.262722 0
M  V30 27 C -1.492072 -4.658880 -0.104859 0
M  V30 28 C -0.993347 -5.943978 -0.082076 0
M  V30 29 C -0.549383 -6.531994 -1.268313 0
M  V30 30 C -0.636067 -5.787769 -2.402410 0
M  V30 31 C -1.137093 -4.483167 -2.454594 0
M  V30 32 C -0.089778 -1.634183 1.560565 0
M  V30 33 C 1.015550 -1.834325 2.373027 0
M  V30 34 C 3.354764 -3.869199 3.453307 0
M  V30 35 C 4.870938 -3.670628 3.458611 0
M  V30 36 C 4.651849 -2.843656 2.183609 0
M  V30 37 H 2.892835 -1.826505 4.619628 0
M  V30 38 H 4.304558 -1.188712 3.976762 0
M  V30 39 H 3.084708 -2.997641 0.047922 0
M  V30 40 H 1.130218 -2.644261 -1.391942 0
M  V30 41 H -0.683099 1.939413 -1.285974 0
M  V30 42 H 0.407046 3.885424 -0.196492 0
M  V30 43 H 0.279845 7.286675 -0.429723 0
M  V30 44 H -0.433320 8.307847 0.761317 0
M  V30 45 H -3.485939 5.291860 1.043917 0
M  V30 46 H -4.463553 3.324879 -0.069195 0
M  V30 47 H -4.916338 2.105176 -2.483749 0
M  V30 48 H -3.701550 -2.823039 -2.581403 0
M  V30 49 H -1.841124 -4.184353 0.800582 0
M  V30 50 H -0.946023 -6.499878 0.860347 0
M  V30 51 H -0.151920 -7.535746 -1.296647 0
M  V30 52 H -0.292313 -6.231769 -3.343537 0
M  V30 53 H -1.160913 -3.976703 -3.420913 0
M  V30 54 H -1.009226 -1.237592 2.006956 0
M  V30 55 H 0.924342 -1.588873 3.421742 0
M  V30 56 H 3.090079 -4.727537 2.802811 0
M  V30 57 H 2.903239 -3.859199 4.465685 0
M  V30 58 H 5.136506 -3.027315 4.325865 0
M  V30 59 H 5.438648 -4.592221 3.332001 0
M  V30 60 H 5.340018 -1.977532 2.088253 0
M  V30 61 H 4.583646 -3.518023 1.322260 0
M  V30 END ATOM
M  V30 BEGIN BOND
M  V30 1 1 1 2
M  V30 2 1 2 3
M  V30 3 2 3 4
M  V30 4 1 4 5
M  V30 5 2 5 6
M  V30 6 1 6 7
M  V30 7 2 7 8
M  V30 8 1 8 9
M  V30 9 1 9 10
M  V30 10 1 10 11
M  V30 11 2 11 12
M  V30 12 1 12 13
M  V30 13 2 13 14
M  V30 14 1 14 15
M  V30 15 1 15 16
M  V30 16 2 15 17
M  V30 17 2 15 18
M  V30 18 1 14 19
M  V30 19 2 19 20
M  V30 20 2 10 21
M  V30 21 1 21 22
M  V30 22 2 22 23
M  V30 23 1 23 24
M  V30 24 2 24 25
M  V30 25 1 25 26
M  V30 26 2 26 27
M  V30 27 1 27 28
M  V30 28 2 28 29
M  V30 29 1 29 30
M  V30 30 2 30 31
M  V30 31 1 6 32
M  V30 32 2 32 33
M  V30 33 1 2 34
M  V30 34 1 34 35
M  V30 35 1 35 36
M  V30 36 1 36 2
M  V30 37 1 33 3
M  V30 38 1 25 7
M  V30 39 1 31 26
M  V30 40 1 23 9
M  V30 41 1 20 11
M  V30 42 1 1 37
M  V30 43 1 1 38
M  V30 44 1 4 39
M  V30 45 1 5 40
M  V30 46 1 12 41
M  V30 47 1 13 42
M  V30 48 1 16 43
M  V30 49 1 16 44
M  V30 50 1 19 45
M  V30 51 1 20 46
M  V30 52 1 21 47
M  V30 53 1 24 48
M  V30 54 1 27 49
M  V30 55 1 28 50
M  V30 56 1 29 51
M  V30 57 1 30 52
M  V30 58 1 31 53
M  V30 59 1 32 54
M  V30 60 1 33 55
M  V30 61 1 34 56
M  V30 62 1 34 57
M  V30 63 1 35 58
M  V30 64 1 35 59
M  V30 65 1 36 60
M  V30 66 1 36 61
M  V30 END BOND
M  V30 END CTAB
M  END
>  <Dataset>  (966) 
ChEMBL_Kinases

>  <Ligand_Instance>  (966) 
nan

>  <PDB_ID>  (966) 
nan

>  <Standardized_SMILES>  (966) 
NC1(c2ccc(-c3nn4c(-c5ccc(S(N)(=O)=O)cc5)cnc4cc3-c3ccccc3)cc2)CCC1

>  <Name>  (966) 
nan

>  <Pocket>  (966) 
nan

>  <ATP_Site>  (966) 
nan

>  <Peripheral>  (966) 
nan

>  <Num_H_Atoms_ProtBoundConf>  (966) 
nan

>  <Num_Resolved_Atoms>  (966) 
nan

>  <Num_Not_Resolved_Atoms>  (966) 
nan

$$$$
CHEMBL3672487
     RDKit          3D

  0  0  0  0  0  0  0  0  0  0999 V3000
M  V30 BEGIN CTAB
M  V30 COUNTS 60 65 0 0 0
M  V30 BEGIN ATOM
M  V30 1 N 4.076181 -2.994077 1.411326 0
M  V30 2 C 3.380762 -3.325541 0.156973 0
M  V30 3 C 2.067503 -2.668030 0.158192 0
M  V30 4 C 1.296851 -2.962838 1.282692 0
M  V30 5 C 0.043834 -2.441919 1.460268 0
M  V30 6 C -0.506561 -1.602275 0.530190 0
M  V30 7 C -1.815175 -0.953978 0.544669 0
M  V30 8 N -1.699205 0.382301 0.572416 0
M  V30 9 N -2.737740 1.207400 0.590483 0
M  V30 10 C -2.860832 2.567643 0.619250 0
M  V30 11 C -1.650554 3.413862 0.635837 0
M  V30 12 C -1.429326 4.543537 -0.125335 0
M  V30 13 C -0.216422 5.210029 0.032755 0
M  V30 14 C 0.768290 4.809221 0.899171 0
M  V30 15 C 2.042063 5.538107 1.041819 0
M  V30 16 O 3.016283 5.070131 0.164185 0
M  V30 17 C 0.574510 3.692446 1.665681 0
M  V30 18 C -0.627077 3.032393 1.508882 0
M  V30 19 C -4.207938 2.841807 0.626150 0
M  V30 20 N -4.870539 1.670123 0.602062 0
M  V30 21 C -3.970676 0.670133 0.580284 0
M  V30 22 C -4.166659 -0.694463 0.552011 0
M  V30 23 C -3.068987 -1.529108 0.533721 0
M  V30 24 C -3.053465 -2.986745 0.503701 0
M  V30 25 C -2.474487 -3.583988 -0.613563 0
M  V30 26 C -2.402313 -4.957148 -0.751153 0
M  V30 27 C -2.916731 -5.774184 0.243084 0
M  V30 28 C -3.492522 -5.189138 1.354157 0
M  V30 29 C -3.563282 -3.818192 1.489131 0
M  V30 30 C 0.247912 -1.296082 -0.599834 0
M  V30 31 C 1.521482 -1.828892 -0.774852 0
M  V30 32 C 4.303868 -3.100363 -0.978374 0
M  V30 33 C 4.160259 -4.577250 -1.365555 0
M  V30 34 C 3.390427 -4.799371 -0.082667 0
M  V30 35 H 4.098549 -1.964136 1.569042 0
M  V30 36 H 3.735273 -3.549312 2.213385 0
M  V30 37 H 1.633558 -3.623740 2.094757 0
M  V30 38 H -0.599752 -2.636556 2.313917 0
M  V30 39 H -2.218604 4.819697 -0.784336 0
M  V30 40 H -0.070846 6.104536 -0.586629 0
M  V30 41 H 2.428292 5.397173 2.054824 0
M  V30 42 H 1.827969 6.611194 0.912282 0
M  V30 43 H 3.408495 4.240087 0.542765 0
M  V30 44 H 1.304183 3.311744 2.373423 0
M  V30 45 H -0.775326 2.137997 2.126691 0
M  V30 46 H -4.566859 3.860865 0.647684 0
M  V30 47 H -5.122785 -1.198696 0.542312 0
M  V30 48 H -2.057522 -2.986884 -1.419142 0
M  V30 49 H -1.943873 -5.384405 -1.635439 0
M  V30 50 H -2.867031 -6.853249 0.148536 0
M  V30 51 H -3.898711 -5.809670 2.139467 0
M  V30 52 H -4.010880 -3.314117 2.352775 0
M  V30 53 H -0.035172 -0.654719 -1.424350 0
M  V30 54 H 2.159028 -1.631841 -1.627507 0
M  V30 55 H 5.363635 -2.827301 -0.719535 0
M  V30 56 H 3.996096 -2.494589 -1.831878 0
M  V30 57 H 5.144897 -5.051110 -1.443094 0
M  V30 58 H 3.509818 -4.772127 -2.224524 0
M  V30 59 H 3.962528 -5.379779 0.672831 0
M  V30 60 H 2.391983 -5.261579 -0.211147 0
M  V30 END ATOM
M  V30 BEGIN BOND
M  V30 1 1 1 2
M  V30 2 1 2 3
M  V30 3 2 3 4
M  V30 4 1 4 5
M  V30 5 2 5 6
M  V30 6 1 6 7
M  V30 7 2 7 8
M  V30 8 1 8 9
M  V30 9 1 9 10
M  V30 10 1 10 11
M  V30 11 2 11 12
M  V30 12 1 12 13
M  V30 13 2 13 14
M  V30 14 1 14 15
M  V30 15 1 15 16
M  V30 16 1 14 17
M  V30 17 2 17 18
M  V30 18 2 10 19
M  V30 19 1 19 20
M  V30 20 2 20 21
M  V30 21 1 21 22
M  V30 22 2 22 23
M  V30 23 1 23 24
M  V30 24 2 24 25
M  V30 25 1 25 26
M  V30 26 2 26 27
M  V30 27 1 27 28
M  V30 28 2 28 29
M  V30 29 1 6 30
M  V30 30 2 30 31
M  V30 31 1 2 32
M  V30 32 1 32 33
M  V30 33 1 33 34
M  V30 34 1 34 2
M  V30 35 1 31 3
M  V30 36 1 23 7
M  V30 37 1 29 24
M  V30 38 1 21 9
M  V30 39 1 18 11
M  V30 40 1 1 35
M  V30 41 1 1 36
M  V30 42 1 4 37
M  V30 43 1 5 38
M  V30 44 1 12 39
M  V30 45 1 13 40
M  V30 46 1 15 41
M  V30 47 1 15 42
M  V30 48 1 16 43
M  V30 49 1 17 44
M  V30 50 1 18 45
M  V30 51 1 19 46
M  V30 52 1 22 47
M  V30 53 1 25 48
M  V30 54 1 26 49
M  V30 55 1 27 50
M  V30 56 1 28 51
M  V30 57 1 29 52
M  V30 58 1 30 53
M  V30 59 1 31 54
M  V30 60 1 32 55
M  V30 61 1 32 56
M  V30 62 1 33 57
M  V30 63 1 33 58
M  V30 64 1 34 59
M  V30 65 1 34 60
M  V30 END BOND
M  V30 END CTAB
M  END
>  <Dataset>  (967) 
ChEMBL_Kinases

>  <Ligand_Instance>  (967) 
nan

>  <PDB_ID>  (967) 
nan

>  <Standardized_SMILES>  (967) 
NC1(c2ccc(-c3nn4c(-c5ccc(CO)cc5)cnc4cc3-c3ccccc3)cc2)CCC1

>  <Name>  (967) 
nan

>  <Pocket>  (967) 
nan

>  <ATP_Site>  (967) 
nan

>  <Peripheral>  (967) 
nan

>  <Num_H_Atoms_ProtBoundConf>  (967) 
nan

>  <Num_Resolved_Atoms>  (967) 
nan

>  <Num_Not_Resolved_Atoms>  (967) 
nan

$$$$
CHEMBL3672486
     RDKit          3D

  0  0  0  0  0  0  0  0  0  0999 V3000
M  V30 BEGIN CTAB
M  V30 COUNTS 60 65 0 0 0
M  V30 BEGIN ATOM
M  V30 1 N 3.908452 -3.900125 1.537144 0
M  V30 2 C 3.479141 -3.364369 0.262064 0
M  V30 3 C 2.111142 -2.795505 0.243797 0
M  V30 4 C 1.805969 -2.178233 1.442227 0
M  V30 5 C 0.574619 -1.569385 1.661379 0
M  V30 6 C -0.354746 -1.592810 0.642111 0
M  V30 7 C -1.693410 -1.010783 0.682373 0
M  V30 8 N -1.630393 0.327537 0.865459 0
M  V30 9 N -2.744796 1.071422 0.933504 0
M  V30 10 C -2.930660 2.413286 1.109646 0
M  V30 11 C -1.854314 3.398899 1.274348 0
M  V30 12 C -1.812106 4.407128 2.197049 0
M  V30 13 C -0.728546 5.269530 2.239982 0
M  V30 14 C 0.330969 5.116100 1.340020 0
M  V30 15 C 0.255335 4.090922 0.425071 0
M  V30 16 C 1.401844 3.963319 -0.512439 0
M  V30 17 O 1.140199 4.736686 -1.659601 0
M  V30 18 C -0.821439 3.225643 0.374654 0
M  V30 19 C -4.301412 2.627793 1.098441 0
M  V30 20 N -4.902579 1.417415 0.916988 0
M  V30 21 C -3.945405 0.473720 0.817360 0
M  V30 22 C -4.057491 -0.889193 0.629532 0
M  V30 23 C -2.908079 -1.653580 0.559731 0
M  V30 24 C -2.816834 -3.096827 0.367150 0
M  V30 25 C -3.272288 -3.821562 -0.730096 0
M  V30 26 C -3.102116 -5.189704 -0.745237 0
M  V30 27 C -2.491720 -5.835889 0.305713 0
M  V30 28 C -2.033868 -5.134320 1.401618 0
M  V30 29 C -2.195756 -3.744630 1.438855 0
M  V30 30 C -0.058233 -2.208658 -0.561650 0
M  V30 31 C 1.171987 -2.799620 -0.738394 0
M  V30 32 C 4.513140 -2.349200 -0.239391 0
M  V30 33 C 4.513253 -3.033379 -1.603248 0
M  V30 34 C 3.815301 -4.203844 -0.929856 0
M  V30 35 H 4.333201 -3.130180 2.093895 0
M  V30 36 H 3.142856 -4.389166 2.043357 0
M  V30 37 H 2.448769 -2.088829 2.326896 0
M  V30 38 H 0.272080 -1.071587 2.569564 0
M  V30 39 H -2.646577 4.479964 2.860403 0
M  V30 40 H -0.694669 6.064597 2.967167 0
M  V30 41 H 1.158155 5.814735 1.410765 0
M  V30 42 H 2.352825 4.325270 -0.084555 0
M  V30 43 H 1.575032 2.949977 -0.885406 0
M  V30 44 H 1.715214 4.454905 -2.417968 0
M  V30 45 H -0.786645 2.439036 -0.393494 0
M  V30 46 H -4.776847 3.600476 1.216196 0
M  V30 47 H -4.971931 -1.431728 0.529418 0
M  V30 48 H -3.733486 -3.242138 -1.500531 0
M  V30 49 H -3.467726 -5.739771 -1.617980 0
M  V30 50 H -2.376653 -6.925539 0.252684 0
M  V30 51 H -1.545848 -5.641891 2.244377 0
M  V30 52 H -1.819047 -3.249441 2.319458 0
M  V30 53 H -0.700625 -2.292471 -1.432050 0
M  V30 54 H 1.483833 -3.299729 -1.644866 0
M  V30 55 H 5.509961 -2.436014 0.213724 0
M  V30 56 H 4.142314 -1.311326 -0.272120 0
M  V30 57 H 3.885503 -2.522519 -2.361954 0
M  V30 58 H 5.512436 -3.222663 -1.998751 0
M  V30 59 H 4.589278 -4.999219 -0.739049 0
M  V30 60 H 2.990110 -4.647501 -1.480617 0
M  V30 END ATOM
M  V30 BEGIN BOND
M  V30 1 1 1 2
M  V30 2 1 2 3
M  V30 3 2 3 4
M  V30 4 1 4 5
M  V30 5 2 5 6
M  V30 6 1 6 7
M  V30 7 2 7 8
M  V30 8 1 8 9
M  V30 9 1 9 10
M  V30 10 1 10 11
M  V30 11 2 11 12
M  V30 12 1 12 13
M  V30 13 2 13 14
M  V30 14 1 14 15
M  V30 15 1 15 16
M  V30 16 1 16 17
M  V30 17 2 15 18
M  V30 18 2 10 19
M  V30 19 1 19 20
M  V30 20 2 20 21
M  V30 21 1 21 22
M  V30 22 2 22 23
M  V30 23 1 23 24
M  V30 24 2 24 25
M  V30 25 1 25 26
M  V30 26 2 26 27
M  V30 27 1 27 28
M  V30 28 2 28 29
M  V30 29 1 6 30
M  V30 30 2 30 31
M  V30 31 1 2 32
M  V30 32 1 32 33
M  V30 33 1 33 34
M  V30 34 1 34 2
M  V30 35 1 31 3
M  V30 36 1 23 7
M  V30 37 1 29 24
M  V30 38 1 21 9
M  V30 39 1 18 11
M  V30 40 1 1 35
M  V30 41 1 1 36
M  V30 42 1 4 37
M  V30 43 1 5 38
M  V30 44 1 12 39
M  V30 45 1 13 40
M  V30 46 1 14 41
M  V30 47 1 16 42
M  V30 48 1 16 43
M  V30 49 1 17 44
M  V30 50 1 18 45
M  V30 51 1 19 46
M  V30 52 1 22 47
M  V30 53 1 25 48
M  V30 54 1 26 49
M  V30 55 1 27 50
M  V30 56 1 28 51
M  V30 57 1 29 52
M  V30 58 1 30 53
M  V30 59 1 31 54
M  V30 60 1 32 55
M  V30 61 1 32 56
M  V30 62 1 33 57
M  V30 63 1 33 58
M  V30 64 1 34 59
M  V30 65 1 34 60
M  V30 END BOND
M  V30 END CTAB
M  END
>  <Dataset>  (968) 
ChEMBL_Kinases

>  <Ligand_Instance>  (968) 
nan

>  <PDB_ID>  (968) 
nan

>  <Standardized_SMILES>  (968) 
NC1(c2ccc(-c3nn4c(-c5cccc(CO)c5)cnc4cc3-c3ccccc3)cc2)CCC1

>  <Name>  (968) 
nan

>  <Pocket>  (968) 
nan

>  <ATP_Site>  (968) 
nan

>  <Peripheral>  (968) 
nan

>  <Num_H_Atoms_ProtBoundConf>  (968) 
nan

>  <Num_Resolved_Atoms>  (968) 
nan

>  <Num_Not_Resolved_Atoms>  (968) 
nan

$$$$
CHEMBL4129166
     RDKit          3D

  0  0  0  0  0  0  0  0  0  0999 V3000
M  V30 BEGIN CTAB
M  V30 COUNTS 52 55 0 0 0
M  V30 BEGIN ATOM
M  V30 1 C 1.868732 -0.780287 2.272480 0
M  V30 2 N 2.788429 -1.855269 2.192577 0
M  V30 3 C 2.546020 -2.939286 3.095178 0
M  V30 4 C 4.116011 -1.603409 1.840640 0
M  V30 5 C 4.393749 -1.155921 0.424302 0
M  V30 6 O 3.857205 -0.066431 -0.017807 0
M  V30 7 C 3.258195 0.984609 -0.444214 0
M  V30 8 C 3.969423 2.091310 -0.891336 0
M  V30 9 N 3.294950 3.170364 -1.329170 0
M  V30 10 C 1.932138 3.168983 -1.330566 0
M  V30 11 C 1.196987 2.087659 -0.894230 0
M  V30 12 C -0.260452 2.076049 -0.892931 0
M  V30 13 C -1.031994 3.133580 -1.321931 0
M  V30 14 C -2.408777 3.070879 -1.299305 0
M  V30 15 C -3.092688 1.959418 -0.851234 0
M  V30 16 N -4.392940 1.632812 -0.721329 0
M  V30 17 C -4.474137 0.387690 -0.217393 0
M  V30 18 C -3.180217 -0.090151 -0.021637 0
M  V30 19 C -2.894985 -1.417205 0.514264 0
M  V30 20 C -3.663604 -2.453558 -0.031282 0
M  V30 21 C -3.511179 -3.763319 0.370870 0
M  V30 22 C -2.574358 -4.058563 1.338156 0
M  V30 23 C -2.356615 -5.446909 1.818949 0
M  V30 24 F -3.510566 -6.212655 1.625219 0
M  V30 25 F -2.085334 -5.491432 3.172694 0
M  V30 26 F -1.353860 -6.100794 1.156315 0
M  V30 27 C -1.808411 -3.061041 1.888342 0
M  V30 28 C -1.962084 -1.752130 1.484810 0
M  V30 29 C -2.294914 0.892333 -0.417901 0
M  V30 30 C -0.917846 0.953535 -0.440135 0
M  V30 31 N 1.900832 1.025541 -0.463111 0
M  V30 32 H 1.366430 -0.840178 3.284259 0
M  V30 33 H 1.028372 -0.942549 1.559326 0
M  V30 34 H 2.319025 0.235778 2.192381 0
M  V30 35 H 3.267471 -2.957917 3.938859 0
M  V30 36 H 1.541027 -2.738115 3.570023 0
M  V30 37 H 2.453886 -3.931074 2.632104 0
M  V30 38 H 4.577869 -0.885267 2.542809 0
M  V30 39 H 4.696329 -2.557540 1.976559 0
M  V30 40 H 5.535953 -1.117358 0.327255 0
M  V30 41 H 4.168396 -2.039353 -0.271703 0
M  V30 42 H 5.045883 2.155011 -0.915045 0
M  V30 43 H 1.462779 4.055924 -1.689087 0
M  V30 44 H -0.562643 4.034745 -1.685263 0
M  V30 45 H -2.962290 3.934109 -1.649436 0
M  V30 46 H -5.150444 2.297533 -0.991847 0
M  V30 47 H -5.405856 -0.155229 0.000709 0
M  V30 48 H -4.419771 -2.265993 -0.802277 0
M  V30 49 H -4.104596 -4.577578 -0.045456 0
M  V30 50 H -1.047340 -3.198065 2.653231 0
M  V30 51 H -1.424125 -0.885171 1.838397 0
M  V30 52 H -0.369721 0.095340 -0.091394 0
M  V30 END ATOM
M  V30 BEGIN BOND
M  V30 1 1 1 2
M  V30 2 1 2 3
M  V30 3 1 2 4
M  V30 4 1 4 5
M  V30 5 1 5 6
M  V30 6 1 6 7
M  V30 7 2 7 8
M  V30 8 1 8 9
M  V30 9 2 9 10
M  V30 10 1 10 11
M  V30 11 1 11 12
M  V30 12 2 12 13
M  V30 13 1 13 14
M  V30 14 2 14 15
M  V30 15 1 15 16
M  V30 16 1 16 17
M  V30 17 2 17 18
M  V30 18 1 18 19
M  V30 19 2 19 20
M  V30 20 1 20 21
M  V30 21 2 21 22
M  V30 22 1 22 23
M  V30 23 1 23 24
M  V30 24 1 23 25
M  V30 25 1 23 26
M  V30 26 1 22 27
M  V30 27 2 27 28
M  V30 28 1 18 29
M  V30 29 2 29 30
M  V30 30 2 11 31
M  V30 31 1 31 7
M  V30 32 1 30 12
M  V30 33 1 29 15
M  V30 34 1 28 19
M  V30 35 1 1 32
M  V30 36 1 1 33
M  V30 37 1 1 34
M  V30 38 1 3 35
M  V30 39 1 3 36
M  V30 40 1 3 37
M  V30 41 1 4 38
M  V30 42 1 4 39
M  V30 43 1 5 40
M  V30 44 1 5 41
M  V30 45 1 8 42
M  V30 46 1 10 43
M  V30 47 1 13 44
M  V30 48 1 14 45
M  V30 49 1 16 46
M  V30 50 1 17 47
M  V30 51 1 20 48
M  V30 52 1 21 49
M  V30 53 1 27 50
M  V30 54 1 28 51
M  V30 55 1 30 52
M  V30 END BOND
M  V30 END CTAB
M  END
>  <Dataset>  (969) 
ChEMBL_Kinases

>  <Ligand_Instance>  (969) 
nan

>  <PDB_ID>  (969) 
nan

>  <Standardized_SMILES>  (969) 
CN(C)CCOc1cncc(-c2ccc3[nH]cc(-c4ccc(C(F)(F)F)cc4)c3c2)n1

>  <Name>  (969) 
nan

>  <Pocket>  (969) 
nan

>  <ATP_Site>  (969) 
nan

>  <Peripheral>  (969) 
nan

>  <Num_H_Atoms_ProtBoundConf>  (969) 
nan

>  <Num_Resolved_Atoms>  (969) 
nan

>  <Num_Not_Resolved_Atoms>  (969) 
nan

$$$$
CHEMBL3672485
     RDKit          3D

  0  0  0  0  0  0  0  0  0  0999 V3000
M  V30 BEGIN CTAB
M  V30 COUNTS 59 64 0 0 0
M  V30 BEGIN ATOM
M  V30 1 C 2.855766 -6.089710 3.621150 0
M  V30 2 C 3.200280 -4.686765 3.247640 0
M  V30 3 C 2.210337 -3.736895 3.490425 0
M  V30 4 C 2.512313 -2.436106 3.151098 0
M  V30 5 C 3.737615 -2.073266 2.593965 0
M  V30 6 C 3.965276 -0.646823 2.263864 0
M  V30 7 C 5.012548 0.226247 2.455970 0
M  V30 8 N 4.635316 1.407363 1.937057 0
M  V30 9 C 3.385281 1.303949 1.425542 0
M  V30 10 C 2.641966 2.288821 0.806587 0
M  V30 11 C 1.387923 1.928706 0.370472 0
M  V30 12 C 0.431831 2.787368 -0.301673 0
M  V30 13 C 0.026984 3.898953 0.446101 0
M  V30 14 C -0.875369 4.823145 -0.031140 0
M  V30 15 C -1.413607 4.668745 -1.289563 0
M  V30 16 C -1.014738 3.577350 -2.021010 0
M  V30 17 C -0.115450 2.645567 -1.560180 0
M  V30 18 C 0.966053 0.646627 0.572807 0
M  V30 19 C -0.301114 0.029283 0.207010 0
M  V30 20 C -1.557670 0.379202 0.653600 0
M  V30 21 C -2.657141 -0.319500 0.200164 0
M  V30 22 C -2.535763 -1.354993 -0.684438 0
M  V30 23 C -3.646316 -2.148489 -1.217829 0
M  V30 24 N -3.425151 -3.587965 -1.151738 0
M  V30 25 C -5.043037 -1.765208 -0.738292 0
M  V30 26 C -5.486571 -2.117354 -2.166622 0
M  V30 27 C -4.080923 -1.669937 -2.592756 0
M  V30 28 C -1.286236 -1.723167 -1.145608 0
M  V30 29 C -0.159183 -1.028410 -0.698867 0
M  V30 30 N 1.777523 -0.236090 1.190604 0
M  V30 31 N 2.989755 0.052641 1.630101 0
M  V30 32 C 4.702736 -3.030088 2.362438 0
M  V30 33 C 4.411664 -4.335217 2.698061 0
M  V30 34 H 1.771214 -6.293193 3.468402 0
M  V30 35 H 3.115383 -6.285844 4.669303 0
M  V30 36 H 3.405614 -6.771181 2.926532 0
M  V30 37 H 1.241092 -3.966305 3.921180 0
M  V30 38 H 1.753237 -1.661786 3.329392 0
M  V30 39 H 5.905421 -0.124010 2.948689 0
M  V30 40 H 2.943682 3.298941 0.634093 0
M  V30 41 H 0.390892 4.103265 1.433639 0
M  V30 42 H -1.194411 5.683941 0.536556 0
M  V30 43 H -2.132593 5.389415 -1.691888 0
M  V30 44 H -1.415184 3.421071 -3.014281 0
M  V30 45 H 0.236055 1.771215 -2.084599 0
M  V30 46 H -1.590500 1.203357 1.349942 0
M  V30 47 H -3.629788 -0.044037 0.550446 0
M  V30 48 H -3.508008 -4.008221 -2.101645 0
M  V30 49 H -4.186214 -4.001490 -0.569240 0
M  V30 50 H -5.463228 -2.405746 0.041736 0
M  V30 51 H -5.167733 -0.676815 -0.625629 0
M  V30 52 H -5.551580 -3.216571 -2.294283 0
M  V30 53 H -6.300543 -1.509676 -2.568106 0
M  V30 54 H -3.660161 -2.248139 -3.438539 0
M  V30 55 H -4.029257 -0.570670 -2.660258 0
M  V30 56 H -1.128994 -2.539522 -1.850667 0
M  V30 57 H 0.816639 -1.355215 -1.091557 0
M  V30 58 H 5.650948 -2.748489 1.931346 0
M  V30 59 H 5.143987 -5.137214 2.534041 0
M  V30 END ATOM
M  V30 BEGIN BOND
M  V30 1 1 1 2
M  V30 2 2 2 3
M  V30 3 1 3 4
M  V30 4 2 4 5
M  V30 5 1 5 6
M  V30 6 2 6 7
M  V30 7 1 7 8
M  V30 8 2 8 9
M  V30 9 1 9 10
M  V30 10 2 10 11
M  V30 11 1 11 12
M  V30 12 2 12 13
M  V30 13 1 13 14
M  V30 14 2 14 15
M  V30 15 1 15 16
M  V30 16 2 16 17
M  V30 17 1 11 18
M  V30 18 1 18 19
M  V30 19 2 19 20
M  V30 20 1 20 21
M  V30 21 2 21 22
M  V30 22 1 22 23
M  V30 23 1 23 24
M  V30 24 1 23 25
M  V30 25 1 25 26
M  V30 26 1 26 27
M  V30 27 1 22 28
M  V30 28 2 28 29
M  V30 29 2 18 30
M  V30 30 1 30 31
M  V30 31 1 5 32
M  V30 32 2 32 33
M  V30 33 1 33 2
M  V30 34 1 31 6
M  V30 35 1 31 9
M  V30 36 1 17 12
M  V30 37 1 29 19
M  V30 38 1 27 23
M  V30 39 1 1 34
M  V30 40 1 1 35
M  V30 41 1 1 36
M  V30 42 1 3 37
M  V30 43 1 4 38
M  V30 44 1 7 39
M  V30 45 1 10 40
M  V30 46 1 13 41
M  V30 47 1 14 42
M  V30 48 1 15 43
M  V30 49 1 16 44
M  V30 50 1 17 45
M  V30 51 1 20 46
M  V30 52 1 21 47
M  V30 53 1 24 48
M  V30 54 1 24 49
M  V30 55 1 25 50
M  V30 56 1 25 51
M  V30 57 1 26 52
M  V30 58 1 26 53
M  V30 59 1 27 54
M  V30 60 1 27 55
M  V30 61 1 28 56
M  V30 62 1 29 57
M  V30 63 1 32 58
M  V30 64 1 33 59
M  V30 END BOND
M  V30 END CTAB
M  END
>  <Dataset>  (970) 
ChEMBL_Kinases

>  <Ligand_Instance>  (970) 
nan

>  <PDB_ID>  (970) 
nan

>  <Standardized_SMILES>  (970) 
Cc1ccc(-c2cnc3cc(-c4ccccc4)c(-c4ccc(C5(N)CCC5)cc4)nn23)cc1

>  <Name>  (970) 
nan

>  <Pocket>  (970) 
nan

>  <ATP_Site>  (970) 
nan

>  <Peripheral>  (970) 
nan

>  <Num_H_Atoms_ProtBoundConf>  (970) 
nan

>  <Num_Resolved_Atoms>  (970) 
nan

>  <Num_Not_Resolved_Atoms>  (970) 
nan

$$$$
CHEMBL3672491
     RDKit          3D

  0  0  0  0  0  0  0  0  0  0999 V3000
M  V30 BEGIN CTAB
M  V30 COUNTS 60 65 0 0 0
M  V30 BEGIN ATOM
M  V30 1 N 5.499052 -4.181911 -0.762204 0
M  V30 2 C 5.757922 -3.410399 0.398812 0
M  V30 3 O 6.565667 -3.875294 1.250589 0
M  V30 4 C 5.131810 -2.116421 0.638347 0
M  V30 5 C 5.447800 -1.404110 1.775482 0
M  V30 6 C 4.859826 -0.173597 2.016883 0
M  V30 7 C 3.952833 0.342985 1.115446 0
M  V30 8 C 3.257849 1.645509 1.257630 0
M  V30 9 C 3.661482 2.920184 1.597941 0
M  V30 10 N 2.578521 3.716990 1.568710 0
M  V30 11 C 1.488279 3.006567 1.222270 0
M  V30 12 C 0.158539 3.348595 1.055317 0
M  V30 13 C -0.768372 2.393354 0.689595 0
M  V30 14 C -2.190423 2.603682 0.482063 0
M  V30 15 C -2.803001 2.811601 1.728245 0
M  V30 16 C -4.164579 3.043811 1.829902 0
M  V30 17 C -4.940355 3.072763 0.691685 0
M  V30 18 C -4.330766 2.867786 -0.527872 0
M  V30 19 C -2.974454 2.636764 -0.629274 0
M  V30 20 C -0.302860 1.110456 0.505058 0
M  V30 21 C -1.031816 -0.092811 0.123307 0
M  V30 22 C -1.652744 -0.493234 -1.040264 0
M  V30 23 C -2.279519 -1.718212 -1.112277 0
M  V30 24 C -2.313560 -2.587097 -0.038221 0
M  V30 25 C -3.035621 -3.863036 -0.322077 0
M  V30 26 N -4.204358 -3.656089 -1.130554 0
M  V30 27 C -3.123751 -4.851099 0.784762 0
M  V30 28 C -1.841303 -5.504212 0.316879 0
M  V30 29 C -2.098253 -4.850077 -1.034019 0
M  V30 30 C -1.704403 -2.211761 1.127472 0
M  V30 31 C -1.071860 -0.982277 1.209242 0
M  V30 32 N 1.006441 0.855459 0.686489 0
M  V30 33 N 1.912911 1.744872 1.034814 0
M  V30 34 C 3.625000 -0.372908 -0.042841 0
M  V30 35 C 4.225288 -1.597726 -0.260619 0
M  V30 36 H 4.517889 -4.508247 -0.516161 0
M  V30 37 H 6.013944 -4.433010 -1.646177 0
M  V30 38 H 6.157008 -1.799119 2.489909 0
M  V30 39 H 5.071561 0.425460 2.891878 0
M  V30 40 H 4.694589 3.110907 1.825089 0
M  V30 41 H -0.207132 4.354830 1.199717 0
M  V30 42 H -2.335651 2.821594 2.726109 0
M  V30 43 H -4.702806 3.210865 2.744161 0
M  V30 44 H -6.021986 3.251146 0.706806 0
M  V30 45 H -4.840804 2.869196 -1.480835 0
M  V30 46 H -2.392810 2.468890 -1.524996 0
M  V30 47 H -1.551603 0.267490 -1.798099 0
M  V30 48 H -2.736153 -1.931660 -2.077795 0
M  V30 49 H -4.969959 -4.305716 -0.928302 0
M  V30 50 H -3.906027 -3.638453 -2.132973 0
M  V30 51 H -3.167898 -4.512086 1.816981 0
M  V30 52 H -3.963515 -5.570616 0.562405 0
M  V30 53 H -1.838015 -6.610295 0.291834 0
M  V30 54 H -0.951590 -5.140250 0.857194 0
M  V30 55 H -1.143456 -4.374346 -1.391311 0
M  V30 56 H -2.582971 -5.518052 -1.748091 0
M  V30 57 H -1.764056 -2.925749 1.923096 0
M  V30 58 H -0.634833 -0.832888 2.207667 0
M  V30 59 H 2.930063 -0.028434 -0.782233 0
M  V30 60 H 3.985663 -2.175525 -1.157719 0
M  V30 END ATOM
M  V30 BEGIN BOND
M  V30 1 1 1 2
M  V30 2 2 2 3
M  V30 3 1 2 4
M  V30 4 2 4 5
M  V30 5 1 5 6
M  V30 6 2 6 7
M  V30 7 1 7 8
M  V30 8 2 8 9
M  V30 9 1 9 10
M  V30 10 2 10 11
M  V30 11 1 11 12
M  V30 12 2 12 13
M  V30 13 1 13 14
M  V30 14 2 14 15
M  V30 15 1 15 16
M  V30 16 2 16 17
M  V30 17 1 17 18
M  V30 18 2 18 19
M  V30 19 1 13 20
M  V30 20 1 20 21
M  V30 21 2 21 22
M  V30 22 1 22 23
M  V30 23 2 23 24
M  V30 24 1 24 25
M  V30 25 1 25 26
M  V30 26 1 25 27
M  V30 27 1 27 28
M  V30 28 1 28 29
M  V30 29 1 24 30
M  V30 30 2 30 31
M  V30 31 2 20 32
M  V30 32 1 32 33
M  V30 33 1 7 34
M  V30 34 2 34 35
M  V30 35 1 35 4
M  V30 36 1 33 8
M  V30 37 1 33 11
M  V30 38 1 19 14
M  V30 39 1 31 21
M  V30 40 1 29 25
M  V30 41 1 1 36
M  V30 42 1 1 37
M  V30 43 1 5 38
M  V30 44 1 6 39
M  V30 45 1 9 40
M  V30 46 1 12 41
M  V30 47 1 15 42
M  V30 48 1 16 43
M  V30 49 1 17 44
M  V30 50 1 18 45
M  V30 51 1 19 46
M  V30 52 1 22 47
M  V30 53 1 23 48
M  V30 54 1 26 49
M  V30 55 1 26 50
M  V30 56 1 27 51
M  V30 57 1 27 52
M  V30 58 1 28 53
M  V30 59 1 28 54
M  V30 60 1 29 55
M  V30 61 1 29 56
M  V30 62 1 30 57
M  V30 63 1 31 58
M  V30 64 1 34 59
M  V30 65 1 35 60
M  V30 END BOND
M  V30 END CTAB
M  END
>  <Dataset>  (971) 
ChEMBL_Kinases

>  <Ligand_Instance>  (971) 
nan

>  <PDB_ID>  (971) 
nan

>  <Standardized_SMILES>  (971) 
NC(=O)c1ccc(-c2cnc3cc(-c4ccccc4)c(-c4ccc(C5(N)CCC5)cc4)nn23)cc1

>  <Name>  (971) 
nan

>  <Pocket>  (971) 
nan

>  <ATP_Site>  (971) 
nan

>  <Peripheral>  (971) 
nan

>  <Num_H_Atoms_ProtBoundConf>  (971) 
nan

>  <Num_Resolved_Atoms>  (971) 
nan

>  <Num_Not_Resolved_Atoms>  (971) 
nan

$$$$
CHEMBL3673984
     RDKit          3D

  0  0  0  0  0  0  0  0  0  0999 V3000
M  V30 BEGIN CTAB
M  V30 COUNTS 48 51 0 0 0
M  V30 BEGIN ATOM
M  V30 1 C -0.184193 -2.306407 3.250174 0
M  V30 2 O -0.270174 -1.740126 1.940981 0
M  V30 3 C 0.330462 -2.423601 0.892305 0
M  V30 4 C 1.000465 -3.630605 1.102935 0
M  V30 5 C 1.610303 -4.341154 0.088334 0
M  V30 6 C 1.560729 -3.843331 -1.196649 0
M  V30 7 C 0.893295 -2.650085 -1.378023 0
M  V30 8 C 0.261593 -1.896643 -0.381684 0
M  V30 9 C -0.419431 -0.637234 -0.692087 0
M  V30 10 C 0.099795 0.505672 0.076929 0
M  V30 11 C -0.593229 1.370805 0.797466 0
M  V30 12 C -0.039395 2.517063 1.564355 0
M  V30 13 C 1.379043 2.149885 1.945353 0
M  V30 14 C 1.992707 3.282171 2.740023 0
M  V30 15 C 1.393261 0.912201 2.805661 0
M  V30 16 C 2.142404 1.893236 0.665671 0
M  V30 17 C 1.543401 0.690656 0.027403 0
M  V30 18 O 2.311786 -0.150475 -0.548716 0
M  V30 19 N -1.992741 1.222491 0.868243 0
M  V30 20 C -2.664160 0.174920 0.189034 0
M  V30 21 N -3.974158 -0.185632 0.093517 0
M  V30 22 N -4.009414 -1.250879 -0.679780 0
M  V30 23 C -2.783019 -1.632405 -1.115457 0
M  V30 24 C -2.509918 -2.804322 -2.005873 0
M  V30 25 C -1.906130 -0.707817 -0.552575 0
M  V30 26 H -0.608659 -3.333567 3.276553 0
M  V30 27 H 0.874685 -2.421614 3.568677 0
M  V30 28 H -0.706228 -1.695481 3.993132 0
M  V30 29 H 1.067690 -4.066083 2.101103 0
M  V30 30 H 2.129710 -5.273703 0.242525 0
M  V30 31 H 2.006999 -4.322201 -2.067137 0
M  V30 32 H 0.837565 -2.230512 -2.388735 0
M  V30 33 H -0.239977 -0.405858 -1.779077 0
M  V30 34 H -0.652778 2.773830 2.438614 0
M  V30 35 H 0.067484 3.407222 0.884746 0
M  V30 36 H 2.511779 3.987908 2.067649 0
M  V30 37 H 1.138314 3.806327 3.242845 0
M  V30 38 H 2.645349 2.874716 3.516538 0
M  V30 39 H 2.049795 1.066499 3.705534 0
M  V30 40 H 0.356602 0.678669 3.086449 0
M  V30 41 H 1.807234 0.044972 2.267052 0
M  V30 42 H 3.204474 1.689368 0.986923 0
M  V30 43 H 2.070780 2.799466 0.031734 0
M  V30 44 H -2.608414 1.860718 1.413441 0
M  V30 45 H -4.924578 -1.725905 -0.909122 0
M  V30 46 H -3.449729 -3.004278 -2.583360 0
M  V30 47 H -1.729143 -2.534400 -2.737159 0
M  V30 48 H -2.278213 -3.661691 -1.361741 0
M  V30 END ATOM
M  V30 BEGIN BOND
M  V30 1 1 1 2
M  V30 2 1 2 3
M  V30 3 2 3 4
M  V30 4 1 4 5
M  V30 5 2 5 6
M  V30 6 1 6 7
M  V30 7 2 7 8
M  V30 8 1 8 9
M  V30 9 1 9 10
M  V30 10 2 10 11
M  V30 11 1 11 12
M  V30 12 1 12 13
M  V30 13 1 13 14
M  V30 14 1 13 15
M  V30 15 1 13 16
M  V30 16 1 16 17
M  V30 17 2 17 18
M  V30 18 1 11 19
M  V30 19 1 19 20
M  V30 20 2 20 21
M  V30 21 1 21 22
M  V30 22 1 22 23
M  V30 23 1 23 24
M  V30 24 2 23 25
M  V30 25 1 8 3
M  V30 26 1 25 9
M  V30 27 1 17 10
M  V30 28 1 25 20
M  V30 29 1 1 26
M  V30 30 1 1 27
M  V30 31 1 1 28
M  V30 32 1 4 29
M  V30 33 1 5 30
M  V30 34 1 6 31
M  V30 35 1 7 32
M  V30 36 1 9 33
M  V30 37 1 12 34
M  V30 38 1 12 35
M  V30 39 1 14 36
M  V30 40 1 14 37
M  V30 41 1 14 38
M  V30 42 1 15 39
M  V30 43 1 15 40
M  V30 44 1 15 41
M  V30 45 1 16 42
M  V30 46 1 16 43
M  V30 47 1 19 44
M  V30 48 1 22 45
M  V30 49 1 24 46
M  V30 50 1 24 47
M  V30 51 1 24 48
M  V30 END BOND
M  V30 END CTAB
M  END
>  <Dataset>  (972) 
ChEMBL_Kinases

>  <Ligand_Instance>  (972) 
nan

>  <PDB_ID>  (972) 
nan

>  <Standardized_SMILES>  (972) 
COc1ccccc1C1C2=C(CC(C)(C)CC2=O)Nc2n[nH]c(C)c21

>  <Name>  (972) 
nan

>  <Pocket>  (972) 
nan

>  <ATP_Site>  (972) 
nan

>  <Peripheral>  (972) 
nan

>  <Num_H_Atoms_ProtBoundConf>  (972) 
nan

>  <Num_Resolved_Atoms>  (972) 
nan

>  <Num_Not_Resolved_Atoms>  (972) 
nan

$$$$
CHEMBL4163130
     RDKit          3D

  0  0  0  0  0  0  0  0  0  0999 V3000
M  V30 BEGIN CTAB
M  V30 COUNTS 49 50 0 0 0
M  V30 BEGIN ATOM
M  V30 1 C 2.927820 -6.038148 1.706894 0
M  V30 2 O 2.009148 -5.900944 0.644449 0
M  V30 3 C 1.404811 -4.722313 0.293162 0
M  V30 4 C 1.592349 -3.507892 0.903730 0
M  V30 5 C 0.980436 -2.333742 0.541725 0
M  V30 6 C 0.096033 -2.313839 -0.514083 0
M  V30 7 C -0.657945 -1.233968 -1.129482 0
M  V30 8 C -0.104757 -0.092365 -1.428503 0
M  V30 9 C 1.231343 0.495791 -1.310983 0
M  V30 10 C 0.918921 1.917911 -0.926364 0
M  V30 11 C 2.075495 2.843191 -1.226100 0
M  V30 12 O 3.186940 2.584633 -0.426051 0
M  V30 13 C 0.489818 2.111916 0.484908 0
M  V30 14 O -0.605172 1.291696 0.876928 0
M  V30 15 C -1.065136 1.430508 2.178160 0
M  V30 16 O -0.326575 2.313556 2.685141 0
M  V30 17 C -2.193786 0.658921 2.758178 0
M  V30 18 C -1.900535 -0.824166 2.752978 0
M  V30 19 C -3.490252 0.932789 2.028136 0
M  V30 20 C -2.381561 1.088813 4.193487 0
M  V30 21 O -0.173464 2.223802 -1.774670 0
M  V30 22 C -0.860161 1.022238 -2.050122 0
M  V30 23 O -1.936081 1.003363 -2.724520 0
M  V30 24 C -0.119620 -3.538764 -1.160661 0
M  V30 25 C 0.510017 -4.703147 -0.773702 0
M  V30 26 H 3.555962 -6.925719 1.494482 0
M  V30 27 H 2.421654 -6.225594 2.693249 0
M  V30 28 H 3.589348 -5.182815 1.860175 0
M  V30 29 H 2.274788 -3.460214 1.738687 0
M  V30 30 H 1.104466 -1.375600 1.015677 0
M  V30 31 H -1.723110 -1.394021 -1.343539 0
M  V30 32 H 1.665685 0.565010 -2.353651 0
M  V30 33 H 1.944808 0.006460 -0.660826 0
M  V30 34 H 2.303229 2.812386 -2.309891 0
M  V30 35 H 1.767497 3.881601 -0.984943 0
M  V30 36 H 3.430815 1.618300 -0.542691 0
M  V30 37 H 1.326961 2.020809 1.214893 0
M  V30 38 H 0.130775 3.159783 0.577594 0
M  V30 39 H -2.150507 -1.230057 3.742815 0
M  V30 40 H -0.830324 -1.054791 2.590694 0
M  V30 41 H -2.471614 -1.362793 1.964323 0
M  V30 42 H -3.339572 1.435691 1.067289 0
M  V30 43 H -4.043929 -0.032415 1.902526 0
M  V30 44 H -4.162060 1.588937 2.635414 0
M  V30 45 H -2.094320 0.285960 4.908271 0
M  V30 46 H -3.441334 1.361382 4.371116 0
M  V30 47 H -1.807110 2.018139 4.367958 0
M  V30 48 H -0.798283 -3.674324 -2.019222 0
M  V30 49 H 0.330992 -5.653405 -1.287436 0
M  V30 END ATOM
M  V30 BEGIN BOND
M  V30 1 1 1 2
M  V30 2 1 2 3
M  V30 3 2 3 4
M  V30 4 1 4 5
M  V30 5 2 5 6
M  V30 6 1 6 7
M  V30 7 2 7 8
M  V30 8 1 8 9
M  V30 9 1 9 10
M  V30 10 1 10 11
M  V30 11 1 11 12
M  V30 12 1 10 13
M  V30 13 1 13 14
M  V30 14 1 14 15
M  V30 15 2 15 16
M  V30 16 1 15 17
M  V30 17 1 17 18
M  V30 18 1 17 19
M  V30 19 1 17 20
M  V30 20 1 10 21
M  V30 21 1 21 22
M  V30 22 2 22 23
M  V30 23 1 6 24
M  V30 24 2 24 25
M  V30 25 1 25 3
M  V30 26 1 22 8
M  V30 27 1 1 26
M  V30 28 1 1 27
M  V30 29 1 1 28
M  V30 30 1 4 29
M  V30 31 1 5 30
M  V30 32 1 7 31
M  V30 33 1 9 32
M  V30 34 1 9 33
M  V30 35 1 11 34
M  V30 36 1 11 35
M  V30 37 1 12 36
M  V30 38 1 13 37
M  V30 39 1 13 38
M  V30 40 1 18 39
M  V30 41 1 18 40
M  V30 42 1 18 41
M  V30 43 1 19 42
M  V30 44 1 19 43
M  V30 45 1 19 44
M  V30 46 1 20 45
M  V30 47 1 20 46
M  V30 48 1 20 47
M  V30 49 1 24 48
M  V30 50 1 25 49
M  V30 END BOND
M  V30 END CTAB
M  END
>  <Dataset>  (973) 
ChEMBL_Kinases

>  <Ligand_Instance>  (973) 
nan

>  <PDB_ID>  (973) 
nan

>  <Standardized_SMILES>  (973) 
COc1ccc(/C=C2\CC(CO)(COC(=O)C(C)(C)C)OC2=O)cc1

>  <Name>  (973) 
nan

>  <Pocket>  (973) 
nan

>  <ATP_Site>  (973) 
nan

>  <Peripheral>  (973) 
nan

>  <Num_H_Atoms_ProtBoundConf>  (973) 
nan

>  <Num_Resolved_Atoms>  (973) 
nan

>  <Num_Not_Resolved_Atoms>  (973) 
nan

$$$$
CHEMBL4163110
     RDKit          3D

  0  0  0  0  0  0  0  0  0  0999 V3000
M  V30 BEGIN CTAB
M  V30 COUNTS 32 34 0 0 0
M  V30 BEGIN ATOM
M  V30 1 O 1.730517 0.283490 3.871620 0
M  V30 2 C 2.069669 -0.655439 3.110693 0
M  V30 3 O 2.778404 -1.603083 3.821489 0
M  V30 4 C 1.795487 -0.793217 1.687909 0
M  V30 5 N 2.274999 -1.906202 1.071563 0
M  V30 6 C 2.072237 -2.093795 -0.240002 0
M  V30 7 C 2.542839 -3.214440 -0.901021 0
M  V30 8 C 2.337723 -3.419669 -2.248124 0
M  V30 9 C 1.627352 -2.427714 -2.898986 0
M  V30 10 C 1.119829 -1.278855 -2.330843 0
M  V30 11 C 1.375500 -1.162778 -0.981441 0
M  V30 12 N 0.916545 -0.071357 -0.328615 0
M  V30 13 C 1.096004 0.153115 0.972873 0
M  V30 14 N 0.565278 1.323298 1.628939 0
M  V30 15 C -0.821585 1.027543 1.756436 0
M  V30 16 C -1.582739 0.535329 2.794591 0
M  V30 17 C -2.939948 0.341880 2.678484 0
M  V30 18 C -3.553502 0.651166 1.486516 0
M  V30 19 O -4.922699 0.431517 1.439704 0
M  V30 20 C -2.853192 1.147831 0.407748 0
M  V30 21 C -1.471469 1.335552 0.551346 0
M  V30 22 H 2.683100 -1.788728 4.811058 0
M  V30 23 H 3.095877 -3.953115 -0.314812 0
M  V30 24 H 2.705846 -4.295279 -2.762837 0
M  V30 25 H 1.451950 -2.571158 -3.977633 0
M  V30 26 H 0.573017 -0.549924 -2.911810 0
M  V30 27 H 1.167741 2.155124 1.906157 0
M  V30 28 H -0.985406 0.339544 3.652559 0
M  V30 29 H -3.378951 -0.050393 3.585727 0
M  V30 30 H -5.364331 -0.343116 0.936743 0
M  V30 31 H -3.382854 1.377370 -0.509610 0
M  V30 32 H -1.025353 1.731204 -0.359047 0
M  V30 END ATOM
M  V30 BEGIN BOND
M  V30 1 2 1 2
M  V30 2 1 2 3
M  V30 3 1 2 4
M  V30 4 2 4 5
M  V30 5 1 5 6
M  V30 6 2 6 7
M  V30 7 1 7 8
M  V30 8 2 8 9
M  V30 9 1 9 10
M  V30 10 2 10 11
M  V30 11 1 11 12
M  V30 12 2 12 13
M  V30 13 1 13 14
M  V30 14 1 14 15
M  V30 15 2 15 16
M  V30 16 1 16 17
M  V30 17 2 17 18
M  V30 18 1 18 19
M  V30 19 1 18 20
M  V30 20 2 20 21
M  V30 21 1 13 4
M  V30 22 1 21 15
M  V30 23 1 11 6
M  V30 24 1 3 22
M  V30 25 1 7 23
M  V30 26 1 8 24
M  V30 27 1 9 25
M  V30 28 1 10 26
M  V30 29 1 14 27
M  V30 30 1 16 28
M  V30 31 1 17 29
M  V30 32 1 19 30
M  V30 33 1 20 31
M  V30 34 1 21 32
M  V30 END BOND
M  V30 END CTAB
M  END
>  <Dataset>  (974) 
ChEMBL_Kinases

>  <Ligand_Instance>  (974) 
nan

>  <PDB_ID>  (974) 
nan

>  <Standardized_SMILES>  (974) 
O=C(O)c1nc2ccccc2nc1Nc1ccc(O)cc1

>  <Name>  (974) 
nan

>  <Pocket>  (974) 
nan

>  <ATP_Site>  (974) 
nan

>  <Peripheral>  (974) 
nan

>  <Num_H_Atoms_ProtBoundConf>  (974) 
nan

>  <Num_Resolved_Atoms>  (974) 
nan

>  <Num_Not_Resolved_Atoms>  (974) 
nan

$$$$
CHEMBL4162996
     RDKit          3D

  0  0  0  0  0  0  0  0  0  0999 V3000
M  V30 BEGIN CTAB
M  V30 COUNTS 75 80 0 0 0
M  V30 BEGIN ATOM
M  V30 1 O 1.046489 -0.109259 3.480329 0
M  V30 2 C 2.095105 -0.355607 4.110702 0
M  V30 3 N 2.699252 -1.568784 3.699634 0
M  V30 4 C 1.891149 -2.156110 2.652608 0
M  V30 5 C 2.284247 -1.723017 1.403226 0
M  V30 6 C 1.594950 -2.199890 0.281065 0
M  V30 7 C 0.545136 -3.086744 0.450607 0
M  V30 8 C -0.211192 -3.607943 -0.722094 0
M  V30 9 C -1.381510 -2.737592 -1.064733 0
M  V30 10 N -2.146054 -3.206809 -2.201746 0
M  V30 11 C -3.269149 -2.446885 -2.584586 0
M  V30 12 N -3.630406 -1.334332 -1.934442 0
M  V30 13 C -4.695230 -0.589396 -2.274580 0
M  V30 14 N -5.445476 -0.982215 -3.331525 0
M  V30 15 C -5.127403 -2.104328 -4.030974 0
M  V30 16 O -5.695120 -2.659222 -5.060720 0
M  V30 17 C -5.054717 -3.745093 -5.423919 0
M  V30 18 C -5.508728 -4.531536 -6.552042 0
M  V30 19 C -6.622891 -4.147825 -7.259707 0
M  V30 20 C -7.142970 -4.818411 -8.345916 0
M  V30 21 C -6.516339 -5.968336 -8.778615 0
M  V30 22 C -5.393012 -6.404226 -8.108427 0
M  V30 23 C -4.931227 -5.682117 -7.031560 0
M  V30 24 C -3.998346 -3.891821 -4.558944 0
M  V30 25 Cl -2.835767 -5.164496 -4.595840 0
M  V30 26 C -4.029173 -2.849241 -3.659394 0
M  V30 27 C 0.175661 -3.501638 1.715060 0
M  V30 28 C 0.847263 -3.038422 2.827582 0
M  V30 29 N 2.605432 0.480303 5.109026 0
M  V30 30 C 2.461785 1.669384 5.845710 0
M  V30 31 C 1.579926 1.521307 6.893359 0
M  V30 32 C 1.332846 2.563834 7.770592 0
M  V30 33 C 2.012897 3.738750 7.533761 0
M  V30 34 C 2.880375 3.838734 6.477992 0
M  V30 35 C 3.151892 2.814450 5.579494 0
M  V30 36 C 4.099589 3.137056 4.509135 0
M  V30 37 N 3.517804 3.566453 3.288145 0
M  V30 38 C 2.693414 2.636437 2.619306 0
M  V30 39 C 2.418414 3.132724 1.187030 0
M  V30 40 C 3.733259 2.947556 0.448003 0
M  V30 41 C 4.869012 3.583279 1.222735 0
M  V30 42 C 4.342353 4.340286 2.427166 0
M  V30 43 H 3.585988 -1.894181 4.148842 0
M  V30 44 H 3.085618 -1.037527 1.174175 0
M  V30 45 H 1.871359 -1.886317 -0.717468 0
M  V30 46 H 0.420028 -3.671126 -1.639390 0
M  V30 47 H -0.561013 -4.655353 -0.552194 0
M  V30 48 H -1.014243 -1.688052 -1.239685 0
M  V30 49 H -2.091582 -2.638334 -0.214893 0
M  V30 50 H -1.773616 -4.071021 -2.619103 0
M  V30 51 H -4.943716 0.304611 -1.713645 0
M  V30 52 H -7.198897 -3.245826 -6.999608 0
M  V30 53 H -8.021405 -4.486581 -8.877788 0
M  V30 54 H -6.924151 -6.492528 -9.629967 0
M  V30 55 H -4.897758 -7.304482 -8.442442 0
M  V30 56 H -4.065653 -6.071454 -6.561529 0
M  V30 57 H -0.636621 -4.193624 1.912703 0
M  V30 58 H 0.657925 -3.284641 3.866698 0
M  V30 59 H 3.493570 0.093306 5.535865 0
M  V30 60 H 1.032076 0.627753 7.111658 0
M  V30 61 H 0.657772 2.525044 8.610970 0
M  V30 62 H 1.835911 4.575567 8.210799 0
M  V30 63 H 3.367457 4.820348 6.382728 0
M  V30 64 H 4.849138 3.861158 4.906855 0
M  V30 65 H 4.646497 2.162067 4.276691 0
M  V30 66 H 3.216028 1.668102 2.491867 0
M  V30 67 H 1.728111 2.437692 3.133404 0
M  V30 68 H 1.605735 2.558042 0.720961 0
M  V30 69 H 2.178879 4.204057 1.194020 0
M  V30 70 H 3.710247 3.349001 -0.569981 0
M  V30 71 H 3.935700 1.846199 0.402339 0
M  V30 72 H 5.339695 4.342306 0.573592 0
M  V30 73 H 5.671029 2.870286 1.496875 0
M  V30 74 H 3.893455 5.307096 2.098940 0
M  V30 75 H 5.259012 4.628040 3.016057 0
M  V30 END ATOM
M  V30 BEGIN BOND
M  V30 1 2 1 2
M  V30 2 1 2 3
M  V30 3 1 3 4
M  V30 4 2 4 5
M  V30 5 1 5 6
M  V30 6 2 6 7
M  V30 7 1 7 8
M  V30 8 1 8 9
M  V30 9 1 9 10
M  V30 10 1 10 11
M  V30 11 2 11 12
M  V30 12 1 12 13
M  V30 13 2 13 14
M  V30 14 1 14 15
M  V30 15 1 15 16
M  V30 16 1 16 17
M  V30 17 1 17 18
M  V30 18 2 18 19
M  V30 19 1 19 20
M  V30 20 2 20 21
M  V30 21 1 21 22
M  V30 22 2 22 23
M  V30 23 2 17 24
M  V30 24 1 24 25
M  V30 25 1 24 26
M  V30 26 1 7 27
M  V30 27 2 27 28
M  V30 28 1 2 29
M  V30 29 1 29 30
M  V30 30 2 30 31
M  V30 31 1 31 32
M  V30 32 2 32 33
M  V30 33 1 33 34
M  V30 34 2 34 35
M  V30 35 1 35 36
M  V30 36 1 36 37
M  V30 37 1 37 38
M  V30 38 1 38 39
M  V30 39 1 39 40
M  V30 40 1 40 41
M  V30 41 1 41 42
M  V30 42 1 28 4
M  V30 43 1 35 30
M  V30 44 1 42 37
M  V30 45 1 26 11
M  V30 46 2 26 15
M  V30 47 1 23 18
M  V30 48 1 3 43
M  V30 49 1 5 44
M  V30 50 1 6 45
M  V30 51 1 8 46
M  V30 52 1 8 47
M  V30 53 1 9 48
M  V30 54 1 9 49
M  V30 55 1 10 50
M  V30 56 1 13 51
M  V30 57 1 19 52
M  V30 58 1 20 53
M  V30 59 1 21 54
M  V30 60 1 22 55
M  V30 61 1 23 56
M  V30 62 1 27 57
M  V30 63 1 28 58
M  V30 64 1 29 59
M  V30 65 1 31 60
M  V30 66 1 32 61
M  V30 67 1 33 62
M  V30 68 1 34 63
M  V30 69 1 36 64
M  V30 70 1 36 65
M  V30 71 1 38 66
M  V30 72 1 38 67
M  V30 73 1 39 68
M  V30 74 1 39 69
M  V30 75 1 40 70
M  V30 76 1 40 71
M  V30 77 1 41 72
M  V30 78 1 41 73
M  V30 79 1 42 74
M  V30 80 1 42 75
M  V30 END BOND
M  V30 END CTAB
M  END
>  <Dataset>  (975) 
ChEMBL_Kinases

>  <Ligand_Instance>  (975) 
nan

>  <PDB_ID>  (975) 
nan

>  <Standardized_SMILES>  (975) 
O=C(Nc1ccc(CCNc2ncnc3oc(-c4ccccc4)c(Cl)c23)cc1)Nc1ccccc1CN1CCCCC1

>  <Name>  (975) 
nan

>  <Pocket>  (975) 
nan

>  <ATP_Site>  (975) 
nan

>  <Peripheral>  (975) 
nan

>  <Num_H_Atoms_ProtBoundConf>  (975) 
nan

>  <Num_Resolved_Atoms>  (975) 
nan

>  <Num_Not_Resolved_Atoms>  (975) 
nan

$$$$
CHEMBL3673983
     RDKit          3D

  0  0  0  0  0  0  0  0  0  0999 V3000
M  V30 BEGIN CTAB
M  V30 COUNTS 44 47 0 0 0
M  V30 BEGIN ATOM
M  V30 1 C 1.711480 -3.576498 -1.679075 0
M  V30 2 C 2.430401 -2.745024 -0.664164 0
M  V30 3 N 3.751368 -2.805936 -0.344091 0
M  V30 4 N 3.954673 -1.894097 0.601778 0
M  V30 5 C 2.790562 -1.264964 0.879809 0
M  V30 6 C 1.789323 -1.784556 0.086485 0
M  V30 7 C 0.417633 -1.273871 0.189032 0 CFG=2
M  V30 8 C -0.133912 -0.824138 -1.126518 0
M  V30 9 C -0.858898 -1.540639 -2.048565 0
M  V30 10 C -1.272959 -0.925944 -3.209348 0
M  V30 11 C -0.978233 0.397749 -3.473923 0
M  V30 12 C -0.255036 1.104124 -2.548901 0
M  V30 13 C 0.168618 0.498682 -1.375787 0
M  V30 14 C 0.307342 -0.197919 1.207476 0
M  V30 15 C 1.259759 0.307936 1.973645 0
M  V30 16 C 0.835263 1.391619 2.909714 0
M  V30 17 C -0.496688 0.958017 3.537005 0
M  V30 18 C -0.421007 -0.506805 3.892619 0
M  V30 19 C -0.759500 1.775015 4.772147 0
M  V30 20 C -1.530240 1.136244 2.472874 0
M  V30 21 C -1.065963 0.306220 1.306141 0
M  V30 22 O -1.991240 0.115559 0.461310 0
M  V30 23 N 2.570463 -0.226557 1.828578 0
M  V30 24 H 2.368334 -4.470171 -1.855610 0
M  V30 25 H 1.540053 -3.062548 -2.622867 0
M  V30 26 H 0.810142 -3.987766 -1.184421 0
M  V30 27 H 4.382551 -3.487017 -0.825687 0
M  V30 28 H -0.230169 -2.156068 0.468446 0
M  V30 29 H -1.032075 -2.559735 -1.742525 0
M  V30 30 H -1.833171 -1.529237 -3.891169 0
M  V30 31 H -1.331629 0.821047 -4.402003 0
M  V30 32 H -0.055927 2.136428 -2.813187 0
M  V30 33 H 0.725884 1.163970 -0.737824 0
M  V30 34 H 0.674440 2.357070 2.433629 0
M  V30 35 H 1.545082 1.505005 3.751732 0
M  V30 36 H 0.540481 -0.969779 3.536344 0
M  V30 37 H -1.230604 -1.101513 3.402814 0
M  V30 38 H -0.534178 -0.678718 4.982509 0
M  V30 39 H -1.153597 2.768554 4.504797 0
M  V30 40 H -1.356227 1.195184 5.473568 0
M  V30 41 H 0.239187 1.936596 5.254494 0
M  V30 42 H -1.708519 2.182137 2.212091 0
M  V30 43 H -2.478270 0.648695 2.839834 0
M  V30 44 H 3.292889 0.192829 2.444383 0
M  V30 END ATOM
M  V30 BEGIN BOND
M  V30 1 1 1 2
M  V30 2 1 2 3
M  V30 3 1 3 4
M  V30 4 2 4 5
M  V30 5 1 5 6
M  V30 6 1 6 7
M  V30 7 1 7 8
M  V30 8 2 8 9
M  V30 9 1 9 10
M  V30 10 2 10 11
M  V30 11 1 11 12
M  V30 12 2 12 13
M  V30 13 1 7 14
M  V30 14 2 14 15
M  V30 15 1 15 16
M  V30 16 1 16 17
M  V30 17 1 17 18
M  V30 18 1 17 19
M  V30 19 1 17 20
M  V30 20 1 20 21
M  V30 21 2 21 22
M  V30 22 1 15 23
M  V30 23 2 6 2
M  V30 24 1 13 8
M  V30 25 1 21 14
M  V30 26 1 23 5
M  V30 27 1 1 24
M  V30 28 1 1 25
M  V30 29 1 1 26
M  V30 30 1 3 27
M  V30 31 1 7 28 CFG=1
M  V30 32 1 9 29
M  V30 33 1 10 30
M  V30 34 1 11 31
M  V30 35 1 12 32
M  V30 36 1 13 33
M  V30 37 1 16 34
M  V30 38 1 16 35
M  V30 39 1 18 36
M  V30 40 1 18 37
M  V30 41 1 18 38
M  V30 42 1 19 39
M  V30 43 1 19 40
M  V30 44 1 19 41
M  V30 45 1 20 42
M  V30 46 1 20 43
M  V30 47 1 23 44
M  V30 END BOND
M  V30 END CTAB
M  END
>  <Dataset>  (976) 
ChEMBL_Kinases

>  <Ligand_Instance>  (976) 
nan

>  <PDB_ID>  (976) 
nan

>  <Standardized_SMILES>  (976) 
Cc1[nH]nc2c1[C@H](c1ccccc1)C1=C(CC(C)(C)CC1=O)N2

>  <Name>  (976) 
nan

>  <Pocket>  (976) 
nan

>  <ATP_Site>  (976) 
nan

>  <Peripheral>  (976) 
nan

>  <Num_H_Atoms_ProtBoundConf>  (976) 
nan

>  <Num_Resolved_Atoms>  (976) 
nan

>  <Num_Not_Resolved_Atoms>  (976) 
nan

$$$$
CHEMBL4162781
     RDKit          3D

  0  0  0  0  0  0  0  0  0  0999 V3000
M  V30 BEGIN CTAB
M  V30 COUNTS 49 51 0 0 0
M  V30 BEGIN ATOM
M  V30 1 C -2.470205 -6.196849 -0.211492 0
M  V30 2 O -3.290151 -5.189211 -0.701827 0
M  V30 3 C -2.971813 -3.890463 -0.983208 0
M  V30 4 C -1.697606 -3.356967 -0.806144 0
M  V30 5 C -1.542099 -2.026145 -1.140696 0
M  V30 6 C -2.532838 -1.181027 -1.632826 0
M  V30 7 N -2.238805 0.171115 -1.954943 0
M  V30 8 C -0.952876 0.788246 -1.780887 0
M  V30 9 N -0.339308 1.489949 -2.770248 0
M  V30 10 C 0.882060 2.040556 -2.500067 0
M  V30 11 C 1.511466 1.905553 -1.253113 0
M  V30 12 C 0.837298 1.184069 -0.294694 0
M  V30 13 C 1.413170 0.984663 1.059048 0
M  V30 14 S 3.016852 1.691356 1.445472 0
M  V30 15 C 2.920604 0.976381 3.228466 0
M  V30 16 O 3.613421 0.878913 4.473580 0
M  V30 17 C 4.859257 1.503390 4.604615 0
M  V30 18 C 4.909637 2.443839 5.776048 0
M  V30 19 C 5.988787 0.494249 4.732879 0
M  V30 20 N 1.899056 0.455301 3.172964 0
M  V30 21 C 1.033309 0.365361 2.182700 0
M  V30 22 C -0.320696 -0.309296 2.079263 0
M  V30 23 N -0.364108 0.662399 -0.611912 0
M  V30 24 C -3.760760 -1.782969 -1.778201 0
M  V30 25 O -4.780910 -0.974798 -2.267159 0
M  V30 26 C -6.062109 -1.527257 -2.439801 0
M  V30 27 C -4.001721 -3.100964 -1.469134 0
M  V30 28 H -2.357370 -6.963796 -1.034798 0
M  V30 29 H -1.488934 -5.869010 0.137769 0
M  V30 30 H -3.006827 -6.687259 0.644413 0
M  V30 31 H -0.909989 -3.972389 -0.429723 0
M  V30 32 H -0.529875 -1.674216 -0.980943 0
M  V30 33 H -3.032782 0.718344 -2.337881 0
M  V30 34 H 1.355499 2.599418 -3.307690 0
M  V30 35 H 2.462609 2.344747 -1.072907 0
M  V30 36 H 5.131797 2.107323 3.690319 0
M  V30 37 H 4.035444 2.376056 6.442444 0
M  V30 38 H 4.983343 3.504161 5.453022 0
M  V30 39 H 5.789328 2.230600 6.404285 0
M  V30 40 H 5.591586 -0.538176 4.930693 0
M  V30 41 H 6.618163 0.451633 3.812726 0
M  V30 42 H 6.623782 0.791203 5.589578 0
M  V30 43 H -0.709098 -0.536629 3.095697 0
M  V30 44 H -0.216184 -1.263400 1.539871 0
M  V30 45 H -1.079117 0.368366 1.636860 0
M  V30 46 H -5.939032 -2.427780 -3.098338 0
M  V30 47 H -6.766074 -0.800080 -2.911603 0
M  V30 48 H -6.522411 -1.883193 -1.498463 0
M  V30 49 H -4.999871 -3.482769 -1.618413 0
M  V30 END ATOM
M  V30 BEGIN BOND
M  V30 1 1 1 2
M  V30 2 1 2 3
M  V30 3 2 3 4
M  V30 4 1 4 5
M  V30 5 2 5 6
M  V30 6 1 6 7
M  V30 7 1 7 8
M  V30 8 2 8 9
M  V30 9 1 9 10
M  V30 10 2 10 11
M  V30 11 1 11 12
M  V30 12 1 12 13
M  V30 13 1 13 14
M  V30 14 1 14 15
M  V30 15 1 15 16
M  V30 16 1 16 17
M  V30 17 1 17 18
M  V30 18 1 17 19
M  V30 19 2 15 20
M  V30 20 1 20 21
M  V30 21 1 21 22
M  V30 22 2 12 23
M  V30 23 1 6 24
M  V30 24 1 24 25
M  V30 25 1 25 26
M  V30 26 2 24 27
M  V30 27 1 27 3
M  V30 28 1 23 8
M  V30 29 2 21 13
M  V30 30 1 1 28
M  V30 31 1 1 29
M  V30 32 1 1 30
M  V30 33 1 4 31
M  V30 34 1 5 32
M  V30 35 1 7 33
M  V30 36 1 10 34
M  V30 37 1 11 35
M  V30 38 1 17 36
M  V30 39 1 18 37
M  V30 40 1 18 38
M  V30 41 1 18 39
M  V30 42 1 19 40
M  V30 43 1 19 41
M  V30 44 1 19 42
M  V30 45 1 22 43
M  V30 46 1 22 44
M  V30 47 1 22 45
M  V30 48 1 26 46
M  V30 49 1 26 47
M  V30 50 1 26 48
M  V30 51 1 27 49
M  V30 END BOND
M  V30 END CTAB
M  END
>  <Dataset>  (977) 
ChEMBL_Kinases

>  <Ligand_Instance>  (977) 
nan

>  <PDB_ID>  (977) 
nan

>  <Standardized_SMILES>  (977) 
COc1ccc(Nc2nccc(-c3sc(OC(C)C)nc3C)n2)c(OC)c1

>  <Name>  (977) 
nan

>  <Pocket>  (977) 
nan

>  <ATP_Site>  (977) 
nan

>  <Peripheral>  (977) 
nan

>  <Num_H_Atoms_ProtBoundConf>  (977) 
nan

>  <Num_Resolved_Atoms>  (977) 
nan

>  <Num_Not_Resolved_Atoms>  (977) 
nan

$$$$
CHEMBL4162635
     RDKit          3D

  0  0  0  0  0  0  0  0  0  0999 V3000
M  V30 BEGIN CTAB
M  V30 COUNTS 68 72 0 0 0
M  V30 BEGIN ATOM
M  V30 1 C 4.936302 -5.657089 5.954705 0
M  V30 2 N 4.834578 -4.612476 4.923688 0
M  V30 3 C 4.496033 -5.249275 3.651247 0
M  V30 4 C 6.205588 -4.102229 4.794620 0
M  V30 5 C 6.232210 -3.023590 3.777665 0
M  V30 6 C 6.450604 -3.140518 2.421589 0
M  V30 7 C 6.440488 -2.028451 1.605057 0
M  V30 8 C 6.205336 -0.767466 2.164137 0
M  V30 9 N 6.198633 0.372875 1.273955 0
M  V30 10 C 4.924151 0.684328 0.723112 0
M  V30 11 O 3.981236 -0.065677 1.080050 0
M  V30 12 N 4.575146 1.728557 -0.175473 0
M  V30 13 C 3.189184 1.818384 -0.579036 0
M  V30 14 C 2.740858 1.140797 -1.698096 0
M  V30 15 C 1.403088 1.270376 -2.019064 0
M  V30 16 C 0.575863 2.055167 -1.229242 0
M  V30 17 C -0.842763 2.100636 -1.690576 0
M  V30 18 C -1.650051 0.992219 -1.046419 0
M  V30 19 N -3.023938 0.951569 -1.427991 0
M  V30 20 C -3.852025 -0.050299 -0.858748 0
M  V30 21 N -3.367015 -0.942225 0.018323 0
M  V30 22 C -4.138001 -1.899223 0.569394 0
M  V30 23 N -5.441049 -1.981130 0.242782 0
M  V30 24 C -5.970736 -1.106330 -0.633793 0
M  V30 25 O -7.183085 -0.972630 -1.109709 0
M  V30 26 C -7.274570 0.018267 -1.948994 0
M  V30 27 C -8.537657 0.331746 -2.587013 0
M  V30 28 C -9.650266 -0.423684 -2.302256 0
M  V30 29 C -10.897793 -0.183937 -2.875619 0
M  V30 30 C -11.067421 0.845643 -3.772268 0
M  V30 31 C -9.962998 1.635214 -4.087266 0
M  V30 32 C -8.762404 1.342489 -3.484769 0
M  V30 33 C -6.022540 0.576146 -2.027559 0
M  V30 34 Cl -5.592358 1.929303 -3.006542 0
M  V30 35 C -5.182720 -0.128350 -1.196859 0
M  V30 36 C 1.032234 2.729595 -0.111894 0
M  V30 37 C 2.368743 2.604703 0.215242 0
M  V30 38 C 5.985814 -0.616555 3.502300 0
M  V30 39 C 6.000145 -1.747483 4.304993 0
M  V30 40 H 5.874865 -6.222995 5.853329 0
M  V30 41 H 4.827303 -5.154616 6.937998 0
M  V30 42 H 4.060628 -6.318521 5.812082 0
M  V30 43 H 5.276632 -5.990014 3.378407 0
M  V30 44 H 3.547237 -5.829537 3.772816 0
M  V30 45 H 4.372020 -4.527012 2.847285 0
M  V30 46 H 6.641104 -3.794943 5.746192 0
M  V30 47 H 6.793990 -5.001570 4.444543 0
M  V30 48 H 6.621659 -4.153735 2.091325 0
M  V30 49 H 6.614654 -2.170961 0.561622 0
M  V30 50 H 6.971586 1.028323 0.950407 0
M  V30 51 H 5.400646 2.341125 -0.454570 0
M  V30 52 H 3.440413 0.538523 -2.280694 0
M  V30 53 H 1.063786 0.732927 -2.900275 0
M  V30 54 H -1.288496 3.066745 -1.389837 0
M  V30 55 H -0.937453 2.015634 -2.774880 0
M  V30 56 H -1.178821 0.038486 -1.379811 0
M  V30 57 H -1.506871 0.992207 0.070457 0
M  V30 58 H -3.276104 1.690560 -2.108275 0
M  V30 59 H -3.621568 -2.551391 1.259475 0
M  V30 60 H -9.643468 -1.261242 -1.612737 0
M  V30 61 H -11.759863 -0.786898 -2.640202 0
M  V30 62 H -12.039315 1.019161 -4.208044 0
M  V30 63 H -10.083209 2.435034 -4.780674 0
M  V30 64 H -7.957018 1.991985 -3.774525 0
M  V30 65 H 0.296342 3.315378 0.433414 0
M  V30 66 H 2.684136 3.141696 1.086710 0
M  V30 67 H 5.811159 0.367974 3.883517 0
M  V30 68 H 5.819956 -1.562581 5.356040 0
M  V30 END ATOM
M  V30 BEGIN BOND
M  V30 1 1 1 2
M  V30 2 1 2 3
M  V30 3 1 2 4
M  V30 4 1 4 5
M  V30 5 2 5 6
M  V30 6 1 6 7
M  V30 7 2 7 8
M  V30 8 1 8 9
M  V30 9 1 9 10
M  V30 10 2 10 11
M  V30 11 1 10 12
M  V30 12 1 12 13
M  V30 13 2 13 14
M  V30 14 1 14 15
M  V30 15 2 15 16
M  V30 16 1 16 17
M  V30 17 1 17 18
M  V30 18 1 18 19
M  V30 19 1 19 20
M  V30 20 2 20 21
M  V30 21 1 21 22
M  V30 22 2 22 23
M  V30 23 1 23 24
M  V30 24 1 24 25
M  V30 25 1 25 26
M  V30 26 1 26 27
M  V30 27 2 27 28
M  V30 28 1 28 29
M  V30 29 2 29 30
M  V30 30 1 30 31
M  V30 31 2 31 32
M  V30 32 2 26 33
M  V30 33 1 33 34
M  V30 34 1 33 35
M  V30 35 1 16 36
M  V30 36 2 36 37
M  V30 37 1 8 38
M  V30 38 2 38 39
M  V30 39 1 39 5
M  V30 40 1 37 13
M  V30 41 1 35 20
M  V30 42 2 35 24
M  V30 43 1 32 27
M  V30 44 1 1 40
M  V30 45 1 1 41
M  V30 46 1 1 42
M  V30 47 1 3 43
M  V30 48 1 3 44
M  V30 49 1 3 45
M  V30 50 1 4 46
M  V30 51 1 4 47
M  V30 52 1 6 48
M  V30 53 1 7 49
M  V30 54 1 9 50
M  V30 55 1 12 51
M  V30 56 1 14 52
M  V30 57 1 15 53
M  V30 58 1 17 54
M  V30 59 1 17 55
M  V30 60 1 18 56
M  V30 61 1 18 57
M  V30 62 1 19 58
M  V30 63 1 22 59
M  V30 64 1 28 60
M  V30 65 1 29 61
M  V30 66 1 30 62
M  V30 67 1 31 63
M  V30 68 1 32 64
M  V30 69 1 36 65
M  V30 70 1 37 66
M  V30 71 1 38 67
M  V30 72 1 39 68
M  V30 END BOND
M  V30 END CTAB
M  END
>  <Dataset>  (978) 
ChEMBL_Kinases

>  <Ligand_Instance>  (978) 
nan

>  <PDB_ID>  (978) 
nan

>  <Standardized_SMILES>  (978) 
CN(C)Cc1ccc(NC(=O)Nc2ccc(CCNc3ncnc4oc(-c5ccccc5)c(Cl)c34)cc2)cc1

>  <Name>  (978) 
nan

>  <Pocket>  (978) 
nan

>  <ATP_Site>  (978) 
nan

>  <Peripheral>  (978) 
nan

>  <Num_H_Atoms_ProtBoundConf>  (978) 
nan

>  <Num_Resolved_Atoms>  (978) 
nan

>  <Num_Not_Resolved_Atoms>  (978) 
nan

$$$$
CHEMBL3759871
     RDKit          3D

  0  0  0  0  0  0  0  0  0  0999 V3000
M  V30 BEGIN CTAB
M  V30 COUNTS 53 56 0 0 0
M  V30 BEGIN ATOM
M  V30 1 C 8.203172 -2.640045 2.650066 0
M  V30 2 O 7.907486 -1.753526 1.581067 0
M  V30 3 C 6.678954 -1.113897 1.568703 0
M  V30 4 C 6.405308 -0.252475 0.519650 0
M  V30 5 C 5.200306 0.427711 0.430006 0
M  V30 6 C 4.256832 0.235665 1.414467 0
M  V30 7 C 2.931482 0.851839 1.492704 0
M  V30 8 O 2.099105 0.667603 2.437684 0
M  V30 9 N 2.458633 1.728044 0.488259 0
M  V30 10 C 1.103968 2.236275 0.752138 0
M  V30 11 N 0.331776 3.023761 1.199044 0
M  V30 12 C -0.968803 2.978337 1.143435 0
M  V30 13 C -1.532805 1.942187 0.520536 0
M  V30 14 C -2.957215 1.509056 0.238306 0
M  V30 15 C -3.922445 2.372865 0.705392 0
M  V30 16 C -5.221542 1.990181 0.459667 0
M  V30 17 C -5.541928 0.831992 -0.203046 0
M  V30 18 C -6.916394 0.432620 -0.458987 0
M  V30 19 O -7.891543 1.130314 -0.084048 0
M  V30 20 O -7.225083 -0.737892 -1.129956 0
M  V30 21 C -4.518716 0.018789 -0.640227 0
M  V30 22 C -3.193505 0.326337 -0.436291 0
M  V30 23 O -2.061024 -0.346925 -0.792277 0
M  V30 24 C -1.880149 -1.538499 -1.455720 0
M  V30 25 C -2.445584 -2.740746 -0.810467 0
M  V30 26 C -3.553253 -3.513213 -1.087557 0
M  V30 27 C -3.864058 -4.614266 -0.324388 0
M  V30 28 C -3.086861 -5.001413 0.753631 0
M  V30 29 C -1.963110 -4.223763 1.040385 0
M  V30 30 C -1.660121 -3.114798 0.262572 0
M  V30 31 F -0.534596 -2.515140 0.720562 0
M  V30 32 S -0.039154 1.031994 0.017197 0
M  V30 33 C 4.560682 -0.631943 2.450598 0
M  V30 34 C 5.743560 -1.314939 2.560543 0
M  V30 35 H 9.273674 -2.911136 2.629624 0
M  V30 36 H 7.960942 -2.198873 3.640942 0
M  V30 37 H 7.586679 -3.558176 2.495124 0
M  V30 38 H 7.122750 -0.074596 -0.275589 0
M  V30 39 H 4.911258 1.114651 -0.353724 0
M  V30 40 H 3.028031 1.970039 -0.339128 0
M  V30 41 H -1.582726 3.751008 1.585063 0
M  V30 42 H -3.673653 3.286790 1.227724 0
M  V30 43 H -6.014078 2.637475 0.807865 0
M  V30 44 H -8.182055 -1.082680 -1.254565 0
M  V30 45 H -4.699191 -0.902627 -1.171160 0
M  V30 46 H -2.411818 -1.458303 -2.452420 0
M  V30 47 H -0.811222 -1.708108 -1.771732 0
M  V30 48 H -4.088434 -3.120419 -1.950132 0
M  V30 49 H -4.739065 -5.154966 -0.608523 0
M  V30 50 H -3.373255 -5.875637 1.323135 0
M  V30 51 H -1.414889 -4.594806 1.893238 0
M  V30 52 H 3.846213 -0.825674 3.265886 0
M  V30 53 H 5.943531 -1.990032 3.392329 0
M  V30 END ATOM
M  V30 BEGIN BOND
M  V30 1 1 1 2
M  V30 2 1 2 3
M  V30 3 2 3 4
M  V30 4 1 4 5
M  V30 5 2 5 6
M  V30 6 1 6 7
M  V30 7 2 7 8
M  V30 8 1 7 9
M  V30 9 1 9 10
M  V30 10 2 10 11
M  V30 11 1 11 12
M  V30 12 2 12 13
M  V30 13 1 13 14
M  V30 14 2 14 15
M  V30 15 1 15 16
M  V30 16 2 16 17
M  V30 17 1 17 18
M  V30 18 2 18 19
M  V30 19 1 18 20
M  V30 20 1 17 21
M  V30 21 2 21 22
M  V30 22 1 22 23
M  V30 23 1 23 24
M  V30 24 1 24 25
M  V30 25 2 25 26
M  V30 26 1 26 27
M  V30 27 2 27 28
M  V30 28 1 28 29
M  V30 29 2 29 30
M  V30 30 1 30 31
M  V30 31 1 13 32
M  V30 32 1 6 33
M  V30 33 2 33 34
M  V30 34 1 34 3
M  V30 35 1 32 10
M  V30 36 1 22 14
M  V30 37 1 30 25
M  V30 38 1 1 35
M  V30 39 1 1 36
M  V30 40 1 1 37
M  V30 41 1 4 38
M  V30 42 1 5 39
M  V30 43 1 9 40
M  V30 44 1 12 41
M  V30 45 1 15 42
M  V30 46 1 16 43
M  V30 47 1 20 44
M  V30 48 1 21 45
M  V30 49 1 24 46
M  V30 50 1 24 47
M  V30 51 1 26 48
M  V30 52 1 27 49
M  V30 53 1 28 50
M  V30 54 1 29 51
M  V30 55 1 33 52
M  V30 56 1 34 53
M  V30 END BOND
M  V30 END CTAB
M  END
>  <Dataset>  (979) 
ChEMBL_Kinases

>  <Ligand_Instance>  (979) 
nan

>  <PDB_ID>  (979) 
nan

>  <Standardized_SMILES>  (979) 
COc1ccc(C(=O)Nc2ncc(-c3ccc(C(=O)O)cc3OCc3ccccc3F)s2)cc1

>  <Name>  (979) 
nan

>  <Pocket>  (979) 
nan

>  <ATP_Site>  (979) 
nan

>  <Peripheral>  (979) 
nan

>  <Num_H_Atoms_ProtBoundConf>  (979) 
nan

>  <Num_Resolved_Atoms>  (979) 
nan

>  <Num_Not_Resolved_Atoms>  (979) 
nan

$$$$
CHEMBL4162633
     RDKit          3D

  0  0  0  0  0  0  0  0  0  0999 V3000
M  V30 BEGIN CTAB
M  V30 COUNTS 51 54 0 0 0
M  V30 BEGIN ATOM
M  V30 1 C -0.936029 -1.690922 6.598631 0
M  V30 2 C 0.284953 -2.132601 5.875754 0
M  V30 3 C 0.528984 -2.011515 4.509476 0
M  V30 4 C 1.777898 -2.537866 4.205485 0
M  V30 5 N 2.378919 -2.595058 2.915120 0
M  V30 6 C 1.579509 -2.040974 1.855769 0
M  V30 7 C 1.642766 -0.718754 1.474978 0
M  V30 8 C 0.835241 -0.286346 0.448355 0
M  V30 9 N 0.872158 1.087088 0.022859 0
M  V30 10 C 1.749414 1.989983 0.695866 0
M  V30 11 C 1.368988 3.398252 0.385678 0
M  V30 12 N 1.186469 3.583129 -1.009661 0
M  V30 13 C 2.362831 3.742192 -1.798492 0
M  V30 14 C 0.134113 2.809397 -1.593346 0
M  V30 15 C -0.002907 1.433813 -1.073632 0
M  V30 16 N 0.035417 -1.199712 -0.112060 0
M  V30 17 C -0.077378 -2.476250 0.199200 0
M  V30 18 N -0.929663 -3.431695 -0.404736 0
M  V30 19 C -1.836663 -3.227123 -1.466262 0
M  V30 20 C -2.071363 -2.045430 -2.127645 0
M  V30 21 C -2.954293 -1.853025 -3.159155 0
M  V30 22 C -3.690856 -2.928303 -3.596357 0
M  V30 23 Cl -4.829184 -2.743974 -4.904467 0
M  V30 24 C -3.500170 -4.144182 -2.971157 0
M  V30 25 Cl -4.427438 -5.529710 -3.510377 0
M  V30 26 C -2.599603 -4.268995 -1.943567 0
M  V30 27 N 0.723939 -2.826749 1.191167 0
M  V30 28 N 2.260819 -2.967483 5.407408 0
M  V30 29 N 1.392370 -2.728715 6.361467 0
M  V30 30 H -0.842939 -0.572596 6.713453 0
M  V30 31 H -1.833985 -1.820840 5.949505 0
M  V30 32 H -1.028839 -2.206194 7.554238 0
M  V30 33 H -0.190649 -1.562994 3.836073 0
M  V30 34 H 3.342922 -3.038167 2.885881 0
M  V30 35 H 2.322204 -0.081319 1.997561 0
M  V30 36 H 2.797952 1.852185 0.302169 0
M  V30 37 H 1.727984 1.854412 1.817221 0
M  V30 38 H 0.444616 3.689866 0.923949 0
M  V30 39 H 2.179711 4.110277 0.703438 0
M  V30 40 H 3.262436 3.254895 -1.390097 0
M  V30 41 H 2.153704 3.480435 -2.856449 0
M  V30 42 H 2.576773 4.850943 -1.821052 0
M  V30 43 H -0.810513 3.413140 -1.450661 0
M  V30 44 H 0.293432 2.775394 -2.693786 0
M  V30 45 H -1.064773 1.254958 -0.756595 0
M  V30 46 H 0.173206 0.640088 -1.857119 0
M  V30 47 H -0.885922 -4.415350 -0.019720 0
M  V30 48 H -1.525192 -1.162402 -1.833057 0
M  V30 49 H -3.087561 -0.891457 -3.634599 0
M  V30 50 H -2.505864 -5.262382 -1.500508 0
M  V30 51 H 1.489757 -2.948072 7.378514 0
M  V30 END ATOM
M  V30 BEGIN BOND
M  V30 1 1 1 2
M  V30 2 2 2 3
M  V30 3 1 3 4
M  V30 4 1 4 5
M  V30 5 1 5 6
M  V30 6 2 6 7
M  V30 7 1 7 8
M  V30 8 1 8 9
M  V30 9 1 9 10
M  V30 10 1 10 11
M  V30 11 1 11 12
M  V30 12 1 12 13
M  V30 13 1 12 14
M  V30 14 1 14 15
M  V30 15 2 8 16
M  V30 16 1 16 17
M  V30 17 1 17 18
M  V30 18 1 18 19
M  V30 19 2 19 20
M  V30 20 1 20 21
M  V30 21 2 21 22
M  V30 22 1 22 23
M  V30 23 1 22 24
M  V30 24 1 24 25
M  V30 25 2 24 26
M  V30 26 2 17 27
M  V30 27 2 4 28
M  V30 28 1 28 29
M  V30 29 1 29 2
M  V30 30 1 27 6
M  V30 31 1 15 9
M  V30 32 1 26 19
M  V30 33 1 1 30
M  V30 34 1 1 31
M  V30 35 1 1 32
M  V30 36 1 3 33
M  V30 37 1 5 34
M  V30 38 1 7 35
M  V30 39 1 10 36
M  V30 40 1 10 37
M  V30 41 1 11 38
M  V30 42 1 11 39
M  V30 43 1 13 40
M  V30 44 1 13 41
M  V30 45 1 13 42
M  V30 46 1 14 43
M  V30 47 1 14 44
M  V30 48 1 15 45
M  V30 49 1 15 46
M  V30 50 1 18 47
M  V30 51 1 20 48
M  V30 52 1 21 49
M  V30 53 1 26 50
M  V30 54 1 29 51
M  V30 END BOND
M  V30 END CTAB
M  END
>  <Dataset>  (980) 
ChEMBL_Kinases

>  <Ligand_Instance>  (980) 
nan

>  <PDB_ID>  (980) 
nan

>  <Standardized_SMILES>  (980) 
Cc1cc(Nc2cc(N3CCN(C)CC3)nc(Nc3ccc(Cl)c(Cl)c3)n2)n[nH]1

>  <Name>  (980) 
nan

>  <Pocket>  (980) 
nan

>  <ATP_Site>  (980) 
nan

>  <Peripheral>  (980) 
nan

>  <Num_H_Atoms_ProtBoundConf>  (980) 
nan

>  <Num_Resolved_Atoms>  (980) 
nan

>  <Num_Not_Resolved_Atoms>  (980) 
nan

$$$$
CHEMBL3354187
     RDKit          3D

  0  0  0  0  0  0  0  0  0  0999 V3000
M  V30 BEGIN CTAB
M  V30 COUNTS 60 64 0 0 0
M  V30 BEGIN ATOM
M  V30 1 C 1.584758 0.733673 6.857159 0
M  V30 2 O 2.082258 0.820271 5.558470 0
M  V30 3 C 2.145932 -0.438127 4.952831 0
M  V30 4 C 3.546956 -0.883838 4.662012 0
M  V30 5 C 4.031430 -0.661748 3.279108 0
M  V30 6 N 3.048754 -0.291333 2.312282 0
M  V30 7 C 3.258636 0.636470 1.261236 0
M  V30 8 N 4.462421 1.234696 1.143399 0
M  V30 9 C 4.682421 2.118078 0.147825 0
M  V30 10 C 3.658935 2.398224 -0.744475 0
M  V30 11 C 2.434071 1.770723 -0.600766 0
M  V30 12 N 1.306744 1.973321 -1.457398 0
M  V30 13 C 0.031436 1.359764 -1.319889 0
M  V30 14 C -0.333228 0.154527 -1.860553 0
M  V30 15 C -1.589623 -0.376584 -1.687732 0
M  V30 16 C -2.510276 0.312160 -0.955045 0
M  V30 17 C -2.118232 1.518404 -0.424015 0
M  V30 18 N -0.886409 2.025566 -0.601067 0
M  V30 19 C -3.658368 -0.445908 -0.950940 0
M  V30 20 C -3.455862 -1.602129 -1.676988 0
M  V30 21 C -4.494384 -2.586309 -1.842967 0
M  V30 22 C -5.765809 -2.419805 -1.276766 0
M  V30 23 N -6.583746 -3.452308 -1.551511 0
M  V30 24 N -5.907935 -4.315378 -2.286557 0
M  V30 25 C -4.684520 -3.794602 -2.449551 0
M  V30 26 N -2.194277 -1.528901 -2.108830 0
M  V30 27 C -1.498732 -2.506108 -2.918392 0
M  V30 28 C -1.289467 -3.831842 -2.194516 0
M  V30 29 C -2.074375 -2.662320 -4.289997 0
M  V30 30 N 2.226287 0.878292 0.412701 0
M  V30 31 C 1.802802 -0.963651 2.511857 0
M  V30 32 C 1.200840 -0.482412 3.805043 0
M  V30 33 H 0.555875 0.291203 6.774411 0
M  V30 34 H 2.175037 0.007687 7.441729 0
M  V30 35 H 1.444165 1.706377 7.327822 0
M  V30 36 H 1.761178 -1.141495 5.740633 0
M  V30 37 H 3.730966 -1.924667 4.974871 0
M  V30 38 H 4.206172 -0.262866 5.339230 0
M  V30 39 H 4.874772 0.075499 3.215531 0
M  V30 40 H 4.495798 -1.612395 2.899615 0
M  V30 41 H 5.571698 2.680989 -0.091783 0
M  V30 42 H 3.641932 3.066095 -1.594640 0
M  V30 43 H 1.273914 2.591720 -2.286492 0
M  V30 44 H 0.380114 -0.385537 -2.431790 0
M  V30 45 H -2.837659 2.065753 0.153622 0
M  V30 46 H -4.525111 -0.044072 -0.399974 0
M  V30 47 H -6.231089 -1.631508 -0.662112 0
M  V30 48 H -6.265734 -5.219876 -2.660093 0
M  V30 49 H -3.941657 -4.293363 -3.003247 0
M  V30 50 H -0.433732 -2.146489 -3.092227 0
M  V30 51 H -2.013896 -3.961035 -1.361658 0
M  V30 52 H -1.340540 -4.625698 -2.959377 0
M  V30 53 H -0.290435 -3.888919 -1.718561 0
M  V30 54 H -1.495017 -2.045169 -5.001095 0
M  V30 55 H -3.089646 -2.171090 -4.250400 0
M  V30 56 H -2.162118 -3.720864 -4.610612 0
M  V30 57 H 1.889412 -2.073659 2.498686 0
M  V30 58 H 1.071892 -0.716556 1.704269 0
M  V30 59 H 0.710813 0.508076 3.602903 0
M  V30 60 H 0.340136 -1.163969 4.009639 0
M  V30 END ATOM
M  V30 BEGIN BOND
M  V30 1 1 1 2
M  V30 2 1 2 3
M  V30 3 1 3 4
M  V30 4 1 4 5
M  V30 5 1 5 6
M  V30 6 1 6 7
M  V30 7 2 7 8
M  V30 8 1 8 9
M  V30 9 2 9 10
M  V30 10 1 10 11
M  V30 11 1 11 12
M  V30 12 1 12 13
M  V30 13 2 13 14
M  V30 14 1 14 15
M  V30 15 2 15 16
M  V30 16 1 16 17
M  V30 17 2 17 18
M  V30 18 1 16 19
M  V30 19 2 19 20
M  V30 20 1 20 21
M  V30 21 1 21 22
M  V30 22 2 22 23
M  V30 23 1 23 24
M  V30 24 1 24 25
M  V30 25 1 20 26
M  V30 26 1 26 27
M  V30 27 1 27 28
M  V30 28 1 27 29
M  V30 29 2 11 30
M  V30 30 1 6 31
M  V30 31 1 31 32
M  V30 32 1 32 3
M  V30 33 1 30 7
M  V30 34 1 18 13
M  V30 35 2 25 21
M  V30 36 1 26 15
M  V30 37 1 1 33
M  V30 38 1 1 34
M  V30 39 1 1 35
M  V30 40 1 3 36
M  V30 41 1 4 37
M  V30 42 1 4 38
M  V30 43 1 5 39
M  V30 44 1 5 40
M  V30 45 1 9 41
M  V30 46 1 10 42
M  V30 47 1 12 43
M  V30 48 1 14 44
M  V30 49 1 17 45
M  V30 50 1 19 46
M  V30 51 1 22 47
M  V30 52 1 24 48
M  V30 53 1 25 49
M  V30 54 1 27 50
M  V30 55 1 28 51
M  V30 56 1 28 52
M  V30 57 1 28 53
M  V30 58 1 29 54
M  V30 59 1 29 55
M  V30 60 1 29 56
M  V30 61 1 31 57
M  V30 62 1 31 58
M  V30 63 1 32 59
M  V30 64 1 32 60
M  V30 END BOND
M  V30 END CTAB
M  END
>  <Dataset>  (981) 
ChEMBL_Kinases

>  <Ligand_Instance>  (981) 
nan

>  <PDB_ID>  (981) 
nan

>  <Standardized_SMILES>  (981) 
COC1CCN(c2nccc(Nc3cc4c(cn3)cc(-c3cn[nH]c3)n4C(C)C)n2)CC1

>  <Name>  (981) 
nan

>  <Pocket>  (981) 
nan

>  <ATP_Site>  (981) 
nan

>  <Peripheral>  (981) 
nan

>  <Num_H_Atoms_ProtBoundConf>  (981) 
nan

>  <Num_Resolved_Atoms>  (981) 
nan

>  <Num_Not_Resolved_Atoms>  (981) 
nan

$$$$
CHEMBL3760009
     RDKit          3D

  0  0  0  0  0  0  0  0  0  0999 V3000
M  V30 BEGIN CTAB
M  V30 COUNTS 56 59 0 0 0
M  V30 BEGIN ATOM
M  V30 1 C 7.432967 -4.326289 2.455970 0
M  V30 2 O 7.148815 -3.021131 2.924747 0
M  V30 3 C 6.230161 -2.198663 2.321057 0
M  V30 4 C 5.981457 -0.920424 2.815909 0
M  V30 5 C 5.071143 -0.040826 2.258557 0
M  V30 6 C 4.376664 -0.469213 1.146924 0
M  V30 7 C 3.415044 0.447656 0.548703 0
M  V30 8 O 3.271287 1.591885 1.095322 0
M  V30 9 N 2.630150 0.187729 -0.579226 0
M  V30 10 C 1.649069 1.204546 -1.150587 0
M  V30 11 N 0.956180 1.924509 -1.555694 0
M  V30 12 C -0.236471 2.371159 -1.576155 0
M  V30 13 C -0.998445 1.667219 -0.744725 0
M  V30 14 C -2.455293 1.780280 -0.398454 0
M  V30 15 C -3.099412 2.800819 -1.074913 0
M  V30 16 C -4.433178 2.943267 -0.788909 0
M  V30 17 C -5.124699 2.152093 0.100396 0
M  V30 18 C -6.536447 2.279028 0.427310 0
M  V30 19 O -7.129473 1.543421 1.239022 0
M  V30 20 O -7.222100 3.294569 -0.229905 0
M  V30 21 C -4.392188 1.166169 0.720444 0
M  V30 22 C -3.053357 0.927443 0.514412 0
M  V30 23 O -2.181921 0.022992 1.022557 0
M  V30 24 C -2.336499 -1.006621 1.936437 0
M  V30 25 C -3.282533 -2.104758 1.529461 0
M  V30 26 C -2.779149 -2.714790 0.265830 0
M  V30 27 C -1.911305 -3.765256 0.351577 0
M  V30 28 C -1.497125 -4.269216 -0.868130 0
M  V30 29 C -1.893646 -3.791643 -2.115491 0
M  V30 30 C -2.780712 -2.717496 -2.117686 0
M  V30 31 C -3.224866 -2.177690 -0.915606 0
M  V30 32 S 0.215988 0.470167 -0.090140 0
M  V30 33 C 4.586155 -1.723358 0.619639 0
M  V30 34 C 5.502127 -2.580436 1.198712 0
M  V30 35 H 7.897769 -4.858647 3.326763 0
M  V30 36 H 8.145760 -4.199564 1.623362 0
M  V30 37 H 6.524804 -4.844811 2.100154 0
M  V30 38 H 6.534371 -0.588287 3.694136 0
M  V30 39 H 4.949585 0.947175 2.728458 0
M  V30 40 H 2.746420 -0.765407 -1.033909 0
M  V30 41 H -0.563163 3.199671 -2.185395 0
M  V30 42 H -2.606511 3.448723 -1.780389 0
M  V30 43 H -4.978202 3.727253 -1.293755 0
M  V30 44 H -8.244271 3.260382 -0.331580 0
M  V30 45 H -4.868720 0.529149 1.427222 0
M  V30 46 H -1.353809 -1.490461 2.194111 0
M  V30 47 H -2.690939 -0.555162 2.904190 0
M  V30 48 H -4.289102 -1.711369 1.388712 0
M  V30 49 H -3.365951 -2.884196 2.332456 0
M  V30 50 H -1.556972 -4.191978 1.272676 0
M  V30 51 H -0.797434 -5.119604 -0.850700 0
M  V30 52 H -1.521970 -4.241647 -3.029479 0
M  V30 53 H -3.055898 -2.388485 -3.127766 0
M  V30 54 H -3.897531 -1.364543 -1.042585 0
M  V30 55 H 4.062177 -2.090167 -0.248548 0
M  V30 56 H 5.654701 -3.571032 0.767346 0
M  V30 END ATOM
M  V30 BEGIN BOND
M  V30 1 1 1 2
M  V30 2 1 2 3
M  V30 3 2 3 4
M  V30 4 1 4 5
M  V30 5 2 5 6
M  V30 6 1 6 7
M  V30 7 2 7 8
M  V30 8 1 7 9
M  V30 9 1 9 10
M  V30 10 2 10 11
M  V30 11 1 11 12
M  V30 12 2 12 13
M  V30 13 1 13 14
M  V30 14 2 14 15
M  V30 15 1 15 16
M  V30 16 2 16 17
M  V30 17 1 17 18
M  V30 18 2 18 19
M  V30 19 1 18 20
M  V30 20 1 17 21
M  V30 21 2 21 22
M  V30 22 1 22 23
M  V30 23 1 23 24
M  V30 24 1 24 25
M  V30 25 1 25 26
M  V30 26 2 26 27
M  V30 27 1 27 28
M  V30 28 2 28 29
M  V30 29 1 29 30
M  V30 30 2 30 31
M  V30 31 1 13 32
M  V30 32 1 6 33
M  V30 33 2 33 34
M  V30 34 1 34 3
M  V30 35 1 32 10
M  V30 36 1 22 14
M  V30 37 1 31 26
M  V30 38 1 1 35
M  V30 39 1 1 36
M  V30 40 1 1 37
M  V30 41 1 4 38
M  V30 42 1 5 39
M  V30 43 1 9 40
M  V30 44 1 12 41
M  V30 45 1 15 42
M  V30 46 1 16 43
M  V30 47 1 20 44
M  V30 48 1 21 45
M  V30 49 1 24 46
M  V30 50 1 24 47
M  V30 51 1 25 48
M  V30 52 1 25 49
M  V30 53 1 27 50
M  V30 54 1 28 51
M  V30 55 1 29 52
M  V30 56 1 30 53
M  V30 57 1 31 54
M  V30 58 1 33 55
M  V30 59 1 34 56
M  V30 END BOND
M  V30 END CTAB
M  END
>  <Dataset>  (982) 
ChEMBL_Kinases

>  <Ligand_Instance>  (982) 
nan

>  <PDB_ID>  (982) 
nan

>  <Standardized_SMILES>  (982) 
COc1ccc(C(=O)Nc2ncc(-c3ccc(C(=O)O)cc3OCCc3ccccc3)s2)cc1

>  <Name>  (982) 
nan

>  <Pocket>  (982) 
nan

>  <ATP_Site>  (982) 
nan

>  <Peripheral>  (982) 
nan

>  <Num_H_Atoms_ProtBoundConf>  (982) 
nan

>  <Num_Resolved_Atoms>  (982) 
nan

>  <Num_Not_Resolved_Atoms>  (982) 
nan

$$$$
CHEMBL4162506
     RDKit          3D

  0  0  0  0  0  0  0  0  0  0999 V3000
M  V30 BEGIN CTAB
M  V30 COUNTS 68 72 0 0 0
M  V30 BEGIN ATOM
M  V30 1 C 6.880652 4.740802 -1.721343 0
M  V30 2 N 5.726333 4.064808 -1.235241 0
M  V30 3 C 6.123703 2.941801 -0.421119 0
M  V30 4 C 4.755035 3.675412 -2.197808 0
M  V30 5 C 5.217455 2.746418 -3.222761 0
M  V30 6 C 6.422707 2.151929 -3.456038 0
M  V30 7 C 6.673073 1.290891 -4.500074 0
M  V30 8 C 5.598584 1.054920 -5.324944 0
M  V30 9 C 4.334588 1.586869 -5.202402 0
M  V30 10 C 4.171936 2.451742 -4.112315 0
M  V30 11 N 2.823567 2.970824 -4.030427 0
M  V30 12 C 1.972697 2.149438 -3.258483 0
M  V30 13 O 2.448577 1.085335 -2.733082 0
M  V30 14 N 0.576758 2.308095 -2.936778 0
M  V30 15 C -0.035801 1.298093 -2.108729 0
M  V30 16 C 0.051980 1.662143 -0.775115 0
M  V30 17 C -0.444880 0.877542 0.242710 0
M  V30 18 C -1.055105 -0.327473 -0.121664 0
M  V30 19 C -1.622893 -1.224213 0.924427 0
M  V30 20 C -3.074096 -0.929093 1.182018 0
M  V30 21 N -3.673648 -1.776744 2.193253 0
M  V30 22 C -3.749161 -3.175659 1.981365 0
M  V30 23 N -3.274669 -3.700239 0.829826 0
M  V30 24 C -3.334923 -5.018629 0.583811 0
M  V30 25 N -3.867249 -5.928211 1.452942 0
M  V30 26 C -4.356588 -5.441863 2.626380 0
M  V30 27 O -4.920871 -5.988091 3.666362 0
M  V30 28 C -5.234883 -5.106263 4.582172 0
M  V30 29 C -5.872322 -5.551998 5.806647 0
M  V30 30 C -6.255251 -4.735501 6.839822 0
M  V30 31 C -6.865257 -5.165067 8.011829 0
M  V30 32 C -7.115276 -6.489964 8.177355 0
M  V30 33 C -6.759109 -7.367063 7.184077 0
M  V30 34 C -6.157286 -6.876757 6.045860 0
M  V30 35 C -4.852630 -3.873367 4.121652 0
M  V30 36 Cl -5.056002 -2.389529 4.977929 0
M  V30 37 C -4.286515 -4.088177 2.860853 0
M  V30 38 C -1.140339 -0.684238 -1.435280 0
M  V30 39 C -0.641052 0.106372 -2.443980 0
M  V30 40 H 6.943262 5.773717 -1.282076 0
M  V30 41 H 7.789692 4.233490 -1.342396 0
M  V30 42 H 6.963026 4.776761 -2.825736 0
M  V30 43 H 5.602072 2.008465 -0.711919 0
M  V30 44 H 7.205607 2.776564 -0.375993 0
M  V30 45 H 5.809930 3.133149 0.648560 0
M  V30 46 H 3.932061 3.154424 -1.624287 0
M  V30 47 H 4.277553 4.588792 -2.614693 0
M  V30 48 H 7.167597 2.411201 -2.747732 0
M  V30 49 H 7.655816 0.863923 -4.614428 0
M  V30 50 H 5.763224 0.369637 -6.171089 0
M  V30 51 H 3.567593 1.340224 -5.896911 0
M  V30 52 H 2.333317 3.809977 -4.408189 0
M  V30 53 H 0.160579 3.187946 -3.367906 0
M  V30 54 H 0.501653 2.573480 -0.363199 0
M  V30 55 H -0.409320 1.098833 1.299405 0
M  V30 56 H -1.447268 -2.248181 0.603504 0
M  V30 57 H -1.042782 -0.995086 1.867283 0
M  V30 58 H -3.677515 -0.973801 0.239284 0
M  V30 59 H -3.135069 0.129462 1.499631 0
M  V30 60 H -4.021268 -1.290189 3.035409 0
M  V30 61 H -2.964933 -5.486925 -0.333839 0
M  V30 62 H -6.098131 -3.673288 6.798470 0
M  V30 63 H -7.141794 -4.487921 8.784596 0
M  V30 64 H -7.586388 -6.883850 9.066422 0
M  V30 65 H -6.956243 -8.414953 7.313443 0
M  V30 66 H -5.905095 -7.636924 5.302447 0
M  V30 67 H -1.598180 -1.598038 -1.778783 0
M  V30 68 H -0.638059 -0.047049 -3.518216 0
M  V30 END ATOM
M  V30 BEGIN BOND
M  V30 1 1 1 2
M  V30 2 1 2 3
M  V30 3 1 2 4
M  V30 4 1 4 5
M  V30 5 2 5 6
M  V30 6 1 6 7
M  V30 7 2 7 8
M  V30 8 1 8 9
M  V30 9 2 9 10
M  V30 10 1 10 11
M  V30 11 1 11 12
M  V30 12 2 12 13
M  V30 13 1 12 14
M  V30 14 1 14 15
M  V30 15 2 15 16
M  V30 16 1 16 17
M  V30 17 2 17 18
M  V30 18 1 18 19
M  V30 19 1 19 20
M  V30 20 1 20 21
M  V30 21 1 21 22
M  V30 22 2 22 23
M  V30 23 1 23 24
M  V30 24 2 24 25
M  V30 25 1 25 26
M  V30 26 1 26 27
M  V30 27 1 27 28
M  V30 28 1 28 29
M  V30 29 2 29 30
M  V30 30 1 30 31
M  V30 31 2 31 32
M  V30 32 1 32 33
M  V30 33 2 33 34
M  V30 34 2 28 35
M  V30 35 1 35 36
M  V30 36 1 35 37
M  V30 37 1 18 38
M  V30 38 2 38 39
M  V30 39 1 10 5
M  V30 40 1 39 15
M  V30 41 1 37 22
M  V30 42 2 37 26
M  V30 43 1 34 29
M  V30 44 1 1 40
M  V30 45 1 1 41
M  V30 46 1 1 42
M  V30 47 1 3 43
M  V30 48 1 3 44
M  V30 49 1 3 45
M  V30 50 1 4 46
M  V30 51 1 4 47
M  V30 52 1 6 48
M  V30 53 1 7 49
M  V30 54 1 8 50
M  V30 55 1 9 51
M  V30 56 1 11 52
M  V30 57 1 14 53
M  V30 58 1 16 54
M  V30 59 1 17 55
M  V30 60 1 19 56
M  V30 61 1 19 57
M  V30 62 1 20 58
M  V30 63 1 20 59
M  V30 64 1 21 60
M  V30 65 1 24 61
M  V30 66 1 30 62
M  V30 67 1 31 63
M  V30 68 1 32 64
M  V30 69 1 33 65
M  V30 70 1 34 66
M  V30 71 1 38 67
M  V30 72 1 39 68
M  V30 END BOND
M  V30 END CTAB
M  END
>  <Dataset>  (983) 
ChEMBL_Kinases

>  <Ligand_Instance>  (983) 
nan

>  <PDB_ID>  (983) 
nan

>  <Standardized_SMILES>  (983) 
CN(C)Cc1ccccc1NC(=O)Nc1ccc(CCNc2ncnc3oc(-c4ccccc4)c(Cl)c23)cc1

>  <Name>  (983) 
nan

>  <Pocket>  (983) 
nan

>  <ATP_Site>  (983) 
nan

>  <Peripheral>  (983) 
nan

>  <Num_H_Atoms_ProtBoundConf>  (983) 
nan

>  <Num_Resolved_Atoms>  (983) 
nan

>  <Num_Not_Resolved_Atoms>  (983) 
nan

$$$$
CHEMBL4162390
     RDKit          3D

  0  0  0  0  0  0  0  0  0  0999 V3000
M  V30 BEGIN CTAB
M  V30 COUNTS 47 49 0 0 0
M  V30 BEGIN ATOM
M  V30 1 C -1.502424 -5.373337 3.903185 0
M  V30 2 O -2.286652 -5.379106 2.710242 0
M  V30 3 C -2.169716 -4.377198 1.759106 0
M  V30 4 C -1.303548 -3.315776 1.886829 0
M  V30 5 C -1.285804 -2.392591 0.872527 0
M  V30 6 C -2.049596 -2.413602 -0.272145 0
M  V30 7 N -2.007924 -1.443243 -1.303751 0
M  V30 8 C -1.225987 -0.273635 -1.424827 0
M  V30 9 N -1.383842 0.481971 -2.525196 0
M  V30 10 C -0.699114 1.609715 -2.748274 0
M  V30 11 C 0.218280 2.027484 -1.807394 0
M  V30 12 C 0.387402 1.275319 -0.693509 0
M  V30 13 C 1.393954 1.753072 0.317308 0
M  V30 14 S 2.302393 3.298473 -0.037362 0
M  V30 15 C 3.262784 3.168186 1.594201 0
M  V30 16 N 4.298456 4.034432 2.208679 0
M  V30 17 C 5.688550 3.753500 1.894489 0
M  V30 18 C 3.985265 5.139588 3.101405 0
M  V30 19 N 2.818886 2.215392 1.992353 0
M  V30 20 C 1.912235 1.384399 1.537195 0
M  V30 21 C 1.377276 0.136946 2.129855 0
M  V30 22 N -0.324985 0.173370 -0.542359 0
M  V30 23 C -2.900433 -3.508831 -0.338178 0
M  V30 24 O -3.733075 -3.659441 -1.441937 0
M  V30 25 C -4.625414 -4.753004 -1.573283 0
M  V30 26 C -2.959233 -4.461116 0.646093 0
M  V30 27 H -0.457453 -5.470076 3.560987 0
M  V30 28 H -1.835706 -6.156456 4.596354 0
M  V30 29 H -1.610975 -4.389742 4.426242 0
M  V30 30 H -0.685749 -3.250002 2.757586 0
M  V30 31 H -0.599146 -1.580615 1.006684 0
M  V30 32 H -2.680572 -1.650664 -2.101259 0
M  V30 33 H -0.885696 2.159319 -3.659087 0
M  V30 34 H 0.717232 2.934839 -2.067015 0
M  V30 35 H 6.034338 2.874676 2.465152 0
M  V30 36 H 5.789938 3.489760 0.801458 0
M  V30 37 H 6.277099 4.652476 2.085855 0
M  V30 38 H 2.907391 5.180197 3.288346 0
M  V30 39 H 4.627372 5.063039 3.992665 0
M  V30 40 H 4.289924 6.060490 2.540890 0
M  V30 41 H 1.593482 -0.744560 1.488922 0
M  V30 42 H 1.820060 -0.096222 3.110701 0
M  V30 43 H 0.276093 0.212190 2.332765 0
M  V30 44 H -5.297030 -4.555903 -2.428785 0
M  V30 45 H -3.993414 -5.632149 -1.791483 0
M  V30 46 H -5.238625 -4.853408 -0.663536 0
M  V30 47 H -3.646214 -5.292427 0.532905 0
M  V30 END ATOM
M  V30 BEGIN BOND
M  V30 1 1 1 2
M  V30 2 1 2 3
M  V30 3 2 3 4
M  V30 4 1 4 5
M  V30 5 2 5 6
M  V30 6 1 6 7
M  V30 7 1 7 8
M  V30 8 2 8 9
M  V30 9 1 9 10
M  V30 10 2 10 11
M  V30 11 1 11 12
M  V30 12 1 12 13
M  V30 13 1 13 14
M  V30 14 1 14 15
M  V30 15 1 15 16
M  V30 16 1 16 17
M  V30 17 1 16 18
M  V30 18 2 15 19
M  V30 19 1 19 20
M  V30 20 1 20 21
M  V30 21 2 12 22
M  V30 22 1 6 23
M  V30 23 1 23 24
M  V30 24 1 24 25
M  V30 25 2 23 26
M  V30 26 1 26 3
M  V30 27 1 22 8
M  V30 28 2 20 13
M  V30 29 1 1 27
M  V30 30 1 1 28
M  V30 31 1 1 29
M  V30 32 1 4 30
M  V30 33 1 5 31
M  V30 34 1 7 32
M  V30 35 1 10 33
M  V30 36 1 11 34
M  V30 37 1 17 35
M  V30 38 1 17 36
M  V30 39 1 17 37
M  V30 40 1 18 38
M  V30 41 1 18 39
M  V30 42 1 18 40
M  V30 43 1 21 41
M  V30 44 1 21 42
M  V30 45 1 21 43
M  V30 46 1 25 44
M  V30 47 1 25 45
M  V30 48 1 25 46
M  V30 49 1 26 47
M  V30 END BOND
M  V30 END CTAB
M  END
>  <Dataset>  (984) 
ChEMBL_Kinases

>  <Ligand_Instance>  (984) 
nan

>  <PDB_ID>  (984) 
nan

>  <Standardized_SMILES>  (984) 
COc1ccc(Nc2nccc(-c3sc(N(C)C)nc3C)n2)c(OC)c1

>  <Name>  (984) 
nan

>  <Pocket>  (984) 
nan

>  <ATP_Site>  (984) 
nan

>  <Peripheral>  (984) 
nan

>  <Num_H_Atoms_ProtBoundConf>  (984) 
nan

>  <Num_Resolved_Atoms>  (984) 
nan

>  <Num_Not_Resolved_Atoms>  (984) 
nan

$$$$
CHEMBL3760043
     RDKit          3D

  0  0  0  0  0  0  0  0  0  0999 V3000
M  V30 BEGIN CTAB
M  V30 COUNTS 38 40 0 0 0
M  V30 BEGIN ATOM
M  V30 1 C 4.619953 -7.378995 2.515669 0
M  V30 2 O 3.370904 -6.871621 2.920610 0
M  V30 3 C 2.963177 -5.604753 2.532122 0
M  V30 4 C 3.660746 -4.709268 1.748693 0
M  V30 5 C 3.095495 -3.467093 1.453072 0
M  V30 6 C 1.867484 -3.139585 1.931989 0
M  V30 7 C 1.224943 -1.850723 1.653986 0
M  V30 8 O 0.076034 -1.542657 2.100647 0
M  V30 9 N 1.802624 -0.836178 0.876599 0
M  V30 10 C 0.939394 0.365519 0.753579 0
M  V30 11 N 0.815309 1.315254 1.339811 0
M  V30 12 C 0.018631 2.340888 1.161183 0
M  V30 13 C -0.794026 2.267411 0.108644 0
M  V30 14 C -1.833915 3.158194 -0.472225 0
M  V30 15 C -2.495451 2.742913 -1.602453 0
M  V30 16 C -3.451809 3.598039 -2.109778 0
M  V30 17 C -3.659534 4.803696 -1.430620 0
M  V30 18 C -4.642502 5.806408 -1.856671 0
M  V30 19 O -4.888892 6.908832 -1.304333 0
M  V30 20 O -5.476012 5.683125 -2.972038 0
M  V30 21 N -2.979684 5.180601 -0.307756 0
M  V30 22 C -2.030833 4.342709 0.203825 0
M  V30 23 S -0.382635 0.704590 -0.602187 0
M  V30 24 C 1.141038 -4.029942 2.727963 0
M  V30 25 C 1.713640 -5.271746 3.019634 0
M  V30 26 H 4.497417 -8.501072 2.524166 0
M  V30 27 H 4.862384 -7.053986 1.497843 0
M  V30 28 H 5.424865 -7.158411 3.248078 0
M  V30 29 H 4.620586 -5.032854 1.406489 0
M  V30 30 H 3.658527 -2.777984 0.836627 0
M  V30 31 H 2.756132 -0.988373 0.456995 0
M  V30 32 H 0.011639 3.200919 1.821196 0
M  V30 33 H -2.290417 1.812049 -2.072268 0
M  V30 34 H -4.031566 3.394145 -2.976546 0
M  V30 35 H -6.476840 5.817939 -2.888044 0
M  V30 36 H -1.470898 4.603297 1.090182 0
M  V30 37 H 0.164397 -3.746727 3.098177 0
M  V30 38 H 1.074414 -5.905692 3.649319 0
M  V30 END ATOM
M  V30 BEGIN BOND
M  V30 1 1 1 2
M  V30 2 1 2 3
M  V30 3 2 3 4
M  V30 4 1 4 5
M  V30 5 2 5 6
M  V30 6 1 6 7
M  V30 7 2 7 8
M  V30 8 1 7 9
M  V30 9 1 9 10
M  V30 10 2 10 11
M  V30 11 1 11 12
M  V30 12 2 12 13
M  V30 13 1 13 14
M  V30 14 2 14 15
M  V30 15 1 15 16
M  V30 16 2 16 17
M  V30 17 1 17 18
M  V30 18 2 18 19
M  V30 19 1 18 20
M  V30 20 1 17 21
M  V30 21 2 21 22
M  V30 22 1 13 23
M  V30 23 1 6 24
M  V30 24 2 24 25
M  V30 25 1 25 3
M  V30 26 1 23 10
M  V30 27 1 22 14
M  V30 28 1 1 26
M  V30 29 1 1 27
M  V30 30 1 1 28
M  V30 31 1 4 29
M  V30 32 1 5 30
M  V30 33 1 9 31
M  V30 34 1 12 32
M  V30 35 1 15 33
M  V30 36 1 16 34
M  V30 37 1 20 35
M  V30 38 1 22 36
M  V30 39 1 24 37
M  V30 40 1 25 38
M  V30 END BOND
M  V30 END CTAB
M  END
>  <Dataset>  (985) 
ChEMBL_Kinases

>  <Ligand_Instance>  (985) 
nan

>  <PDB_ID>  (985) 
nan

>  <Standardized_SMILES>  (985) 
COc1ccc(C(=O)Nc2ncc(-c3ccc(C(=O)O)nc3)s2)cc1

>  <Name>  (985) 
nan

>  <Pocket>  (985) 
nan

>  <ATP_Site>  (985) 
nan

>  <Peripheral>  (985) 
nan

>  <Num_H_Atoms_ProtBoundConf>  (985) 
nan

>  <Num_Resolved_Atoms>  (985) 
nan

>  <Num_Not_Resolved_Atoms>  (985) 
nan

$$$$
CHEMBL3343308
     RDKit          3D

  0  0  0  0  0  0  0  0  0  0999 V3000
M  V30 BEGIN CTAB
M  V30 COUNTS 70 74 0 0 0
M  V30 BEGIN ATOM
M  V30 1 O 3.511265 2.649122 4.193491 0
M  V30 2 C 3.458979 3.847155 4.629253 0
M  V30 3 N 4.129314 4.361099 5.739789 0
M  V30 4 C 5.005250 3.557797 6.579834 0
M  V30 5 C 6.326597 3.289626 5.962268 0
M  V30 6 C 7.344252 4.226017 6.190346 0
M  V30 7 C 8.602498 4.007423 5.634156 0
M  V30 8 C 8.838785 2.884792 4.870783 0
M  V30 9 C 7.850230 1.927938 4.620424 0
M  V30 10 C 6.607722 2.175151 5.189011 0
M  V30 11 N 2.583717 4.604627 3.784372 0
M  V30 12 C 2.042460 3.807363 2.721816 0
M  V30 13 C 0.872057 3.120342 2.968586 0
M  V30 14 C 0.332411 2.350839 1.955061 0
M  V30 15 C 0.878788 2.211987 0.696928 0
M  V30 16 N 0.317557 1.403196 -0.325277 0
M  V30 17 C -0.604065 0.346728 -0.132344 0
M  V30 18 N -0.989877 -0.086533 1.074296 0
M  V30 19 C -1.862386 -1.077188 1.309667 0
M  V30 20 N -2.419469 -1.714669 0.259357 0
M  V30 21 C -2.053306 -1.304064 -0.969931 0
M  V30 22 C -2.647360 -1.974789 -2.009534 0
M  V30 23 C -2.419748 -1.711746 -3.327989 0
M  V30 24 O -2.883752 -2.236512 -4.497918 0
M  V30 25 C -3.769858 -3.271263 -4.737546 0
M  V30 26 C -3.267782 -4.579927 -4.240865 0
M  V30 27 C -4.237292 -5.715791 -4.480246 0
M  V30 28 N -5.513667 -5.524458 -3.816682 0
M  V30 29 C -6.349582 -6.650808 -4.153908 0
M  V30 30 C -6.841074 -7.389338 -2.946611 0
M  V30 31 O -7.491182 -6.533175 -2.074970 0
M  V30 32 C -6.708225 -5.439651 -1.725767 0
M  V30 33 C -5.345710 -5.528349 -2.371664 0
M  V30 34 C -1.502583 -0.670220 -3.553481 0
M  V30 35 C -0.886300 0.025085 -2.524451 0
M  V30 36 C -1.159921 -0.290383 -1.217659 0
M  V30 37 C 2.043361 2.933728 0.545870 0
M  V30 38 C 2.656016 3.724260 1.490177 0
M  V30 39 H 3.921175 5.392159 5.887790 0
M  V30 40 H 4.468987 2.565115 6.669089 0
M  V30 41 H 5.075897 3.935893 7.601926 0
M  V30 42 H 7.247062 5.128044 6.772918 0
M  V30 43 H 9.463240 4.660202 5.741811 0
M  V30 44 H 9.797364 2.630982 4.395207 0
M  V30 45 H 8.021981 1.037572 4.020615 0
M  V30 46 H 5.831025 1.450119 5.012677 0
M  V30 47 H 2.421145 5.632890 4.005660 0
M  V30 48 H 0.413345 3.207672 3.952327 0
M  V30 49 H -0.582249 1.858742 2.240467 0
M  V30 50 H 0.683199 1.699528 -1.250812 0
M  V30 51 H -2.118935 -1.362591 2.319900 0
M  V30 52 H -3.348765 -2.752954 -1.840334 0
M  V30 53 H -3.889146 -3.321038 -5.864482 0
M  V30 54 H -4.809056 -3.059746 -4.377480 0
M  V30 55 H -2.851824 -4.530536 -3.236902 0
M  V30 56 H -2.376041 -4.834681 -4.900812 0
M  V30 57 H -4.386321 -5.868797 -5.558007 0
M  V30 58 H -3.762746 -6.626816 -4.066808 0
M  V30 59 H -5.824446 -7.388585 -4.826996 0
M  V30 60 H -7.262318 -6.280595 -4.687903 0
M  V30 61 H -6.035532 -7.995187 -2.476934 0
M  V30 62 H -7.612425 -8.154363 -3.238460 0
M  V30 63 H -7.215777 -4.464899 -1.891633 0
M  V30 64 H -6.603609 -5.507606 -0.602735 0
M  V30 65 H -4.839496 -6.421450 -2.003007 0
M  V30 66 H -4.737767 -4.665156 -2.054783 0
M  V30 67 H -1.202727 -0.326984 -4.559205 0
M  V30 68 H -0.188745 0.818483 -2.740878 0
M  V30 69 H 2.568581 2.898175 -0.420741 0
M  V30 70 H 3.568575 4.256672 1.288389 0
M  V30 END ATOM
M  V30 BEGIN BOND
M  V30 1 2 1 2
M  V30 2 1 2 3
M  V30 3 1 3 4
M  V30 4 1 4 5
M  V30 5 2 5 6
M  V30 6 1 6 7
M  V30 7 2 7 8
M  V30 8 1 8 9
M  V30 9 2 9 10
M  V30 10 1 2 11
M  V30 11 1 11 12
M  V30 12 2 12 13
M  V30 13 1 13 14
M  V30 14 2 14 15
M  V30 15 1 15 16
M  V30 16 1 16 17
M  V30 17 2 17 18
M  V30 18 1 18 19
M  V30 19 2 19 20
M  V30 20 1 20 21
M  V30 21 2 21 22
M  V30 22 1 22 23
M  V30 23 1 23 24
M  V30 24 1 24 25
M  V30 25 1 25 26
M  V30 26 1 26 27
M  V30 27 1 27 28
M  V30 28 1 28 29
M  V30 29 1 29 30
M  V30 30 1 30 31
M  V30 31 1 31 32
M  V30 32 1 32 33
M  V30 33 2 23 34
M  V30 34 1 34 35
M  V30 35 2 35 36
M  V30 36 1 15 37
M  V30 37 2 37 38
M  V30 38 1 10 5
M  V30 39 1 38 12
M  V30 40 1 36 17
M  V30 41 1 36 21
M  V30 42 1 33 28
M  V30 43 1 3 39
M  V30 44 1 4 40
M  V30 45 1 4 41
M  V30 46 1 6 42
M  V30 47 1 7 43
M  V30 48 1 8 44
M  V30 49 1 9 45
M  V30 50 1 10 46
M  V30 51 1 11 47
M  V30 52 1 13 48
M  V30 53 1 14 49
M  V30 54 1 16 50
M  V30 55 1 19 51
M  V30 56 1 22 52
M  V30 57 1 25 53
M  V30 58 1 25 54
M  V30 59 1 26 55
M  V30 60 1 26 56
M  V30 61 1 27 57
M  V30 62 1 27 58
M  V30 63 1 29 59
M  V30 64 1 29 60
M  V30 65 1 30 61
M  V30 66 1 30 62
M  V30 67 1 32 63
M  V30 68 1 32 64
M  V30 69 1 33 65
M  V30 70 1 33 66
M  V30 71 1 34 67
M  V30 72 1 35 68
M  V30 73 1 37 69
M  V30 74 1 38 70
M  V30 END BOND
M  V30 END CTAB
M  END
>  <Dataset>  (986) 
ChEMBL_Kinases

>  <Ligand_Instance>  (986) 
nan

>  <PDB_ID>  (986) 
nan

>  <Standardized_SMILES>  (986) 
O=C(NCc1ccccc1)Nc1ccc(Nc2ncnc3cc(OCCCN4CCOCC4)ccc23)cc1

>  <Name>  (986) 
nan

>  <Pocket>  (986) 
nan

>  <ATP_Site>  (986) 
nan

>  <Peripheral>  (986) 
nan

>  <Num_H_Atoms_ProtBoundConf>  (986) 
nan

>  <Num_Resolved_Atoms>  (986) 
nan

>  <Num_Not_Resolved_Atoms>  (986) 
nan

$$$$
CHEMBL3343309
     RDKit          3D

  0  0  0  0  0  0  0  0  0  0999 V3000
M  V30 BEGIN CTAB
M  V30 COUNTS 74 78 0 0 0
M  V30 BEGIN ATOM
M  V30 1 C 7.924882 -1.814507 2.811332 0
M  V30 2 N 6.727304 -1.068407 2.992048 0
M  V30 3 C 5.526913 -1.833624 3.177489 0
M  V30 4 C 4.368720 -1.223711 2.409212 0
M  V30 5 N 4.685765 -1.202620 1.020478 0
M  V30 6 C 4.749494 -2.542109 0.505346 0
M  V30 7 C 4.935611 -2.586943 -1.010416 0
M  V30 8 C 3.735164 -1.906500 -1.636182 0
M  V30 9 O 3.590412 -0.556567 -1.247330 0
M  V30 10 C 2.477905 0.141843 -1.760715 0
M  V30 11 C 1.588516 -0.502945 -2.597238 0
M  V30 12 C 0.486043 0.197814 -3.099904 0
M  V30 13 C 0.294018 1.538387 -2.754020 0
M  V30 14 C -0.817484 2.223035 -3.257704 0
M  V30 15 N -1.720696 1.525175 -4.113696 0
M  V30 16 C -2.652223 0.718069 -3.381603 0
M  V30 17 C -2.551630 0.540619 -2.009126 0
M  V30 18 C -3.462911 -0.253314 -1.318267 0
M  V30 19 C -4.517900 -0.904692 -1.977742 0
M  V30 20 N -5.290897 -1.653673 -1.053378 0
M  V30 21 C -6.406988 -1.355573 -0.226275 0
M  V30 22 O -6.866230 -0.190248 -0.276510 0
M  V30 23 N -6.846154 -2.433816 0.550316 0
M  V30 24 C -7.955914 -2.297721 1.461641 0
M  V30 25 C -7.469620 -1.577746 2.672781 0
M  V30 26 C -7.474607 -0.227964 2.948463 0
M  V30 27 C -6.960815 0.265365 4.125915 0
M  V30 28 C -6.415661 -0.585156 5.085836 0
M  V30 29 C -6.380320 -1.948484 4.872285 0
M  V30 30 C -6.914947 -2.399601 3.659109 0
M  V30 31 C -4.602298 -0.718149 -3.332241 0
M  V30 32 C -3.683736 0.073759 -3.984575 0
M  V30 33 N -0.957323 3.528522 -2.880026 0
M  V30 34 C -0.026548 4.078763 -2.051095 0
M  V30 35 N 1.044484 3.417635 -1.565302 0
M  V30 36 C 1.209431 2.116304 -1.924208 0
M  V30 37 C 2.310999 1.474801 -1.400814 0
M  V30 38 C 5.860046 -0.438850 0.772527 0
M  V30 39 C 6.501432 -0.001330 2.061441 0
M  V30 40 H 8.688730 -1.412485 3.538674 0
M  V30 41 H 8.403955 -1.757822 1.834565 0
M  V30 42 H 7.716635 -2.891207 3.065061 0
M  V30 43 H 5.299877 -1.763961 4.283616 0
M  V30 44 H 5.658026 -2.876212 2.910282 0
M  V30 45 H 4.184181 -0.206999 2.828157 0
M  V30 46 H 3.426797 -1.789667 2.592471 0
M  V30 47 H 3.960380 -3.197587 0.868601 0
M  V30 48 H 5.712917 -2.972764 0.906931 0
M  V30 49 H 4.931609 -3.630716 -1.377461 0
M  V30 50 H 5.891479 -2.137065 -1.259636 0
M  V30 51 H 3.747714 -2.033834 -2.735561 0
M  V30 52 H 2.850637 -2.484397 -1.240978 0
M  V30 53 H 1.701774 -1.527697 -2.885537 0
M  V30 54 H -0.237739 -0.280231 -3.763737 0
M  V30 55 H -1.804774 1.511384 -5.159660 0
M  V30 56 H -1.738466 1.035895 -1.452596 0
M  V30 57 H -3.274222 -0.309923 -0.246480 0
M  V30 58 H -4.803412 -2.594173 -1.117192 0
M  V30 59 H -6.423256 -3.380750 0.531865 0
M  V30 60 H -8.712858 -1.620518 0.976966 0
M  V30 61 H -8.396877 -3.245483 1.762879 0
M  V30 62 H -7.911785 0.372323 2.169925 0
M  V30 63 H -6.995206 1.335311 4.278593 0
M  V30 64 H -6.007952 -0.182486 6.021115 0
M  V30 65 H -5.969802 -2.652421 5.581902 0
M  V30 66 H -6.868014 -3.491382 3.526596 0
M  V30 67 H -5.440352 -1.253911 -3.746335 0
M  V30 68 H -3.854780 0.145694 -5.060130 0
M  V30 69 H -0.285832 5.126535 -1.847981 0
M  V30 70 H 3.015548 1.958910 -0.747981 0
M  V30 71 H 5.645883 0.516013 0.205719 0
M  V30 72 H 6.655233 -1.013985 0.226895 0
M  V30 73 H 7.506764 0.460328 1.876306 0
M  V30 74 H 5.921163 0.814238 2.577756 0
M  V30 END ATOM
M  V30 BEGIN BOND
M  V30 1 1 1 2
M  V30 2 1 2 3
M  V30 3 1 3 4
M  V30 4 1 4 5
M  V30 5 1 5 6
M  V30 6 1 6 7
M  V30 7 1 7 8
M  V30 8 1 8 9
M  V30 9 1 9 10
M  V30 10 2 10 11
M  V30 11 1 11 12
M  V30 12 2 12 13
M  V30 13 1 13 14
M  V30 14 1 14 15
M  V30 15 1 15 16
M  V30 16 2 16 17
M  V30 17 1 17 18
M  V30 18 2 18 19
M  V30 19 1 19 20
M  V30 20 1 20 21
M  V30 21 2 21 22
M  V30 22 1 21 23
M  V30 23 1 23 24
M  V30 24 1 24 25
M  V30 25 2 25 26
M  V30 26 1 26 27
M  V30 27 2 27 28
M  V30 28 1 28 29
M  V30 29 2 29 30
M  V30 30 1 19 31
M  V30 31 2 31 32
M  V30 32 2 14 33
M  V30 33 1 33 34
M  V30 34 2 34 35
M  V30 35 1 35 36
M  V30 36 2 36 37
M  V30 37 1 5 38
M  V30 38 1 38 39
M  V30 39 1 39 2
M  V30 40 1 37 10
M  V30 41 1 36 13
M  V30 42 1 32 16
M  V30 43 1 30 25
M  V30 44 1 1 40
M  V30 45 1 1 41
M  V30 46 1 1 42
M  V30 47 1 3 43
M  V30 48 1 3 44
M  V30 49 1 4 45
M  V30 50 1 4 46
M  V30 51 1 6 47
M  V30 52 1 6 48
M  V30 53 1 7 49
M  V30 54 1 7 50
M  V30 55 1 8 51
M  V30 56 1 8 52
M  V30 57 1 11 53
M  V30 58 1 12 54
M  V30 59 1 15 55
M  V30 60 1 17 56
M  V30 61 1 18 57
M  V30 62 1 20 58
M  V30 63 1 23 59
M  V30 64 1 24 60
M  V30 65 1 24 61
M  V30 66 1 26 62
M  V30 67 1 27 63
M  V30 68 1 28 64
M  V30 69 1 29 65
M  V30 70 1 30 66
M  V30 71 1 31 67
M  V30 72 1 32 68
M  V30 73 1 34 69
M  V30 74 1 37 70
M  V30 75 1 38 71
M  V30 76 1 38 72
M  V30 77 1 39 73
M  V30 78 1 39 74
M  V30 END BOND
M  V30 END CTAB
M  END
>  <Dataset>  (987) 
ChEMBL_Kinases

>  <Ligand_Instance>  (987) 
nan

>  <PDB_ID>  (987) 
nan

>  <Standardized_SMILES>  (987) 
CN1CCN(CCCOc2ccc3c(Nc4ccc(NC(=O)NCc5ccccc5)cc4)ncnc3c2)CC1

>  <Name>  (987) 
nan

>  <Pocket>  (987) 
nan

>  <ATP_Site>  (987) 
nan

>  <Peripheral>  (987) 
nan

>  <Num_H_Atoms_ProtBoundConf>  (987) 
nan

>  <Num_Resolved_Atoms>  (987) 
nan

>  <Num_Not_Resolved_Atoms>  (987) 
nan

$$$$
CHEMBL3760064
     RDKit          3D

  0  0  0  0  0  0  0  0  0  0999 V3000
M  V30 BEGIN CTAB
M  V30 COUNTS 53 56 0 0 0
M  V30 BEGIN ATOM
M  V30 1 C 8.344704 0.321651 -3.763460 0
M  V30 2 O 7.054806 0.830143 -3.902160 0
M  V30 3 C 6.074590 0.855985 -2.952884 0
M  V30 4 C 6.232238 0.368576 -1.690376 0
M  V30 5 C 5.194564 0.430918 -0.789060 0
M  V30 6 C 3.968368 0.983806 -1.127072 0
M  V30 7 C 2.930684 1.002485 -0.100469 0
M  V30 8 O 3.200351 0.524172 1.031029 0
M  V30 9 N 1.655103 1.538033 -0.353082 0
M  V30 10 C 0.824433 1.410061 0.889603 0
M  V30 11 N 0.421072 1.762332 1.869923 0
M  V30 12 C -0.403729 1.203481 2.718696 0
M  V30 13 C -0.886230 0.003513 2.426369 0
M  V30 14 C -1.835102 -0.866416 3.207247 0
M  V30 15 C -2.263567 -0.292987 4.377652 0
M  V30 16 C -3.136515 -1.035584 5.135311 0
M  V30 17 C -3.586023 -2.289528 4.783485 0
M  V30 18 C -4.510340 -3.095321 5.571034 0
M  V30 19 O -4.876346 -4.219826 5.194259 0
M  V30 20 O -4.996440 -2.600347 6.770809 0
M  V30 21 C -3.079823 -2.747623 3.587810 0
M  V30 22 C -2.200974 -2.108585 2.732972 0
M  V30 23 C -1.680670 -2.677218 1.488323 0
M  V30 24 O -2.183201 -2.090085 0.341089 0
M  V30 25 C -3.471577 -2.054684 -0.061911 0
M  V30 26 C -4.700195 -2.481118 0.332675 0
M  V30 27 C -5.880929 -2.269334 -0.335737 0
M  V30 28 C -5.860880 -1.564725 -1.518692 0
M  V30 29 C -4.649080 -1.088114 -2.003142 0
M  V30 30 C -3.478822 -1.337429 -1.273879 0
M  V30 31 S -0.063578 -0.268925 0.829578 0
M  V30 32 C 3.785716 1.483409 -2.398908 0
M  V30 33 C 4.848428 1.405689 -3.281482 0
M  V30 34 H 9.129761 0.995061 -4.199897 0
M  V30 35 H 8.678923 0.112131 -2.739704 0
M  V30 36 H 8.449881 -0.642002 -4.313671 0
M  V30 37 H 7.181346 -0.078593 -1.372656 0
M  V30 38 H 5.382739 0.021995 0.211867 0
M  V30 39 H 1.371291 1.940999 -1.247660 0
M  V30 40 H -0.650983 1.768461 3.635461 0
M  V30 41 H -1.966249 0.682074 4.733915 0
M  V30 42 H -3.487506 -0.604588 6.060390 0
M  V30 43 H -5.262480 -3.202274 7.547342 0
M  V30 44 H -3.426627 -3.751227 3.285467 0
M  V30 45 H -0.572034 -2.626059 1.472150 0
M  V30 46 H -1.879668 -3.794731 1.512204 0
M  V30 47 H -4.620805 -3.027524 1.257331 0
M  V30 48 H -6.739201 -2.707874 0.177190 0
M  V30 49 H -6.831451 -1.444357 -1.977846 0
M  V30 50 H -4.762231 -0.558900 -2.925679 0
M  V30 51 H -2.657309 -0.872739 -1.841824 0
M  V30 52 H 2.828185 1.918235 -2.671986 0
M  V30 53 H 4.629448 1.821521 -4.270341 0
M  V30 END ATOM
M  V30 BEGIN BOND
M  V30 1 1 1 2
M  V30 2 1 2 3
M  V30 3 2 3 4
M  V30 4 1 4 5
M  V30 5 2 5 6
M  V30 6 1 6 7
M  V30 7 2 7 8
M  V30 8 1 7 9
M  V30 9 1 9 10
M  V30 10 2 10 11
M  V30 11 1 11 12
M  V30 12 2 12 13
M  V30 13 1 13 14
M  V30 14 2 14 15
M  V30 15 1 15 16
M  V30 16 2 16 17
M  V30 17 1 17 18
M  V30 18 2 18 19
M  V30 19 1 18 20
M  V30 20 1 17 21
M  V30 21 2 21 22
M  V30 22 1 22 23
M  V30 23 1 23 24
M  V30 24 1 24 25
M  V30 25 2 25 26
M  V30 26 1 26 27
M  V30 27 2 27 28
M  V30 28 1 28 29
M  V30 29 2 29 30
M  V30 30 1 13 31
M  V30 31 1 6 32
M  V30 32 2 32 33
M  V30 33 1 33 3
M  V30 34 1 31 10
M  V30 35 1 22 14
M  V30 36 1 30 25
M  V30 37 1 1 34
M  V30 38 1 1 35
M  V30 39 1 1 36
M  V30 40 1 4 37
M  V30 41 1 5 38
M  V30 42 1 9 39
M  V30 43 1 12 40
M  V30 44 1 15 41
M  V30 45 1 16 42
M  V30 46 1 20 43
M  V30 47 1 21 44
M  V30 48 1 23 45
M  V30 49 1 23 46
M  V30 50 1 26 47
M  V30 51 1 27 48
M  V30 52 1 28 49
M  V30 53 1 29 50
M  V30 54 1 30 51
M  V30 55 1 32 52
M  V30 56 1 33 53
M  V30 END BOND
M  V30 END CTAB
M  END
>  <Dataset>  (988) 
ChEMBL_Kinases

>  <Ligand_Instance>  (988) 
nan

>  <PDB_ID>  (988) 
nan

>  <Standardized_SMILES>  (988) 
COc1ccc(C(=O)Nc2ncc(-c3ccc(C(=O)O)cc3COc3ccccc3)s2)cc1

>  <Name>  (988) 
nan

>  <Pocket>  (988) 
nan

>  <ATP_Site>  (988) 
nan

>  <Peripheral>  (988) 
nan

>  <Num_H_Atoms_ProtBoundConf>  (988) 
nan

>  <Num_Resolved_Atoms>  (988) 
nan

>  <Num_Not_Resolved_Atoms>  (988) 
nan

$$$$
CHEMBL376045
     RDKit          3D

  0  0  0  0  0  0  0  0  0  0999 V3000
M  V30 BEGIN CTAB
M  V30 COUNTS 51 53 0 0 0
M  V30 BEGIN ATOM
M  V30 1 N -0.673489 -1.694522 5.818765 0
M  V30 2 C 0.637945 -1.753490 6.440602 0
M  V30 3 C 1.706740 -1.952886 5.417194 0
M  V30 4 O 2.939123 -2.037954 5.705780 0
M  V30 5 N 1.456992 -2.069358 4.002413 0
M  V30 6 C 2.712071 -2.255086 3.292910 0
M  V30 7 C 2.385385 -2.373180 1.797579 0
M  V30 8 C 1.704227 -1.158393 1.264620 0
M  V30 9 N 1.365175 -1.183345 -0.120713 0
M  V30 10 C 0.788247 0.092297 -0.474365 0
M  V30 11 C 1.539487 1.186369 -0.851370 0
M  V30 12 C 0.957393 2.387700 -1.188182 0
M  V30 13 C -0.413140 2.524784 -1.155114 0
M  V30 14 O -0.889183 3.632699 -1.469129 0
M  V30 15 N -1.130717 1.424624 -0.778019 0
M  V30 16 C -2.539683 1.632113 -0.764283 0
M  V30 17 C -3.444170 1.042598 -1.610206 0
M  V30 18 C -4.796617 1.301248 -1.528911 0
M  V30 19 C -5.260326 2.188725 -0.557869 0
M  V30 20 C -4.416349 2.808157 0.313258 0
M  V30 21 C -3.054513 2.512529 0.189894 0
M  V30 22 Cl -1.940490 3.306909 1.312310 0
M  V30 23 N -0.542108 0.282904 -0.459825 0
M  V30 24 C 1.332876 -1.942142 -1.317356 0
M  V30 25 C 2.131975 -1.578699 -2.380957 0
M  V30 26 C 2.117698 -2.316352 -3.545461 0
M  V30 27 C 1.279441 -3.410188 -3.583372 0
M  V30 28 C 0.450235 -3.821057 -2.534586 0
M  V30 29 C 0.501412 -3.040914 -1.378023 0
M  V30 30 Cl -0.543130 -3.568577 -0.105445 0
M  V30 31 H -1.360335 -1.390021 6.538932 0
M  V30 32 H -0.947262 -2.683727 5.572378 0
M  V30 33 H 0.797917 -0.749246 6.905174 0
M  V30 34 H 0.661460 -2.522343 7.228631 0
M  V30 35 H 0.449373 -2.005201 3.704523 0
M  V30 36 H 3.398114 -1.437491 3.516971 0
M  V30 37 H 3.106167 -3.268361 3.591892 0
M  V30 38 H 1.844866 -3.321333 1.644531 0
M  V30 39 H 3.402133 -2.515527 1.324760 0
M  V30 40 H 2.409950 -0.299072 1.426668 0
M  V30 41 H 0.836508 -0.920564 1.921756 0
M  V30 42 H 2.599232 1.114375 -0.884212 0
M  V30 43 H 1.596488 3.217558 -1.478002 0
M  V30 44 H -3.018015 0.366567 -2.336961 0
M  V30 45 H -5.405365 0.773625 -2.252875 0
M  V30 46 H -6.333301 2.349812 -0.546369 0
M  V30 47 H -4.773796 3.489319 1.057891 0
M  V30 48 H 2.797276 -0.732047 -2.381435 0
M  V30 49 H 2.727494 -2.069424 -4.407857 0
M  V30 50 H 1.266257 -3.994900 -4.501948 0
M  V30 51 H -0.169966 -4.696219 -2.671928 0
M  V30 END ATOM
M  V30 BEGIN BOND
M  V30 1 1 1 2
M  V30 2 1 2 3
M  V30 3 2 3 4
M  V30 4 1 3 5
M  V30 5 1 5 6
M  V30 6 1 6 7
M  V30 7 1 7 8
M  V30 8 1 8 9
M  V30 9 1 9 10
M  V30 10 1 10 11
M  V30 11 2 11 12
M  V30 12 1 12 13
M  V30 13 2 13 14
M  V30 14 1 13 15
M  V30 15 1 15 16
M  V30 16 2 16 17
M  V30 17 1 17 18
M  V30 18 2 18 19
M  V30 19 1 19 20
M  V30 20 2 20 21
M  V30 21 1 21 22
M  V30 22 1 15 23
M  V30 23 1 9 24
M  V30 24 2 24 25
M  V30 25 1 25 26
M  V30 26 2 26 27
M  V30 27 1 27 28
M  V30 28 2 28 29
M  V30 29 1 29 30
M  V30 30 2 23 10
M  V30 31 1 29 24
M  V30 32 1 21 16
M  V30 33 1 1 31
M  V30 34 1 1 32
M  V30 35 1 2 33
M  V30 36 1 2 34
M  V30 37 1 5 35
M  V30 38 1 6 36
M  V30 39 1 6 37
M  V30 40 1 7 38
M  V30 41 1 7 39
M  V30 42 1 8 40
M  V30 43 1 8 41
M  V30 44 1 11 42
M  V30 45 1 12 43
M  V30 46 1 17 44
M  V30 47 1 18 45
M  V30 48 1 19 46
M  V30 49 1 20 47
M  V30 50 1 25 48
M  V30 51 1 26 49
M  V30 52 1 27 50
M  V30 53 1 28 51
M  V30 END BOND
M  V30 END CTAB
M  END
>  <Dataset>  (989) 
ChEMBL_Kinases

>  <Ligand_Instance>  (989) 
nan

>  <PDB_ID>  (989) 
nan

>  <Standardized_SMILES>  (989) 
NCC(=O)NCCCN(c1ccc(=O)n(-c2ccccc2Cl)n1)c1ccccc1Cl

>  <Name>  (989) 
nan

>  <Pocket>  (989) 
nan

>  <ATP_Site>  (989) 
nan

>  <Peripheral>  (989) 
nan

>  <Num_H_Atoms_ProtBoundConf>  (989) 
nan

>  <Num_Resolved_Atoms>  (989) 
nan

>  <Num_Not_Resolved_Atoms>  (989) 
nan

$$$$
CHEMBL376096
     RDKit          3D

  0  0  0  0  0  0  0  0  0  0999 V3000
M  V30 BEGIN CTAB
M  V30 COUNTS 52 53 0 0 0
M  V30 BEGIN ATOM
M  V30 1 C -1.800139 -0.323107 -3.325139 0
M  V30 2 C -1.272242 -1.700312 -3.008138 0
M  V30 3 O -1.925629 -2.336763 -1.953649 0
M  V30 4 C -1.968762 -1.818755 -0.671986 0
M  V30 5 N -1.372625 -0.652992 -0.367179 0
M  V30 6 C -1.396118 -0.120290 0.873254 0
M  V30 7 C -0.775841 1.135510 1.275124 0
M  V30 8 O -0.891807 1.502521 2.486821 0
M  V30 9 N -0.057457 1.954851 0.382185 0
M  V30 10 C 0.593690 3.216301 0.678978 0
M  V30 11 C 1.867574 3.003742 1.411139 0
M  V30 12 C 2.044992 2.952973 2.776790 0
M  V30 13 C 3.240286 2.753784 3.400634 0
M  V30 14 C 4.375925 2.587008 2.657968 0
M  V30 15 S 5.957400 2.326541 3.331798 0
M  V30 16 C 6.286866 0.590437 3.534770 0
M  V30 17 O 7.053850 2.886077 2.451387 0
M  V30 18 O 6.043295 2.962030 4.713371 0
M  V30 19 C 4.265924 2.627561 1.271667 0
M  V30 20 C 3.033349 2.832334 0.659699 0
M  V30 21 C -2.089149 -0.889975 1.786359 0
M  V30 22 C -2.716232 -2.074561 1.556113 0
M  V30 23 N -3.406038 -2.790746 2.573185 0
M  V30 24 C -2.655700 -2.570201 0.257937 0
M  V30 25 C -3.305419 -3.817086 -0.027622 0
M  V30 26 C -3.863075 -4.857504 -0.276439 0
M  V30 27 C -4.553279 -6.095876 -0.566380 0
M  V30 28 C -3.656449 -7.112205 -1.253456 0
M  V30 29 O -3.182036 -6.606745 -2.460702 0
M  V30 30 H -2.064451 0.274663 -2.444876 0
M  V30 31 H -2.736719 -0.396976 -3.931127 0
M  V30 32 H -1.006935 0.244177 -3.861185 0
M  V30 33 H -0.182301 -1.627228 -2.735820 0
M  V30 34 H -1.343881 -2.332544 -3.917935 0
M  V30 35 H -0.021602 1.553340 -0.603399 0
M  V30 36 H -0.124006 3.839930 1.253193 0
M  V30 37 H 0.837037 3.697621 -0.303501 0
M  V30 38 H 1.154153 3.085973 3.373736 0
M  V30 39 H 3.310858 2.724732 4.479377 0
M  V30 40 H 6.628397 0.129054 2.571446 0
M  V30 41 H 7.104285 0.416772 4.266196 0
M  V30 42 H 5.384045 0.028945 3.841626 0
M  V30 43 H 5.115020 2.504429 0.611450 0
M  V30 44 H 2.973200 2.860030 -0.431993 0
M  V30 45 H -2.146046 -0.513561 2.813391 0
M  V30 46 H -3.223722 -3.602621 3.201055 0
M  V30 47 H -4.366014 -2.397685 2.744040 0
M  V30 48 H -5.481185 -5.969175 -1.177034 0
M  V30 49 H -4.898945 -6.539469 0.399804 0
M  V30 50 H -4.258465 -8.013997 -1.479843 0
M  V30 51 H -2.816221 -7.306728 -0.540316 0
M  V30 52 H -2.347314 -6.120778 -2.313083 0
M  V30 END ATOM
M  V30 BEGIN BOND
M  V30 1 1 1 2
M  V30 2 1 2 3
M  V30 3 1 3 4
M  V30 4 2 4 5
M  V30 5 1 5 6
M  V30 6 1 6 7
M  V30 7 2 7 8
M  V30 8 1 7 9
M  V30 9 1 9 10
M  V30 10 1 10 11
M  V30 11 2 11 12
M  V30 12 1 12 13
M  V30 13 2 13 14
M  V30 14 1 14 15
M  V30 15 1 15 16
M  V30 16 2 15 17
M  V30 17 2 15 18
M  V30 18 1 14 19
M  V30 19 2 19 20
M  V30 20 2 6 21
M  V30 21 1 21 22
M  V30 22 1 22 23
M  V30 23 2 22 24
M  V30 24 1 24 25
M  V30 25 3 25 26
M  V30 26 1 26 27
M  V30 27 1 27 28
M  V30 28 1 28 29
M  V30 29 1 24 4
M  V30 30 1 20 11
M  V30 31 1 1 30
M  V30 32 1 1 31
M  V30 33 1 1 32
M  V30 34 1 2 33
M  V30 35 1 2 34
M  V30 36 1 9 35
M  V30 37 1 10 36
M  V30 38 1 10 37
M  V30 39 1 12 38
M  V30 40 1 13 39
M  V30 41 1 16 40
M  V30 42 1 16 41
M  V30 43 1 16 42
M  V30 44 1 19 43
M  V30 45 1 20 44
M  V30 46 1 21 45
M  V30 47 1 23 46
M  V30 48 1 23 47
M  V30 49 1 27 48
M  V30 50 1 27 49
M  V30 51 1 28 50
M  V30 52 1 28 51
M  V30 53 1 29 52
M  V30 END BOND
M  V30 END CTAB
M  END
>  <Dataset>  (990) 
ChEMBL_Kinases

>  <Ligand_Instance>  (990) 
nan

>  <PDB_ID>  (990) 
nan

>  <Standardized_SMILES>  (990) 
CCOc1nc(C(=O)NCc2ccc(S(C)(=O)=O)cc2)cc(N)c1C#CCCO

>  <Name>  (990) 
nan

>  <Pocket>  (990) 
nan

>  <ATP_Site>  (990) 
nan

>  <Peripheral>  (990) 
nan

>  <Num_H_Atoms_ProtBoundConf>  (990) 
nan

>  <Num_Resolved_Atoms>  (990) 
nan

>  <Num_Not_Resolved_Atoms>  (990) 
nan

$$$$
CHEMBL4162516
     RDKit          3D

  0  0  0  0  0  0  0  0  0  0999 V3000
M  V30 BEGIN CTAB
M  V30 COUNTS 53 54 0 0 0
M  V30 BEGIN ATOM
M  V30 1 C -2.589323 -5.596685 0.301047 0
M  V30 2 N -2.517974 -4.518952 -0.668959 0
M  V30 3 C -3.567378 -4.098788 -1.587882 0
M  V30 4 C -1.309745 -3.771438 -0.762658 0
M  V30 5 C -1.116455 -2.706978 -1.647179 0
M  V30 6 C 0.073227 -2.009394 -1.702390 0
M  V30 7 C 1.124779 -2.302455 -0.913570 0
M  V30 8 C 2.373143 -1.589391 -0.916986 0
M  V30 9 C 2.336410 -0.276500 -0.963789 0
M  V30 10 C 1.400588 0.790703 -1.016118 0
M  V30 11 C 2.005326 1.793724 -0.100420 0
M  V30 12 C 1.487715 3.189725 -0.324049 0
M  V30 13 O 1.426648 3.477350 -1.690747 0
M  V30 14 C 2.197833 1.516224 1.318257 0
M  V30 15 O 1.149950 1.466209 2.211068 0
M  V30 16 C 0.124626 0.607641 2.163688 0
M  V30 17 O -0.057410 -0.290910 1.311282 0
M  V30 18 C -0.856397 0.793219 3.257780 0
M  V30 19 C -0.272786 0.550801 4.630865 0
M  V30 20 C -2.027584 -0.122508 2.999350 0
M  V30 21 C -1.392710 2.228815 3.172672 0
M  V30 22 O 3.341107 1.784123 -0.695531 0
M  V30 23 C 3.642705 0.433812 -0.975779 0
M  V30 24 O 4.849366 0.104282 -1.167328 0
M  V30 25 C 0.990014 -3.366290 -0.001812 0
M  V30 26 C -0.206756 -4.067286 0.053179 0
M  V30 27 H -1.854505 -6.373217 0.004748 0
M  V30 28 H -3.601173 -6.033637 0.354685 0
M  V30 29 H -2.268099 -5.277186 1.326626 0
M  V30 30 H -4.520793 -4.558754 -1.261427 0
M  V30 31 H -3.299621 -4.342563 -2.637941 0
M  V30 32 H -3.713309 -3.006853 -1.440935 0
M  V30 33 H -1.961151 -2.447035 -2.304420 0
M  V30 34 H 0.100999 -1.236103 -2.411278 0
M  V30 35 H 3.291168 -2.203679 -0.880945 0
M  V30 36 H 1.638215 1.308518 -2.022634 0
M  V30 37 H 0.356487 0.723600 -1.126948 0
M  V30 38 H 2.199201 3.955225 0.090647 0
M  V30 39 H 0.520522 3.378616 0.182580 0
M  V30 40 H 1.232603 4.468268 -1.752130 0
M  V30 41 H 2.776002 2.422901 1.712448 0
M  V30 42 H 2.986223 0.721546 1.524023 0
M  V30 43 H 0.622922 1.163850 4.733507 0
M  V30 44 H -0.121459 -0.543873 4.732100 0
M  V30 45 H -1.097710 0.826619 5.345769 0
M  V30 46 H -2.058671 -1.011323 3.657319 0
M  V30 47 H -2.034662 -0.499439 1.937841 0
M  V30 48 H -3.016293 0.378208 3.106585 0
M  V30 49 H -0.883138 2.774425 2.352991 0
M  V30 50 H -1.225001 2.715046 4.160915 0
M  V30 51 H -2.488807 2.252125 2.984575 0
M  V30 52 H 1.755815 -3.703590 0.684813 0
M  V30 53 H -0.358620 -4.884731 0.730099 0
M  V30 END ATOM
M  V30 BEGIN BOND
M  V30 1 1 1 2
M  V30 2 1 2 3
M  V30 3 1 2 4
M  V30 4 2 4 5
M  V30 5 1 5 6
M  V30 6 2 6 7
M  V30 7 1 7 8
M  V30 8 2 8 9
M  V30 9 1 9 10
M  V30 10 1 10 11
M  V30 11 1 11 12
M  V30 12 1 12 13
M  V30 13 1 11 14
M  V30 14 1 14 15
M  V30 15 1 15 16
M  V30 16 2 16 17
M  V30 17 1 16 18
M  V30 18 1 18 19
M  V30 19 1 18 20
M  V30 20 1 18 21
M  V30 21 1 11 22
M  V30 22 1 22 23
M  V30 23 2 23 24
M  V30 24 1 7 25
M  V30 25 2 25 26
M  V30 26 1 26 4
M  V30 27 1 23 9
M  V30 28 1 1 27
M  V30 29 1 1 28
M  V30 30 1 1 29
M  V30 31 1 3 30
M  V30 32 1 3 31
M  V30 33 1 3 32
M  V30 34 1 5 33
M  V30 35 1 6 34
M  V30 36 1 8 35
M  V30 37 1 10 36
M  V30 38 1 10 37
M  V30 39 1 12 38
M  V30 40 1 12 39
M  V30 41 1 13 40
M  V30 42 1 14 41
M  V30 43 1 14 42
M  V30 44 1 19 43
M  V30 45 1 19 44
M  V30 46 1 19 45
M  V30 47 1 20 46
M  V30 48 1 20 47
M  V30 49 1 20 48
M  V30 50 1 21 49
M  V30 51 1 21 50
M  V30 52 1 21 51
M  V30 53 1 25 52
M  V30 54 1 26 53
M  V30 END BOND
M  V30 END CTAB
M  END
>  <Dataset>  (991) 
ChEMBL_Kinases

>  <Ligand_Instance>  (991) 
nan

>  <PDB_ID>  (991) 
nan

>  <Standardized_SMILES>  (991) 
CN(C)c1ccc(/C=C2\CC(CO)(COC(=O)C(C)(C)C)OC2=O)cc1

>  <Name>  (991) 
nan

>  <Pocket>  (991) 
nan

>  <ATP_Site>  (991) 
nan

>  <Peripheral>  (991) 
nan

>  <Num_H_Atoms_ProtBoundConf>  (991) 
nan

>  <Num_Resolved_Atoms>  (991) 
nan

>  <Num_Not_Resolved_Atoms>  (991) 
nan

$$$$
CHEMBL3758475
     RDKit          3D

  0  0  0  0  0  0  0  0  0  0999 V3000
M  V30 BEGIN CTAB
M  V30 COUNTS 45 48 0 0 0
M  V30 BEGIN ATOM
M  V30 1 C -1.707402 -0.814365 -8.397609 0
M  V30 2 O -0.471255 -0.504921 -7.784280 0
M  V30 3 C -0.282039 -0.566595 -6.415633 0
M  V30 4 C 0.962300 -0.246477 -5.899197 0
M  V30 5 C 1.258123 -0.275556 -4.546723 0
M  V30 6 C 0.268136 -0.639955 -3.674910 0
M  V30 7 C 0.426283 -0.718123 -2.219672 0
M  V30 8 O -0.479985 -1.054010 -1.395683 0
M  V30 9 N 1.651351 -0.411856 -1.605951 0
M  V30 10 C 1.444566 -0.598826 -0.128220 0
M  V30 11 N 1.601784 -1.581717 0.533889 0
M  V30 12 C 1.402146 -1.668188 1.812209 0
M  V30 13 C 0.980523 -0.592856 2.523586 0
M  V30 14 C 0.572365 -0.111667 3.832725 0
M  V30 15 C -0.158489 1.069010 3.870049 0
M  V30 16 C -0.581837 1.605546 5.064433 0
M  V30 17 C -0.268202 0.952174 6.228645 0
M  V30 18 C -0.758516 1.587358 7.437115 0
M  V30 19 O -1.420873 2.651001 7.500379 0
M  V30 20 O -0.754123 1.402207 8.794110 0
M  V30 21 C 0.451754 -0.217348 6.276708 0
M  V30 22 C 0.775555 -0.842044 7.456996 0
M  V30 23 C 1.523957 -1.999237 7.471047 0
M  V30 24 C 1.921193 -2.479018 6.216083 0
M  V30 25 C 1.572616 -1.820131 5.061537 0
M  V30 26 C 0.828766 -0.672947 5.036665 0
M  V30 27 S 0.905542 0.563370 1.107217 0
M  V30 28 C -1.002233 -0.972442 -4.135830 0
M  V30 29 C -1.230570 -0.923318 -5.491670 0
M  V30 30 H -2.451601 -0.001704 -8.348916 0
M  V30 31 H -1.594859 -1.110840 -9.446551 0
M  V30 32 H -2.146077 -1.686685 -7.833740 0
M  V30 33 H 1.771377 0.048730 -6.581310 0
M  V30 34 H 2.230841 -0.025066 -4.145925 0
M  V30 35 H 2.487853 -0.122558 -2.124032 0
M  V30 36 H 1.548053 -2.611852 2.274770 0
M  V30 37 H -0.445815 1.640346 2.988722 0
M  V30 38 H -1.144410 2.516204 5.056405 0
M  V30 39 H -1.534810 0.963905 9.304864 0
M  V30 40 H 0.454277 -0.446062 8.405974 0
M  V30 41 H 1.755925 -2.458330 8.418262 0
M  V30 42 H 2.513802 -3.402636 6.314186 0
M  V30 43 H 1.996637 -2.345057 4.250120 0
M  V30 44 H -1.823965 -1.268944 -3.481932 0
M  V30 45 H -2.219830 -1.181525 -5.858768 0
M  V30 END ATOM
M  V30 BEGIN BOND
M  V30 1 1 1 2
M  V30 2 1 2 3
M  V30 3 2 3 4
M  V30 4 1 4 5
M  V30 5 2 5 6
M  V30 6 1 6 7
M  V30 7 2 7 8
M  V30 8 1 7 9
M  V30 9 1 9 10
M  V30 10 2 10 11
M  V30 11 1 11 12
M  V30 12 2 12 13
M  V30 13 1 13 14
M  V30 14 2 14 15
M  V30 15 1 15 16
M  V30 16 2 16 17
M  V30 17 1 17 18
M  V30 18 2 18 19
M  V30 19 1 18 20
M  V30 20 1 17 21
M  V30 21 2 21 22
M  V30 22 1 22 23
M  V30 23 2 23 24
M  V30 24 1 24 25
M  V30 25 2 25 26
M  V30 26 1 13 27
M  V30 27 1 6 28
M  V30 28 2 28 29
M  V30 29 1 29 3
M  V30 30 1 27 10
M  V30 31 1 26 14
M  V30 32 1 26 21
M  V30 33 1 1 30
M  V30 34 1 1 31
M  V30 35 1 1 32
M  V30 36 1 4 33
M  V30 37 1 5 34
M  V30 38 1 9 35
M  V30 39 1 12 36
M  V30 40 1 15 37
M  V30 41 1 16 38
M  V30 42 1 20 39
M  V30 43 1 22 40
M  V30 44 1 23 41
M  V30 45 1 24 42
M  V30 46 1 25 43
M  V30 47 1 28 44
M  V30 48 1 29 45
M  V30 END BOND
M  V30 END CTAB
M  END
>  <Dataset>  (992) 
ChEMBL_Kinases

>  <Ligand_Instance>  (992) 
nan

>  <PDB_ID>  (992) 
nan

>  <Standardized_SMILES>  (992) 
COc1ccc(C(=O)Nc2ncc(-c3ccc(C(=O)O)c4ccccc34)s2)cc1

>  <Name>  (992) 
nan

>  <Pocket>  (992) 
nan

>  <ATP_Site>  (992) 
nan

>  <Peripheral>  (992) 
nan

>  <Num_H_Atoms_ProtBoundConf>  (992) 
nan

>  <Num_Resolved_Atoms>  (992) 
nan

>  <Num_Not_Resolved_Atoms>  (992) 
nan

$$$$
CHEMBL3338843
     RDKit          3D

  0  0  0  0  0  0  0  0  0  0999 V3000
M  V30 BEGIN CTAB
M  V30 COUNTS 42 45 0 0 0
M  V30 BEGIN ATOM
M  V30 1 N -1.891927 -5.978076 -0.236820 0
M  V30 2 C -1.372978 -4.695099 -0.686282 0
M  V30 3 C -2.525759 -3.748861 -0.916014 0
M  V30 4 C -2.038469 -2.374398 -1.381640 0
M  V30 5 N -1.229407 -1.671564 -0.501186 0
M  V30 6 C -0.396562 -0.948036 0.405075 0
M  V30 7 N 0.377459 0.117104 0.161233 0
M  V30 8 C 1.183873 0.751984 0.998700 0
M  V30 9 C 1.963667 1.903656 0.563426 0
M  V30 10 C 1.862139 2.328258 -0.744369 0
M  V30 11 C 2.624916 3.434564 -1.130703 0
M  V30 12 C 3.426881 4.023903 -0.173559 0
M  V30 13 N 4.254542 5.082277 -0.255241 0
M  V30 14 N 4.836128 5.310442 0.912704 0
M  V30 15 C 4.396112 4.386508 1.814943 0
M  V30 16 C 3.508099 3.576282 1.129247 0
M  V30 17 C 2.753021 2.469687 1.539016 0
M  V30 18 N 1.191289 0.230367 2.220254 0
M  V30 19 C 0.487939 -0.824454 2.645046 0
M  V30 20 C 0.654220 -1.171389 3.967999 0
M  V30 21 C -0.096851 -2.259823 4.398411 0
M  V30 22 C -0.941025 -2.924061 3.535079 0
M  V30 23 C -1.012186 -2.472658 2.237744 0
M  V30 24 C -0.319108 -1.412601 1.699916 0
M  V30 25 H -1.492545 -6.291664 0.654074 0
M  V30 26 H -2.933441 -5.981208 -0.206405 0
M  V30 27 H -0.854368 -4.884120 -1.656060 0
M  V30 28 H -0.608320 -4.347804 0.005289 0
M  V30 29 H -3.077510 -4.156545 -1.791426 0
M  V30 30 H -3.237167 -3.704932 -0.093017 0
M  V30 31 H -1.498534 -2.619310 -2.351475 0
M  V30 32 H -2.958444 -1.777389 -1.665534 0
M  V30 33 H -1.064510 -0.978187 -1.302432 0
M  V30 34 H 1.227830 1.848572 -1.467984 0
M  V30 35 H 2.589533 3.810988 -2.131316 0
M  V30 36 H 4.489741 5.717178 -1.075187 0
M  V30 37 H 4.681247 4.301204 2.856917 0
M  V30 38 H 2.780274 2.083578 2.537961 0
M  V30 39 H 1.326677 -0.622383 4.608749 0
M  V30 40 H 0.017447 -2.551896 5.433311 0
M  V30 41 H -1.524985 -3.769304 3.868694 0
M  V30 42 H -1.694045 -3.003336 1.604575 0
M  V30 END ATOM
M  V30 BEGIN BOND
M  V30 1 1 1 2
M  V30 2 1 2 3
M  V30 3 1 3 4
M  V30 4 1 4 5
M  V30 5 1 5 6
M  V30 6 2 6 7
M  V30 7 1 7 8
M  V30 8 1 8 9
M  V30 9 2 9 10
M  V30 10 1 10 11
M  V30 11 2 11 12
M  V30 12 1 12 13
M  V30 13 1 13 14
M  V30 14 2 14 15
M  V30 15 1 15 16
M  V30 16 2 16 17
M  V30 17 2 8 18
M  V30 18 1 18 19
M  V30 19 2 19 20
M  V30 20 1 20 21
M  V30 21 2 21 22
M  V30 22 1 22 23
M  V30 23 2 23 24
M  V30 24 1 24 6
M  V30 25 1 17 9
M  V30 26 1 24 19
M  V30 27 1 16 12
M  V30 28 1 1 25
M  V30 29 1 1 26
M  V30 30 1 2 27
M  V30 31 1 2 28
M  V30 32 1 3 29
M  V30 33 1 3 30
M  V30 34 1 4 31
M  V30 35 1 4 32
M  V30 36 1 5 33
M  V30 37 1 10 34
M  V30 38 1 11 35
M  V30 39 1 13 36
M  V30 40 1 15 37
M  V30 41 1 17 38
M  V30 42 1 20 39
M  V30 43 1 21 40
M  V30 44 1 22 41
M  V30 45 1 23 42
M  V30 END BOND
M  V30 END CTAB
M  END
>  <Dataset>  (993) 
ChEMBL_Kinases

>  <Ligand_Instance>  (993) 
nan

>  <PDB_ID>  (993) 
nan

>  <Standardized_SMILES>  (993) 
NCCCNc1nc(-c2ccc3[nH]ncc3c2)nc2ccccc12

>  <Name>  (993) 
nan

>  <Pocket>  (993) 
nan

>  <ATP_Site>  (993) 
nan

>  <Peripheral>  (993) 
nan

>  <Num_H_Atoms_ProtBoundConf>  (993) 
nan

>  <Num_Resolved_Atoms>  (993) 
nan

>  <Num_Not_Resolved_Atoms>  (993) 
nan

$$$$
CHEMBL4164331
     RDKit          3D

  0  0  0  0  0  0  0  0  0  0999 V3000
M  V30 BEGIN CTAB
M  V30 COUNTS 53 57 0 0 0
M  V30 BEGIN ATOM
M  V30 1 C 1.061843 -3.222762 4.195280 0
M  V30 2 C 1.619409 -3.646791 2.893602 0
M  V30 3 N 2.501366 -3.047092 2.129676 0
M  V30 4 C 2.997335 -3.435918 0.960134 0
M  V30 5 N 3.954529 -2.640613 0.278225 0
M  V30 6 C 4.456567 -1.387758 0.688517 0
M  V30 7 C 5.815965 -1.190442 0.962292 0
M  V30 8 N 5.914238 0.108541 1.312600 0
M  V30 9 N 4.705051 0.692509 1.264220 0
M  V30 10 C 3.795873 -0.194946 0.886354 0
M  V30 11 C 2.382550 0.077466 0.709026 0
M  V30 12 O 1.490406 -0.715570 0.326325 0
M  V30 13 N 1.837632 1.354574 0.969395 0
M  V30 14 C 0.415908 1.378212 0.720391 0
M  V30 15 C -0.531243 1.087480 1.669260 0
M  V30 16 C -1.877111 1.126997 1.369128 0
M  V30 17 C -2.328815 1.458653 0.108686 0
M  V30 18 N -3.704621 1.502113 -0.212903 0
M  V30 19 C -4.266766 1.857257 -1.502445 0
M  V30 20 C -5.452538 2.785035 -1.205642 0
M  V30 21 N -6.488961 1.972513 -0.599311 0
M  V30 22 C -5.971343 0.806792 0.051842 0
M  V30 23 C -4.686929 1.170298 0.800185 0
M  V30 24 C -1.349680 1.744842 -0.819911 0
M  V30 25 C 0.016579 1.716560 -0.558188 0
M  V30 26 C 2.564037 -4.622343 0.426494 0
M  V30 27 C 2.931007 -5.211872 -0.746927 0
M  V30 28 C 2.347839 -6.450981 -1.100846 0
M  V30 29 S 1.229062 -6.824855 0.262773 0
M  V30 30 C 1.599460 -5.286447 1.253660 0
M  V30 31 N 1.167011 -4.813043 2.410442 0
M  V30 32 H 1.627053 -3.800942 4.976172 0
M  V30 33 H -0.002437 -3.586398 4.291322 0
M  V30 34 H 1.112515 -2.139257 4.343817 0
M  V30 35 H 4.352867 -2.981900 -0.623297 0
M  V30 36 H 6.661213 -1.887561 0.921648 0
M  V30 37 H 6.786205 0.641831 1.592922 0
M  V30 38 H 2.435314 2.168349 1.305121 0
M  V30 39 H -0.199669 0.823549 2.668973 0
M  V30 40 H -2.548515 0.887886 2.163389 0
M  V30 41 H -4.692326 0.959585 -2.038277 0
M  V30 42 H -3.567099 2.328196 -2.192800 0
M  V30 43 H -5.792284 3.336007 -2.088555 0
M  V30 44 H -5.093715 3.490916 -0.429288 0
M  V30 45 H -7.271966 1.784740 -1.231971 0
M  V30 46 H -6.721208 0.495899 0.807050 0
M  V30 47 H -5.784497 -0.025384 -0.626945 0
M  V30 48 H -4.849380 1.969373 1.521847 0
M  V30 49 H -4.336305 0.287860 1.401665 0
M  V30 50 H -1.590969 2.014965 -1.832011 0
M  V30 51 H 0.751700 1.948561 -1.317341 0
M  V30 52 H 3.640310 -4.822472 -1.456157 0
M  V30 53 H 2.523599 -7.056193 -1.992015 0
M  V30 END ATOM
M  V30 BEGIN BOND
M  V30 1 1 1 2
M  V30 2 2 2 3
M  V30 3 1 3 4
M  V30 4 1 4 5
M  V30 5 1 5 6
M  V30 6 2 6 7
M  V30 7 1 7 8
M  V30 8 1 8 9
M  V30 9 2 9 10
M  V30 10 1 10 11
M  V30 11 2 11 12
M  V30 12 1 11 13
M  V30 13 1 13 14
M  V30 14 2 14 15
M  V30 15 1 15 16
M  V30 16 2 16 17
M  V30 17 1 17 18
M  V30 18 1 18 19
M  V30 19 1 19 20
M  V30 20 1 20 21
M  V30 21 1 21 22
M  V30 22 1 22 23
M  V30 23 1 17 24
M  V30 24 2 24 25
M  V30 25 2 4 26
M  V30 26 1 26 27
M  V30 27 2 27 28
M  V30 28 1 28 29
M  V30 29 1 29 30
M  V30 30 2 30 31
M  V30 31 1 31 2
M  V30 32 1 10 6
M  V30 33 1 25 14
M  V30 34 1 30 26
M  V30 35 1 23 18
M  V30 36 1 1 32
M  V30 37 1 1 33
M  V30 38 1 1 34
M  V30 39 1 5 35
M  V30 40 1 7 36
M  V30 41 1 8 37
M  V30 42 1 13 38
M  V30 43 1 15 39
M  V30 44 1 16 40
M  V30 45 1 19 41
M  V30 46 1 19 42
M  V30 47 1 20 43
M  V30 48 1 20 44
M  V30 49 1 21 45
M  V30 50 1 22 46
M  V30 51 1 22 47
M  V30 52 1 23 48
M  V30 53 1 23 49
M  V30 54 1 24 50
M  V30 55 1 25 51
M  V30 56 1 27 52
M  V30 57 1 28 53
M  V30 END BOND
M  V30 END CTAB
M  END
>  <Dataset>  (994) 
ChEMBL_Kinases

>  <Ligand_Instance>  (994) 
nan

>  <PDB_ID>  (994) 
nan

>  <Standardized_SMILES>  (994) 
Cc1nc(Nc2c[nH]nc2C(=O)Nc2ccc(N3CCNCC3)cc2)c2ccsc2n1

>  <Name>  (994) 
nan

>  <Pocket>  (994) 
nan

>  <ATP_Site>  (994) 
nan

>  <Peripheral>  (994) 
nan

>  <Num_H_Atoms_ProtBoundConf>  (994) 
nan

>  <Num_Resolved_Atoms>  (994) 
nan

>  <Num_Not_Resolved_Atoms>  (994) 
nan

$$$$
CHEMBL4164283
     RDKit          3D

  0  0  0  0  0  0  0  0  0  0999 V3000
M  V30 BEGIN CTAB
M  V30 COUNTS 44 46 0 0 0
M  V30 BEGIN ATOM
M  V30 1 C 1.965432 -6.968716 0.342110 0
M  V30 2 N 1.504534 -5.647163 0.639216 0
M  V30 3 C 1.864870 -4.632674 -0.273161 0
M  V30 4 N 2.421598 -4.376977 -1.243204 0
M  V30 5 C 2.581830 -3.242750 -1.879562 0
M  V30 6 C 3.349062 -3.100954 -3.144972 0
M  V30 7 C 1.969800 -2.147023 -1.276892 0
M  V30 8 C 1.877268 -0.709295 -1.615182 0
M  V30 9 C 2.379040 -0.005643 -2.646466 0
M  V30 10 C 2.203197 1.343184 -2.823805 0
M  V30 11 N 1.481000 1.990040 -1.900075 0
M  V30 12 C 0.953438 1.344984 -0.847787 0
M  V30 13 N 0.201739 2.101348 0.085139 0
M  V30 14 C -0.468006 1.712491 1.276890 0
M  V30 15 C -0.480088 0.413780 1.737871 0
M  V30 16 C -1.109379 -0.025286 2.882954 0
M  V30 17 C -1.790137 0.884321 3.650557 0
M  V30 18 O -2.442983 0.530672 4.803899 0
M  V30 19 C -3.161949 1.362890 5.658556 0
M  V30 20 C -1.804889 2.190933 3.229304 0
M  V30 21 C -1.173782 2.612093 2.087425 0
M  V30 22 O -1.214000 3.953883 1.694229 0
M  V30 23 C -1.878881 4.959903 2.403546 0
M  V30 24 N 1.171661 0.044719 -0.753801 0
M  V30 25 S 1.234170 -2.898767 0.144251 0
M  V30 26 H 1.066027 -7.595589 0.068271 0
M  V30 27 H 2.748170 -6.995438 -0.426344 0
M  V30 28 H 2.358283 -7.434119 1.291312 0
M  V30 29 H 0.947926 -5.540121 1.492587 0
M  V30 30 H 2.701744 -2.781574 -4.001098 0
M  V30 31 H 3.779536 -4.069317 -3.496212 0
M  V30 32 H 4.240356 -2.457574 -2.994469 0
M  V30 33 H 2.939609 -0.560101 -3.345899 0
M  V30 34 H 2.639789 1.817870 -3.674504 0
M  V30 35 H 0.094517 3.129595 -0.093833 0
M  V30 36 H 0.020455 -0.388022 1.218487 0
M  V30 37 H -1.106789 -1.049503 3.227363 0
M  V30 38 H -4.025817 0.825085 6.147232 0
M  V30 39 H -3.627664 2.246270 5.175759 0
M  V30 40 H -2.521830 1.708279 6.501188 0
M  V30 41 H -2.322685 2.965276 3.785166 0
M  V30 42 H -2.974387 4.972897 2.239700 0
M  V30 43 H -1.697350 4.902320 3.497874 0
M  V30 44 H -1.496546 5.942953 2.033968 0
M  V30 END ATOM
M  V30 BEGIN BOND
M  V30 1 1 1 2
M  V30 2 1 2 3
M  V30 3 2 3 4
M  V30 4 1 4 5
M  V30 5 1 5 6
M  V30 6 2 5 7
M  V30 7 1 7 8
M  V30 8 2 8 9
M  V30 9 1 9 10
M  V30 10 2 10 11
M  V30 11 1 11 12
M  V30 12 1 12 13
M  V30 13 1 13 14
M  V30 14 2 14 15
M  V30 15 1 15 16
M  V30 16 2 16 17
M  V30 17 1 17 18
M  V30 18 1 18 19
M  V30 19 1 17 20
M  V30 20 2 20 21
M  V30 21 1 21 22
M  V30 22 1 22 23
M  V30 23 2 12 24
M  V30 24 1 7 25
M  V30 25 1 25 3
M  V30 26 1 24 8
M  V30 27 1 21 14
M  V30 28 1 1 26
M  V30 29 1 1 27
M  V30 30 1 1 28
M  V30 31 1 2 29
M  V30 32 1 6 30
M  V30 33 1 6 31
M  V30 34 1 6 32
M  V30 35 1 9 33
M  V30 36 1 10 34
M  V30 37 1 13 35
M  V30 38 1 15 36
M  V30 39 1 16 37
M  V30 40 1 19 38
M  V30 41 1 19 39
M  V30 42 1 19 40
M  V30 43 1 20 41
M  V30 44 1 23 42
M  V30 45 1 23 43
M  V30 46 1 23 44
M  V30 END BOND
M  V30 END CTAB
M  END
>  <Dataset>  (995) 
ChEMBL_Kinases

>  <Ligand_Instance>  (995) 
nan

>  <PDB_ID>  (995) 
nan

>  <Standardized_SMILES>  (995) 
CNc1nc(C)c(-c2ccnc(Nc3ccc(OC)cc3OC)n2)s1

>  <Name>  (995) 
nan

>  <Pocket>  (995) 
nan

>  <ATP_Site>  (995) 
nan

>  <Peripheral>  (995) 
nan

>  <Num_H_Atoms_ProtBoundConf>  (995) 
nan

>  <Num_Resolved_Atoms>  (995) 
nan

>  <Num_Not_Resolved_Atoms>  (995) 
nan

$$$$
CHEMBL3758519
     RDKit          3D

  0  0  0  0  0  0  0  0  0  0999 V3000
M  V30 BEGIN CTAB
M  V30 COUNTS 50 53 0 0 0
M  V30 BEGIN ATOM
M  V30 1 C 8.653053 -4.805851 -0.198419 0
M  V30 2 O 8.139372 -3.620308 -0.722302 0
M  V30 3 C 6.963268 -2.998603 -0.344017 0
M  V30 4 C 6.150506 -3.526732 0.639577 0
M  V30 5 C 4.983228 -2.838531 0.961412 0
M  V30 6 C 4.655043 -1.660010 0.309241 0
M  V30 7 C 3.417130 -0.981426 0.689865 0
M  V30 8 O 2.727904 -1.520997 1.595440 0
M  V30 9 N 2.993241 0.207787 0.096608 0
M  V30 10 C 1.679003 0.634609 0.722552 0
M  V30 11 N 1.581441 1.317567 1.651398 0
M  V30 12 C 0.522356 1.754792 2.282448 0
M  V30 13 C -0.654020 1.351866 1.779545 0
M  V30 14 C -2.133339 1.515958 2.056441 0
M  V30 15 C -2.433310 2.310343 3.142824 0
M  V30 16 C -3.781778 2.455523 3.389816 0
M  V30 17 C -4.735488 1.846775 2.601662 0
M  V30 18 C -6.156090 2.011980 2.878548 0
M  V30 19 O -7.036767 1.462746 2.168451 0
M  V30 20 O -6.616339 2.781057 3.936385 0
M  V30 21 C -4.361712 1.064742 1.529220 0
M  V30 22 C -3.002843 0.883311 1.232767 0
M  V30 23 O -2.614305 0.098447 0.155922 0
M  V30 24 C -3.582734 -0.510158 -0.632552 0
M  V30 25 C -4.068268 0.179708 -1.730326 0
M  V30 26 C -5.025678 -0.375665 -2.542584 0
M  V30 27 C -5.477525 -1.636428 -2.220977 0
M  V30 28 C -5.037967 -2.378118 -1.144399 0
M  V30 29 C -4.077784 -1.759968 -0.372933 0
M  V30 30 S -0.052189 0.295745 0.326635 0
M  V30 31 C 5.499877 -1.171010 -0.667958 0
M  V30 32 C 6.682369 -1.817627 -1.032136 0
M  V30 33 H 9.101840 -4.728221 0.796960 0
M  V30 34 H 9.504367 -5.105855 -0.876980 0
M  V30 35 H 7.909788 -5.625693 -0.224652 0
M  V30 36 H 6.465508 -4.449411 1.108352 0
M  V30 37 H 4.373905 -3.298946 1.747316 0
M  V30 38 H 3.526416 0.671263 -0.638113 0
M  V30 39 H 0.351277 2.389496 3.148579 0
M  V30 40 H -1.632306 2.755564 3.715351 0
M  V30 41 H -4.047274 3.079214 4.243768 0
M  V30 42 H -7.508933 2.570942 4.400976 0
M  V30 43 H -5.099714 0.566925 0.883169 0
M  V30 44 H -3.691086 1.166755 -1.952632 0
M  V30 45 H -5.387817 0.174901 -3.386779 0
M  V30 46 H -6.234996 -2.036017 -2.891765 0
M  V30 47 H -5.436967 -3.374534 -0.942761 0
M  V30 48 H -3.691065 -2.288436 0.486737 0
M  V30 49 H 5.259387 -0.252431 -1.187360 0
M  V30 50 H 7.339537 -1.428477 -1.799057 0
M  V30 END ATOM
M  V30 BEGIN BOND
M  V30 1 1 1 2
M  V30 2 1 2 3
M  V30 3 2 3 4
M  V30 4 1 4 5
M  V30 5 2 5 6
M  V30 6 1 6 7
M  V30 7 2 7 8
M  V30 8 1 7 9
M  V30 9 1 9 10
M  V30 10 2 10 11
M  V30 11 1 11 12
M  V30 12 2 12 13
M  V30 13 1 13 14
M  V30 14 2 14 15
M  V30 15 1 15 16
M  V30 16 2 16 17
M  V30 17 1 17 18
M  V30 18 2 18 19
M  V30 19 1 18 20
M  V30 20 1 17 21
M  V30 21 2 21 22
M  V30 22 1 22 23
M  V30 23 1 23 24
M  V30 24 2 24 25
M  V30 25 1 25 26
M  V30 26 2 26 27
M  V30 27 1 27 28
M  V30 28 2 28 29
M  V30 29 1 13 30
M  V30 30 1 6 31
M  V30 31 2 31 32
M  V30 32 1 32 3
M  V30 33 1 30 10
M  V30 34 1 22 14
M  V30 35 1 29 24
M  V30 36 1 1 33
M  V30 37 1 1 34
M  V30 38 1 1 35
M  V30 39 1 4 36
M  V30 40 1 5 37
M  V30 41 1 9 38
M  V30 42 1 12 39
M  V30 43 1 15 40
M  V30 44 1 16 41
M  V30 45 1 20 42
M  V30 46 1 21 43
M  V30 47 1 25 44
M  V30 48 1 26 45
M  V30 49 1 27 46
M  V30 50 1 28 47
M  V30 51 1 29 48
M  V30 52 1 31 49
M  V30 53 1 32 50
M  V30 END BOND
M  V30 END CTAB
M  END
>  <Dataset>  (996) 
ChEMBL_Kinases

>  <Ligand_Instance>  (996) 
nan

>  <PDB_ID>  (996) 
nan

>  <Standardized_SMILES>  (996) 
COc1ccc(C(=O)Nc2ncc(-c3ccc(C(=O)O)cc3Oc3ccccc3)s2)cc1

>  <Name>  (996) 
nan

>  <Pocket>  (996) 
nan

>  <ATP_Site>  (996) 
nan

>  <Peripheral>  (996) 
nan

>  <Num_H_Atoms_ProtBoundConf>  (996) 
nan

>  <Num_Resolved_Atoms>  (996) 
nan

>  <Num_Not_Resolved_Atoms>  (996) 
nan

$$$$
CHEMBL3758606
     RDKit          3D

  0  0  0  0  0  0  0  0  0  0999 V3000
M  V30 BEGIN CTAB
M  V30 COUNTS 52 55 0 0 0
M  V30 BEGIN ATOM
M  V30 1 C 7.510800 -6.408651 2.755833 0
M  V30 2 O 7.336758 -5.084717 2.321381 0
M  V30 3 C 6.104648 -4.482680 2.448873 0
M  V30 4 C 6.203371 -3.179087 1.946533 0
M  V30 5 C 5.115455 -2.308777 1.935871 0
M  V30 6 C 3.920570 -2.758368 2.435871 0
M  V30 7 C 2.638423 -2.032524 2.541744 0
M  V30 8 O 1.540959 -2.418295 3.014862 0
M  V30 9 N 2.671123 -0.715215 2.031914 0
M  V30 10 C 1.547316 0.276805 1.992643 0
M  V30 11 N 1.122562 1.103282 2.611633 0
M  V30 12 C 0.100788 1.895684 2.436887 0
M  V30 13 C -0.589980 1.712559 1.318469 0
M  V30 14 C -1.819267 2.380901 0.727653 0
M  V30 15 C -2.244448 3.402487 1.548124 0
M  V30 16 C -3.374763 4.076379 1.101258 0
M  V30 17 C -4.012463 3.743213 -0.069597 0
M  V30 18 C -5.187813 4.412945 -0.570384 0
M  V30 19 O -5.677133 5.363671 0.091042 0
M  V30 20 O -5.807158 4.065637 -1.741872 0
M  V30 21 C -3.497634 2.706192 -0.806138 0
M  V30 22 C -2.389055 1.963748 -0.471853 0
M  V30 23 O -1.699935 0.941840 -0.986921 0
M  V30 24 C -1.744854 0.126187 -2.070731 0
M  V30 25 C -2.985978 -0.679886 -2.109663 0
M  V30 26 C -4.224162 -0.382402 -2.636481 0
M  V30 27 C -5.256318 -1.287088 -2.589692 0
M  V30 28 C -5.129881 -2.526385 -2.027168 0
M  V30 29 C -3.885223 -2.800445 -1.509319 0
M  V30 30 N -2.904557 -1.916034 -1.563352 0
M  V30 31 S 0.305270 0.345794 0.535770 0
M  V30 32 C 3.779321 -4.050756 2.945698 0
M  V30 33 C 4.888666 -4.889559 2.938726 0
M  V30 34 H 6.573911 -6.944133 2.938064 0
M  V30 35 H 8.133199 -7.003613 2.020277 0
M  V30 36 H 8.119230 -6.442052 3.696507 0
M  V30 37 H 7.079078 -2.672805 1.513190 0
M  V30 38 H 5.104068 -1.309565 1.574815 0
M  V30 39 H 3.432428 -0.175936 1.600985 0
M  V30 40 H -0.174240 2.659471 3.155821 0
M  V30 41 H -1.794349 3.716576 2.476589 0
M  V30 42 H -3.811695 4.895695 1.648064 0
M  V30 43 H -6.831639 4.138767 -1.832437 0
M  V30 44 H -3.936793 2.392473 -1.736777 0
M  V30 45 H -1.605568 0.683172 -3.045305 0
M  V30 46 H -0.866526 -0.583496 -2.070939 0
M  V30 47 H -4.316786 0.584630 -3.091404 0
M  V30 48 H -6.215553 -0.995282 -3.023034 0
M  V30 49 H -5.931568 -3.264703 -1.973516 0
M  V30 50 H -3.748611 -3.775315 -1.053453 0
M  V30 51 H 2.886840 -4.499209 3.358940 0
M  V30 52 H 4.913509 -5.897674 3.299689 0
M  V30 END ATOM
M  V30 BEGIN BOND
M  V30 1 1 1 2
M  V30 2 1 2 3
M  V30 3 2 3 4
M  V30 4 1 4 5
M  V30 5 2 5 6
M  V30 6 1 6 7
M  V30 7 2 7 8
M  V30 8 1 7 9
M  V30 9 1 9 10
M  V30 10 2 10 11
M  V30 11 1 11 12
M  V30 12 2 12 13
M  V30 13 1 13 14
M  V30 14 2 14 15
M  V30 15 1 15 16
M  V30 16 2 16 17
M  V30 17 1 17 18
M  V30 18 2 18 19
M  V30 19 1 18 20
M  V30 20 1 17 21
M  V30 21 2 21 22
M  V30 22 1 22 23
M  V30 23 1 23 24
M  V30 24 1 24 25
M  V30 25 2 25 26
M  V30 26 1 26 27
M  V30 27 2 27 28
M  V30 28 1 28 29
M  V30 29 2 29 30
M  V30 30 1 13 31
M  V30 31 1 6 32
M  V30 32 2 32 33
M  V30 33 1 33 3
M  V30 34 1 31 10
M  V30 35 1 22 14
M  V30 36 1 30 25
M  V30 37 1 1 34
M  V30 38 1 1 35
M  V30 39 1 1 36
M  V30 40 1 4 37
M  V30 41 1 5 38
M  V30 42 1 9 39
M  V30 43 1 12 40
M  V30 44 1 15 41
M  V30 45 1 16 42
M  V30 46 1 20 43
M  V30 47 1 21 44
M  V30 48 1 24 45
M  V30 49 1 24 46
M  V30 50 1 26 47
M  V30 51 1 27 48
M  V30 52 1 28 49
M  V30 53 1 29 50
M  V30 54 1 32 51
M  V30 55 1 33 52
M  V30 END BOND
M  V30 END CTAB
M  END
>  <Dataset>  (997) 
ChEMBL_Kinases

>  <Ligand_Instance>  (997) 
nan

>  <PDB_ID>  (997) 
nan

>  <Standardized_SMILES>  (997) 
COc1ccc(C(=O)Nc2ncc(-c3ccc(C(=O)O)cc3OCc3ccccn3)s2)cc1

>  <Name>  (997) 
nan

>  <Pocket>  (997) 
nan

>  <ATP_Site>  (997) 
nan

>  <Peripheral>  (997) 
nan

>  <Num_H_Atoms_ProtBoundConf>  (997) 
nan

>  <Num_Resolved_Atoms>  (997) 
nan

>  <Num_Not_Resolved_Atoms>  (997) 
nan

$$$$
CHEMBL3758777
     RDKit          3D

  0  0  0  0  0  0  0  0  0  0999 V3000
M  V30 BEGIN CTAB
M  V30 COUNTS 53 56 0 0 0
M  V30 BEGIN ATOM
M  V30 1 C 8.286036 -4.322909 1.546980 0
M  V30 2 O 7.321608 -3.841792 2.447941 0
M  V30 3 C 6.377916 -2.916202 2.029985 0
M  V30 4 C 5.490468 -2.538321 3.040579 0
M  V30 5 C 4.468958 -1.619394 2.822436 0
M  V30 6 C 4.370498 -1.089344 1.541442 0
M  V30 7 C 3.295248 -0.129039 1.313176 0
M  V30 8 O 2.527553 0.156406 2.270454 0
M  V30 9 N 3.047774 0.508256 0.093927 0
M  V30 10 C 1.896151 1.414206 0.180812 0
M  V30 11 N 1.455301 2.493622 0.404366 0
M  V30 12 C 0.203677 2.863636 0.335612 0
M  V30 13 C -0.695255 1.942625 -0.023506 0
M  V30 14 C -2.183651 1.951712 -0.218004 0
M  V30 15 C -2.714332 3.200067 0.028642 0
M  V30 16 C -4.078054 3.332674 -0.122775 0
M  V30 17 C -4.839772 2.248734 -0.503356 0
M  V30 18 C -6.299002 2.287888 -0.691002 0
M  V30 19 O -7.039397 1.342276 -1.034804 0
M  V30 20 O -6.885389 3.539436 -0.448571 0
M  V30 21 C -4.233207 1.035082 -0.731171 0
M  V30 22 C -2.879068 0.822217 -0.600947 0
M  V30 23 O -2.070370 -0.254579 -0.765605 0
M  V30 24 C -2.431714 -1.543778 -1.137511 0
M  V30 25 C -3.348620 -2.240380 -0.232773 0
M  V30 26 C -4.705706 -2.545661 -0.361443 0
M  V30 27 C -5.449085 -3.229138 0.571304 0
M  V30 28 C -4.837618 -3.660578 1.735122 0
M  V30 29 C -3.490528 -3.380749 1.907607 0
M  V30 30 C -2.776717 -2.691742 0.948408 0
M  V30 31 Br -0.937060 -2.465984 1.478357 0
M  V30 32 S 0.401039 0.496535 -0.255956 0
M  V30 33 C 5.234869 -1.444363 0.520867 0
M  V30 34 C 6.236733 -2.359607 0.774853 0
M  V30 35 H 8.979975 -5.029679 2.052039 0
M  V30 36 H 7.815837 -4.906347 0.705008 0
M  V30 37 H 8.881961 -3.480078 1.164616 0
M  V30 38 H 5.535299 -2.934284 4.067069 0
M  V30 39 H 3.793118 -1.344740 3.628707 0
M  V30 40 H 3.636281 0.320218 -0.719586 0
M  V30 41 H -0.096262 3.879396 0.561424 0
M  V30 42 H -2.157409 4.065529 0.325261 0
M  V30 43 H -4.567023 4.266160 0.050144 0
M  V30 44 H -7.843885 3.613827 -0.114254 0
M  V30 45 H -4.786682 0.186411 -1.031690 0
M  V30 46 H -2.780688 -1.598736 -2.198942 0
M  V30 47 H -1.486456 -2.173604 -1.158919 0
M  V30 48 H -5.112498 -2.174808 -1.299850 0
M  V30 49 H -6.489700 -3.380444 0.312096 0
M  V30 50 H -5.447287 -4.191675 2.443754 0
M  V30 51 H -3.123478 -3.765380 2.849360 0
M  V30 52 H 5.151550 -1.026785 -0.473880 0
M  V30 53 H 6.964128 -2.700774 0.039804 0
M  V30 END ATOM
M  V30 BEGIN BOND
M  V30 1 1 1 2
M  V30 2 1 2 3
M  V30 3 2 3 4
M  V30 4 1 4 5
M  V30 5 2 5 6
M  V30 6 1 6 7
M  V30 7 2 7 8
M  V30 8 1 7 9
M  V30 9 1 9 10
M  V30 10 2 10 11
M  V30 11 1 11 12
M  V30 12 2 12 13
M  V30 13 1 13 14
M  V30 14 2 14 15
M  V30 15 1 15 16
M  V30 16 2 16 17
M  V30 17 1 17 18
M  V30 18 2 18 19
M  V30 19 1 18 20
M  V30 20 1 17 21
M  V30 21 2 21 22
M  V30 22 1 22 23
M  V30 23 1 23 24
M  V30 24 1 24 25
M  V30 25 2 25 26
M  V30 26 1 26 27
M  V30 27 2 27 28
M  V30 28 1 28 29
M  V30 29 2 29 30
M  V30 30 1 30 31
M  V30 31 1 13 32
M  V30 32 1 6 33
M  V30 33 2 33 34
M  V30 34 1 34 3
M  V30 35 1 32 10
M  V30 36 1 22 14
M  V30 37 1 30 25
M  V30 38 1 1 35
M  V30 39 1 1 36
M  V30 40 1 1 37
M  V30 41 1 4 38
M  V30 42 1 5 39
M  V30 43 1 9 40
M  V30 44 1 12 41
M  V30 45 1 15 42
M  V30 46 1 16 43
M  V30 47 1 20 44
M  V30 48 1 21 45
M  V30 49 1 24 46
M  V30 50 1 24 47
M  V30 51 1 26 48
M  V30 52 1 27 49
M  V30 53 1 28 50
M  V30 54 1 29 51
M  V30 55 1 33 52
M  V30 56 1 34 53
M  V30 END BOND
M  V30 END CTAB
M  END
>  <Dataset>  (998) 
ChEMBL_Kinases

>  <Ligand_Instance>  (998) 
nan

>  <PDB_ID>  (998) 
nan

>  <Standardized_SMILES>  (998) 
COc1ccc(C(=O)Nc2ncc(-c3ccc(C(=O)O)cc3OCc3ccccc3Br)s2)cc1

>  <Name>  (998) 
nan

>  <Pocket>  (998) 
nan

>  <ATP_Site>  (998) 
nan

>  <Peripheral>  (998) 
nan

>  <Num_H_Atoms_ProtBoundConf>  (998) 
nan

>  <Num_Resolved_Atoms>  (998) 
nan

>  <Num_Not_Resolved_Atoms>  (998) 
nan

$$$$
CHEMBL3758895
     RDKit          3D

  0  0  0  0  0  0  0  0  0  0999 V3000
M  V30 BEGIN CTAB
M  V30 COUNTS 57 60 0 0 0
M  V30 BEGIN ATOM
M  V30 1 C 7.975513 -2.946331 4.380035 0
M  V30 2 O 7.502752 -2.800475 3.079399 0
M  V30 3 C 6.360224 -2.120373 2.688728 0
M  V30 4 C 5.476233 -1.459532 3.515017 0
M  V30 5 C 4.369007 -0.823563 2.944235 0
M  V30 6 C 4.220355 -0.892617 1.574515 0
M  V30 7 C 3.020179 -0.193674 1.066384 0
M  V30 8 O 2.246033 0.384510 1.848694 0
M  V30 9 N 2.698052 -0.147494 -0.306308 0
M  V30 10 C 1.435361 0.639877 -0.405859 0
M  V30 11 N 1.239665 1.743363 -0.547702 0
M  V30 12 C 0.107978 2.409703 -0.631024 0
M  V30 13 C -1.021132 1.642509 -0.529457 0
M  V30 14 C -2.447957 2.068193 -0.579843 0
M  V30 15 C -2.675651 3.396909 -0.759295 0
M  V30 16 C -4.002921 3.771116 -0.802578 0
M  V30 17 C -5.027253 2.871134 -0.674300 0
M  V30 18 C -6.393081 3.362600 -0.733587 0
M  V30 19 O -6.575580 4.596050 -0.900062 0
M  V30 20 O -7.516469 2.567076 -0.619520 0
M  V30 21 C -4.709619 1.547640 -0.495993 0
M  V30 22 C -3.407180 1.103929 -0.443070 0
M  V30 23 O -3.033980 -0.201340 -0.267395 0
M  V30 24 C -3.874971 -1.306645 -0.111443 0
M  V30 25 C -3.099594 -2.576243 0.057213 0
M  V30 26 C -2.921157 -3.230875 1.281887 0
M  V30 27 C -2.183832 -4.399703 1.322226 0
M  V30 28 C -1.612299 -4.951537 0.195960 0
M  V30 29 C -1.788692 -4.301464 -1.024301 0
M  V30 30 C -2.527906 -3.122298 -1.088675 0
M  V30 31 O -2.663317 -2.534324 -2.315615 0
M  V30 32 C -2.114977 -3.031283 -3.503882 0
M  V30 33 S -0.346621 -0.021632 -0.316485 0
M  V30 34 C 5.083657 -1.541436 0.737610 0
M  V30 35 C 6.190722 -2.176434 1.315414 0
M  V30 36 H 9.003943 -2.564750 4.527300 0
M  V30 37 H 8.024111 -4.049820 4.613940 0
M  V30 38 H 7.336221 -2.525242 5.173646 0
M  V30 39 H 5.696940 -1.474676 4.562876 0
M  V30 40 H 3.692169 -0.312270 3.618985 0
M  V30 41 H 3.277039 -0.595845 -1.014738 0
M  V30 42 H 0.084152 3.483138 -0.769379 0
M  V30 43 H -1.870009 4.110901 -0.861018 0
M  V30 44 H -4.203545 4.844818 -0.947258 0
M  V30 45 H -8.366476 2.922090 -0.195975 0
M  V30 46 H -5.517452 0.819580 -0.392193 0
M  V30 47 H -4.545003 -1.482961 -0.969286 0
M  V30 48 H -4.513807 -1.154725 0.774260 0
M  V30 49 H -3.388862 -2.761158 2.145064 0
M  V30 50 H -2.127426 -4.800079 2.341679 0
M  V30 51 H -1.051344 -5.871494 0.328637 0
M  V30 52 H -1.325393 -4.760557 -1.899159 0
M  V30 53 H -2.492130 -4.057603 -3.758197 0
M  V30 54 H -1.009916 -3.080247 -3.505898 0
M  V30 55 H -2.385835 -2.287036 -4.306862 0
M  V30 56 H 4.925369 -1.568245 -0.331693 0
M  V30 57 H 6.837728 -2.672906 0.605438 0
M  V30 END ATOM
M  V30 BEGIN BOND
M  V30 1 1 1 2
M  V30 2 1 2 3
M  V30 3 2 3 4
M  V30 4 1 4 5
M  V30 5 2 5 6
M  V30 6 1 6 7
M  V30 7 2 7 8
M  V30 8 1 7 9
M  V30 9 1 9 10
M  V30 10 2 10 11
M  V30 11 1 11 12
M  V30 12 2 12 13
M  V30 13 1 13 14
M  V30 14 2 14 15
M  V30 15 1 15 16
M  V30 16 2 16 17
M  V30 17 1 17 18
M  V30 18 2 18 19
M  V30 19 1 18 20
M  V30 20 1 17 21
M  V30 21 2 21 22
M  V30 22 1 22 23
M  V30 23 1 23 24
M  V30 24 1 24 25
M  V30 25 2 25 26
M  V30 26 1 26 27
M  V30 27 2 27 28
M  V30 28 1 28 29
M  V30 29 2 29 30
M  V30 30 1 30 31
M  V30 31 1 31 32
M  V30 32 1 13 33
M  V30 33 1 6 34
M  V30 34 2 34 35
M  V30 35 1 35 3
M  V30 36 1 33 10
M  V30 37 1 22 14
M  V30 38 1 30 25
M  V30 39 1 1 36
M  V30 40 1 1 37
M  V30 41 1 1 38
M  V30 42 1 4 39
M  V30 43 1 5 40
M  V30 44 1 9 41
M  V30 45 1 12 42
M  V30 46 1 15 43
M  V30 47 1 16 44
M  V30 48 1 20 45
M  V30 49 1 21 46
M  V30 50 1 24 47
M  V30 51 1 24 48
M  V30 52 1 26 49
M  V30 53 1 27 50
M  V30 54 1 28 51
M  V30 55 1 29 52
M  V30 56 1 32 53
M  V30 57 1 32 54
M  V30 58 1 32 55
M  V30 59 1 34 56
M  V30 60 1 35 57
M  V30 END BOND
M  V30 END CTAB
M  END
>  <Dataset>  (999) 
ChEMBL_Kinases

>  <Ligand_Instance>  (999) 
nan

>  <PDB_ID>  (999) 
nan

>  <Standardized_SMILES>  (999) 
COc1ccc(C(=O)Nc2ncc(-c3ccc(C(=O)O)cc3OCc3ccccc3OC)s2)cc1

>  <Name>  (999) 
nan

>  <Pocket>  (999) 
nan

>  <ATP_Site>  (999) 
nan

>  <Peripheral>  (999) 
nan

>  <Num_H_Atoms_ProtBoundConf>  (999) 
nan

>  <Num_Resolved_Atoms>  (999) 
nan

>  <Num_Not_Resolved_Atoms>  (999) 
nan

$$$$
