CHEMBL4295177
     RDKit          3D

  0  0  0  0  0  0  0  0  0  0999 V3000
M  V30 BEGIN CTAB
M  V30 COUNTS 41 44 0 0 0
M  V30 BEGIN ATOM
M  V30 1 O -0.870251 -2.234046 3.664440 0
M  V30 2 C -1.620542 -2.995952 2.997654 0
M  V30 3 N -1.994769 -2.338614 1.796040 0
M  V30 4 C -1.559410 -1.029424 1.457683 0
M  V30 5 C -2.317456 0.051966 1.853355 0
M  V30 6 N -1.911122 1.299257 1.534160 0
M  V30 7 C -0.764891 1.449110 0.831270 0
M  V30 8 C 0.007940 0.383073 0.425887 0
M  V30 9 C 1.243011 0.627061 -0.337969 0
M  V30 10 C 1.772617 1.783509 -0.733212 0
M  V30 11 C 2.917390 1.855411 -1.432121 0
M  V30 12 C 3.574002 3.065323 -1.909532 0
M  V30 13 C 2.740776 4.121792 -2.246908 0
M  V30 14 C 3.270360 5.326698 -2.711151 0
M  V30 15 C 4.658460 5.355055 -2.795771 0
M  V30 16 N 5.437772 4.315463 -2.461580 0
M  V30 17 C 4.937996 3.151814 -2.013945 0
M  V30 18 C 3.502726 0.500004 -1.700481 0
M  V30 19 S 2.250572 -0.645074 -0.867666 0
M  V30 20 C -0.390508 -0.893670 0.741912 0
M  V30 21 C -2.019075 -4.327801 3.420029 0
M  V30 22 C -1.504404 -4.723077 4.646469 0
M  V30 23 C -1.783019 -5.954587 5.195164 0
M  V30 24 C -2.593418 -6.864727 4.549964 0
M  V30 25 F -2.880781 -8.079932 5.070452 0
M  V30 26 C -3.114716 -6.489713 3.329114 0
M  V30 27 C -2.824236 -5.254960 2.798196 0
M  V30 28 F -3.324201 -4.880382 1.614544 0
M  V30 29 H -2.615752 -2.826845 1.123605 0
M  V30 30 H -3.230414 -0.101100 2.415377 0
M  V30 31 H -0.471888 2.468791 0.593885 0
M  V30 32 H 1.252705 2.697664 -0.476681 0
M  V30 33 H 1.680618 4.037586 -2.159596 0
M  V30 34 H 2.634356 6.144245 -2.972786 0
M  V30 35 H 5.097558 6.278122 -3.152945 0
M  V30 36 H 5.554875 2.305458 -1.740864 0
M  V30 37 H 4.570146 0.507694 -2.349397 0
M  V30 38 H 0.220323 -1.735316 0.421394 0
M  V30 39 H -0.850055 -4.075255 5.240286 0
M  V30 40 H -1.366123 -6.230438 6.151233 0
M  V30 41 H -3.764338 -7.140231 2.745575 0
M  V30 END ATOM
M  V30 BEGIN BOND
M  V30 1 2 1 2
M  V30 2 1 2 3
M  V30 3 1 3 4
M  V30 4 2 4 5
M  V30 5 1 5 6
M  V30 6 2 6 7
M  V30 7 1 7 8
M  V30 8 1 8 9
M  V30 9 2 9 10
M  V30 10 1 10 11
M  V30 11 1 11 12
M  V30 12 2 12 13
M  V30 13 1 13 14
M  V30 14 2 14 15
M  V30 15 1 15 16
M  V30 16 2 16 17
M  V30 17 2 11 18
M  V30 18 1 18 19
M  V30 19 2 8 20
M  V30 20 1 2 21
M  V30 21 2 21 22
M  V30 22 1 22 23
M  V30 23 2 23 24
M  V30 24 1 24 25
M  V30 25 1 24 26
M  V30 26 2 26 27
M  V30 27 1 27 28
M  V30 28 1 20 4
M  V30 29 1 27 21
M  V30 30 1 19 9
M  V30 31 1 17 12
M  V30 32 1 3 29
M  V30 33 1 5 30
M  V30 34 1 7 31
M  V30 35 1 10 32
M  V30 36 1 13 33
M  V30 37 1 14 34
M  V30 38 1 15 35
M  V30 39 1 17 36
M  V30 40 1 18 37
M  V30 41 1 20 38
M  V30 42 1 22 39
M  V30 43 1 23 40
M  V30 44 1 26 41
M  V30 END BOND
M  V30 END CTAB
M  END
>  <Dataset>  (1) 
ChEMBL_Kinases

>  <Ligand_Instance>  (1) 
nan

>  <PDB_ID>  (1) 
nan

>  <Standardized_SMILES>  (1) 
O=C(Nc1cncc(-c2cc(-c3cccnc3)cs2)c1)c1ccc(F)cc1F

>  <Name>  (1) 
nan

>  <Pocket>  (1) 
nan

>  <ATP_Site>  (1) 
nan

>  <Peripheral>  (1) 
nan

>  <Num_H_Atoms_ProtBoundConf>  (1) 
nan

>  <Num_Resolved_Atoms>  (1) 
nan

>  <Num_Not_Resolved_Atoms>  (1) 
nan

$$$$
CHEMBL4755343
     RDKit          3D

  0  0  0  0  0  0  0  0  0  0999 V3000
M  V30 BEGIN CTAB
M  V30 COUNTS 54 57 0 0 0
M  V30 BEGIN ATOM
M  V30 1 O -0.204585 -3.096796 -0.369203 0
M  V30 2 C 0.210372 -4.000871 0.395878 0
M  V30 3 N 1.345378 -3.682931 1.147387 0
M  V30 4 C 1.899644 -2.377071 0.961466 0
M  V30 5 C 1.444773 -1.347856 1.766745 0
M  V30 6 C 1.994101 -0.098091 1.568550 0
M  V30 7 C 2.960308 0.209749 0.632599 0
M  V30 8 C 3.548579 1.527528 0.409276 0
M  V30 9 C 2.841319 2.362811 -0.612766 0
M  V30 10 N 1.477780 2.570768 -0.172632 0
M  V30 11 C 1.205337 3.280402 1.026638 0
M  V30 12 N 2.197132 3.782294 1.783112 0
M  V30 13 N 1.992818 4.455540 2.911114 0
M  V30 14 C 0.785531 4.707657 3.416977 0
M  V30 15 O 0.634743 5.346350 4.483895 0
M  V30 16 C -0.283676 4.219677 2.689220 0
M  V30 17 C -1.558955 4.449412 3.163097 0
M  V30 18 C -2.671569 3.977620 2.465292 0
M  V30 19 C -2.424422 3.278752 1.291765 0
M  V30 20 C -1.143312 3.068305 0.849350 0
M  V30 21 C -0.056308 3.524498 1.523261 0
M  V30 22 C 3.346348 -0.888467 -0.120558 0
M  V30 23 C 2.863488 -2.175811 -0.004917 0
M  V30 24 N -0.488663 -5.233446 0.431266 0
M  V30 25 C -1.639791 -5.663129 -0.279262 0
M  V30 26 C -2.118541 -6.913367 -0.059954 0
M  V30 27 C -3.230143 -7.391351 -0.715698 0
M  V30 28 C -3.921266 -6.628598 -1.632613 0
M  V30 29 C -3.454821 -5.355770 -1.872590 0
M  V30 30 C -4.165428 -4.492061 -2.853648 0
M  V30 31 F -5.496170 -4.362652 -2.602967 0
M  V30 32 F -3.553953 -3.233995 -2.835292 0
M  V30 33 F -3.904872 -5.025621 -4.108595 0
M  V30 34 C -2.344373 -4.919044 -1.197931 0
M  V30 35 H 1.729360 -4.420009 1.807540 0
M  V30 36 H 0.688201 -1.506083 2.525237 0
M  V30 37 H 1.626182 0.684780 2.207768 0
M  V30 38 H 4.577563 1.333008 -0.022156 0
M  V30 39 H 3.763409 2.067374 1.352894 0
M  V30 40 H 3.281601 3.405776 -0.630253 0
M  V30 41 H 2.939033 2.007395 -1.634463 0
M  V30 42 H 0.783669 2.165453 -0.798110 0
M  V30 43 H 2.879426 4.782458 3.386148 0
M  V30 44 H -1.760130 4.993549 4.077413 0
M  V30 45 H -3.697300 4.130730 2.794035 0
M  V30 46 H -3.294246 2.915279 0.755048 0
M  V30 47 H -1.043623 2.524582 -0.056838 0
M  V30 48 H 4.113175 -0.737694 -0.892315 0
M  V30 49 H 3.238270 -2.959766 -0.648514 0
M  V30 50 H -0.035234 -5.886341 1.106157 0
M  V30 51 H -1.615663 -7.556528 0.649526 0
M  V30 52 H -3.549854 -8.397088 -0.487163 0
M  V30 53 H -4.785625 -7.027746 -2.129322 0
M  V30 54 H -2.034059 -3.917017 -1.432199 0
M  V30 END ATOM
M  V30 BEGIN BOND
M  V30 1 2 1 2
M  V30 2 1 2 3
M  V30 3 1 3 4
M  V30 4 2 4 5
M  V30 5 1 5 6
M  V30 6 2 6 7
M  V30 7 1 7 8
M  V30 8 1 8 9
M  V30 9 1 9 10
M  V30 10 1 10 11
M  V30 11 2 11 12
M  V30 12 1 12 13
M  V30 13 1 13 14
M  V30 14 2 14 15
M  V30 15 1 14 16
M  V30 16 2 16 17
M  V30 17 1 17 18
M  V30 18 2 18 19
M  V30 19 1 19 20
M  V30 20 2 20 21
M  V30 21 1 7 22
M  V30 22 2 22 23
M  V30 23 1 2 24
M  V30 24 1 24 25
M  V30 25 2 25 26
M  V30 26 1 26 27
M  V30 27 2 27 28
M  V30 28 1 28 29
M  V30 29 1 29 30
M  V30 30 1 30 31
M  V30 31 1 30 32
M  V30 32 1 30 33
M  V30 33 2 29 34
M  V30 34 1 23 4
M  V30 35 1 34 25
M  V30 36 1 21 11
M  V30 37 1 21 16
M  V30 38 1 3 35
M  V30 39 1 5 36
M  V30 40 1 6 37
M  V30 41 1 8 38
M  V30 42 1 8 39
M  V30 43 1 9 40
M  V30 44 1 9 41
M  V30 45 1 10 42
M  V30 46 1 13 43
M  V30 47 1 17 44
M  V30 48 1 18 45
M  V30 49 1 19 46
M  V30 50 1 20 47
M  V30 51 1 22 48
M  V30 52 1 23 49
M  V30 53 1 24 50
M  V30 54 1 26 51
M  V30 55 1 27 52
M  V30 56 1 28 53
M  V30 57 1 34 54
M  V30 END BOND
M  V30 END CTAB
M  END
>  <Dataset>  (2) 
ChEMBL_Kinases

>  <Ligand_Instance>  (2) 
nan

>  <PDB_ID>  (2) 
nan

>  <Standardized_SMILES>  (2) 
O=C(Nc1ccc(CCNc2n[nH]c(=O)c3ccccc23)cc1)Nc1cccc(C(F)(F)F)c1

>  <Name>  (2) 
nan

>  <Pocket>  (2) 
nan

>  <ATP_Site>  (2) 
nan

>  <Peripheral>  (2) 
nan

>  <Num_H_Atoms_ProtBoundConf>  (2) 
nan

>  <Num_Resolved_Atoms>  (2) 
nan

>  <Num_Not_Resolved_Atoms>  (2) 
nan

$$$$
CHEMBL4755597
     RDKit          3D

  0  0  0  0  0  0  0  0  0  0999 V3000
M  V30 BEGIN CTAB
M  V30 COUNTS 30 32 0 0 0
M  V30 BEGIN ATOM
M  V30 1 O 0.372579 -2.446173 2.425089 0
M  V30 2 C 0.609475 -1.503712 1.621856 0
M  V30 3 C 1.806515 -1.348657 0.985286 0
M  V30 4 C 2.805130 -2.269369 1.234219 0
M  V30 5 C 4.027331 -2.099495 0.575695 0
M  V30 6 F 5.002345 -3.009585 0.827040 0
M  V30 7 C 4.301138 -1.070474 -0.307909 0
M  V30 8 C 3.273673 -0.154599 -0.540687 0
M  V30 9 C 2.075432 -0.322700 0.106084 0
M  V30 10 N 1.070888 0.536571 -0.094624 0
M  V30 11 C 0.978941 1.626701 -0.864317 0
M  V30 12 S 2.017107 2.368762 -1.867744 0
M  V30 13 N -0.246830 2.156603 -0.724010 0
M  V30 14 N -0.917234 1.390844 0.136805 0
M  V30 15 C -0.103185 0.391993 0.524166 0
M  V30 16 N -0.380347 -0.617716 1.394893 0
M  V30 17 C -1.670027 -0.708307 2.023959 0
M  V30 18 C -2.653071 -1.533796 1.215680 0
M  V30 19 C -3.976035 -1.556530 1.980415 0
M  V30 20 F -4.866135 -2.312529 1.233981 0
M  V30 21 F -4.479259 -0.283220 2.121847 0
M  V30 22 F -3.812886 -2.090158 3.229429 0
M  V30 23 H 2.689865 -3.098643 1.900400 0
M  V30 24 H 5.283221 -1.036603 -0.760836 0
M  V30 25 H 3.529219 0.617674 -1.225638 0
M  V30 26 H -0.748293 2.994229 -1.127771 0
M  V30 27 H -1.546467 -1.230822 2.998025 0
M  V30 28 H -2.075560 0.299295 2.204590 0
M  V30 29 H -2.325050 -2.581815 1.146768 0
M  V30 30 H -2.839603 -1.124910 0.210215 0
M  V30 END ATOM
M  V30 BEGIN BOND
M  V30 1 2 1 2
M  V30 2 1 2 3
M  V30 3 2 3 4
M  V30 4 1 4 5
M  V30 5 1 5 6
M  V30 6 2 5 7
M  V30 7 1 7 8
M  V30 8 2 8 9
M  V30 9 1 9 10
M  V30 10 1 10 11
M  V30 11 2 11 12
M  V30 12 1 11 13
M  V30 13 1 13 14
M  V30 14 2 14 15
M  V30 15 1 15 16
M  V30 16 1 16 17
M  V30 17 1 17 18
M  V30 18 1 18 19
M  V30 19 1 19 20
M  V30 20 1 19 21
M  V30 21 1 19 22
M  V30 22 1 16 2
M  V30 23 1 9 3
M  V30 24 1 15 10
M  V30 25 1 4 23
M  V30 26 1 7 24
M  V30 27 1 8 25
M  V30 28 1 13 26
M  V30 29 1 17 27
M  V30 30 1 17 28
M  V30 31 1 18 29
M  V30 32 1 18 30
M  V30 END BOND
M  V30 END CTAB
M  END
>  <Dataset>  (3) 
ChEMBL_Kinases

>  <Ligand_Instance>  (3) 
nan

>  <PDB_ID>  (3) 
nan

>  <Standardized_SMILES>  (3) 
O=c1c2cc(F)ccc2n2c(=S)[nH]nc2n1CCC(F)(F)F

>  <Name>  (3) 
nan

>  <Pocket>  (3) 
nan

>  <ATP_Site>  (3) 
nan

>  <Peripheral>  (3) 
nan

>  <Num_H_Atoms_ProtBoundConf>  (3) 
nan

>  <Num_Resolved_Atoms>  (3) 
nan

>  <Num_Not_Resolved_Atoms>  (3) 
nan

$$$$
CHEMBL4755365
     RDKit          3D

  0  0  0  0  0  0  0  0  0  0999 V3000
M  V30 BEGIN CTAB
M  V30 COUNTS 54 57 0 0 0
M  V30 BEGIN ATOM
M  V30 1 C -1.039603 -0.124152 6.142515 0
M  V30 2 C -0.216874 -1.315057 5.666762 0
M  V30 3 N 0.226694 -1.120738 4.293696 0
M  V30 4 C 1.047226 -0.011065 3.951594 0
M  V30 5 O 1.370368 0.784614 4.867374 0
M  V30 6 N 1.479975 0.175459 2.603226 0
M  V30 7 C 2.301926 1.240620 2.124553 0 CFG=1
M  V30 8 C 3.473257 0.647244 1.382782 0
M  V30 9 O 3.088649 0.412243 0.079058 0
M  V30 10 C 1.786154 0.853770 -0.098209 0 CFG=1
M  V30 11 C 1.580371 1.934705 0.975352 0 CFG=2
M  V30 12 O 2.260162 3.041050 0.527083 0
M  V30 13 C 2.667203 2.835948 -0.786319 0
M  V30 14 C 1.686101 1.771600 -1.300678 0 CFG=2
M  V30 15 N 0.399509 2.380063 -1.395769 0
M  V30 16 C -0.827214 1.637397 -1.534953 0
M  V30 17 N -2.041584 2.239311 -1.623178 0
M  V30 18 C -3.178808 1.536380 -1.753178 0
M  V30 19 C -3.038125 0.150905 -1.792174 0
M  V30 20 C -1.818794 -0.488421 -1.704887 0
M  V30 21 C -1.694474 -1.940941 -1.747816 0
M  V30 22 C -2.735790 -2.837670 -1.876381 0
M  V30 23 C -2.518590 -4.200660 -1.907432 0
M  V30 24 C -1.244309 -4.721779 -1.810520 0
M  V30 25 O -0.971801 -6.084393 -1.836525 0
M  V30 26 C -2.058117 -7.004531 -1.970124 0
M  V30 27 C -0.165094 -3.850749 -1.679451 0
M  V30 28 C -0.434986 -2.497425 -1.653567 0
M  V30 29 N -0.758843 0.299420 -1.578760 0
M  V30 30 H -2.107910 -0.466016 6.125089 0
M  V30 31 H -0.892788 0.755605 5.481600 0
M  V30 32 H -0.787643 0.111344 7.197609 0
M  V30 33 H -0.780010 -2.271325 5.724494 0
M  V30 34 H 0.716572 -1.379706 6.282200 0
M  V30 35 H -0.050486 -1.793274 3.537225 0
M  V30 36 H 1.169558 -0.529811 1.896319 0
M  V30 37 H 2.605648 1.961139 2.904307 0
M  V30 38 H 4.378543 1.287632 1.457835 0
M  V30 39 H 3.731454 -0.317653 1.896692 0
M  V30 40 H 1.053250 0.058344 -0.058214 0
M  V30 41 H 0.508658 2.094359 1.169725 0
M  V30 42 H 3.674039 2.360759 -0.838838 0
M  V30 43 H 2.691145 3.732804 -1.400941 0
M  V30 44 H 2.059260 1.310354 -2.230684 0
M  V30 45 H 0.281219 3.437623 -1.367958 0
M  V30 46 H -4.147588 2.017248 -1.823505 0
M  V30 47 H -3.953200 -0.406157 -1.896495 0
M  V30 48 H -3.732873 -2.426838 -1.952085 0
M  V30 49 H -3.361543 -4.882768 -2.009868 0
M  V30 50 H -2.518084 -6.931844 -2.996277 0
M  V30 51 H -2.826147 -6.823883 -1.207904 0
M  V30 52 H -1.703451 -8.036204 -1.890670 0
M  V30 53 H 0.816593 -4.255560 -1.604878 0
M  V30 54 H 0.442153 -1.872772 -1.550151 0
M  V30 END ATOM
M  V30 BEGIN BOND
M  V30 1 1 1 2
M  V30 2 1 2 3
M  V30 3 1 3 4
M  V30 4 2 4 5
M  V30 5 1 4 6
M  V30 6 1 6 7
M  V30 7 1 7 8
M  V30 8 1 8 9
M  V30 9 1 9 10
M  V30 10 1 10 11
M  V30 11 1 11 12
M  V30 12 1 12 13
M  V30 13 1 13 14
M  V30 14 1 14 15
M  V30 15 1 15 16
M  V30 16 2 16 17
M  V30 17 1 17 18
M  V30 18 2 18 19
M  V30 19 1 19 20
M  V30 20 1 20 21
M  V30 21 2 21 22
M  V30 22 1 22 23
M  V30 23 2 23 24
M  V30 24 1 24 25
M  V30 25 1 25 26
M  V30 26 1 24 27
M  V30 27 2 27 28
M  V30 28 2 20 29
M  V30 29 1 11 7
M  V30 30 1 29 16
M  V30 31 1 14 10
M  V30 32 1 28 21
M  V30 33 1 1 30
M  V30 34 1 1 31
M  V30 35 1 1 32
M  V30 36 1 2 33
M  V30 37 1 2 34
M  V30 38 1 3 35
M  V30 39 1 6 36
M  V30 40 1 7 37 CFG=1
M  V30 41 1 8 38
M  V30 42 1 8 39
M  V30 43 1 10 40 CFG=3
M  V30 44 1 11 41 CFG=1
M  V30 45 1 13 42
M  V30 46 1 13 43
M  V30 47 1 14 44 CFG=3
M  V30 48 1 15 45
M  V30 49 1 18 46
M  V30 50 1 19 47
M  V30 51 1 22 48
M  V30 52 1 23 49
M  V30 53 1 26 50
M  V30 54 1 26 51
M  V30 55 1 26 52
M  V30 56 1 27 53
M  V30 57 1 28 54
M  V30 END BOND
M  V30 END CTAB
M  END
>  <Dataset>  (4) 
ChEMBL_Kinases

>  <Ligand_Instance>  (4) 
nan

>  <PDB_ID>  (4) 
nan

>  <Standardized_SMILES>  (4) 
CCNC(=O)N[C@H]1CO[C@H]2[C@@H]1OC[C@@H]2Nc1nccc(-c2ccc(OC)cc2)n1

>  <Name>  (4) 
nan

>  <Pocket>  (4) 
nan

>  <ATP_Site>  (4) 
nan

>  <Peripheral>  (4) 
nan

>  <Num_H_Atoms_ProtBoundConf>  (4) 
nan

>  <Num_Resolved_Atoms>  (4) 
nan

>  <Num_Not_Resolved_Atoms>  (4) 
nan

$$$$
CHEMBL4755378
     RDKit          3D

  0  0  0  0  0  0  0  0  0  0999 V3000
M  V30 BEGIN CTAB
M  V30 COUNTS 64 68 0 0 0
M  V30 BEGIN ATOM
M  V30 1 O 2.180123 1.865801 5.292805 0
M  V30 2 S 1.775647 1.970011 3.841490 0
M  V30 3 O 0.840420 3.138879 3.638908 0
M  V30 4 N 0.885368 0.564680 3.421414 0
M  V30 5 C 1.678258 -0.656808 3.592734 0
M  V30 6 C 0.749222 -1.777081 3.183125 0
M  V30 7 C 0.352035 -1.539253 1.744713 0
M  V30 8 N 1.511435 -1.540495 0.875230 0
M  V30 9 C 1.316875 -1.315938 -0.534641 0
M  V30 10 N 2.356213 -1.305104 -1.420554 0
M  V30 11 C 2.120655 -1.091367 -2.725451 0
M  V30 12 C 0.855857 -0.877673 -3.227324 0
M  V30 13 C -0.184621 -0.891120 -2.322090 0
M  V30 14 C -1.513527 -0.661387 -2.882870 0
M  V30 15 N -1.759944 0.521797 -3.519757 0
M  V30 16 C -3.014872 0.554208 -3.964003 0
M  V30 17 C -3.669477 1.637167 -4.693816 0
M  V30 18 C -2.991355 2.798019 -5.004210 0
M  V30 19 C -3.522378 3.870742 -5.687245 0
M  V30 20 C -4.849144 3.759984 -6.089581 0
M  V30 21 C -5.531782 2.598934 -5.780642 0
M  V30 22 C -4.985840 1.525160 -5.091994 0
M  V30 23 N -3.596594 -0.606179 -3.620927 0
M  V30 24 C -2.692620 -1.380498 -2.950158 0
M  V30 25 C -2.760445 -2.711171 -2.351681 0
M  V30 26 C -2.038568 -3.825219 -2.699613 0
M  V30 27 C -2.251310 -5.003254 -2.003422 0
M  V30 28 C -3.160220 -5.113979 -0.968872 0
M  V30 29 F -3.330290 -6.289998 -0.319829 0
M  V30 30 C -3.878149 -3.977380 -0.634204 0
M  V30 31 O -4.790243 -4.092486 0.405341 0
M  V30 32 C -3.672610 -2.810834 -1.318033 0
M  V30 33 N 0.060857 -1.105919 -1.017785 0
M  V30 34 C 3.179165 2.187167 2.845368 0
M  V30 35 C 4.442824 1.693494 3.090715 0
M  V30 36 C 5.488544 1.936405 2.215252 0
M  V30 37 C 5.309915 2.673361 1.076055 0
M  V30 38 Br 6.698289 3.048215 -0.172607 0
M  V30 39 C 4.065050 3.190764 0.782905 0
M  V30 40 C 3.031601 2.933041 1.677245 0
M  V30 41 H 0.037210 0.496937 4.005018 0
M  V30 42 H 2.520682 -0.637499 2.881751 0
M  V30 43 H 2.020666 -0.762200 4.642784 0
M  V30 44 H 1.181980 -2.771273 3.338147 0
M  V30 45 H -0.177625 -1.621070 3.809949 0
M  V30 46 H -0.101150 -0.526035 1.640190 0
M  V30 47 H -0.416542 -2.271827 1.411053 0
M  V30 48 H 2.502704 -1.691975 1.159613 0
M  V30 49 H 2.969968 -1.086428 -3.422050 0
M  V30 50 H 0.733896 -0.711323 -4.291751 0
M  V30 51 H -1.105135 1.343658 -3.679766 0
M  V30 52 H -1.945037 2.901121 -4.694160 0
M  V30 53 H -2.916004 4.745565 -5.888466 0
M  V30 54 H -5.289877 4.579313 -6.623366 0
M  V30 55 H -6.573474 2.588579 -6.132639 0
M  V30 56 H -5.582315 0.645423 -4.885166 0
M  V30 57 H -1.347503 -3.688627 -3.506719 0
M  V30 58 H -1.658725 -5.875171 -2.305779 0
M  V30 59 H -4.534408 -3.855441 1.349765 0
M  V30 60 H -4.295452 -1.973039 -0.969270 0
M  V30 61 H 4.558276 1.117489 3.992055 0
M  V30 62 H 6.477368 1.539417 2.424997 0
M  V30 63 H 3.875387 3.777001 -0.101709 0
M  V30 64 H 2.055710 3.349841 1.428844 0
M  V30 END ATOM
M  V30 BEGIN BOND
M  V30 1 2 1 2
M  V30 2 2 2 3
M  V30 3 1 2 4
M  V30 4 1 4 5
M  V30 5 1 5 6
M  V30 6 1 6 7
M  V30 7 1 7 8
M  V30 8 1 8 9
M  V30 9 2 9 10
M  V30 10 1 10 11
M  V30 11 2 11 12
M  V30 12 1 12 13
M  V30 13 1 13 14
M  V30 14 1 14 15
M  V30 15 1 15 16
M  V30 16 1 16 17
M  V30 17 2 17 18
M  V30 18 1 18 19
M  V30 19 2 19 20
M  V30 20 1 20 21
M  V30 21 2 21 22
M  V30 22 2 16 23
M  V30 23 1 23 24
M  V30 24 1 24 25
M  V30 25 2 25 26
M  V30 26 1 26 27
M  V30 27 2 27 28
M  V30 28 1 28 29
M  V30 29 1 28 30
M  V30 30 1 30 31
M  V30 31 2 30 32
M  V30 32 2 13 33
M  V30 33 1 2 34
M  V30 34 2 34 35
M  V30 35 1 35 36
M  V30 36 2 36 37
M  V30 37 1 37 38
M  V30 38 1 37 39
M  V30 39 2 39 40
M  V30 40 1 33 9
M  V30 41 1 40 34
M  V30 42 2 24 14
M  V30 43 1 32 25
M  V30 44 1 22 17
M  V30 45 1 4 41
M  V30 46 1 5 42
M  V30 47 1 5 43
M  V30 48 1 6 44
M  V30 49 1 6 45
M  V30 50 1 7 46
M  V30 51 1 7 47
M  V30 52 1 8 48
M  V30 53 1 11 49
M  V30 54 1 12 50
M  V30 55 1 15 51
M  V30 56 1 18 52
M  V30 57 1 19 53
M  V30 58 1 20 54
M  V30 59 1 21 55
M  V30 60 1 22 56
M  V30 61 1 26 57
M  V30 62 1 27 58
M  V30 63 1 31 59
M  V30 64 1 32 60
M  V30 65 1 35 61
M  V30 66 1 36 62
M  V30 67 1 39 63
M  V30 68 1 40 64
M  V30 END BOND
M  V30 END CTAB
M  END
>  <Dataset>  (5) 
ChEMBL_Kinases

>  <Ligand_Instance>  (5) 
nan

>  <PDB_ID>  (5) 
nan

>  <Standardized_SMILES>  (5) 
O=S(=O)(NCCCNc1nccc(-c2[nH]c(-c3ccccc3)nc2-c2ccc(F)c(O)c2)n1)c1ccc(Br)cc1

>  <Name>  (5) 
nan

>  <Pocket>  (5) 
nan

>  <ATP_Site>  (5) 
nan

>  <Peripheral>  (5) 
nan

>  <Num_H_Atoms_ProtBoundConf>  (5) 
nan

>  <Num_Resolved_Atoms>  (5) 
nan

>  <Num_Not_Resolved_Atoms>  (5) 
nan

$$$$
CHEMBL4755386
     RDKit          3D

  0  0  0  0  0  0  0  0  0  0999 V3000
M  V30 BEGIN CTAB
M  V30 COUNTS 32 34 0 0 0
M  V30 BEGIN ATOM
M  V30 1 N -0.450829 -3.279121 4.518638 0
M  V30 2 C -0.179234 -3.938670 3.263618 0
M  V30 3 C -0.365181 -3.004270 2.067390 0
M  V30 4 C 0.583381 -1.831895 2.204413 0
M  V30 5 N 0.486387 -0.884926 1.119602 0
M  V30 6 C 1.229122 -0.982191 0.002421 0
M  V30 7 O 2.046776 -1.953648 -0.088765 0
M  V30 8 C 1.103371 -0.053860 -1.009660 0
M  V30 9 C 1.875184 -0.178000 -2.140184 0
M  V30 10 C 1.716129 0.772136 -3.125147 0
M  V30 11 C 0.823178 1.844148 -3.040177 0
M  V30 12 C 0.070114 1.930589 -1.891427 0
M  V30 13 F -0.726444 2.993805 -1.956469 0
M  V30 14 C 0.221910 0.994211 -0.912412 0
M  V30 15 N -0.498242 1.077152 0.185774 0
M  V30 16 C -1.416735 1.954705 0.569716 0
M  V30 17 S -2.107829 3.285304 -0.024446 0
M  V30 18 N -1.860195 1.598351 1.782663 0
M  V30 19 N -1.214282 0.485323 2.165935 0
M  V30 20 C -0.369263 0.176426 1.156073 0
M  V30 21 H -1.278771 -2.654822 4.453838 0
M  V30 22 H 0.353022 -2.703932 4.848167 0
M  V30 23 H 0.815053 -4.387942 3.277795 0
M  V30 24 H -0.900171 -4.777665 3.128421 0
M  V30 25 H -1.425566 -2.708606 1.962402 0
M  V30 26 H -0.106138 -3.621508 1.183403 0
M  V30 27 H 0.475422 -1.310169 3.153589 0
M  V30 28 H 1.612193 -2.275734 2.204374 0
M  V30 29 H 2.572024 -0.997904 -2.228446 0
M  V30 30 H 2.341434 0.636540 -3.994952 0
M  V30 31 H 0.829133 2.499077 -3.912896 0
M  V30 32 H -2.557067 1.952799 2.484121 0
M  V30 END ATOM
M  V30 BEGIN BOND
M  V30 1 1 1 2
M  V30 2 1 2 3
M  V30 3 1 3 4
M  V30 4 1 4 5
M  V30 5 1 5 6
M  V30 6 2 6 7
M  V30 7 1 6 8
M  V30 8 2 8 9
M  V30 9 1 9 10
M  V30 10 2 10 11
M  V30 11 1 11 12
M  V30 12 1 12 13
M  V30 13 2 12 14
M  V30 14 1 14 15
M  V30 15 1 15 16
M  V30 16 2 16 17
M  V30 17 1 16 18
M  V30 18 1 18 19
M  V30 19 2 19 20
M  V30 20 1 20 5
M  V30 21 1 14 8
M  V30 22 1 20 15
M  V30 23 1 1 21
M  V30 24 1 1 22
M  V30 25 1 2 23
M  V30 26 1 2 24
M  V30 27 1 3 25
M  V30 28 1 3 26
M  V30 29 1 4 27
M  V30 30 1 4 28
M  V30 31 1 9 29
M  V30 32 1 10 30
M  V30 33 1 11 31
M  V30 34 1 18 32
M  V30 END BOND
M  V30 END CTAB
M  END
>  <Dataset>  (6) 
ChEMBL_Kinases

>  <Ligand_Instance>  (6) 
nan

>  <PDB_ID>  (6) 
nan

>  <Standardized_SMILES>  (6) 
NCCCn1c(=O)c2cccc(F)c2n2c(=S)[nH]nc12

>  <Name>  (6) 
nan

>  <Pocket>  (6) 
nan

>  <ATP_Site>  (6) 
nan

>  <Peripheral>  (6) 
nan

>  <Num_H_Atoms_ProtBoundConf>  (6) 
nan

>  <Num_Resolved_Atoms>  (6) 
nan

>  <Num_Not_Resolved_Atoms>  (6) 
nan

$$$$
CHEMBL4755396
     RDKit          3D

  0  0  0  0  0  0  0  0  0  0999 V3000
M  V30 BEGIN CTAB
M  V30 COUNTS 57 61 0 0 0
M  V30 BEGIN ATOM
M  V30 1 C 4.085580 -4.691728 0.667058 0
M  V30 2 O 3.926262 -3.287094 0.642573 0
M  V30 3 C 4.255169 -2.511671 -0.460829 0
M  V30 4 O 4.681770 -3.327558 -1.319990 0
M  V30 5 N 4.107321 -1.100622 -0.517344 0
M  V30 6 C 3.583046 -0.466263 0.654257 0
M  V30 7 C 3.496648 1.021433 0.386801 0
M  V30 8 N 2.853813 1.175774 -0.912923 0
M  V30 9 C 1.496562 1.550262 -1.124165 0
M  V30 10 C 0.914521 1.689120 -2.359182 0
M  V30 11 C -0.409486 2.055960 -2.483591 0
M  V30 12 C -1.116308 2.275172 -1.318859 0
M  V30 13 C -0.495331 2.125220 -0.096283 0
M  V30 14 N -1.330156 2.379396 1.030668 0
M  V30 15 N -1.415953 3.405627 1.847441 0
M  V30 16 C -2.369641 3.189021 2.779531 0
M  V30 17 C -2.905546 1.946596 2.517820 0
M  V30 18 C -3.894131 1.180850 3.104687 0
M  V30 19 N -4.226376 -0.047095 2.621657 0
M  V30 20 C -3.597228 -0.565603 1.543195 0
M  V30 21 C -3.963475 -1.884667 1.034945 0
M  V30 22 C -4.972229 -1.925307 0.067538 0
M  V30 23 F -5.555100 -0.754816 -0.347707 0
M  V30 24 C -5.429475 -3.096973 -0.509792 0
M  V30 25 C -4.862024 -4.302423 -0.113462 0
M  V30 26 C -3.867296 -4.266514 0.839993 0
M  V30 27 C -3.411562 -3.094872 1.415878 0
M  V30 28 O -2.424063 -2.998399 2.369729 0
M  V30 29 C -1.724840 -4.081715 2.906485 0
M  V30 30 C -2.611890 0.207530 0.965194 0
M  V30 31 C -2.233994 1.455854 1.410627 0
M  V30 32 N 0.802143 1.765367 0.006409 0
M  V30 33 C 3.843069 0.880144 -1.938298 0
M  V30 34 C 4.498619 -0.444395 -1.746530 0
M  V30 35 H 5.027662 -4.980451 0.163262 0
M  V30 36 H 3.208538 -5.214905 0.230714 0
M  V30 37 H 4.194825 -5.029267 1.737947 0
M  V30 38 H 2.563029 -0.868292 0.831788 0
M  V30 39 H 4.214527 -0.719689 1.530702 0
M  V30 40 H 2.820595 1.416962 1.200507 0
M  V30 41 H 4.478483 1.507727 0.454366 0
M  V30 42 H 1.511983 1.505759 -3.241468 0
M  V30 43 H -0.814617 2.149972 -3.482377 0
M  V30 44 H -2.163093 2.565018 -1.427232 0
M  V30 45 H -2.679637 3.837593 3.586425 0
M  V30 46 H -4.436264 1.547325 3.977713 0
M  V30 47 H -6.211321 -3.065482 -1.252012 0
M  V30 48 H -5.201632 -5.237135 -0.550020 0
M  V30 49 H -3.405883 -5.181364 1.170129 0
M  V30 50 H -1.177398 -3.688944 3.800492 0
M  V30 51 H -1.009113 -4.516533 2.175489 0
M  V30 52 H -2.411116 -4.909689 3.219310 0
M  V30 53 H -2.121923 -0.214827 0.112302 0
M  V30 54 H 3.460923 0.971964 -2.962662 0
M  V30 55 H 4.652449 1.655011 -1.807999 0
M  V30 56 H 4.215029 -1.117833 -2.581503 0
M  V30 57 H 5.617548 -0.382284 -1.758315 0
M  V30 END ATOM
M  V30 BEGIN BOND
M  V30 1 1 1 2
M  V30 2 1 2 3
M  V30 3 2 3 4
M  V30 4 1 3 5
M  V30 5 1 5 6
M  V30 6 1 6 7
M  V30 7 1 7 8
M  V30 8 1 8 9
M  V30 9 2 9 10
M  V30 10 1 10 11
M  V30 11 2 11 12
M  V30 12 1 12 13
M  V30 13 1 13 14
M  V30 14 1 14 15
M  V30 15 2 15 16
M  V30 16 1 16 17
M  V30 17 2 17 18
M  V30 18 1 18 19
M  V30 19 2 19 20
M  V30 20 1 20 21
M  V30 21 2 21 22
M  V30 22 1 22 23
M  V30 23 1 22 24
M  V30 24 2 24 25
M  V30 25 1 25 26
M  V30 26 2 26 27
M  V30 27 1 27 28
M  V30 28 1 28 29
M  V30 29 1 20 30
M  V30 30 2 30 31
M  V30 31 2 13 32
M  V30 32 1 8 33
M  V30 33 1 33 34
M  V30 34 1 34 5
M  V30 35 1 32 9
M  V30 36 1 31 14
M  V30 37 1 31 17
M  V30 38 1 27 21
M  V30 39 1 1 35
M  V30 40 1 1 36
M  V30 41 1 1 37
M  V30 42 1 6 38
M  V30 43 1 6 39
M  V30 44 1 7 40
M  V30 45 1 7 41
M  V30 46 1 10 42
M  V30 47 1 11 43
M  V30 48 1 12 44
M  V30 49 1 16 45
M  V30 50 1 18 46
M  V30 51 1 24 47
M  V30 52 1 25 48
M  V30 53 1 26 49
M  V30 54 1 29 50
M  V30 55 1 29 51
M  V30 56 1 29 52
M  V30 57 1 30 53
M  V30 58 1 33 54
M  V30 59 1 33 55
M  V30 60 1 34 56
M  V30 61 1 34 57
M  V30 END BOND
M  V30 END CTAB
M  END
>  <Dataset>  (7) 
ChEMBL_Kinases

>  <Ligand_Instance>  (7) 
nan

>  <PDB_ID>  (7) 
nan

>  <Standardized_SMILES>  (7) 
COC(=O)N1CCN(c2cccc(-n3ncc4cnc(-c5c(F)cccc5OC)cc43)n2)CC1

>  <Name>  (7) 
nan

>  <Pocket>  (7) 
nan

>  <ATP_Site>  (7) 
nan

>  <Peripheral>  (7) 
nan

>  <Num_H_Atoms_ProtBoundConf>  (7) 
nan

>  <Num_Resolved_Atoms>  (7) 
nan

>  <Num_Not_Resolved_Atoms>  (7) 
nan

$$$$
CHEMBL4294914
     RDKit          3D

  0  0  0  0  0  0  0  0  0  0999 V3000
M  V30 BEGIN CTAB
M  V30 COUNTS 36 39 0 0 0
M  V30 BEGIN ATOM
M  V30 1 O 0.950571 -0.015280 7.066151 0
M  V30 2 C 0.535402 0.331263 5.943501 0
M  V30 3 N 0.182141 1.551967 5.546482 0
M  V30 4 C -0.204863 1.491485 4.268744 0
M  V30 5 C -0.660256 2.443381 3.382112 0
M  V30 6 C -0.975034 2.015226 2.114169 0
M  V30 7 C -0.882021 0.722682 1.632986 0
M  V30 8 C -1.239355 0.357177 0.265297 0
M  V30 9 N -1.066847 -0.911251 0.053458 0
M  V30 10 N -1.322794 -1.558956 -1.159997 0
M  V30 11 C -1.771006 -0.884396 -2.192826 0
M  V30 12 N -1.986524 -1.662544 -3.354687 0
M  V30 13 C -1.129239 -2.689738 -3.818131 0
M  V30 14 C 0.060690 -3.074665 -3.249422 0
M  V30 15 C 0.880533 -4.078897 -3.709156 0
M  V30 16 C 0.509933 -4.774967 -4.826830 0
M  V30 17 C -0.671871 -4.437248 -5.443353 0
M  V30 18 F -1.055225 -5.111352 -6.546633 0
M  V30 19 C -1.460497 -3.422862 -4.945264 0
M  V30 20 S -2.124252 0.889153 -2.250716 0
M  V30 21 C -1.716699 1.483677 -0.582180 0
M  V30 22 C -0.414997 -0.156244 2.601147 0
M  V30 23 C -0.073589 0.171553 3.894009 0
M  V30 24 N 0.385996 -0.559148 4.927410 0
M  V30 25 H 0.181019 2.445068 6.081574 0
M  V30 26 H -0.762428 3.477955 3.678025 0
M  V30 27 H -1.332264 2.806117 1.445555 0
M  V30 28 H -2.858431 -1.461269 -3.930313 0
M  V30 29 H 0.404358 -2.558813 -2.369232 0
M  V30 30 H 1.811223 -4.322010 -3.197197 0
M  V30 31 H 1.144692 -5.562443 -5.194355 0
M  V30 32 H -2.377163 -3.209419 -5.479284 0
M  V30 33 H -2.605260 1.984303 -0.113602 0
M  V30 34 H -0.966973 2.282844 -0.727192 0
M  V30 35 H -0.310449 -1.212126 2.300128 0
M  V30 36 H 0.590082 -1.581486 4.965271 0
M  V30 END ATOM
M  V30 BEGIN BOND
M  V30 1 2 1 2
M  V30 2 1 2 3
M  V30 3 1 3 4
M  V30 4 2 4 5
M  V30 5 1 5 6
M  V30 6 2 6 7
M  V30 7 1 7 8
M  V30 8 2 8 9
M  V30 9 1 9 10
M  V30 10 2 10 11
M  V30 11 1 11 12
M  V30 12 1 12 13
M  V30 13 2 13 14
M  V30 14 1 14 15
M  V30 15 2 15 16
M  V30 16 1 16 17
M  V30 17 1 17 18
M  V30 18 2 17 19
M  V30 19 1 11 20
M  V30 20 1 20 21
M  V30 21 1 7 22
M  V30 22 2 22 23
M  V30 23 1 23 24
M  V30 24 1 24 2
M  V30 25 1 23 4
M  V30 26 1 21 8
M  V30 27 1 19 13
M  V30 28 1 3 25
M  V30 29 1 5 26
M  V30 30 1 6 27
M  V30 31 1 12 28
M  V30 32 1 14 29
M  V30 33 1 15 30
M  V30 34 1 16 31
M  V30 35 1 19 32
M  V30 36 1 21 33
M  V30 37 1 21 34
M  V30 38 1 22 35
M  V30 39 1 24 36
M  V30 END BOND
M  V30 END CTAB
M  END
>  <Dataset>  (8) 
ChEMBL_Kinases

>  <Ligand_Instance>  (8) 
nan

>  <PDB_ID>  (8) 
nan

>  <Standardized_SMILES>  (8) 
O=c1[nH]c2ccc(C3=NN=C(Nc4cccc(F)c4)SC3)cc2[nH]1

>  <Name>  (8) 
nan

>  <Pocket>  (8) 
nan

>  <ATP_Site>  (8) 
nan

>  <Peripheral>  (8) 
nan

>  <Num_H_Atoms_ProtBoundConf>  (8) 
nan

>  <Num_Resolved_Atoms>  (8) 
nan

>  <Num_Not_Resolved_Atoms>  (8) 
nan

$$$$
CHEMBL4755408
     RDKit          3D

  0  0  0  0  0  0  0  0  0  0999 V3000
M  V30 BEGIN CTAB
M  V30 COUNTS 84 86 0 0 0
M  V30 BEGIN ATOM
M  V30 1 C 4.834162 -1.144753 0.746455 0
M  V30 2 O 4.202572 -1.510518 1.959706 0
M  V30 3 C 2.877414 -1.921224 1.921170 0
M  V30 4 C 2.132431 -1.992732 0.753416 0
M  V30 5 C 0.800907 -2.414715 0.784847 0
M  V30 6 C 0.256745 -2.759173 2.027532 0
M  V30 7 C 1.019916 -2.681016 3.191696 0
M  V30 8 O 0.339680 -3.054602 4.342631 0
M  V30 9 C 0.352103 -4.413945 4.774814 0
M  V30 10 C 2.337655 -2.259434 3.136279 0
M  V30 11 C 3.092064 -2.194582 4.424816 0
M  V30 12 C 3.225422 -0.801729 4.907090 0
M  V30 13 C 2.797891 -0.274043 6.048516 0
M  V30 14 C 2.079080 -1.136709 7.026009 0
M  V30 15 C 3.055872 1.154008 6.295675 0
M  V30 16 C -1.146643 -3.199136 1.942794 0
M  V30 17 O -1.821503 -2.972041 2.985713 0
M  V30 18 C -1.479554 -3.818363 0.652941 0
M  V30 19 C -1.256977 -2.858630 -0.535745 0
M  V30 20 C -2.261146 -1.825835 -0.489038 0
M  V30 21 C -3.539650 -2.283909 -0.192533 0
M  V30 22 C -4.632284 -1.433200 -0.039936 0
M  V30 23 C -4.489665 -0.047118 -0.181803 0
M  V30 24 O -5.525087 0.862312 -0.042939 0
M  V30 25 C -6.834288 0.438969 0.260918 0
M  V30 26 C -3.209366 0.364437 -0.477591 0
M  V30 27 O -3.064771 1.762344 -0.621720 0
M  V30 28 C -2.743008 2.449932 0.588350 0
M  V30 29 C -2.104611 -0.487505 -0.633867 0
M  V30 30 C -0.865987 0.172073 -1.044809 0
M  V30 31 C -0.811729 0.011060 -2.553332 0
M  V30 32 C -0.012526 -0.452760 -3.486039 0
M  V30 33 C 1.276053 -1.025284 -3.064985 0
M  V30 34 C -0.379070 -0.410502 -4.916537 0
M  V30 35 C 0.560058 0.372294 -5.775797 0
M  V30 36 C 0.703039 1.784632 -5.404917 0
M  V30 37 C 0.556825 3.041750 -5.811629 0
M  V30 38 C 0.876117 4.251905 -4.963411 0
M  V30 39 C 0.070028 3.542092 -7.125920 0
M  V30 40 O 0.094712 -2.459450 -0.443263 0
M  V30 41 H 5.848234 -0.735755 1.023465 0
M  V30 42 H 4.247537 -0.364826 0.197065 0
M  V30 43 H 5.004837 -2.011942 0.076526 0
M  V30 44 H 2.670222 -1.701973 -0.135256 0
M  V30 45 H -0.041312 -4.500027 5.794849 0
M  V30 46 H 1.369544 -4.842985 4.753995 0
M  V30 47 H -0.262026 -5.058095 4.109132 0
M  V30 48 H 4.103776 -2.650371 4.209503 0
M  V30 49 H 2.645172 -2.852799 5.175781 0
M  V30 50 H 3.754578 -0.220380 4.161384 0
M  V30 51 H 1.357609 -0.535829 7.638687 0
M  V30 52 H 2.794468 -1.563682 7.781356 0
M  V30 53 H 1.483608 -1.937025 6.575365 0
M  V30 54 H 3.854207 1.243889 7.070053 0
M  V30 55 H 3.232799 1.741830 5.396919 0
M  V30 56 H 2.137237 1.579670 6.796272 0
M  V30 57 H -0.801285 -4.712929 0.510100 0
M  V30 58 H -2.501441 -4.217733 0.689846 0
M  V30 59 H -1.381682 -3.477542 -1.444050 0
M  V30 60 H -3.949240 -3.273721 -0.043574 0
M  V30 61 H -5.671825 -1.706142 0.193457 0
M  V30 62 H -6.863211 -0.244712 1.152584 0
M  V30 63 H -7.275696 -0.103413 -0.597723 0
M  V30 64 H -7.489872 1.281948 0.520630 0
M  V30 65 H -2.061542 3.314562 0.377888 0
M  V30 66 H -2.159613 1.800059 1.269472 0
M  V30 67 H -3.644238 2.883699 1.061128 0
M  V30 68 H -0.966181 1.264642 -0.892685 0
M  V30 69 H 0.059355 -0.166286 -0.588483 0
M  V30 70 H -1.754539 0.424831 -2.969679 0
M  V30 71 H 1.300002 -2.107938 -3.120876 0
M  V30 72 H 2.115487 -0.638974 -3.711672 0
M  V30 73 H 1.526510 -0.747319 -1.997013 0
M  V30 74 H -0.348903 -1.460415 -5.291808 0
M  V30 75 H -1.442843 -0.100601 -5.063926 0
M  V30 76 H 0.156921 0.274954 -6.827870 0
M  V30 77 H 1.526739 -0.174125 -5.818830 0
M  V30 78 H 1.079637 1.695950 -4.390786 0
M  V30 79 H 1.696350 4.808621 -5.426348 0
M  V30 80 H 0.013230 4.899345 -4.809474 0
M  V30 81 H 1.284907 3.848822 -3.994946 0
M  V30 82 H 0.746651 4.309347 -7.570601 0
M  V30 83 H -0.885204 4.104346 -6.918229 0
M  V30 84 H -0.205578 2.742962 -7.836852 0
M  V30 END ATOM
M  V30 BEGIN BOND
M  V30 1 1 1 2
M  V30 2 1 2 3
M  V30 3 2 3 4
M  V30 4 1 4 5
M  V30 5 2 5 6
M  V30 6 1 6 7
M  V30 7 1 7 8
M  V30 8 1 8 9
M  V30 9 2 7 10
M  V30 10 1 10 11
M  V30 11 1 11 12
M  V30 12 2 12 13 CFG=2
M  V30 13 1 13 14
M  V30 14 1 13 15
M  V30 15 1 6 16
M  V30 16 2 16 17
M  V30 17 1 16 18
M  V30 18 1 18 19
M  V30 19 1 19 20
M  V30 20 2 20 21
M  V30 21 1 21 22
M  V30 22 2 22 23
M  V30 23 1 23 24
M  V30 24 1 24 25
M  V30 25 1 23 26
M  V30 26 1 26 27
M  V30 27 1 27 28
M  V30 28 2 26 29
M  V30 29 1 29 30
M  V30 30 1 30 31
M  V30 31 2 31 32
M  V30 32 1 32 33
M  V30 33 1 32 34
M  V30 34 1 34 35
M  V30 35 1 35 36
M  V30 36 2 36 37 CFG=2
M  V30 37 1 37 38
M  V30 38 1 37 39
M  V30 39 1 19 40
M  V30 40 1 10 3
M  V30 41 1 29 20
M  V30 42 1 40 5
M  V30 43 1 1 41
M  V30 44 1 1 42
M  V30 45 1 1 43
M  V30 46 1 4 44
M  V30 47 1 9 45
M  V30 48 1 9 46
M  V30 49 1 9 47
M  V30 50 1 11 48
M  V30 51 1 11 49
M  V30 52 1 12 50
M  V30 53 1 14 51
M  V30 54 1 14 52
M  V30 55 1 14 53
M  V30 56 1 15 54
M  V30 57 1 15 55
M  V30 58 1 15 56
M  V30 59 1 18 57
M  V30 60 1 18 58
M  V30 61 1 19 59
M  V30 62 1 21 60
M  V30 63 1 22 61
M  V30 64 1 25 62
M  V30 65 1 25 63
M  V30 66 1 25 64
M  V30 67 1 28 65
M  V30 68 1 28 66
M  V30 69 1 28 67
M  V30 70 1 30 68
M  V30 71 1 30 69
M  V30 72 1 31 70
M  V30 73 1 33 71
M  V30 74 1 33 72
M  V30 75 1 33 73
M  V30 76 1 34 74
M  V30 77 1 34 75
M  V30 78 1 35 76
M  V30 79 1 35 77
M  V30 80 1 36 78
M  V30 81 1 38 79
M  V30 82 1 38 80
M  V30 83 1 38 81
M  V30 84 1 39 82
M  V30 85 1 39 83
M  V30 86 1 39 84
M  V30 END BOND
M  V30 END CTAB
M  END
>  <Dataset>  (9) 
ChEMBL_Kinases

>  <Ligand_Instance>  (9) 
nan

>  <PDB_ID>  (9) 
nan

>  <Standardized_SMILES>  (9) 
COc1cc2c(c(OC)c1CC=C(C)C)C(=O)CC(c1ccc(OC)c(OC)c1C/C=C(\C)CCC=C(C)C)O2

>  <Name>  (9) 
nan

>  <Pocket>  (9) 
nan

>  <ATP_Site>  (9) 
nan

>  <Peripheral>  (9) 
nan

>  <Num_H_Atoms_ProtBoundConf>  (9) 
nan

>  <Num_Resolved_Atoms>  (9) 
nan

>  <Num_Not_Resolved_Atoms>  (9) 
nan

$$$$
CHEMBL4755445
     RDKit          3D

  0  0  0  0  0  0  0  0  0  0999 V3000
M  V30 BEGIN CTAB
M  V30 COUNTS 67 71 0 0 0
M  V30 BEGIN ATOM
M  V30 1 N 3.794766 -0.265991 7.007450 0
M  V30 2 C 2.451915 -0.378608 6.590471 0
M  V30 3 O 1.813951 -0.765481 7.580798 0
M  V30 4 C 2.144134 -0.036870 5.188023 0
M  V30 5 S 3.411383 0.506107 3.974157 0
M  V30 6 C 2.118884 0.684588 2.601585 0
M  V30 7 C 2.698197 1.143224 1.310156 0
M  V30 8 C 4.005054 1.383276 1.066782 0
M  V30 9 C 4.516579 1.820269 -0.130912 0
M  V30 10 N 3.616938 2.018021 -1.129885 0
M  V30 11 C 2.281954 1.794571 -0.952222 0
M  V30 12 N 1.440989 2.043811 -2.067131 0
M  V30 13 C 0.843995 1.506546 -3.229889 0
M  V30 14 O 1.118385 0.287856 -3.454736 0
M  V30 15 C -0.017983 2.438694 -4.023864 0
M  V30 16 C -1.220056 1.756977 -4.605296 0
M  V30 17 C -0.062265 2.139726 -5.487772 0
M  V30 18 C 1.822214 1.349007 0.293729 0
M  V30 19 N 1.157074 0.377261 3.147001 0
M  V30 20 C 0.990407 -0.001136 4.401255 0
M  V30 21 O -0.091988 -0.374478 5.121767 0
M  V30 22 C -1.406722 -0.542282 4.943208 0
M  V30 23 C -2.121801 -1.553896 4.141183 0
M  V30 24 C -1.771383 -1.706283 2.740078 0
M  V30 25 C -2.771683 -2.680466 2.019022 0
M  V30 26 C -2.040990 -3.168373 0.798646 0
M  V30 27 N -1.054003 -2.212005 0.397258 0
M  V30 28 C -0.519244 -2.482419 -0.925474 0
M  V30 29 C -1.527655 -2.497981 -1.991123 0
M  V30 30 C -2.087945 -1.353453 -2.507048 0
M  V30 31 F -1.642401 -0.203941 -1.955899 0
M  V30 32 C -3.027543 -1.500700 -3.510595 0
M  V30 33 C -3.414455 -2.716285 -4.000954 0
M  V30 34 C -2.828786 -3.846312 -3.456690 0
M  V30 35 C -1.875573 -3.752258 -2.442734 0
M  V30 36 F -1.356328 -4.913982 -1.972053 0
M  V30 37 C 0.099156 -2.374102 1.295047 0
M  V30 38 C -0.452328 -2.555060 2.673382 0
M  V30 39 H 4.415747 0.352926 7.566643 0
M  V30 40 H 4.739305 -0.746780 6.938530 0
M  V30 41 H 4.726221 1.230191 1.852220 0
M  V30 42 H 5.577390 1.991529 -0.258977 0
M  V30 43 H 1.256042 3.060515 -1.808830 0
M  V30 44 H -0.153133 3.485000 -3.678470 0
M  V30 45 H -1.381889 0.668625 -4.494573 0
M  V30 46 H -2.146837 2.323766 -4.788379 0
M  V30 47 H 0.530962 1.328911 -5.930106 0
M  V30 48 H -0.209952 2.984997 -6.200981 0
M  V30 49 H 0.768145 1.174657 0.428226 0
M  V30 50 H -1.957809 -0.505291 5.995545 0
M  V30 51 H -1.803473 0.522210 4.597438 0
M  V30 52 H -3.251306 -1.433302 4.301111 0
M  V30 53 H -1.886244 -2.561905 4.656862 0
M  V30 54 H -1.726117 -0.808561 2.168565 0
M  V30 55 H -3.085248 -3.460400 2.716345 0
M  V30 56 H -3.600789 -2.050626 1.716028 0
M  V30 57 H -2.740918 -3.443520 -0.021917 0
M  V30 58 H -1.527171 -4.114361 1.057916 0
M  V30 59 H 0.132104 -3.379671 -0.929756 0
M  V30 60 H 0.183812 -1.632653 -1.150713 0
M  V30 61 H -3.435382 -0.566647 -3.878645 0
M  V30 62 H -4.156638 -2.760372 -4.790200 0
M  V30 63 H -3.171268 -4.800337 -3.884490 0
M  V30 64 H 0.617946 -3.342039 1.031674 0
M  V30 65 H 0.818821 -1.562742 1.177167 0
M  V30 66 H -0.759573 -3.630107 2.848201 0
M  V30 67 H 0.203171 -2.191802 3.421616 0
M  V30 END ATOM
M  V30 BEGIN BOND
M  V30 1 1 1 2
M  V30 2 2 2 3
M  V30 3 1 2 4
M  V30 4 1 4 5
M  V30 5 1 5 6
M  V30 6 1 6 7
M  V30 7 2 7 8
M  V30 8 1 8 9
M  V30 9 2 9 10
M  V30 10 1 10 11
M  V30 11 1 11 12
M  V30 12 1 12 13
M  V30 13 2 13 14
M  V30 14 1 13 15
M  V30 15 1 15 16
M  V30 16 1 16 17
M  V30 17 2 11 18
M  V30 18 2 6 19
M  V30 19 1 19 20
M  V30 20 1 20 21
M  V30 21 1 21 22
M  V30 22 1 22 23
M  V30 23 1 23 24
M  V30 24 1 24 25
M  V30 25 1 25 26
M  V30 26 1 26 27
M  V30 27 1 27 28
M  V30 28 1 28 29
M  V30 29 2 29 30
M  V30 30 1 30 31
M  V30 31 1 30 32
M  V30 32 2 32 33
M  V30 33 1 33 34
M  V30 34 2 34 35
M  V30 35 1 35 36
M  V30 36 1 27 37
M  V30 37 1 37 38
M  V30 38 2 20 4
M  V30 39 1 38 24
M  V30 40 1 18 7
M  V30 41 1 35 29
M  V30 42 1 17 15
M  V30 43 1 1 39
M  V30 44 1 1 40
M  V30 45 1 8 41
M  V30 46 1 9 42
M  V30 47 1 12 43
M  V30 48 1 15 44
M  V30 49 1 16 45
M  V30 50 1 16 46
M  V30 51 1 17 47
M  V30 52 1 17 48
M  V30 53 1 18 49
M  V30 54 1 22 50
M  V30 55 1 22 51
M  V30 56 1 23 52
M  V30 57 1 23 53
M  V30 58 1 24 54
M  V30 59 1 25 55
M  V30 60 1 25 56
M  V30 61 1 26 57
M  V30 62 1 26 58
M  V30 63 1 28 59
M  V30 64 1 28 60
M  V30 65 1 32 61
M  V30 66 1 33 62
M  V30 67 1 34 63
M  V30 68 1 37 64
M  V30 69 1 37 65
M  V30 70 1 38 66
M  V30 71 1 38 67
M  V30 END BOND
M  V30 END CTAB
M  END
>  <Dataset>  (10) 
ChEMBL_Kinases

>  <Ligand_Instance>  (10) 
nan

>  <PDB_ID>  (10) 
nan

>  <Standardized_SMILES>  (10) 
NC(=O)c1sc(-c2ccnc(NC(=O)C3CC3)c2)nc1OCCC1CCN(Cc2c(F)cccc2F)CC1

>  <Name>  (10) 
nan

>  <Pocket>  (10) 
nan

>  <ATP_Site>  (10) 
nan

>  <Peripheral>  (10) 
nan

>  <Num_H_Atoms_ProtBoundConf>  (10) 
nan

>  <Num_Resolved_Atoms>  (10) 
nan

>  <Num_Not_Resolved_Atoms>  (10) 
nan

$$$$
CHEMBL4294787
     RDKit          3D

  0  0  0  0  0  0  0  0  0  0999 V3000
M  V30 BEGIN CTAB
M  V30 COUNTS 65 70 0 0 0
M  V30 BEGIN ATOM
M  V30 1 S 3.917322 -0.613205 0.212117 0
M  V30 2 C 3.001637 -0.336620 1.532981 0
M  V30 3 N 3.667964 0.321413 2.602534 0
M  V30 4 C 5.028492 0.729394 2.575241 0
M  V30 5 C 6.032497 -0.131307 3.011272 0
M  V30 6 C 7.391920 0.120613 3.044117 0
M  V30 7 C 7.769105 1.373651 2.587749 0
M  V30 8 C 6.833990 2.286747 2.137806 0
M  V30 9 C 5.486897 1.969407 2.131938 0
M  V30 10 N 1.636420 -0.724163 1.611466 0
M  V30 11 N 0.985337 -1.369606 0.564142 0
M  V30 12 C -0.279698 -1.412004 0.776765 0
M  V30 13 C -1.242695 -2.023775 -0.135820 0
M  V30 14 C -2.594180 -2.029578 0.166722 0
M  V30 15 C -3.529725 -2.598550 -0.674782 0
M  V30 16 C -3.106885 -3.184819 -1.863298 0
M  V30 17 O -4.164728 -3.710253 -2.595642 0
M  V30 18 C -3.968205 -4.355572 -3.842046 0
M  V30 19 C -5.256873 -4.825753 -4.418513 0
M  V30 20 C -6.076115 -4.086647 -5.262086 0
M  V30 21 C -7.245930 -4.656914 -5.719365 0
M  V30 22 C -7.640987 -5.933790 -5.375403 0
M  V30 23 C -6.808754 -6.655665 -4.531779 0
M  V30 24 C -5.632161 -6.106889 -4.060422 0
M  V30 25 C -1.762885 -3.188293 -2.181204 0
M  V30 26 C -0.849434 -2.611969 -1.320966 0
M  V30 27 C -0.626771 -0.760071 2.057389 0
M  V30 28 C 0.715047 -0.545144 2.705277 0
M  V30 29 C 0.820314 0.873650 3.192208 0
M  V30 30 C 0.868712 1.270341 4.508504 0
M  V30 31 C 0.963657 2.611376 4.815816 0
M  V30 32 C 1.007024 3.515593 3.775803 0
M  V30 33 C 0.960913 3.155779 2.444354 0
M  V30 34 C 0.864596 1.793680 2.138270 0
M  V30 35 O 1.013535 4.174059 1.506923 0
M  V30 36 C 0.295417 5.367686 1.756162 0
M  V30 37 C 0.429323 5.812302 3.176452 0
M  V30 38 O 1.101981 4.884510 3.977607 0
M  V30 39 H 3.531658 0.685139 3.563646 0
M  V30 40 H 5.709217 -1.107030 3.363617 0
M  V30 41 H 8.062821 -0.638636 3.407935 0
M  V30 42 H 8.823630 1.617819 2.593998 0
M  V30 43 H 7.111402 3.270308 1.777809 0
M  V30 44 H 4.716343 2.647300 1.790860 0
M  V30 45 H -2.898151 -1.567419 1.096825 0
M  V30 46 H -4.565279 -2.541984 -0.329457 0
M  V30 47 H -3.541042 -3.632843 -4.574138 0
M  V30 48 H -3.260457 -5.201340 -3.778974 0
M  V30 49 H -5.723642 -3.101408 -5.498170 0
M  V30 50 H -7.863772 -4.042214 -6.381754 0
M  V30 51 H -8.586228 -6.329146 -5.774864 0
M  V30 52 H -7.169507 -7.655808 -4.293769 0
M  V30 53 H -5.073764 -6.779943 -3.407722 0
M  V30 54 H -1.529093 -3.665188 -3.122376 0
M  V30 55 H 0.185184 -2.632413 -1.598768 0
M  V30 56 H -1.204174 -1.431711 2.729231 0
M  V30 57 H -1.173958 0.195674 1.907881 0
M  V30 58 H 0.901032 -1.256982 3.537944 0
M  V30 59 H 0.829360 0.499162 5.244875 0
M  V30 60 H 1.003103 2.944023 5.841837 0
M  V30 61 H 0.829090 1.515165 1.086330 0
M  V30 62 H 0.652023 6.178715 1.082322 0
M  V30 63 H -0.789988 5.204257 1.494831 0
M  V30 64 H -0.597098 6.009820 3.588798 0
M  V30 65 H 0.934146 6.809265 3.227755 0
M  V30 END ATOM
M  V30 BEGIN BOND
M  V30 1 2 1 2
M  V30 2 1 2 3
M  V30 3 1 3 4
M  V30 4 2 4 5
M  V30 5 1 5 6
M  V30 6 2 6 7
M  V30 7 1 7 8
M  V30 8 2 8 9
M  V30 9 1 2 10
M  V30 10 1 10 11
M  V30 11 2 11 12
M  V30 12 1 12 13
M  V30 13 2 13 14
M  V30 14 1 14 15
M  V30 15 2 15 16
M  V30 16 1 16 17
M  V30 17 1 17 18
M  V30 18 1 18 19
M  V30 19 2 19 20
M  V30 20 1 20 21
M  V30 21 2 21 22
M  V30 22 1 22 23
M  V30 23 2 23 24
M  V30 24 1 16 25
M  V30 25 2 25 26
M  V30 26 1 12 27
M  V30 27 1 27 28
M  V30 28 1 28 29
M  V30 29 2 29 30
M  V30 30 1 30 31
M  V30 31 2 31 32
M  V30 32 1 32 33
M  V30 33 2 33 34
M  V30 34 1 33 35
M  V30 35 1 35 36
M  V30 36 1 36 37
M  V30 37 1 37 38
M  V30 38 1 9 4
M  V30 39 1 28 10
M  V30 40 1 34 29
M  V30 41 1 26 13
M  V30 42 1 38 32
M  V30 43 1 24 19
M  V30 44 1 3 39
M  V30 45 1 5 40
M  V30 46 1 6 41
M  V30 47 1 7 42
M  V30 48 1 8 43
M  V30 49 1 9 44
M  V30 50 1 14 45
M  V30 51 1 15 46
M  V30 52 1 18 47
M  V30 53 1 18 48
M  V30 54 1 20 49
M  V30 55 1 21 50
M  V30 56 1 22 51
M  V30 57 1 23 52
M  V30 58 1 24 53
M  V30 59 1 25 54
M  V30 60 1 26 55
M  V30 61 1 27 56
M  V30 62 1 27 57
M  V30 63 1 28 58
M  V30 64 1 30 59
M  V30 65 1 31 60
M  V30 66 1 34 61
M  V30 67 1 36 62
M  V30 68 1 36 63
M  V30 69 1 37 64
M  V30 70 1 37 65
M  V30 END BOND
M  V30 END CTAB
M  END
>  <Dataset>  (11) 
ChEMBL_Kinases

>  <Ligand_Instance>  (11) 
nan

>  <PDB_ID>  (11) 
nan

>  <Standardized_SMILES>  (11) 
S=C(Nc1ccccc1)N1N=C(c2ccc(OCc3ccccc3)cc2)CC1c1ccc2c(c1)OCCO2

>  <Name>  (11) 
nan

>  <Pocket>  (11) 
nan

>  <ATP_Site>  (11) 
nan

>  <Peripheral>  (11) 
nan

>  <Num_H_Atoms_ProtBoundConf>  (11) 
nan

>  <Num_Resolved_Atoms>  (11) 
nan

>  <Num_Not_Resolved_Atoms>  (11) 
nan

$$$$
CHEMBL4294776
     RDKit          3D

  0  0  0  0  0  0  0  0  0  0999 V3000
M  V30 BEGIN CTAB
M  V30 COUNTS 67 72 0 0 0
M  V30 BEGIN ATOM
M  V30 1 C 8.446552 2.994268 4.294586 0
M  V30 2 N 7.463801 3.793462 3.601156 0
M  V30 3 C 6.333022 4.156446 4.402441 0
M  V30 4 C 5.027080 3.561163 3.914468 0
M  V30 5 C 5.157719 2.086378 3.721830 0
M  V30 6 C 3.934010 1.645399 2.924572 0
M  V30 7 N 3.509498 1.939033 1.931811 0
M  V30 8 C 2.428947 1.528790 1.254017 0
M  V30 9 C 2.017858 2.105314 -0.030513 0
M  V30 10 C 1.624436 1.319806 -1.197906 0
M  V30 11 C 0.622719 2.185665 -0.559326 0
M  V30 12 C 1.703154 0.550741 1.916030 0
M  V30 13 C 0.525672 -0.256450 1.721480 0
M  V30 14 C 0.141743 -0.993132 2.819842 0
M  V30 15 C -0.946835 -1.834576 2.758368 0
M  V30 16 N -1.615871 -1.912105 1.599452 0
M  V30 17 C -1.276000 -1.214270 0.509561 0
M  V30 18 N -1.908642 -1.226247 -0.760472 0
M  V30 19 C -3.027407 -2.008276 -1.142831 0
M  V30 20 C -3.581255 -1.891975 -2.427459 0
M  V30 21 C -4.664794 -2.634253 -2.844187 0
M  V30 22 C -5.265002 -3.541421 -2.003488 0
M  V30 23 N -6.374880 -4.297660 -2.459648 0
M  V30 24 C -6.916173 -4.332986 -3.803946 0
M  V30 25 C -7.371311 -5.715023 -4.195547 0
M  V30 26 N -6.715489 -6.755534 -3.432622 0
M  V30 27 C -6.899758 -6.641313 -2.013243 0
M  V30 28 C -7.222489 -5.195155 -1.706083 0
M  V30 29 C -4.770190 -3.703963 -0.728872 0
M  V30 30 C -3.684172 -2.935895 -0.362678 0
M  V30 31 N -0.244900 -0.466174 0.693750 0
M  V30 32 S 2.718701 0.347700 3.499169 0
M  V30 33 C 6.410826 1.748590 2.941120 0
M  V30 34 C 7.015785 3.043029 2.444306 0
M  V30 35 H 9.333032 3.623441 4.579802 0
M  V30 36 H 8.884364 2.181138 3.668222 0
M  V30 37 H 8.020364 2.575955 5.243750 0
M  V30 38 H 6.492248 3.749380 5.429726 0
M  V30 39 H 6.209390 5.252082 4.537062 0
M  V30 40 H 4.600695 4.089407 3.059479 0
M  V30 41 H 4.291387 3.710963 4.752023 0
M  V30 42 H 5.082084 1.494327 4.654064 0
M  V30 43 H 2.588118 3.058719 -0.348972 0
M  V30 44 H 1.961151 1.667999 -2.230332 0
M  V30 45 H 1.479481 0.249032 -1.219344 0
M  V30 46 H -0.141117 1.973183 0.163039 0
M  V30 47 H 0.320200 3.127699 -1.147457 0
M  V30 48 H 0.579444 -1.038877 3.828792 0
M  V30 49 H -1.294655 -2.426875 3.569813 0
M  V30 50 H -1.533013 -0.603951 -1.515661 0
M  V30 51 H -3.115195 -1.169266 -3.118167 0
M  V30 52 H -4.980179 -2.435208 -3.855099 0
M  V30 53 H -7.789182 -3.653558 -3.913431 0
M  V30 54 H -6.110884 -3.965972 -4.486431 0
M  V30 55 H -8.466245 -5.779719 -4.151515 0
M  V30 56 H -7.069779 -5.872826 -5.255455 0
M  V30 57 H -5.687808 -6.772806 -3.609250 0
M  V30 58 H -6.033680 -6.955126 -1.434418 0
M  V30 59 H -7.823170 -7.222603 -1.770259 0
M  V30 60 H -8.307602 -4.983805 -1.804634 0
M  V30 61 H -6.994282 -5.050015 -0.631593 0
M  V30 62 H -5.200773 -4.409181 -0.015554 0
M  V30 63 H -3.338522 -3.099215 0.632370 0
M  V30 64 H 6.118348 1.143396 2.055944 0
M  V30 65 H 7.125523 1.163281 3.528372 0
M  V30 66 H 6.295959 3.575123 1.807247 0
M  V30 67 H 7.918708 2.854285 1.823506 0
M  V30 END ATOM
M  V30 BEGIN BOND
M  V30 1 1 1 2
M  V30 2 1 2 3
M  V30 3 1 3 4
M  V30 4 1 4 5
M  V30 5 1 5 6
M  V30 6 2 6 7
M  V30 7 1 7 8
M  V30 8 1 8 9
M  V30 9 1 9 10
M  V30 10 1 10 11
M  V30 11 2 8 12
M  V30 12 1 12 13
M  V30 13 2 13 14
M  V30 14 1 14 15
M  V30 15 2 15 16
M  V30 16 1 16 17
M  V30 17 1 17 18
M  V30 18 1 18 19
M  V30 19 2 19 20
M  V30 20 1 20 21
M  V30 21 2 21 22
M  V30 22 1 22 23
M  V30 23 1 23 24
M  V30 24 1 24 25
M  V30 25 1 25 26
M  V30 26 1 26 27
M  V30 27 1 27 28
M  V30 28 1 22 29
M  V30 29 2 29 30
M  V30 30 2 17 31
M  V30 31 1 12 32
M  V30 32 1 5 33
M  V30 33 1 33 34
M  V30 34 1 34 2
M  V30 35 1 32 6
M  V30 36 1 11 9
M  V30 37 1 31 13
M  V30 38 1 30 19
M  V30 39 1 28 23
M  V30 40 1 1 35
M  V30 41 1 1 36
M  V30 42 1 1 37
M  V30 43 1 3 38
M  V30 44 1 3 39
M  V30 45 1 4 40
M  V30 46 1 4 41
M  V30 47 1 5 42
M  V30 48 1 9 43
M  V30 49 1 10 44
M  V30 50 1 10 45
M  V30 51 1 11 46
M  V30 52 1 11 47
M  V30 53 1 14 48
M  V30 54 1 15 49
M  V30 55 1 18 50
M  V30 56 1 20 51
M  V30 57 1 21 52
M  V30 58 1 24 53
M  V30 59 1 24 54
M  V30 60 1 25 55
M  V30 61 1 25 56
M  V30 62 1 26 57
M  V30 63 1 27 58
M  V30 64 1 27 59
M  V30 65 1 28 60
M  V30 66 1 28 61
M  V30 67 1 29 62
M  V30 68 1 30 63
M  V30 69 1 33 64
M  V30 70 1 33 65
M  V30 71 1 34 66
M  V30 72 1 34 67
M  V30 END BOND
M  V30 END CTAB
M  END
>  <Dataset>  (12) 
ChEMBL_Kinases

>  <Ligand_Instance>  (12) 
nan

>  <PDB_ID>  (12) 
nan

>  <Standardized_SMILES>  (12) 
CN1CCC(c2nc(C3CC3)c(-c3ccnc(Nc4ccc(N5CCNCC5)cc4)n3)s2)CC1

>  <Name>  (12) 
nan

>  <Pocket>  (12) 
nan

>  <ATP_Site>  (12) 
nan

>  <Peripheral>  (12) 
nan

>  <Num_H_Atoms_ProtBoundConf>  (12) 
nan

>  <Num_Resolved_Atoms>  (12) 
nan

>  <Num_Not_Resolved_Atoms>  (12) 
nan

$$$$
CHEMBL4755550
     RDKit          3D

  0  0  0  0  0  0  0  0  0  0999 V3000
M  V30 BEGIN CTAB
M  V30 COUNTS 53 56 0 0 0
M  V30 BEGIN ATOM
M  V30 1 O 0.164526 1.313293 0.918039 0
M  V30 2 C -0.958518 1.431567 0.357818 0
M  V30 3 C -0.981421 2.145253 -0.926490 0
M  V30 4 C 0.353358 2.626304 -1.378009 0
M  V30 5 N 1.351944 1.633585 -1.577463 0
M  V30 6 C 1.009068 0.808057 -2.714307 0
M  V30 7 C 2.043789 -0.261925 -2.932594 0
M  V30 8 C 3.226437 -0.064051 -2.004573 0
M  V30 9 C 3.703553 1.359419 -2.222159 0
M  V30 10 C 2.582272 2.351692 -1.947571 0
M  V30 11 N -2.161090 0.913544 0.912032 0
M  V30 12 C -1.926407 0.250469 2.172673 0
M  V30 13 C -2.038229 1.129701 3.257659 0
M  V30 14 C -1.848203 0.685961 4.547195 0
M  V30 15 C -1.543300 -0.628581 4.811360 0
M  V30 16 C -1.440348 -1.458036 3.731712 0
M  V30 17 C -1.621069 -1.062669 2.447576 0
M  V30 18 C -1.132987 -2.769022 4.256961 0
M  V30 19 C -0.893150 -3.829322 3.524383 0
M  V30 20 C -0.838611 -4.068765 2.103387 0
M  V30 21 C -0.083855 -3.577684 1.026805 0
M  V30 22 C -0.231656 -3.963311 -0.277410 0
M  V30 23 C -1.187114 -4.905303 -0.589025 0
M  V30 24 F -1.270412 -5.232032 -1.899378 0
M  V30 25 C -1.975641 -5.443780 0.403923 0
M  V30 26 Cl -3.162834 -6.632704 -0.082595 0
M  V30 27 C -1.791953 -5.025471 1.704436 0
M  V30 28 C -1.060637 -2.685288 5.708356 0
M  V30 29 O -0.817109 -3.625521 6.493320 0
M  V30 30 N -1.322235 -1.326577 6.026045 0
M  V30 31 H -1.671445 3.018429 -0.784688 0
M  V30 32 H -1.426418 1.510380 -1.710933 0
M  V30 33 H 0.282745 3.234385 -2.301516 0
M  V30 34 H 0.737147 3.347281 -0.602374 0
M  V30 35 H 0.934203 1.408337 -3.652858 0
M  V30 36 H 0.010019 0.351694 -2.552038 0
M  V30 37 H 1.597782 -1.234423 -2.636254 0
M  V30 38 H 2.345614 -0.285867 -3.981138 0
M  V30 39 H 2.959826 -0.183809 -0.951188 0
M  V30 40 H 4.060111 -0.731796 -2.237290 0
M  V30 41 H 4.097055 1.424223 -3.242892 0
M  V30 42 H 4.541819 1.533772 -1.526592 0
M  V30 43 H 2.867722 3.101573 -1.196516 0
M  V30 44 H 2.404634 2.885879 -2.904974 0
M  V30 45 H -3.073343 1.032917 0.414161 0
M  V30 46 H -2.270722 2.178686 3.174492 0
M  V30 47 H -1.929628 1.344520 5.396699 0
M  V30 48 H -1.605173 -1.558017 1.530231 0
M  V30 49 H -0.678149 -4.751047 4.094528 0
M  V30 50 H 0.624001 -2.843769 1.451463 0
M  V30 51 H 0.458409 -3.450928 -0.930649 0
M  V30 52 H -2.479176 -5.530853 2.381408 0
M  V30 53 H -1.349133 -0.904352 6.984413 0
M  V30 END ATOM
M  V30 BEGIN BOND
M  V30 1 2 1 2
M  V30 2 1 2 3
M  V30 3 1 3 4
M  V30 4 1 4 5
M  V30 5 1 5 6
M  V30 6 1 6 7
M  V30 7 1 7 8
M  V30 8 1 8 9
M  V30 9 1 9 10
M  V30 10 1 2 11
M  V30 11 1 11 12
M  V30 12 2 12 13
M  V30 13 1 13 14
M  V30 14 2 14 15
M  V30 15 1 15 16
M  V30 16 2 16 17
M  V30 17 1 16 18
M  V30 18 2 18 19
M  V30 19 1 19 20
M  V30 20 2 20 21
M  V30 21 1 21 22
M  V30 22 2 22 23
M  V30 23 1 23 24
M  V30 24 1 23 25
M  V30 25 1 25 26
M  V30 26 2 25 27
M  V30 27 1 18 28
M  V30 28 2 28 29
M  V30 29 1 28 30
M  V30 30 1 10 5
M  V30 31 1 17 12
M  V30 32 1 27 20
M  V30 33 1 30 15
M  V30 34 1 3 31
M  V30 35 1 3 32
M  V30 36 1 4 33
M  V30 37 1 4 34
M  V30 38 1 6 35
M  V30 39 1 6 36
M  V30 40 1 7 37
M  V30 41 1 7 38
M  V30 42 1 8 39
M  V30 43 1 8 40
M  V30 44 1 9 41
M  V30 45 1 9 42
M  V30 46 1 10 43
M  V30 47 1 10 44
M  V30 48 1 11 45
M  V30 49 1 13 46
M  V30 50 1 14 47
M  V30 51 1 17 48
M  V30 52 1 19 49
M  V30 53 1 21 50
M  V30 54 1 22 51
M  V30 55 1 27 52
M  V30 56 1 30 53
M  V30 END BOND
M  V30 END CTAB
M  END
>  <Dataset>  (13) 
ChEMBL_Kinases

>  <Ligand_Instance>  (13) 
nan

>  <PDB_ID>  (13) 
nan

>  <Standardized_SMILES>  (13) 
O=C(CCN1CCCCC1)Nc1ccc2c(c1)/C(=C\c1ccc(F)c(Cl)c1)C(=O)N2

>  <Name>  (13) 
nan

>  <Pocket>  (13) 
nan

>  <ATP_Site>  (13) 
nan

>  <Peripheral>  (13) 
nan

>  <Num_H_Atoms_ProtBoundConf>  (13) 
nan

>  <Num_Resolved_Atoms>  (13) 
nan

>  <Num_Not_Resolved_Atoms>  (13) 
nan

$$$$
CHEMBL4294525
     RDKit          3D

  0  0  0  0  0  0  0  0  0  0999 V3000
M  V30 BEGIN CTAB
M  V30 COUNTS 82 87 0 0 0
M  V30 BEGIN ATOM
M  V30 1 O -3.189239 -4.471519 -0.887788 0
M  V30 2 C -2.377824 -3.650091 -1.386499 0
M  V30 3 S -1.858654 -3.256262 -3.080841 0
M  V30 4 C -0.256380 -2.595506 -2.561234 0
M  V30 5 C 0.786632 -2.566095 -3.331886 0
M  V30 6 C 0.853613 -3.043336 -4.709061 0
M  V30 7 C -0.183749 -2.865188 -5.624845 0
M  V30 8 C -0.107428 -3.328349 -6.922901 0
M  V30 9 C 1.054506 -3.989660 -7.298754 0
M  V30 10 O 1.110930 -4.447710 -8.610679 0
M  V30 11 C 1.639976 -3.628449 -9.627285 0
M  V30 12 C 2.050616 -2.391311 -9.179094 0
M  V30 13 C 2.584187 -1.527341 -10.125900 0
M  V30 14 C 2.682594 -1.922873 -11.440279 0
M  V30 15 F 3.182003 -1.169099 -12.434205 0
M  V30 16 C 2.259204 -3.180222 -11.863071 0
M  V30 17 C 1.717505 -4.067821 -10.924268 0
M  V30 18 C 2.120028 -4.202539 -6.448975 0
M  V30 19 C 2.008552 -3.718213 -5.135741 0
M  V30 20 C -0.453940 -2.163856 -1.190200 0
M  V30 21 O 0.372552 -1.354670 -0.698735 0
M  V30 22 N -1.619186 -2.760232 -0.584260 0
M  V30 23 C -1.899962 -2.388688 0.786138 0
M  V30 24 C -2.685291 -1.297309 1.094719 0
M  V30 25 C -2.889131 -1.012099 2.434302 0
M  V30 26 C -2.345548 -1.765369 3.488282 0
M  V30 27 O -2.704550 -1.260732 4.672014 0
M  V30 28 C -2.461729 -1.582253 5.984874 0
M  V30 29 C -1.005232 -1.566083 6.371911 0
M  V30 30 C -0.347545 -0.254325 6.143531 0
M  V30 31 C -0.910180 0.911255 6.885605 0
M  V30 32 C -0.049204 2.116462 6.429111 0
M  V30 33 N -0.243867 2.180028 5.012791 0
M  V30 34 C -1.611641 2.588338 4.744104 0
M  V30 35 C -1.625726 3.695443 3.701018 0
M  V30 36 N -0.921773 3.262313 2.475794 0
M  V30 37 C -1.009254 4.384371 1.585721 0
M  V30 38 C -0.534332 4.191632 0.191282 0
M  V30 39 C -1.177777 3.160480 -0.678533 0
M  V30 40 C 0.310749 3.105710 -0.294704 0
M  V30 41 C 0.438967 2.888205 2.821465 0
M  V30 42 C 0.709367 2.985010 4.319281 0
M  V30 43 C -1.579094 -2.832507 3.076490 0
M  V30 44 C -1.331324 -3.178619 1.769303 0
M  V30 45 H 1.674518 -2.136282 -2.871011 0
M  V30 46 H -1.079972 -2.350592 -5.323897 0
M  V30 47 H -0.917017 -3.189853 -7.636570 0
M  V30 48 H 2.008034 -2.007779 -8.172361 0
M  V30 49 H 2.956854 -0.508875 -9.940245 0
M  V30 50 H 2.309157 -3.555578 -12.881218 0
M  V30 51 H 1.378809 -5.052990 -11.217039 0
M  V30 52 H 3.028568 -4.728221 -6.767918 0
M  V30 53 H 2.863444 -3.891098 -4.459011 0
M  V30 54 H -3.091419 -0.736178 0.276451 0
M  V30 55 H -3.531310 -0.122635 2.544389 0
M  V30 56 H -2.979085 -0.838229 6.648146 0
M  V30 57 H -2.906846 -2.570501 6.213964 0
M  V30 58 H -0.505764 -2.411535 5.930713 0
M  V30 59 H -0.979682 -1.745080 7.487236 0
M  V30 60 H -0.392953 -0.018508 5.035618 0
M  V30 61 H 0.745971 -0.293893 6.349166 0
M  V30 62 H -0.812522 0.824574 7.984607 0
M  V30 63 H -1.940528 1.140152 6.554341 0
M  V30 64 H -0.360600 3.035243 6.971495 0
M  V30 65 H 1.021765 1.871364 6.681716 0
M  V30 66 H -2.154810 1.734555 4.341996 0
M  V30 67 H -2.138541 2.980460 5.625998 0
M  V30 68 H -1.227802 4.624503 4.110311 0
M  V30 69 H -2.680027 3.844564 3.402718 0
M  V30 70 H -0.430778 5.229014 2.046582 0
M  V30 71 H -2.074593 4.751537 1.524380 0
M  V30 72 H -0.368132 5.185052 -0.338316 0
M  V30 73 H -1.443129 3.426936 -1.719110 0
M  V30 74 H -1.830529 2.377601 -0.232827 0
M  V30 75 H 0.591697 2.200726 0.262483 0
M  V30 76 H 1.009087 3.320667 -1.162891 0
M  V30 77 H 1.124586 3.559221 2.291600 0
M  V30 78 H 0.669922 1.839605 2.538697 0
M  V30 79 H 1.717487 2.493875 4.447748 0
M  V30 80 H 0.822447 4.018637 4.678602 0
M  V30 81 H -1.177884 -3.396813 3.903096 0
M  V30 82 H -0.708899 -4.045421 1.618587 0
M  V30 END ATOM
M  V30 BEGIN BOND
M  V30 1 2 1 2
M  V30 2 1 2 3
M  V30 3 1 3 4
M  V30 4 2 4 5
M  V30 5 1 5 6
M  V30 6 2 6 7
M  V30 7 1 7 8
M  V30 8 2 8 9
M  V30 9 1 9 10
M  V30 10 1 10 11
M  V30 11 2 11 12
M  V30 12 1 12 13
M  V30 13 2 13 14
M  V30 14 1 14 15
M  V30 15 1 14 16
M  V30 16 2 16 17
M  V30 17 1 9 18
M  V30 18 2 18 19
M  V30 19 1 4 20
M  V30 20 2 20 21
M  V30 21 1 20 22
M  V30 22 1 22 23
M  V30 23 2 23 24
M  V30 24 1 24 25
M  V30 25 2 25 26
M  V30 26 1 26 27
M  V30 27 1 27 28
M  V30 28 1 28 29
M  V30 29 1 29 30
M  V30 30 1 30 31
M  V30 31 1 31 32
M  V30 32 1 32 33
M  V30 33 1 33 34
M  V30 34 1 34 35
M  V30 35 1 35 36
M  V30 36 1 36 37
M  V30 37 1 37 38
M  V30 38 1 38 39
M  V30 39 1 39 40
M  V30 40 1 36 41
M  V30 41 1 41 42
M  V30 42 1 26 43
M  V30 43 2 43 44
M  V30 44 1 22 2
M  V30 45 1 44 23
M  V30 46 1 19 6
M  V30 47 1 42 33
M  V30 48 1 17 11
M  V30 49 1 40 38
M  V30 50 1 5 45
M  V30 51 1 7 46
M  V30 52 1 8 47
M  V30 53 1 12 48
M  V30 54 1 13 49
M  V30 55 1 16 50
M  V30 56 1 17 51
M  V30 57 1 18 52
M  V30 58 1 19 53
M  V30 59 1 24 54
M  V30 60 1 25 55
M  V30 61 1 28 56
M  V30 62 1 28 57
M  V30 63 1 29 58
M  V30 64 1 29 59
M  V30 65 1 30 60
M  V30 66 1 30 61
M  V30 67 1 31 62
M  V30 68 1 31 63
M  V30 69 1 32 64
M  V30 70 1 32 65
M  V30 71 1 34 66
M  V30 72 1 34 67
M  V30 73 1 35 68
M  V30 74 1 35 69
M  V30 75 1 37 70
M  V30 76 1 37 71
M  V30 77 1 38 72
M  V30 78 1 39 73
M  V30 79 1 39 74
M  V30 80 1 40 75
M  V30 81 1 40 76
M  V30 82 1 41 77
M  V30 83 1 41 78
M  V30 84 1 42 79
M  V30 85 1 42 80
M  V30 86 1 43 81
M  V30 87 1 44 82
M  V30 END BOND
M  V30 END CTAB
M  END
>  <Dataset>  (14) 
ChEMBL_Kinases

>  <Ligand_Instance>  (14) 
nan

>  <PDB_ID>  (14) 
nan

>  <Standardized_SMILES>  (14) 
O=C1S/C(=C\c2ccc(Oc3ccc(F)cc3)cc2)C(=O)N1c1ccc(OCCCCCN2CCN(CC3CC3)CC2)cc1

>  <Name>  (14) 
nan

>  <Pocket>  (14) 
nan

>  <ATP_Site>  (14) 
nan

>  <Peripheral>  (14) 
nan

>  <Num_H_Atoms_ProtBoundConf>  (14) 
nan

>  <Num_Resolved_Atoms>  (14) 
nan

>  <Num_Not_Resolved_Atoms>  (14) 
nan

$$$$
CHEMBL4755584
     RDKit          3D

  0  0  0  0  0  0  0  0  0  0999 V3000
M  V30 BEGIN CTAB
M  V30 COUNTS 36 39 0 0 0
M  V30 BEGIN ATOM
M  V30 1 O -0.874452 -2.742385 2.316400 0
M  V30 2 C -0.028918 -1.921269 1.884219 0
M  V30 3 C 1.255962 -2.326282 1.578385 0
M  V30 4 C 1.623857 -3.654732 1.748220 0
M  V30 5 C 2.934366 -4.018692 1.425837 0
M  V30 6 F 3.288463 -5.322942 1.594724 0
M  V30 7 C 3.888198 -3.141301 0.948688 0
M  V30 8 C 3.498177 -1.818031 0.786701 0
M  V30 9 C 2.213152 -1.457063 1.101950 0
M  V30 10 N 1.813006 -0.189114 0.954794 0
M  V30 11 C 2.454432 0.904711 0.527402 0
M  V30 12 S 3.961991 1.168247 0.011937 0
M  V30 13 N 1.608098 1.946419 0.564620 0
M  V30 14 N 0.435998 1.513286 1.013747 0
M  V30 15 C 0.560910 0.194322 1.255209 0
M  V30 16 N -0.391539 -0.634768 1.721656 0
M  V30 17 C -1.742324 -0.217466 2.044131 0
M  V30 18 C -2.633310 -0.355310 0.827601 0
M  V30 19 C -2.204559 0.448012 -0.323117 0
M  V30 20 C -2.601865 1.754726 -0.586622 0
M  V30 21 C -2.136159 2.429048 -1.709785 0
M  V30 22 N -1.295737 1.877709 -2.588813 0
M  V30 23 C -0.867834 0.618110 -2.400920 0
M  V30 24 C -1.325921 -0.059050 -1.287125 0
M  V30 25 H 0.935929 -4.404607 2.117186 0
M  V30 26 H 4.881659 -3.511365 0.724288 0
M  V30 27 H 4.271076 -1.177398 0.414992 0
M  V30 28 H 1.690319 2.970430 0.322501 0
M  V30 29 H -2.186541 -0.829086 2.842581 0
M  V30 30 H -1.685507 0.854131 2.326027 0
M  V30 31 H -3.695098 -0.255291 1.071169 0
M  V30 32 H -2.506984 -1.432032 0.508145 0
M  V30 33 H -3.284924 2.208374 0.124212 0
M  V30 34 H -2.463849 3.435071 -1.880521 0
M  V30 35 H -0.185326 0.107194 -3.073765 0
M  V30 36 H -0.991079 -1.088476 -1.111673 0
M  V30 END ATOM
M  V30 BEGIN BOND
M  V30 1 2 1 2
M  V30 2 1 2 3
M  V30 3 2 3 4
M  V30 4 1 4 5
M  V30 5 1 5 6
M  V30 6 2 5 7
M  V30 7 1 7 8
M  V30 8 2 8 9
M  V30 9 1 9 10
M  V30 10 1 10 11
M  V30 11 2 11 12
M  V30 12 1 11 13
M  V30 13 1 13 14
M  V30 14 2 14 15
M  V30 15 1 15 16
M  V30 16 1 16 17
M  V30 17 1 17 18
M  V30 18 1 18 19
M  V30 19 2 19 20
M  V30 20 1 20 21
M  V30 21 2 21 22
M  V30 22 1 22 23
M  V30 23 2 23 24
M  V30 24 1 16 2
M  V30 25 1 24 19
M  V30 26 1 9 3
M  V30 27 1 15 10
M  V30 28 1 4 25
M  V30 29 1 7 26
M  V30 30 1 8 27
M  V30 31 1 13 28
M  V30 32 1 17 29
M  V30 33 1 17 30
M  V30 34 1 18 31
M  V30 35 1 18 32
M  V30 36 1 20 33
M  V30 37 1 21 34
M  V30 38 1 23 35
M  V30 39 1 24 36
M  V30 END BOND
M  V30 END CTAB
M  END
>  <Dataset>  (15) 
ChEMBL_Kinases

>  <Ligand_Instance>  (15) 
nan

>  <PDB_ID>  (15) 
nan

>  <Standardized_SMILES>  (15) 
O=c1c2cc(F)ccc2n2c(=S)[nH]nc2n1CCc1ccncc1

>  <Name>  (15) 
nan

>  <Pocket>  (15) 
nan

>  <ATP_Site>  (15) 
nan

>  <Peripheral>  (15) 
nan

>  <Num_H_Atoms_ProtBoundConf>  (15) 
nan

>  <Num_Resolved_Atoms>  (15) 
nan

>  <Num_Not_Resolved_Atoms>  (15) 
nan

$$$$
CHEMBL4755345
     RDKit          3D

  0  0  0  0  0  0  0  0  0  0999 V3000
M  V30 BEGIN CTAB
M  V30 COUNTS 73 78 0 0 0
M  V30 BEGIN ATOM
M  V30 1 N -0.107940 -7.696691 1.943216 0
M  V30 2 C 0.409684 -7.190650 0.706264 0
M  V30 3 O 1.120572 -7.875749 -0.062014 0
M  V30 4 C 0.102410 -5.836765 0.325405 0
M  V30 5 S 0.793998 -5.276711 -1.244979 0
M  V30 6 C 0.032681 -3.545694 -1.095404 0
M  V30 7 C 0.367530 -2.701345 -2.250679 0
M  V30 8 C 1.149981 -3.054160 -3.323232 0
M  V30 9 C 1.433004 -2.239993 -4.396341 0
M  V30 10 N 0.884272 -1.001382 -4.365819 0
M  V30 11 C 0.098563 -0.590413 -3.330238 0
M  V30 12 N -0.327252 0.733831 -3.582760 0
M  V30 13 C 0.225670 1.997040 -3.260143 0
M  V30 14 O 1.284823 1.873817 -2.630727 0
M  V30 15 C -0.547508 3.188404 -3.725443 0
M  V30 16 C -2.046937 3.004389 -3.764809 0
M  V30 17 C -1.249631 3.113017 -5.034369 0
M  V30 18 C -0.154047 -1.434784 -2.286059 0
M  V30 19 N -0.534666 -3.619695 -0.065486 0
M  V30 20 C -0.586281 -4.667434 0.727925 0
M  V30 21 O -1.123183 -5.061908 1.917275 0
M  V30 22 C -1.903761 -4.380044 2.815861 0
M  V30 23 C -3.179335 -3.898259 2.175927 0
M  V30 24 O -4.001875 -3.234668 3.034877 0
M  V30 25 C -3.557257 -2.142301 3.685412 0
M  V30 26 C -3.171338 -1.077817 2.771622 0
M  V30 27 C -2.852692 -0.181671 2.030271 0
M  V30 28 C -2.473462 0.911392 1.158693 0
M  V30 29 C -3.443039 1.492688 0.365209 0
M  V30 30 C -3.049183 2.536773 -0.435019 0
M  V30 31 C -1.726481 2.934265 -0.396601 0
M  V30 32 C -0.781055 2.338202 0.401889 0
M  V30 33 C -1.147964 1.284176 1.218803 0
M  V30 34 C 0.026452 0.800750 1.986666 0
M  V30 35 N 1.080314 1.679263 1.520414 0
M  V30 36 C 2.378777 1.468198 2.079738 0
M  V30 37 C 2.942288 0.109745 1.691210 0
M  V30 38 C 4.284154 -0.142427 2.289191 0
M  V30 39 C 4.711429 0.870697 3.288716 0
M  V30 40 O 5.956441 1.119259 3.399978 0
M  V30 41 N 3.735350 1.530520 4.087170 0
M  V30 42 C 2.417004 1.692091 3.548627 0
M  V30 43 O 1.539428 1.991955 4.413776 0
M  V30 44 C 0.638440 2.630174 0.558712 0
M  V30 45 O 1.370542 3.498557 0.010641 0
M  V30 46 H -0.492663 -8.661425 1.790027 0
M  V30 47 H -0.039116 -7.080144 2.779362 0
M  V30 48 H 1.586937 -4.034325 -3.352260 0
M  V30 49 H 2.060918 -2.598215 -5.201881 0
M  V30 50 H -1.232744 0.575646 -4.114735 0
M  V30 51 H -0.133133 4.185491 -3.475809 0
M  V30 52 H -2.489456 2.044060 -3.468395 0
M  V30 53 H -2.685632 3.901143 -3.543973 0
M  V30 54 H -1.304805 4.026713 -5.661105 0
M  V30 55 H -1.184567 2.194901 -5.680132 0
M  V30 56 H -0.780324 -1.046525 -1.504938 0
M  V30 57 H -1.351041 -3.471775 3.173061 0
M  V30 58 H -2.118553 -4.947854 3.751798 0
M  V30 59 H -3.011738 -3.353255 1.239450 0
M  V30 60 H -3.736065 -4.836088 1.878310 0
M  V30 61 H -4.405465 -1.809963 4.363878 0
M  V30 62 H -2.734559 -2.347966 4.423169 0
M  V30 63 H -4.453729 1.133941 0.384301 0
M  V30 64 H -3.791265 3.001810 -1.060099 0
M  V30 65 H -1.416649 3.769042 -1.034237 0
M  V30 66 H -0.120937 1.036776 3.076859 0
M  V30 67 H 0.225212 -0.260817 1.845456 0
M  V30 68 H 3.094068 2.205284 1.638308 0
M  V30 69 H 2.216483 -0.710997 1.864997 0
M  V30 70 H 3.071104 0.140086 0.572359 0
M  V30 71 H 5.086828 -0.244271 1.512058 0
M  V30 72 H 4.325229 -1.129537 2.833028 0
M  V30 73 H 4.037478 1.863992 5.030906 0
M  V30 END ATOM
M  V30 BEGIN BOND
M  V30 1 1 1 2
M  V30 2 2 2 3
M  V30 3 1 2 4
M  V30 4 1 4 5
M  V30 5 1 5 6
M  V30 6 1 6 7
M  V30 7 2 7 8
M  V30 8 1 8 9
M  V30 9 2 9 10
M  V30 10 1 10 11
M  V30 11 1 11 12
M  V30 12 1 12 13
M  V30 13 2 13 14
M  V30 14 1 13 15
M  V30 15 1 15 16
M  V30 16 1 16 17
M  V30 17 2 11 18
M  V30 18 2 6 19
M  V30 19 1 19 20
M  V30 20 1 20 21
M  V30 21 1 21 22
M  V30 22 1 22 23
M  V30 23 1 23 24
M  V30 24 1 24 25
M  V30 25 1 25 26
M  V30 26 3 26 27
M  V30 27 1 27 28
M  V30 28 2 28 29
M  V30 29 1 29 30
M  V30 30 2 30 31
M  V30 31 1 31 32
M  V30 32 2 32 33
M  V30 33 1 33 34
M  V30 34 1 34 35
M  V30 35 1 35 36
M  V30 36 1 36 37
M  V30 37 1 37 38
M  V30 38 1 38 39
M  V30 39 2 39 40
M  V30 40 1 39 41
M  V30 41 1 41 42
M  V30 42 2 42 43
M  V30 43 1 35 44
M  V30 44 2 44 45
M  V30 45 2 20 4
M  V30 46 1 33 28
M  V30 47 1 42 36
M  V30 48 1 18 7
M  V30 49 1 44 32
M  V30 50 1 17 15
M  V30 51 1 1 46
M  V30 52 1 1 47
M  V30 53 1 8 48
M  V30 54 1 9 49
M  V30 55 1 12 50
M  V30 56 1 15 51
M  V30 57 1 16 52
M  V30 58 1 16 53
M  V30 59 1 17 54
M  V30 60 1 17 55
M  V30 61 1 18 56
M  V30 62 1 22 57
M  V30 63 1 22 58
M  V30 64 1 23 59
M  V30 65 1 23 60
M  V30 66 1 25 61
M  V30 67 1 25 62
M  V30 68 1 29 63
M  V30 69 1 30 64
M  V30 70 1 31 65
M  V30 71 1 34 66
M  V30 72 1 34 67
M  V30 73 1 36 68
M  V30 74 1 37 69
M  V30 75 1 37 70
M  V30 76 1 38 71
M  V30 77 1 38 72
M  V30 78 1 41 73
M  V30 END BOND
M  V30 END CTAB
M  END
>  <Dataset>  (16) 
ChEMBL_Kinases

>  <Ligand_Instance>  (16) 
nan

>  <PDB_ID>  (16) 
nan

>  <Standardized_SMILES>  (16) 
NC(=O)c1sc(-c2ccnc(NC(=O)C3CC3)c2)nc1OCCOCC#Cc1cccc2c1CN(C1CCC(=O)NC1=O)C2=O

>  <Name>  (16) 
nan

>  <Pocket>  (16) 
nan

>  <ATP_Site>  (16) 
nan

>  <Peripheral>  (16) 
nan

>  <Num_H_Atoms_ProtBoundConf>  (16) 
nan

>  <Num_Resolved_Atoms>  (16) 
nan

>  <Num_Not_Resolved_Atoms>  (16) 
nan

$$$$
CHEMBL4756416
     RDKit          3D

  0  0  0  0  0  0  0  0  0  0999 V3000
M  V30 BEGIN CTAB
M  V30 COUNTS 40 42 0 0 0
M  V30 BEGIN ATOM
M  V30 1 C 0.264931 -5.435186 0.415720 0
M  V30 2 C -0.061134 -4.016074 0.917767 0
M  V30 3 C -1.544590 -3.917936 0.978511 0
M  V30 4 O 0.572503 -3.188321 0.024276 0
M  V30 5 C 1.600244 -2.449778 0.541987 0
M  V30 6 C 2.198274 -1.621937 -0.566863 0
M  V30 7 C 1.245348 -0.655379 -1.203621 0
M  V30 8 N 0.699775 0.330248 -0.325510 0
M  V30 9 C 1.417352 1.489513 -0.205437 0
M  V30 10 O 2.495629 1.643930 -0.844467 0
M  V30 11 C 1.046947 2.552805 0.590298 0
M  V30 12 C 1.810053 3.691793 0.669631 0
M  V30 13 C 1.346051 4.693410 1.495932 0
M  V30 14 Cl 2.326445 6.151822 1.595299 0
M  V30 15 C 0.180322 4.612408 2.231091 0
M  V30 16 C -0.565042 3.457694 2.131818 0
M  V30 17 C -0.118996 2.449779 1.314229 0
M  V30 18 N -0.822647 1.319598 1.199750 0
M  V30 19 C -1.962658 0.918920 1.750321 0
M  V30 20 S -2.987509 1.613081 2.790397 0
M  V30 21 N -2.264479 -0.302370 1.319459 0
M  V30 22 N -1.302026 -0.691788 0.478440 0
M  V30 23 C -0.422900 0.309104 0.411733 0
M  V30 24 H -0.298185 -5.548105 -0.529419 0
M  V30 25 H 0.016676 -6.186258 1.189795 0
M  V30 26 H 1.340239 -5.420868 0.161233 0
M  V30 27 H 0.348034 -3.960716 1.947725 0
M  V30 28 H -1.919830 -3.237125 1.792629 0
M  V30 29 H -2.017055 -3.681155 0.006355 0
M  V30 30 H -1.949422 -4.920790 1.259423 0
M  V30 31 H 1.211985 -1.750081 1.336866 0
M  V30 32 H 2.405877 -3.034362 1.000979 0
M  V30 33 H 2.461957 -2.364971 -1.375822 0
M  V30 34 H 3.124610 -1.102943 -0.255338 0
M  V30 35 H 0.410795 -1.182957 -1.716381 0
M  V30 36 H 1.810963 -0.152723 -2.021134 0
M  V30 37 H 2.729422 3.793046 0.109138 0
M  V30 38 H -0.111104 5.459144 2.862410 0
M  V30 39 H -1.453808 3.461725 2.726304 0
M  V30 40 H -3.059570 -0.974639 1.500303 0
M  V30 END ATOM
M  V30 BEGIN BOND
M  V30 1 1 1 2
M  V30 2 1 2 3
M  V30 3 1 2 4
M  V30 4 1 4 5
M  V30 5 1 5 6
M  V30 6 1 6 7
M  V30 7 1 7 8
M  V30 8 1 8 9
M  V30 9 2 9 10
M  V30 10 1 9 11
M  V30 11 2 11 12
M  V30 12 1 12 13
M  V30 13 1 13 14
M  V30 14 2 13 15
M  V30 15 1 15 16
M  V30 16 2 16 17
M  V30 17 1 17 18
M  V30 18 1 18 19
M  V30 19 2 19 20
M  V30 20 1 19 21
M  V30 21 1 21 22
M  V30 22 2 22 23
M  V30 23 1 23 8
M  V30 24 1 17 11
M  V30 25 1 23 18
M  V30 26 1 1 24
M  V30 27 1 1 25
M  V30 28 1 1 26
M  V30 29 1 2 27
M  V30 30 1 3 28
M  V30 31 1 3 29
M  V30 32 1 3 30
M  V30 33 1 5 31
M  V30 34 1 5 32
M  V30 35 1 6 33
M  V30 36 1 6 34
M  V30 37 1 7 35
M  V30 38 1 7 36
M  V30 39 1 12 37
M  V30 40 1 15 38
M  V30 41 1 16 39
M  V30 42 1 21 40
M  V30 END BOND
M  V30 END CTAB
M  END
>  <Dataset>  (17) 
ChEMBL_Kinases

>  <Ligand_Instance>  (17) 
nan

>  <PDB_ID>  (17) 
nan

>  <Standardized_SMILES>  (17) 
CC(C)OCCCn1c(=O)c2cc(Cl)ccc2n2c(=S)[nH]nc12

>  <Name>  (17) 
nan

>  <Pocket>  (17) 
nan

>  <ATP_Site>  (17) 
nan

>  <Peripheral>  (17) 
nan

>  <Num_H_Atoms_ProtBoundConf>  (17) 
nan

>  <Num_Resolved_Atoms>  (17) 
nan

>  <Num_Not_Resolved_Atoms>  (17) 
nan

$$$$
CHEMBL4756424
     RDKit          3D

  0  0  0  0  0  0  0  0  0  0999 V3000
M  V30 BEGIN CTAB
M  V30 COUNTS 85 91 0 0 0
M  V30 BEGIN ATOM
M  V30 1 C -1.482101 -8.908178 5.464332 0
M  V30 2 N -0.722359 -7.901254 4.748738 0
M  V30 3 C 0.681951 -7.797140 4.888914 0
M  V30 4 O 1.350718 -8.553131 5.626791 0
M  V30 5 C 1.379801 -6.777140 4.149932 0
M  V30 6 S 3.186375 -6.564972 4.260955 0
M  V30 7 C 3.306243 -5.226763 3.163635 0
M  V30 8 C 4.518078 -4.478681 2.749769 0
M  V30 9 C 5.743582 -4.875345 3.205612 0
M  V30 10 C 6.882088 -4.163550 2.853726 0
M  V30 11 N 6.779265 -3.066949 2.053463 0
M  V30 12 C 5.533591 -2.697955 1.614204 0
M  V30 13 N 5.271463 -1.549643 0.785925 0
M  V30 14 C 4.997852 -0.486966 1.664349 0
M  V30 15 O 4.984489 -0.524718 2.941648 0
M  V30 16 C 4.651377 0.948254 1.527628 0
M  V30 17 C 3.544562 1.193878 0.467777 0
M  V30 18 C 4.926026 1.719093 0.292831 0
M  V30 19 C 4.382744 -3.393120 1.951855 0
M  V30 20 N 2.038270 -4.964178 2.739718 0
M  V30 21 C 1.119248 -5.744038 3.244363 0
M  V30 22 O -0.237262 -5.582165 2.895677 0
M  V30 23 C -0.682204 -4.601100 1.974631 0
M  V30 24 C -2.180767 -4.683561 1.891466 0
M  V30 25 O -2.767052 -3.796271 1.012224 0
M  V30 26 C -2.457895 -4.016083 -0.313448 0
M  V30 27 C -3.072762 -3.019571 -1.209224 0
M  V30 28 C -2.350781 -1.920432 -1.691361 0
M  V30 29 N -3.129592 -1.144664 -2.490256 0
M  V30 30 C -2.662623 0.026344 -3.158315 0
M  V30 31 C -2.798735 1.280319 -2.317795 0
M  V30 32 N -2.300776 2.420207 -3.101382 0
M  V30 33 C -2.073665 3.801534 -2.946447 0
M  V30 34 C -3.021388 4.751924 -3.215413 0
M  V30 35 C -2.735430 6.100620 -3.053423 0
M  V30 36 N -1.510144 6.481194 -2.627247 0
M  V30 37 C -0.590142 5.520824 -2.368351 0
M  V30 38 C 0.659142 5.968647 -1.936226 0
M  V30 39 C 1.648175 5.059844 -1.657087 0
M  V30 40 Cl 3.244902 5.574914 -1.100567 0
M  V30 41 C 1.461846 3.681295 -1.786760 0
M  V30 42 C 0.208386 3.344644 -2.214902 0
M  V30 43 C -0.835230 4.161783 -2.516448 0
M  V30 44 C -3.926386 6.920378 -3.418370 0
M  V30 45 C -5.132302 6.524034 -2.619808 0
M  V30 46 C -5.369661 5.053256 -2.715165 0
M  V30 47 C -4.377416 4.414704 -3.670092 0
M  V30 48 N -4.288600 -1.770024 -2.478776 0
M  V30 49 N -4.289266 -2.852093 -1.751791 0
M  V30 50 H -0.789397 -9.720986 5.729685 0
M  V30 51 H -1.988506 -8.441654 6.311128 0
M  V30 52 H -2.188578 -9.343803 4.709921 0
M  V30 53 H -1.255822 -7.256843 4.126807 0
M  V30 54 H 5.876502 -5.729158 3.836967 0
M  V30 55 H 7.882048 -4.436846 3.186319 0
M  V30 56 H 5.202505 -1.196242 -0.187761 0
M  V30 57 H 4.499069 1.484090 2.496140 0
M  V30 58 H 2.713040 1.849911 0.771816 0
M  V30 59 H 3.247974 0.334966 -0.168035 0
M  V30 60 H 5.014966 2.832263 0.428109 0
M  V30 61 H 5.593631 1.328158 -0.482482 0
M  V30 62 H 3.397160 -3.118174 1.617157 0
M  V30 63 H -0.164064 -4.675071 1.018328 0
M  V30 64 H -0.404914 -3.620717 2.463401 0
M  V30 65 H -2.616265 -4.459030 2.902404 0
M  V30 66 H -2.527234 -5.700616 1.600061 0
M  V30 67 H -2.824746 -5.052378 -0.547401 0
M  V30 68 H -1.362133 -4.046267 -0.441921 0
M  V30 69 H -1.295877 -1.697603 -1.469920 0
M  V30 70 H -3.276304 0.169542 -4.096848 0
M  V30 71 H -1.619938 -0.097564 -3.538369 0
M  V30 72 H -2.169119 1.159386 -1.399387 0
M  V30 73 H -3.867979 1.434071 -2.084987 0
M  V30 74 H -1.991149 2.267026 -4.106412 0
M  V30 75 H 0.848975 7.017714 -1.821074 0
M  V30 76 H 2.234049 2.977906 -1.569196 0
M  V30 77 H -0.004552 2.272805 -2.338885 0
M  V30 78 H -3.696466 7.973522 -3.233161 0
M  V30 79 H -4.166368 6.753066 -4.496231 0
M  V30 80 H -6.006512 7.044344 -3.109932 0
M  V30 81 H -5.099370 6.899803 -1.569058 0
M  V30 82 H -6.397997 4.807465 -3.056201 0
M  V30 83 H -5.216852 4.567550 -1.715197 0
M  V30 84 H -4.506969 4.769501 -4.718673 0
M  V30 85 H -4.522044 3.308509 -3.595878 0
M  V30 END ATOM
M  V30 BEGIN BOND
M  V30 1 1 1 2
M  V30 2 1 2 3
M  V30 3 2 3 4
M  V30 4 1 3 5
M  V30 5 1 5 6
M  V30 6 1 6 7
M  V30 7 1 7 8
M  V30 8 2 8 9
M  V30 9 1 9 10
M  V30 10 2 10 11
M  V30 11 1 11 12
M  V30 12 1 12 13
M  V30 13 1 13 14
M  V30 14 2 14 15
M  V30 15 1 14 16
M  V30 16 1 16 17
M  V30 17 1 17 18
M  V30 18 2 12 19
M  V30 19 2 7 20
M  V30 20 1 20 21
M  V30 21 1 21 22
M  V30 22 1 22 23
M  V30 23 1 23 24
M  V30 24 1 24 25
M  V30 25 1 25 26
M  V30 26 1 26 27
M  V30 27 2 27 28
M  V30 28 1 28 29
M  V30 29 1 29 30
M  V30 30 1 30 31
M  V30 31 1 31 32
M  V30 32 1 32 33
M  V30 33 2 33 34
M  V30 34 1 34 35
M  V30 35 2 35 36
M  V30 36 1 36 37
M  V30 37 2 37 38
M  V30 38 1 38 39
M  V30 39 1 39 40
M  V30 40 2 39 41
M  V30 41 1 41 42
M  V30 42 2 42 43
M  V30 43 1 35 44
M  V30 44 1 44 45
M  V30 45 1 45 46
M  V30 46 1 46 47
M  V30 47 1 29 48
M  V30 48 2 48 49
M  V30 49 2 21 5
M  V30 50 1 49 27
M  V30 51 1 19 8
M  V30 52 1 43 33
M  V30 53 1 18 16
M  V30 54 1 47 34
M  V30 55 1 43 37
M  V30 56 1 1 50
M  V30 57 1 1 51
M  V30 58 1 1 52
M  V30 59 1 2 53
M  V30 60 1 9 54
M  V30 61 1 10 55
M  V30 62 1 13 56
M  V30 63 1 16 57
M  V30 64 1 17 58
M  V30 65 1 17 59
M  V30 66 1 18 60
M  V30 67 1 18 61
M  V30 68 1 19 62
M  V30 69 1 23 63
M  V30 70 1 23 64
M  V30 71 1 24 65
M  V30 72 1 24 66
M  V30 73 1 26 67
M  V30 74 1 26 68
M  V30 75 1 28 69
M  V30 76 1 30 70
M  V30 77 1 30 71
M  V30 78 1 31 72
M  V30 79 1 31 73
M  V30 80 1 32 74
M  V30 81 1 38 75
M  V30 82 1 41 76
M  V30 83 1 42 77
M  V30 84 1 44 78
M  V30 85 1 44 79
M  V30 86 1 45 80
M  V30 87 1 45 81
M  V30 88 1 46 82
M  V30 89 1 46 83
M  V30 90 1 47 84
M  V30 91 1 47 85
M  V30 END BOND
M  V30 END CTAB
M  END
>  <Dataset>  (18) 
ChEMBL_Kinases

>  <Ligand_Instance>  (18) 
nan

>  <PDB_ID>  (18) 
nan

>  <Standardized_SMILES>  (18) 
CNC(=O)c1sc(-c2ccnc(NC(=O)C3CC3)c2)nc1OCCOCc1cn(CCNc2c3c(nc4cc(Cl)ccc24)CCCC3)nn1

>  <Name>  (18) 
nan

>  <Pocket>  (18) 
nan

>  <ATP_Site>  (18) 
nan

>  <Peripheral>  (18) 
nan

>  <Num_H_Atoms_ProtBoundConf>  (18) 
nan

>  <Num_Resolved_Atoms>  (18) 
nan

>  <Num_Not_Resolved_Atoms>  (18) 
nan

$$$$
CHEMBL4292088
     RDKit          3D

  0  0  0  0  0  0  0  0  0  0999 V3000
M  V30 BEGIN CTAB
M  V30 COUNTS 30 31 0 0 0
M  V30 BEGIN ATOM
M  V30 1 C -0.403794 -1.505302 3.654045 0
M  V30 2 C 0.481289 -2.362382 2.799417 0
M  V30 3 N 1.072921 -3.528450 3.117578 0
M  V30 4 N 1.776509 -3.960681 2.064702 0
M  V30 5 C 1.659435 -3.088610 1.040089 0
M  V30 6 N 2.256452 -3.191019 -0.249742 0
M  V30 7 C 0.841586 -2.075862 1.498727 0
M  V30 8 C 0.409900 -0.889550 0.763544 0
M  V30 9 C 1.123935 0.300619 0.772826 0
M  V30 10 C 0.677929 1.396840 0.062808 0
M  V30 11 C 1.491023 2.637374 0.117316 0
M  V30 12 F 1.032098 3.388930 1.188604 0
M  V30 13 F 1.404941 3.361789 -1.053886 0
M  V30 14 F 2.812202 2.334990 0.347288 0
M  V30 15 C -0.499793 1.336515 -0.680875 0
M  V30 16 C -1.194308 0.162115 -0.683485 0
M  V30 17 C -2.446212 0.080283 -1.467228 0
M  V30 18 F -2.388463 -1.042586 -2.275737 0
M  V30 19 F -3.472795 -0.155157 -0.553094 0
M  V30 20 F -2.682930 1.202119 -2.207371 0
M  V30 21 C -0.772121 -0.940259 0.013381 0
M  V30 22 H -0.602491 -1.989786 4.612058 0
M  V30 23 H -1.326727 -1.203642 3.101694 0
M  V30 24 H 0.177626 -0.571284 3.839538 0
M  V30 25 H 0.958921 -3.972050 4.058352 0
M  V30 26 H 2.668466 -4.107656 -0.541688 0
M  V30 27 H 2.268628 -2.352294 -0.870581 0
M  V30 28 H 2.038240 0.356311 1.346775 0
M  V30 29 H -0.797176 2.214790 -1.210703 0
M  V30 30 H -1.362416 -1.853246 -0.021445 0
M  V30 END ATOM
M  V30 BEGIN BOND
M  V30 1 1 1 2
M  V30 2 1 2 3
M  V30 3 1 3 4
M  V30 4 2 4 5
M  V30 5 1 5 6
M  V30 6 1 5 7
M  V30 7 1 7 8
M  V30 8 2 8 9
M  V30 9 1 9 10
M  V30 10 1 10 11
M  V30 11 1 11 12
M  V30 12 1 11 13
M  V30 13 1 11 14
M  V30 14 2 10 15
M  V30 15 1 15 16
M  V30 16 1 16 17
M  V30 17 1 17 18
M  V30 18 1 17 19
M  V30 19 1 17 20
M  V30 20 2 16 21
M  V30 21 2 7 2
M  V30 22 1 21 8
M  V30 23 1 1 22
M  V30 24 1 1 23
M  V30 25 1 1 24
M  V30 26 1 3 25
M  V30 27 1 6 26
M  V30 28 1 6 27
M  V30 29 1 9 28
M  V30 30 1 15 29
M  V30 31 1 21 30
M  V30 END BOND
M  V30 END CTAB
M  END
>  <Dataset>  (19) 
ChEMBL_Kinases

>  <Ligand_Instance>  (19) 
nan

>  <PDB_ID>  (19) 
nan

>  <Standardized_SMILES>  (19) 
Cc1[nH]nc(N)c1-c1cc(C(F)(F)F)cc(C(F)(F)F)c1

>  <Name>  (19) 
nan

>  <Pocket>  (19) 
nan

>  <ATP_Site>  (19) 
nan

>  <Peripheral>  (19) 
nan

>  <Num_H_Atoms_ProtBoundConf>  (19) 
nan

>  <Num_Resolved_Atoms>  (19) 
nan

>  <Num_Not_Resolved_Atoms>  (19) 
nan

$$$$
CHEMBL4292059
     RDKit          3D

  0  0  0  0  0  0  0  0  0  0999 V3000
M  V30 BEGIN CTAB
M  V30 COUNTS 54 58 0 0 0
M  V30 BEGIN ATOM
M  V30 1 O 0.285509 -3.112890 2.161227 0
M  V30 2 C -0.270800 -2.240077 1.402327 0
M  V30 3 N 0.147105 -0.912625 1.668508 0
M  V30 4 C -0.374050 0.206952 0.910474 0
M  V30 5 C 0.224167 1.543852 1.389872 0
M  V30 6 N 1.665742 1.298867 1.188908 0
M  V30 7 C 2.593904 1.781966 0.224950 0
M  V30 8 N 3.060553 0.783844 -0.580997 0
M  V30 9 C 3.950915 1.049909 -1.579416 0
M  V30 10 N 4.398154 2.311494 -1.800528 0
M  V30 11 C 3.958057 3.317212 -1.023857 0
M  V30 12 N 4.157833 4.660485 -0.922655 0
M  V30 13 N 3.427075 5.164121 0.080714 0
M  V30 14 C 2.722693 4.178161 0.674683 0
M  V30 15 Br 1.540586 4.371002 2.154379 0
M  V30 16 C 3.059160 3.051651 -0.014963 0
M  V30 17 C 2.168163 0.385123 2.203683 0
M  V30 18 C 1.109311 -0.570025 2.697134 0
M  V30 19 C -1.223009 -2.678064 0.399165 0
M  V30 20 C -2.547294 -2.053210 0.645173 0
M  V30 21 C -2.835893 -2.112433 2.004945 0
M  V30 22 C -4.033812 -1.596938 2.514550 0
M  V30 23 C -4.942873 -1.020801 1.653850 0
M  V30 24 Br -6.592977 -0.298679 2.274871 0
M  V30 25 C -4.634529 -0.974270 0.313698 0
M  V30 26 C -3.464396 -1.473962 -0.210242 0
M  V30 27 C -1.447935 -4.188655 0.569966 0
M  V30 28 C -0.408330 -4.969225 -0.198375 0
M  V30 29 N -0.488260 -4.795541 -1.624869 0
M  V30 30 C -1.282431 -3.617866 -1.926253 0
M  V30 31 C -0.746512 -2.524690 -1.023977 0
M  V30 32 H -1.460949 0.222612 0.973187 0
M  V30 33 H -0.040637 0.191954 -0.167584 0
M  V30 34 H -0.016005 1.729299 2.435436 0
M  V30 35 H -0.171831 2.285888 0.678139 0
M  V30 36 H 4.304355 0.227827 -2.206409 0
M  V30 37 H 4.810605 5.172572 -1.575055 0
M  V30 38 H 2.560128 1.022080 3.044734 0
M  V30 39 H 3.018060 -0.149871 1.784396 0
M  V30 40 H 1.627266 -1.493216 3.086249 0
M  V30 41 H 0.646105 -0.098889 3.591808 0
M  V30 42 H -2.235502 -2.528703 2.814696 0
M  V30 43 H -4.325647 -1.605809 3.545518 0
M  V30 44 H -5.309782 -0.533709 -0.410614 0
M  V30 45 H -3.129846 -1.491063 -1.218896 0
M  V30 46 H -2.476270 -4.453353 0.274377 0
M  V30 47 H -1.324089 -4.455698 1.630259 0
M  V30 48 H -0.611990 -6.039289 0.014245 0
M  V30 49 H 0.590208 -4.680353 0.213534 0
M  V30 50 H 0.460214 -4.603182 -2.064181 0
M  V30 51 H -1.077708 -3.273457 -2.968117 0
M  V30 52 H -2.364792 -3.793372 -1.805214 0
M  V30 53 H -1.116827 -1.548927 -1.394414 0
M  V30 54 H 0.360071 -2.591483 -1.094340 0
M  V30 END ATOM
M  V30 BEGIN BOND
M  V30 1 2 1 2
M  V30 2 1 2 3
M  V30 3 1 3 4
M  V30 4 1 4 5
M  V30 5 1 5 6
M  V30 6 1 6 7
M  V30 7 2 7 8
M  V30 8 1 8 9
M  V30 9 2 9 10
M  V30 10 1 10 11
M  V30 11 1 11 12
M  V30 12 1 12 13
M  V30 13 2 13 14
M  V30 14 1 14 15
M  V30 15 1 14 16
M  V30 16 1 6 17
M  V30 17 1 17 18
M  V30 18 1 2 19
M  V30 19 1 19 20
M  V30 20 2 20 21
M  V30 21 1 21 22
M  V30 22 2 22 23
M  V30 23 1 23 24
M  V30 24 1 23 25
M  V30 25 2 25 26
M  V30 26 1 19 27
M  V30 27 1 27 28
M  V30 28 1 28 29
M  V30 29 1 29 30
M  V30 30 1 30 31
M  V30 31 1 18 3
M  V30 32 1 31 19
M  V30 33 1 16 7
M  V30 34 1 26 20
M  V30 35 2 16 11
M  V30 36 1 4 32
M  V30 37 1 4 33
M  V30 38 1 5 34
M  V30 39 1 5 35
M  V30 40 1 9 36
M  V30 41 1 12 37
M  V30 42 1 17 38
M  V30 43 1 17 39
M  V30 44 1 18 40
M  V30 45 1 18 41
M  V30 46 1 21 42
M  V30 47 1 22 43
M  V30 48 1 25 44
M  V30 49 1 26 45
M  V30 50 1 27 46
M  V30 51 1 27 47
M  V30 52 1 28 48
M  V30 53 1 28 49
M  V30 54 1 29 50
M  V30 55 1 30 51
M  V30 56 1 30 52
M  V30 57 1 31 53
M  V30 58 1 31 54
M  V30 END BOND
M  V30 END CTAB
M  END
>  <Dataset>  (20) 
ChEMBL_Kinases

>  <Ligand_Instance>  (20) 
nan

>  <PDB_ID>  (20) 
nan

>  <Standardized_SMILES>  (20) 
O=C(N1CCN(c2ncnc3[nH]nc(Br)c23)CC1)C1(c2ccc(Br)cc2)CCNCC1

>  <Name>  (20) 
nan

>  <Pocket>  (20) 
nan

>  <ATP_Site>  (20) 
nan

>  <Peripheral>  (20) 
nan

>  <Num_H_Atoms_ProtBoundConf>  (20) 
nan

>  <Num_Resolved_Atoms>  (20) 
nan

>  <Num_Not_Resolved_Atoms>  (20) 
nan

$$$$
CHEMBL4292047
     RDKit          3D

  0  0  0  0  0  0  0  0  0  0999 V3000
M  V30 BEGIN CTAB
M  V30 COUNTS 43 46 0 0 0
M  V30 BEGIN ATOM
M  V30 1 C 2.174581 -5.791196 2.074484 0
M  V30 2 C 1.209433 -4.863646 1.422234 0
M  V30 3 O 0.414176 -4.234585 2.199055 0
M  V30 4 N 1.117070 -4.635813 0.000951 0
M  V30 5 C 0.114912 -3.701630 -0.401253 0
M  V30 6 C 0.537501 -2.379573 -0.472414 0
M  V30 7 C -0.288559 -1.333611 -0.842688 0
M  V30 8 C 0.127721 0.051568 -0.917609 0
M  V30 9 N 0.282554 0.852612 -1.997294 0
M  V30 10 C 0.693953 2.076012 -1.631999 0
M  V30 11 C 0.974363 3.189104 -2.395346 0
M  V30 12 C 1.388348 4.324132 -1.703852 0
M  V30 13 C 1.498802 4.292945 -0.314405 0
M  V30 14 N 1.206473 3.166713 0.362511 0
M  V30 15 C 0.801094 2.037947 -0.257007 0
M  V30 16 C 0.451337 0.773970 0.232249 0
M  V30 17 C 0.480518 0.474664 1.656526 0
M  V30 18 C 1.272515 -0.385739 2.383899 0
M  V30 19 C 1.130402 -0.526526 3.745831 0
M  V30 20 C 0.154188 0.232006 4.379201 0
M  V30 21 C -0.632526 1.089894 3.642718 0
M  V30 22 C -1.654237 1.864636 4.403240 0
M  V30 23 N -0.475366 1.213834 2.295842 0
M  V30 24 C -1.606446 -1.694105 -1.148175 0
M  V30 25 C -2.029769 -3.010492 -1.077346 0
M  V30 26 N -1.180223 -4.000351 -0.709179 0
M  V30 27 H 3.045627 -5.241097 2.492663 0
M  V30 28 H 2.555863 -6.581359 1.397135 0
M  V30 29 H 1.666495 -6.290898 2.916249 0
M  V30 30 H 1.825168 -5.212347 -0.513438 0
M  V30 31 H 1.551597 -2.104304 -0.240385 0
M  V30 32 H 0.079313 0.468738 -2.952489 0
M  V30 33 H 0.872253 3.162067 -3.480420 0
M  V30 34 H 1.618600 5.220932 -2.277300 0
M  V30 35 H 1.821109 5.180284 0.211459 0
M  V30 36 H 1.986258 -0.905272 1.761849 0
M  V30 37 H 1.807785 -1.234274 4.212495 0
M  V30 38 H 0.092524 0.077757 5.446017 0
M  V30 39 H -2.558475 1.274807 4.621866 0
M  V30 40 H -1.990623 2.740245 3.811138 0
M  V30 41 H -1.151166 2.234860 5.320450 0
M  V30 42 H -2.347983 -0.958133 -1.450816 0
M  V30 43 H -3.062192 -3.294156 -1.317857 0
M  V30 END ATOM
M  V30 BEGIN BOND
M  V30 1 1 1 2
M  V30 2 2 2 3
M  V30 3 1 2 4
M  V30 4 1 4 5
M  V30 5 2 5 6
M  V30 6 1 6 7
M  V30 7 1 7 8
M  V30 8 1 8 9
M  V30 9 1 9 10
M  V30 10 2 10 11
M  V30 11 1 11 12
M  V30 12 2 12 13
M  V30 13 1 13 14
M  V30 14 2 14 15
M  V30 15 1 15 16
M  V30 16 1 16 17
M  V30 17 2 17 18
M  V30 18 1 18 19
M  V30 19 2 19 20
M  V30 20 1 20 21
M  V30 21 1 21 22
M  V30 22 2 21 23
M  V30 23 2 7 24
M  V30 24 1 24 25
M  V30 25 2 25 26
M  V30 26 1 26 5
M  V30 27 2 16 8
M  V30 28 1 23 17
M  V30 29 1 15 10
M  V30 30 1 1 27
M  V30 31 1 1 28
M  V30 32 1 1 29
M  V30 33 1 4 30
M  V30 34 1 6 31
M  V30 35 1 9 32
M  V30 36 1 11 33
M  V30 37 1 12 34
M  V30 38 1 13 35
M  V30 39 1 18 36
M  V30 40 1 19 37
M  V30 41 1 20 38
M  V30 42 1 22 39
M  V30 43 1 22 40
M  V30 44 1 22 41
M  V30 45 1 24 42
M  V30 46 1 25 43
M  V30 END BOND
M  V30 END CTAB
M  END
>  <Dataset>  (21) 
ChEMBL_Kinases

>  <Ligand_Instance>  (21) 
nan

>  <PDB_ID>  (21) 
nan

>  <Standardized_SMILES>  (21) 
CC(=O)Nc1cc(-c2[nH]c3cccnc3c2-c2cccc(C)n2)ccn1

>  <Name>  (21) 
nan

>  <Pocket>  (21) 
nan

>  <ATP_Site>  (21) 
nan

>  <Peripheral>  (21) 
nan

>  <Num_H_Atoms_ProtBoundConf>  (21) 
nan

>  <Num_Resolved_Atoms>  (21) 
nan

>  <Num_Not_Resolved_Atoms>  (21) 
nan

$$$$
CHEMBL4756451
     RDKit          3D

  0  0  0  0  0  0  0  0  0  0999 V3000
M  V30 BEGIN CTAB
M  V30 COUNTS 67 71 0 0 0
M  V30 BEGIN ATOM
M  V30 1 N 2.034699 -4.873656 6.575184 0
M  V30 2 C 1.322424 -4.852036 5.346051 0
M  V30 3 O 0.781503 -5.936590 5.038471 0
M  V30 4 C 1.347288 -3.545242 4.645539 0
M  V30 5 S 2.209862 -2.004675 5.253073 0
M  V30 6 C 1.632067 -1.056483 3.715938 0
M  V30 7 C 2.055495 0.390624 3.619502 0
M  V30 8 C 2.810562 0.991108 4.573986 0
M  V30 9 C 3.130337 2.337191 4.358051 0
M  V30 10 N 2.674834 2.950780 3.227842 0
M  V30 11 C 1.928907 2.302383 2.316293 0
M  V30 12 N 1.504770 3.038083 1.170840 0
M  V30 13 C 2.245427 3.124221 -0.041645 0
M  V30 14 O 3.353054 2.560079 -0.230872 0
M  V30 15 C 1.662024 3.939460 -1.156302 0
M  V30 16 C 0.793921 5.130754 -0.733556 0
M  V30 17 C 0.132915 3.889972 -1.222356 0
M  V30 18 C 1.581195 0.958835 2.482806 0
M  V30 19 N 1.043983 -1.842587 3.151193 0
M  V30 20 C 0.792034 -3.104713 3.437397 0
M  V30 21 O 0.077059 -4.088409 2.767051 0
M  V30 22 C -0.524493 -3.745198 1.532276 0
M  V30 23 C -1.274183 -4.876511 0.889176 0
M  V30 24 C -1.926812 -4.542207 -0.430788 0
M  V30 25 C -2.911698 -3.439209 -0.247379 0
M  V30 26 C -2.612275 -2.160569 -0.941614 0
M  V30 27 N -1.233805 -1.984008 -1.181031 0
M  V30 28 C -0.715236 -0.671506 -1.227463 0
M  V30 29 C -1.296075 0.209198 -2.271124 0
M  V30 30 C -2.402645 0.981400 -2.000835 0
M  V30 31 C -2.972035 1.819521 -2.959594 0
M  V30 32 C -2.415037 1.880918 -4.216332 0
M  V30 33 F -2.955611 2.689532 -5.158102 0
M  V30 34 C -1.292929 1.113353 -4.529013 0
M  V30 35 F -0.710550 1.142466 -5.756140 0
M  V30 36 C -0.761309 0.294401 -3.543378 0
M  V30 37 C -0.538764 -3.002651 -1.874517 0
M  V30 38 C -0.967549 -4.396984 -1.560835 0
M  V30 39 H 2.837561 -5.256210 7.123180 0
M  V30 40 H 1.997172 -4.431982 7.540230 0
M  V30 41 H 3.136467 0.442298 5.444922 0
M  V30 42 H 3.735634 2.857656 5.101368 0
M  V30 43 H 0.582753 3.524859 1.288051 0
M  V30 44 H 2.219232 4.017471 -2.101171 0
M  V30 45 H 0.775687 6.034840 -1.358814 0
M  V30 46 H 0.753246 5.348528 0.364695 0
M  V30 47 H -0.320389 3.966731 -2.247383 0
M  V30 48 H -0.394219 3.217199 -0.538145 0
M  V30 49 H 0.980115 0.466183 1.731427 0
M  V30 50 H -1.268327 -2.952185 1.773950 0
M  V30 51 H 0.203525 -3.267564 0.843685 0
M  V30 52 H -2.077131 -5.178290 1.600683 0
M  V30 53 H -0.579114 -5.739056 0.826956 0
M  V30 54 H -2.522374 -5.468116 -0.656825 0
M  V30 55 H -3.952688 -3.729275 -0.580302 0
M  V30 56 H -3.065455 -3.241194 0.854657 0
M  V30 57 H -2.956895 -1.312148 -0.304686 0
M  V30 58 H -3.176289 -2.035875 -1.900040 0
M  V30 59 H 0.388710 -0.751370 -1.392590 0
M  V30 60 H -0.805658 -0.226722 -0.206382 0
M  V30 61 H -2.886856 0.975371 -1.026199 0
M  V30 62 H -3.857400 2.414147 -2.686353 0
M  V30 63 H 0.115109 -0.312688 -3.768401 0
M  V30 64 H -0.611113 -2.787582 -2.962796 0
M  V30 65 H 0.560553 -2.844610 -1.659691 0
M  V30 66 H -1.353420 -4.864309 -2.494543 0
M  V30 67 H -0.051029 -4.987365 -1.322506 0
M  V30 END ATOM
M  V30 BEGIN BOND
M  V30 1 1 1 2
M  V30 2 2 2 3
M  V30 3 1 2 4
M  V30 4 1 4 5
M  V30 5 1 5 6
M  V30 6 1 6 7
M  V30 7 2 7 8
M  V30 8 1 8 9
M  V30 9 2 9 10
M  V30 10 1 10 11
M  V30 11 1 11 12
M  V30 12 1 12 13
M  V30 13 2 13 14
M  V30 14 1 13 15
M  V30 15 1 15 16
M  V30 16 1 16 17
M  V30 17 2 11 18
M  V30 18 2 6 19
M  V30 19 1 19 20
M  V30 20 1 20 21
M  V30 21 1 21 22
M  V30 22 1 22 23
M  V30 23 1 23 24
M  V30 24 1 24 25
M  V30 25 1 25 26
M  V30 26 1 26 27
M  V30 27 1 27 28
M  V30 28 1 28 29
M  V30 29 2 29 30
M  V30 30 1 30 31
M  V30 31 2 31 32
M  V30 32 1 32 33
M  V30 33 1 32 34
M  V30 34 1 34 35
M  V30 35 2 34 36
M  V30 36 1 27 37
M  V30 37 1 37 38
M  V30 38 2 20 4
M  V30 39 1 38 24
M  V30 40 1 18 7
M  V30 41 1 36 29
M  V30 42 1 17 15
M  V30 43 1 1 39
M  V30 44 1 1 40
M  V30 45 1 8 41
M  V30 46 1 9 42
M  V30 47 1 12 43
M  V30 48 1 15 44
M  V30 49 1 16 45
M  V30 50 1 16 46
M  V30 51 1 17 47
M  V30 52 1 17 48
M  V30 53 1 18 49
M  V30 54 1 22 50
M  V30 55 1 22 51
M  V30 56 1 23 52
M  V30 57 1 23 53
M  V30 58 1 24 54
M  V30 59 1 25 55
M  V30 60 1 25 56
M  V30 61 1 26 57
M  V30 62 1 26 58
M  V30 63 1 28 59
M  V30 64 1 28 60
M  V30 65 1 30 61
M  V30 66 1 31 62
M  V30 67 1 36 63
M  V30 68 1 37 64
M  V30 69 1 37 65
M  V30 70 1 38 66
M  V30 71 1 38 67
M  V30 END BOND
M  V30 END CTAB
M  END
>  <Dataset>  (22) 
ChEMBL_Kinases

>  <Ligand_Instance>  (22) 
nan

>  <PDB_ID>  (22) 
nan

>  <Standardized_SMILES>  (22) 
NC(=O)c1sc(-c2ccnc(NC(=O)C3CC3)c2)nc1OCCC1CCN(Cc2ccc(F)c(F)c2)CC1

>  <Name>  (22) 
nan

>  <Pocket>  (22) 
nan

>  <ATP_Site>  (22) 
nan

>  <Peripheral>  (22) 
nan

>  <Num_H_Atoms_ProtBoundConf>  (22) 
nan

>  <Num_Resolved_Atoms>  (22) 
nan

>  <Num_Not_Resolved_Atoms>  (22) 
nan

$$$$
CHEMBL4756485
     RDKit          3D

  0  0  0  0  0  0  0  0  0  0999 V3000
M  V30 BEGIN CTAB
M  V30 COUNTS 55 58 0 0 0
M  V30 BEGIN ATOM
M  V30 1 C -0.372816 -8.351267 1.288834 0
M  V30 2 C 0.261177 -7.298405 0.804179 0
M  V30 3 C 0.958484 -6.110200 0.397552 0
M  V30 4 O 1.317498 -5.749692 -0.771998 0
M  V30 5 N 1.359588 -5.117183 1.341973 0
M  V30 6 C 2.045162 -4.009630 0.711571 0
M  V30 7 C 2.420020 -2.962494 1.699470 0
M  V30 8 C 3.338331 -3.429108 2.807734 0
M  V30 9 C 3.926490 -2.230104 3.539789 0
M  V30 10 C 2.971837 -1.054302 3.498589 0
M  V30 11 N 2.833169 -0.668861 2.089718 0
M  V30 12 C 2.512733 0.590497 1.498074 0
M  V30 13 S 3.558392 1.901909 1.160049 0
M  V30 14 N 2.245531 2.998805 0.397496 0
M  V30 15 C 1.149333 2.195383 0.505093 0
M  V30 16 C -0.058477 2.656181 0.032591 0
M  V30 17 C -1.186456 1.859534 0.123562 0
M  V30 18 C -2.557571 2.166779 -0.341616 0
M  V30 19 C -3.715967 1.727210 0.221931 0
M  V30 20 C -4.923436 2.080010 -0.327992 0
M  V30 21 C -5.038884 2.887194 -1.465095 0
M  V30 22 N -6.304031 3.217218 -1.988492 0
M  V30 23 C -3.827496 3.316121 -2.010953 0
M  V30 24 O -4.013181 4.112827 -3.136919 0
M  V30 25 C -2.923549 4.649950 -3.844565 0
M  V30 26 C -2.589512 2.963638 -1.460085 0
M  V30 27 C -1.096014 0.605492 0.688325 0
M  V30 28 N 0.104083 0.216234 1.126984 0
M  V30 29 C 1.229718 0.943591 1.064657 0
M  V30 30 C 3.029445 -1.715732 1.082569 0
M  V30 31 H -0.490828 -8.307164 2.384721 0
M  V30 32 H -0.507005 -8.342917 2.360660 0
M  V30 33 H 0.008292 -7.929596 -0.060250 0
M  V30 34 H 1.168975 -5.216879 2.389508 0
M  V30 35 H 2.983571 -4.460626 0.282906 0
M  V30 36 H 1.439464 -3.641281 -0.121946 0
M  V30 37 H 1.483851 -2.632652 2.214797 0
M  V30 38 H 2.769479 -4.019389 3.552807 0
M  V30 39 H 4.162383 -4.042293 2.440793 0
M  V30 40 H 4.900216 -1.968972 3.107615 0
M  V30 41 H 4.047525 -2.521626 4.595889 0
M  V30 42 H 3.462074 -0.215123 4.027337 0
M  V30 43 H 2.002642 -1.284478 3.948655 0
M  V30 44 H -0.271788 3.596803 -0.423726 0
M  V30 45 H -3.595780 1.106685 1.097011 0
M  V30 46 H -5.837761 1.713537 0.146984 0
M  V30 47 H -6.868932 2.335814 -2.140085 0
M  V30 48 H -6.681537 4.168796 -2.208373 0
M  V30 49 H -3.287758 4.931399 -4.852354 0
M  V30 50 H -2.073661 3.939654 -3.924652 0
M  V30 51 H -2.565073 5.553654 -3.353254 0
M  V30 52 H -1.763633 3.377371 -2.001498 0
M  V30 53 H -1.914509 -0.096505 0.808173 0
M  V30 54 H 4.115611 -1.898997 0.992007 0
M  V30 55 H 2.605660 -1.477743 0.110497 0
M  V30 END ATOM
M  V30 BEGIN BOND
M  V30 1 2 1 2
M  V30 2 1 2 3
M  V30 3 2 3 4
M  V30 4 1 3 5
M  V30 5 1 5 6
M  V30 6 1 6 7
M  V30 7 1 7 8
M  V30 8 1 8 9
M  V30 9 1 9 10
M  V30 10 1 10 11
M  V30 11 1 11 12
M  V30 12 1 12 13
M  V30 13 1 13 14
M  V30 14 2 14 15
M  V30 15 1 15 16
M  V30 16 2 16 17
M  V30 17 1 17 18
M  V30 18 2 18 19
M  V30 19 1 19 20
M  V30 20 2 20 21
M  V30 21 1 21 22
M  V30 22 1 21 23
M  V30 23 1 23 24
M  V30 24 1 24 25
M  V30 25 2 23 26
M  V30 26 1 17 27
M  V30 27 2 27 28
M  V30 28 1 28 29
M  V30 29 1 11 30
M  V30 30 1 30 7
M  V30 31 2 29 12
M  V30 32 1 29 15
M  V30 33 1 26 18
M  V30 34 1 1 31
M  V30 35 1 1 32
M  V30 36 1 2 33
M  V30 37 1 5 34
M  V30 38 1 6 35
M  V30 39 1 6 36
M  V30 40 1 7 37
M  V30 41 1 8 38
M  V30 42 1 8 39
M  V30 43 1 9 40
M  V30 44 1 9 41
M  V30 45 1 10 42
M  V30 46 1 10 43
M  V30 47 1 16 44
M  V30 48 1 19 45
M  V30 49 1 20 46
M  V30 50 1 22 47
M  V30 51 1 22 48
M  V30 52 1 25 49
M  V30 53 1 25 50
M  V30 54 1 25 51
M  V30 55 1 26 52
M  V30 56 1 27 53
M  V30 57 1 30 54
M  V30 58 1 30 55
M  V30 END BOND
M  V30 END CTAB
M  END
>  <Dataset>  (23) 
ChEMBL_Kinases

>  <Ligand_Instance>  (23) 
nan

>  <PDB_ID>  (23) 
nan

>  <Standardized_SMILES>  (23) 
C=CC(=O)NCC1CCCN(c2snc3cc(-c4ccc(N)c(OC)c4)cnc23)C1

>  <Name>  (23) 
nan

>  <Pocket>  (23) 
nan

>  <ATP_Site>  (23) 
nan

>  <Peripheral>  (23) 
nan

>  <Num_H_Atoms_ProtBoundConf>  (23) 
nan

>  <Num_Resolved_Atoms>  (23) 
nan

>  <Num_Not_Resolved_Atoms>  (23) 
nan

$$$$
CHEMBL4756492
     RDKit          3D

  0  0  0  0  0  0  0  0  0  0999 V3000
M  V30 BEGIN CTAB
M  V30 COUNTS 40 42 0 0 0
M  V30 BEGIN ATOM
M  V30 1 N 0.679583 -4.997016 1.579491 0
M  V30 2 C 0.857184 -3.676736 1.040753 0
M  V30 3 N 2.170007 -3.589534 0.667053 0
M  V30 4 C 2.643897 -2.434100 0.112641 0
M  V30 5 C 1.762923 -1.385951 -0.049754 0
M  V30 6 C 2.118974 -0.092892 -0.625448 0
M  V30 7 C 3.097918 -0.057908 -1.598852 0
M  V30 8 C 3.509533 1.131888 -2.211742 0
M  V30 9 C 2.854952 2.260211 -1.760398 0
M  V30 10 C 3.270708 3.514689 -2.389056 0
M  V30 11 O 4.164590 3.527090 -3.274792 0
M  V30 12 O 2.772343 4.775606 -2.115268 0
M  V30 13 C 1.872187 2.291214 -0.794629 0
M  V30 14 C 1.508579 1.079762 -0.225447 0
M  V30 15 C 0.443997 -1.495848 0.333930 0
M  V30 16 C -0.070131 -2.636806 0.893601 0
M  V30 17 O -1.242810 -3.099169 1.370711 0
M  V30 18 C -2.479001 -2.510148 1.475403 0
M  V30 19 C -2.596133 -1.305437 2.298361 0
M  V30 20 C -2.799323 -1.485118 3.654693 0
M  V30 21 C -2.948246 -0.499851 4.601264 0
M  V30 22 C -2.890611 0.809004 4.163068 0
M  V30 23 C -2.690412 1.063480 2.822218 0
M  V30 24 C -2.550014 0.019442 1.933607 0
M  V30 25 H 0.920657 -5.435657 2.482090 0
M  V30 26 H 0.198983 -5.479075 0.773549 0
M  V30 27 H 3.657899 -2.268517 -0.212560 0
M  V30 28 H 3.575520 -0.974913 -1.911988 0
M  V30 29 H 4.271312 1.162569 -2.969936 0
M  V30 30 H 2.426400 5.405239 -2.852281 0
M  V30 31 H 1.397235 3.189968 -0.480963 0
M  V30 32 H 0.753805 0.984028 0.536977 0
M  V30 33 H -0.339166 -0.757124 0.257903 0
M  V30 34 H -2.947247 -2.323453 0.459342 0
M  V30 35 H -3.185654 -3.279343 1.916115 0
M  V30 36 H -2.855891 -2.495544 4.072457 0
M  V30 37 H -3.102628 -0.689749 5.634411 0
M  V30 38 H -2.997399 1.646839 4.838087 0
M  V30 39 H -2.631145 2.056632 2.387080 0
M  V30 40 H -2.399895 0.203781 0.874134 0
M  V30 END ATOM
M  V30 BEGIN BOND
M  V30 1 1 1 2
M  V30 2 2 2 3
M  V30 3 1 3 4
M  V30 4 2 4 5
M  V30 5 1 5 6
M  V30 6 2 6 7
M  V30 7 1 7 8
M  V30 8 2 8 9
M  V30 9 1 9 10
M  V30 10 2 10 11
M  V30 11 1 10 12
M  V30 12 1 9 13
M  V30 13 2 13 14
M  V30 14 1 5 15
M  V30 15 2 15 16
M  V30 16 1 16 17
M  V30 17 1 17 18
M  V30 18 1 18 19
M  V30 19 2 19 20
M  V30 20 1 20 21
M  V30 21 2 21 22
M  V30 22 1 22 23
M  V30 23 2 23 24
M  V30 24 1 16 2
M  V30 25 1 24 19
M  V30 26 1 14 6
M  V30 27 1 1 25
M  V30 28 1 1 26
M  V30 29 1 4 27
M  V30 30 1 7 28
M  V30 31 1 8 29
M  V30 32 1 12 30
M  V30 33 1 13 31
M  V30 34 1 14 32
M  V30 35 1 15 33
M  V30 36 1 18 34
M  V30 37 1 18 35
M  V30 38 1 20 36
M  V30 39 1 21 37
M  V30 40 1 22 38
M  V30 41 1 23 39
M  V30 42 1 24 40
M  V30 END BOND
M  V30 END CTAB
M  END
>  <Dataset>  (24) 
ChEMBL_Kinases

>  <Ligand_Instance>  (24) 
nan

>  <PDB_ID>  (24) 
nan

>  <Standardized_SMILES>  (24) 
Nc1ncc(-c2ccc(C(=O)O)cc2)cc1OCc1ccccc1

>  <Name>  (24) 
nan

>  <Pocket>  (24) 
nan

>  <ATP_Site>  (24) 
nan

>  <Peripheral>  (24) 
nan

>  <Num_H_Atoms_ProtBoundConf>  (24) 
nan

>  <Num_Resolved_Atoms>  (24) 
nan

>  <Num_Not_Resolved_Atoms>  (24) 
nan

$$$$
CHEMBL4756594
     RDKit          3D

  0  0  0  0  0  0  0  0  0  0999 V3000
M  V30 BEGIN CTAB
M  V30 COUNTS 59 63 0 0 0
M  V30 BEGIN ATOM
M  V30 1 C 5.327120 -3.590822 0.801417 0
M  V30 2 C 3.952253 -4.013442 1.297096 0
M  V30 3 C 3.582404 -3.502520 2.637253 0
M  V30 4 N 2.954364 -3.968874 0.267392 0
M  V30 5 C 1.899435 -3.007193 0.168711 0
M  V30 6 C 2.140497 -1.774335 0.752881 0
M  V30 7 C 1.183198 -0.785798 0.699321 0
M  V30 8 N 1.370894 0.486981 1.301163 0
M  V30 9 C 0.473864 1.573661 1.058153 0
M  V30 10 N 1.165693 2.527634 0.371358 0
M  V30 11 C 0.515597 3.659139 0.016158 0
M  V30 12 C -0.788490 3.770009 0.367984 0
M  V30 13 C -1.535390 2.846544 1.051996 0
M  V30 14 C -2.883121 2.816928 1.542792 0
M  V30 15 C -3.159724 2.152859 2.720041 0
M  V30 16 C -4.370714 2.004614 3.337912 0
M  V30 17 C -5.441134 2.597451 2.693377 0
M  V30 18 C -5.295386 3.294062 1.497423 0
M  V30 19 C -6.399032 3.828990 0.886737 0
M  V30 20 N -6.235524 4.463281 -0.293863 0
M  V30 21 C -5.001821 4.561956 -0.853550 0
M  V30 22 C -3.932442 4.014057 -0.206729 0
M  V30 23 C -4.019112 3.351959 1.006175 0
M  V30 24 N -0.821403 1.722797 1.385430 0
M  V30 25 C -0.007321 -1.074306 0.048216 0
M  V30 26 C -0.250429 -2.305107 -0.535376 0
M  V30 27 C 0.699433 -3.300509 -0.487840 0
M  V30 28 N 0.526606 -4.602775 -1.074790 0
M  V30 29 C -0.723090 -4.877794 -1.742495 0
M  V30 30 C 1.601071 -5.545862 -0.958903 0
M  V30 31 O 1.257082 -6.770515 -0.983032 0
M  V30 32 C 2.987155 -4.967666 -0.824561 0 CFG=1
M  V30 33 C 3.272954 -4.203240 -2.094719 0
M  V30 34 H 5.251256 -2.624322 0.217573 0
M  V30 35 H 6.033435 -3.505254 1.652726 0
M  V30 36 H 5.770519 -4.319386 0.092840 0
M  V30 37 H 4.102564 -5.143554 1.455739 0
M  V30 38 H 2.486957 -3.307346 2.755170 0
M  V30 39 H 3.774545 -4.256485 3.472099 0
M  V30 40 H 4.210175 -2.629790 2.997808 0
M  V30 41 H 3.060519 -1.581307 1.236632 0
M  V30 42 H 2.200661 0.597650 1.931247 0
M  V30 43 H 1.004200 4.469950 -0.532201 0
M  V30 44 H -1.255347 4.696767 0.125738 0
M  V30 45 H -2.332169 1.676385 3.243952 0
M  V30 46 H -4.479115 1.459185 4.267295 0
M  V30 47 H -6.432314 2.511139 3.145368 0
M  V30 48 H -7.391984 3.763353 1.310036 0
M  V30 49 H -4.939570 5.084012 -1.806025 0
M  V30 50 H -3.023274 4.109980 -0.754612 0
M  V30 51 H -0.818711 -0.338616 -0.036682 0
M  V30 52 H -1.190902 -2.491792 -1.034740 0
M  V30 53 H -1.488646 -5.214143 -1.000540 0
M  V30 54 H -0.588713 -5.722780 -2.469574 0
M  V30 55 H -1.087600 -4.023085 -2.374515 0
M  V30 56 H 3.736552 -5.714777 -0.577214 0
M  V30 57 H 2.764155 -3.199987 -1.985719 0
M  V30 58 H 2.903267 -4.719365 -2.995041 0
M  V30 59 H 4.352921 -3.973530 -2.180942 0
M  V30 END ATOM
M  V30 BEGIN BOND
M  V30 1 1 1 2
M  V30 2 1 2 3
M  V30 3 1 2 4
M  V30 4 1 4 5
M  V30 5 2 5 6
M  V30 6 1 6 7
M  V30 7 1 7 8
M  V30 8 1 8 9
M  V30 9 2 9 10
M  V30 10 1 10 11
M  V30 11 2 11 12
M  V30 12 1 12 13
M  V30 13 1 13 14
M  V30 14 2 14 15
M  V30 15 1 15 16
M  V30 16 2 16 17
M  V30 17 1 17 18
M  V30 18 2 18 19
M  V30 19 1 19 20
M  V30 20 2 20 21
M  V30 21 1 21 22
M  V30 22 2 22 23
M  V30 23 2 13 24
M  V30 24 2 7 25
M  V30 25 1 25 26
M  V30 26 2 26 27
M  V30 27 1 27 28
M  V30 28 1 28 29
M  V30 29 1 28 30
M  V30 30 2 30 31
M  V30 31 1 30 32
M  V30 32 1 32 33
M  V30 33 1 32 4
M  V30 34 1 27 5
M  V30 35 1 24 9
M  V30 36 1 23 14
M  V30 37 1 23 18
M  V30 38 1 1 34
M  V30 39 1 1 35
M  V30 40 1 1 36
M  V30 41 1 2 37
M  V30 42 1 3 38
M  V30 43 1 3 39
M  V30 44 1 3 40
M  V30 45 1 6 41
M  V30 46 1 8 42
M  V30 47 1 11 43
M  V30 48 1 12 44
M  V30 49 1 15 45
M  V30 50 1 16 46
M  V30 51 1 17 47
M  V30 52 1 19 48
M  V30 53 1 21 49
M  V30 54 1 22 50
M  V30 55 1 25 51
M  V30 56 1 26 52
M  V30 57 1 29 53
M  V30 58 1 29 54
M  V30 59 1 29 55
M  V30 60 1 32 56 CFG=1
M  V30 61 1 33 57
M  V30 62 1 33 58
M  V30 63 1 33 59
M  V30 END BOND
M  V30 END CTAB
M  END
>  <Dataset>  (25) 
ChEMBL_Kinases

>  <Ligand_Instance>  (25) 
nan

>  <PDB_ID>  (25) 
nan

>  <Standardized_SMILES>  (25) 
CC(C)N1c2cc(Nc3nccc(-c4cccc5cnccc45)n3)ccc2N(C)C(=O)[C@H]1C

>  <Name>  (25) 
nan

>  <Pocket>  (25) 
nan

>  <ATP_Site>  (25) 
nan

>  <Peripheral>  (25) 
nan

>  <Num_H_Atoms_ProtBoundConf>  (25) 
nan

>  <Num_Resolved_Atoms>  (25) 
nan

>  <Num_Not_Resolved_Atoms>  (25) 
nan

$$$$
CHEMBL4756595
     RDKit          3D

  0  0  0  0  0  0  0  0  0  0999 V3000
M  V30 BEGIN CTAB
M  V30 COUNTS 46 48 0 0 0
M  V30 BEGIN ATOM
M  V30 1 C 0.405119 -3.722256 1.910185 0
M  V30 2 O 0.867504 -2.992973 0.805451 0
M  V30 3 C 2.167435 -2.669411 0.515423 0
M  V30 4 C 3.207986 -3.058541 1.347024 0
M  V30 5 C 4.506257 -2.753444 1.091768 0
M  V30 6 F 5.553459 -3.121930 1.892404 0
M  V30 7 C 4.814541 -2.030184 -0.036826 0
M  V30 8 C 3.816408 -1.611802 -0.910211 0
M  V30 9 C 2.489482 -1.935891 -0.624967 0
M  V30 10 C 1.472398 -1.445007 -1.573868 0
M  V30 11 C 1.044376 -0.149609 -1.225364 0
M  V30 12 C 0.084247 0.581725 -1.934497 0
M  V30 13 N -0.319236 1.908104 -1.550962 0
M  V30 14 C -1.327835 2.291578 -0.585674 0
M  V30 15 C -1.103509 1.958015 0.737489 0
M  V30 16 C -1.920471 2.208806 1.847250 0
M  V30 17 C -1.317854 1.684926 3.130788 0
M  V30 18 S -1.697427 -0.055527 3.109940 0
M  V30 19 C -1.008625 -0.852346 4.540420 0
M  V30 20 N -3.243250 -0.253778 3.085660 0
M  V30 21 O -1.127072 -0.603356 1.827098 0
M  V30 22 C -3.097445 2.883788 1.539312 0
M  V30 23 C -3.324251 3.215940 0.241707 0
M  V30 24 N -2.505932 2.948620 -0.780084 0
M  V30 25 N -0.417526 -0.064510 -3.010067 0
M  V30 26 C -0.048897 -1.277713 -3.377906 0
M  V30 27 C 0.892657 -2.013614 -2.696321 0
M  V30 28 F 1.389543 -3.255536 -2.918938 0
M  V30 29 H 1.155928 -4.007998 2.639820 0
M  V30 30 H -0.425211 -3.177604 2.404028 0
M  V30 31 H -0.042744 -4.663283 1.463781 0
M  V30 32 H 3.085128 -3.625390 2.253232 0
M  V30 33 H 5.829500 -1.762470 -0.294782 0
M  V30 34 H 4.072827 -1.050966 -1.796435 0
M  V30 35 H 1.455657 0.387323 -0.356450 0
M  V30 36 H 0.188095 2.668379 -2.053225 0
M  V30 37 H -0.159543 1.436745 0.917383 0
M  V30 38 H -1.822200 2.136852 3.996460 0
M  V30 39 H -0.239807 1.802617 3.082551 0
M  V30 40 H 0.025081 -1.238614 4.297339 0
M  V30 41 H -0.924983 -0.079606 5.325504 0
M  V30 42 H -1.596012 -1.694775 4.904293 0
M  V30 43 H -3.606021 -0.957303 2.409015 0
M  V30 44 H -3.672978 3.036972 2.454429 0
M  V30 45 H -4.244535 3.732149 0.081742 0
M  V30 46 H -0.441970 -1.803569 -4.237017 0
M  V30 END ATOM
M  V30 BEGIN BOND
M  V30 1 1 1 2
M  V30 2 1 2 3
M  V30 3 2 3 4
M  V30 4 1 4 5
M  V30 5 1 5 6
M  V30 6 2 5 7
M  V30 7 1 7 8
M  V30 8 2 8 9
M  V30 9 1 9 10
M  V30 10 2 10 11
M  V30 11 1 11 12
M  V30 12 1 12 13
M  V30 13 1 13 14
M  V30 14 2 14 15
M  V30 15 1 15 16
M  V30 16 1 16 17
M  V30 17 1 17 18
M  V30 18 1 18 19
M  V30 19 2 18 20
M  V30 20 2 18 21
M  V30 21 2 16 22
M  V30 22 1 22 23
M  V30 23 2 23 24
M  V30 24 2 12 25
M  V30 25 1 25 26
M  V30 26 2 26 27
M  V30 27 1 27 28
M  V30 28 1 9 3
M  V30 29 1 27 10
M  V30 30 1 24 14
M  V30 31 1 1 29
M  V30 32 1 1 30
M  V30 33 1 1 31
M  V30 34 1 4 32
M  V30 35 1 7 33
M  V30 36 1 8 34
M  V30 37 1 11 35
M  V30 38 1 13 36
M  V30 39 1 15 37
M  V30 40 1 17 38
M  V30 41 1 17 39
M  V30 42 1 19 40
M  V30 43 1 19 41
M  V30 44 1 19 42
M  V30 45 1 20 43
M  V30 46 1 22 44
M  V30 47 1 23 45
M  V30 48 1 26 46
M  V30 END BOND
M  V30 END CTAB
M  END
>  <Dataset>  (26) 
ChEMBL_Kinases

>  <Ligand_Instance>  (26) 
nan

>  <PDB_ID>  (26) 
nan

>  <Standardized_SMILES>  (26) 
COc1cc(F)ccc1-c1cc(Nc2cc(CS(C)(=N)=O)ccn2)ncc1F

>  <Name>  (26) 
ENITOCICLIB

>  <Pocket>  (26) 
nan

>  <ATP_Site>  (26) 
nan

>  <Peripheral>  (26) 
nan

>  <Num_H_Atoms_ProtBoundConf>  (26) 
nan

>  <Num_Resolved_Atoms>  (26) 
nan

>  <Num_Not_Resolved_Atoms>  (26) 
nan

$$$$
CHEMBL4756598
     RDKit          3D

  0  0  0  0  0  0  0  0  0  0999 V3000
M  V30 BEGIN CTAB
M  V30 COUNTS 84 86 0 0 0
M  V30 BEGIN ATOM
M  V30 1 C 3.872253 -2.836555 -3.062786 0
M  V30 2 C 4.076520 -3.075993 -1.571183 0
M  V30 3 C 5.434714 -3.784572 -1.426402 0
M  V30 4 C 4.159904 -1.807843 -0.797751 0
M  V30 5 O 4.338160 -2.090663 0.559248 0
M  V30 6 P 4.371598 -0.686597 1.485822 0
M  V30 7 O 5.698072 -0.570625 2.199516 0
M  V30 8 O 4.174505 0.714313 0.549963 0
M  V30 9 O 3.162924 -0.776341 2.659459 0
M  V30 10 P 2.890034 0.705773 3.406665 0
M  V30 11 O 3.928320 1.733535 3.094519 0
M  V30 12 O 2.744446 0.440949 5.069880 0
M  V30 13 O 1.393858 1.294629 2.821698 0
M  V30 14 C 1.434922 2.650107 2.600837 0
M  V30 15 C 0.091135 3.183186 2.087173 0 CFG=2
M  V30 16 O -0.916697 2.945094 2.990532 0
M  V30 17 C -1.934530 2.278495 2.361517 0 CFG=2
M  V30 18 N -2.792414 1.586787 3.286824 0
M  V30 19 C -3.886140 2.210221 3.779358 0
M  V30 20 N -4.521640 1.368423 4.615592 0
M  V30 21 C -3.862853 0.222416 4.671043 0
M  V30 22 C -4.033477 -0.973314 5.339145 0
M  V30 23 N -5.140510 -1.167674 6.215088 0
M  V30 24 N -3.115921 -1.943730 5.130488 0
M  V30 25 C -2.064233 -1.780180 4.307893 0
M  V30 26 N -1.856890 -0.617824 3.628935 0
M  V30 27 C -2.765584 0.355951 3.829980 0
M  V30 28 C -1.175267 1.343351 1.441256 0 CFG=1
M  V30 29 O -2.000939 0.910888 0.410809 0
M  V30 30 C -0.221444 2.387277 0.836679 0 CFG=1
M  V30 31 O -1.006032 3.094934 -0.067632 0
M  V30 32 P -0.448671 3.069004 -1.637563 0
M  V30 33 O 0.719273 3.974922 -1.889271 0
M  V30 34 O -1.745491 3.424491 -2.684601 0
M  V30 35 O 0.010007 1.464127 -1.994841 0
M  V30 36 C 3.052809 -4.063620 -1.112476 0 CFG=2
M  V30 37 O 3.221971 -5.272323 -1.834583 0
M  V30 38 C 1.648426 -3.632345 -1.297679 0
M  V30 39 O 1.087235 -4.417802 -2.134949 0
M  V30 40 N 0.893927 -2.591759 -0.751039 0
M  V30 41 C -0.470940 -2.335586 -1.065520 0
M  V30 42 C -0.756717 -2.042222 -2.512803 0
M  V30 43 C -2.231848 -1.806807 -2.598813 0
M  V30 44 O -2.948393 -1.885520 -1.561227 0
M  V30 45 N -2.751118 -1.500280 -3.879027 0
M  V30 46 C -4.196444 -1.278792 -3.905962 0
M  V30 47 C -4.562829 -0.962779 -5.354958 0
M  V30 48 S -6.321048 -0.666833 -5.551681 0
M  V30 49 H 3.905794 -3.814769 -3.581861 0
M  V30 50 H 2.921118 -2.347980 -3.283929 0
M  V30 51 H 4.694430 -2.236677 -3.496157 0
M  V30 52 H 5.407394 -4.532940 -0.616120 0
M  V30 53 H 5.719291 -4.296241 -2.356104 0
M  V30 54 H 6.209704 -3.052004 -1.144768 0
M  V30 55 H 3.382833 -1.070649 -0.989719 0
M  V30 56 H 5.119150 -1.294440 -1.135281 0
M  V30 57 H 4.634073 0.555657 -0.315077 0
M  V30 58 H 3.073424 1.227659 5.585938 0
M  V30 59 H 2.214131 2.852777 1.843053 0
M  V30 60 H 1.693022 3.135005 3.575143 0
M  V30 61 H 0.166219 4.255958 1.901978 0
M  V30 62 H -2.521539 2.934175 1.658807 0
M  V30 63 H -4.295509 3.209090 3.614108 0
M  V30 64 H -6.024889 -1.547190 5.765397 0
M  V30 65 H -6.113767 -1.530473 6.000609 0
M  V30 66 H -1.406528 -2.639163 4.231563 0
M  V30 67 H -0.639227 0.542686 1.945708 0
M  V30 68 H -2.516748 0.126930 0.688066 0
M  V30 69 H 0.648933 1.914180 0.369826 0
M  V30 70 H -1.783324 4.386329 -2.911890 0
M  V30 71 H -0.213679 1.221574 -2.932612 0
M  V30 72 H 3.250973 -4.303227 -0.043268 0
M  V30 73 H 3.054600 -6.027384 -1.219650 0
M  V30 74 H 1.438024 -2.018008 -0.072897 0
M  V30 75 H -0.798072 -1.435998 -0.498874 0
M  V30 76 H -1.175922 -3.136440 -0.759351 0
M  V30 77 H -0.578718 -2.951375 -3.148662 0
M  V30 78 H -0.233207 -1.178517 -2.925526 0
M  V30 79 H -2.137134 -1.440820 -4.729770 0
M  V30 80 H -4.487176 -0.429720 -3.274084 0
M  V30 81 H -4.733502 -2.205141 -3.626442 0
M  V30 82 H -4.221537 -1.747730 -6.056098 0
M  V30 83 H -4.044111 -0.023696 -5.686087 0
M  V30 84 H -6.619197 0.595104 -5.012807 0
M  V30 END ATOM
M  V30 BEGIN BOND
M  V30 1 1 1 2
M  V30 2 1 2 3
M  V30 3 1 2 4
M  V30 4 1 4 5
M  V30 5 1 5 6
M  V30 6 2 6 7
M  V30 7 1 6 8
M  V30 8 1 6 9
M  V30 9 1 9 10
M  V30 10 2 10 11
M  V30 11 1 10 12
M  V30 12 1 10 13
M  V30 13 1 13 14
M  V30 14 1 14 15
M  V30 15 1 15 16
M  V30 16 1 16 17
M  V30 17 1 17 18
M  V30 18 1 18 19
M  V30 19 2 19 20
M  V30 20 1 20 21
M  V30 21 2 21 22
M  V30 22 1 22 23
M  V30 23 1 22 24
M  V30 24 2 24 25
M  V30 25 1 25 26
M  V30 26 2 26 27
M  V30 27 1 17 28
M  V30 28 1 28 29
M  V30 29 1 28 30
M  V30 30 1 30 31
M  V30 31 1 31 32
M  V30 32 2 32 33
M  V30 33 1 32 34
M  V30 34 1 32 35
M  V30 35 1 2 36
M  V30 36 1 36 37
M  V30 37 1 36 38
M  V30 38 2 38 39
M  V30 39 1 38 40
M  V30 40 1 40 41
M  V30 41 1 41 42
M  V30 42 1 42 43
M  V30 43 2 43 44
M  V30 44 1 43 45
M  V30 45 1 45 46
M  V30 46 1 46 47
M  V30 47 1 47 48
M  V30 48 1 30 15
M  V30 49 1 27 18
M  V30 50 1 27 21
M  V30 51 1 1 49
M  V30 52 1 1 50
M  V30 53 1 1 51
M  V30 54 1 3 52
M  V30 55 1 3 53
M  V30 56 1 3 54
M  V30 57 1 4 55
M  V30 58 1 4 56
M  V30 59 1 8 57
M  V30 60 1 12 58
M  V30 61 1 14 59
M  V30 62 1 14 60
M  V30 63 1 15 61 CFG=3
M  V30 64 1 17 62 CFG=3
M  V30 65 1 19 63
M  V30 66 1 23 64
M  V30 67 1 23 65
M  V30 68 1 25 66
M  V30 69 1 28 67 CFG=1
M  V30 70 1 29 68
M  V30 71 1 30 69 CFG=3
M  V30 72 1 34 70
M  V30 73 1 35 71
M  V30 74 1 36 72 CFG=1
M  V30 75 1 37 73
M  V30 76 1 40 74
M  V30 77 1 41 75
M  V30 78 1 41 76
M  V30 79 1 42 77
M  V30 80 1 42 78
M  V30 81 1 45 79
M  V30 82 1 46 80
M  V30 83 1 46 81
M  V30 84 1 47 82
M  V30 85 1 47 83
M  V30 86 1 48 84
M  V30 END BOND
M  V30 END CTAB
M  END
>  <Dataset>  (27) 
ChEMBL_Kinases

>  <Ligand_Instance>  (27) 
nan

>  <PDB_ID>  (27) 
nan

>  <Standardized_SMILES>  (27) 
CC(C)(COP(=O)(O)OP(=O)(O)OC[C@@H]1O[C@H](n2cnc3c(N)ncnc32)[C@@H](O)[C@H]1OP(=O)(O)O)[C@H](O)C(=O)NCCC(=O)NCCS

>  <Name>  (27) 
nan

>  <Pocket>  (27) 
nan

>  <ATP_Site>  (27) 
nan

>  <Peripheral>  (27) 
nan

>  <Num_H_Atoms_ProtBoundConf>  (27) 
nan

>  <Num_Resolved_Atoms>  (27) 
nan

>  <Num_Not_Resolved_Atoms>  (27) 
nan

$$$$
CHEMBL4755890
     RDKit          3D

  0  0  0  0  0  0  0  0  0  0999 V3000
M  V30 BEGIN CTAB
M  V30 COUNTS 81 85 0 0 0
M  V30 BEGIN ATOM
M  V30 1 N 4.354181 -1.140707 5.128342 0
M  V30 2 C 5.089752 -0.126705 4.484326 0
M  V30 3 C 5.368782 -0.145196 3.135203 0
M  V30 4 C 4.965577 -1.163979 2.178437 0
M  V30 5 O 4.280207 -2.165221 2.523494 0
M  V30 6 N 5.311666 -1.096508 0.826522 0
M  V30 7 C 5.040229 -1.955645 -0.284718 0
M  V30 8 C 3.628323 -1.810384 -0.748018 0
M  V30 9 C 2.666659 -2.665940 -0.230313 0
M  V30 10 C 1.334321 -2.614319 -0.581904 0
M  V30 11 C 0.893180 -1.678889 -1.491986 0
M  V30 12 C -0.468179 -1.497990 -1.982682 0
M  V30 13 O -0.754617 -0.450222 -2.661691 0
M  V30 14 N -1.526654 -2.430872 -1.753175 0
M  V30 15 C -2.915173 -2.391086 -2.154490 0 CFG=1
M  V30 16 C -3.535767 -1.014904 -1.784449 0
M  V30 17 C -3.415484 -0.887902 -0.305468 0
M  V30 18 C -3.951650 0.354723 0.301356 0
M  V30 19 C -5.413327 0.579313 0.065187 0
M  V30 20 C -5.745253 2.055551 -0.065806 0
M  V30 21 C -5.061875 2.900222 0.965898 0
M  V30 22 C -3.589164 2.631062 1.013332 0
M  V30 23 C -3.232498 1.617065 -0.048748 0
M  V30 24 C -3.177115 -2.708614 -3.549502 0
M  V30 25 O -4.447140 -2.613977 -3.658461 0
M  V30 26 N -2.366898 -3.054143 -4.645984 0
M  V30 27 C -3.084525 -3.277424 -5.874631 0
M  V30 28 C -3.647624 -4.385821 -6.465446 0
M  V30 29 C -4.275759 -4.246924 -7.673087 0
M  V30 30 C -4.375519 -3.047695 -8.334387 0
M  V30 31 Br -5.277455 -2.988924 -10.011340 0
M  V30 32 C -3.818792 -1.942555 -7.757041 0
M  V30 33 C -3.170394 -2.039183 -6.527511 0
M  V30 34 C 1.866697 -0.837462 -1.994372 0
M  V30 35 C 3.202160 -0.861847 -1.666159 0
M  V30 36 C 6.105800 0.987004 2.823945 0
M  V30 37 N 6.252884 1.650721 3.969078 0
M  V30 38 N 5.653949 1.009229 4.987542 0
M  V30 39 C 5.566175 1.356304 6.353451 0
M  V30 40 C 6.585918 1.330240 7.312279 0
M  V30 41 C 6.254995 1.718422 8.591089 0
M  V30 42 C 4.993814 2.121754 8.956614 0
M  V30 43 C 3.977961 2.147611 7.996003 0
M  V30 44 C 4.284323 1.757619 6.686168 0
M  V30 45 H 4.825443 -1.941148 5.637063 0
M  V30 46 H 3.335685 -1.004039 5.042615 0
M  V30 47 H 5.890079 -0.243266 0.557506 0
M  V30 48 H 5.687341 -1.808133 -1.144589 0
M  V30 49 H 5.171418 -3.019768 0.023308 0
M  V30 50 H 2.891145 -3.455567 0.505997 0
M  V30 51 H 0.588089 -3.278070 -0.180380 0
M  V30 52 H -1.172091 -3.266980 -1.192010 0
M  V30 53 H -3.463504 -3.062020 -1.418980 0
M  V30 54 H -3.000542 -0.263855 -2.371607 0
M  V30 55 H -4.625011 -1.042398 -2.049967 0
M  V30 56 H -3.886599 -1.777567 0.148206 0
M  V30 57 H -2.310931 -0.988240 -0.079288 0
M  V30 58 H -3.828809 0.236221 1.422373 0
M  V30 59 H -5.804740 0.061141 -0.820803 0
M  V30 60 H -6.031138 0.202253 0.930986 0
M  V30 61 H -6.851156 2.140633 0.145624 0
M  V30 62 H -5.531513 2.367889 -1.094647 0
M  V30 63 H -5.184229 3.976953 0.648325 0
M  V30 64 H -5.556047 2.802435 1.973512 0
M  V30 65 H -2.974516 3.552204 0.938407 0
M  V30 66 H -3.400850 2.164488 2.027138 0
M  V30 67 H -2.129787 1.417203 -0.064735 0
M  V30 68 H -3.535579 2.043147 -1.030052 0
M  V30 69 H -1.359308 -3.079553 -4.347953 0
M  V30 70 H -3.487070 -5.237778 -5.828572 0
M  V30 71 H -4.682676 -5.190424 -8.034845 0
M  V30 72 H -3.936195 -1.026511 -8.339352 0
M  V30 73 H -2.796873 -1.065652 -6.233040 0
M  V30 74 H 1.650347 -0.045586 -2.731067 0
M  V30 75 H 3.942682 -0.195718 -2.072074 0
M  V30 76 H 6.463875 1.238603 1.835670 0
M  V30 77 H 7.542430 1.000180 6.931947 0
M  V30 78 H 7.073762 1.683456 9.303865 0
M  V30 79 H 4.808255 2.411321 9.987560 0
M  V30 80 H 2.984724 2.473691 8.321869 0
M  V30 81 H 3.427684 1.817724 6.036271 0
M  V30 END ATOM
M  V30 BEGIN BOND
M  V30 1 1 1 2
M  V30 2 2 2 3
M  V30 3 1 3 4
M  V30 4 2 4 5
M  V30 5 1 4 6
M  V30 6 1 6 7
M  V30 7 1 7 8
M  V30 8 2 8 9
M  V30 9 1 9 10
M  V30 10 2 10 11
M  V30 11 1 11 12
M  V30 12 2 12 13
M  V30 13 1 12 14
M  V30 14 1 14 15
M  V30 15 1 15 16
M  V30 16 1 16 17
M  V30 17 1 17 18
M  V30 18 1 18 19
M  V30 19 1 19 20
M  V30 20 1 20 21
M  V30 21 1 21 22
M  V30 22 1 22 23
M  V30 23 1 15 24
M  V30 24 2 24 25
M  V30 25 1 24 26
M  V30 26 1 26 27
M  V30 27 2 27 28
M  V30 28 1 28 29
M  V30 29 2 29 30
M  V30 30 1 30 31
M  V30 31 1 30 32
M  V30 32 2 32 33
M  V30 33 1 11 34
M  V30 34 2 34 35
M  V30 35 1 3 36
M  V30 36 2 36 37
M  V30 37 1 37 38
M  V30 38 1 38 39
M  V30 39 2 39 40
M  V30 40 1 40 41
M  V30 41 2 41 42
M  V30 42 1 42 43
M  V30 43 2 43 44
M  V30 44 1 38 2
M  V30 45 1 44 39
M  V30 46 1 35 8
M  V30 47 1 23 18
M  V30 48 1 33 27
M  V30 49 1 1 45
M  V30 50 1 1 46
M  V30 51 1 6 47
M  V30 52 1 7 48
M  V30 53 1 7 49
M  V30 54 1 9 50
M  V30 55 1 10 51
M  V30 56 1 14 52
M  V30 57 1 15 53 CFG=1
M  V30 58 1 16 54
M  V30 59 1 16 55
M  V30 60 1 17 56
M  V30 61 1 17 57
M  V30 62 1 18 58
M  V30 63 1 19 59
M  V30 64 1 19 60
M  V30 65 1 20 61
M  V30 66 1 20 62
M  V30 67 1 21 63
M  V30 68 1 21 64
M  V30 69 1 22 65
M  V30 70 1 22 66
M  V30 71 1 23 67
M  V30 72 1 23 68
M  V30 73 1 26 69
M  V30 74 1 28 70
M  V30 75 1 29 71
M  V30 76 1 32 72
M  V30 77 1 33 73
M  V30 78 1 34 74
M  V30 79 1 35 75
M  V30 80 1 36 76
M  V30 81 1 40 77
M  V30 82 1 41 78
M  V30 83 1 42 79
M  V30 84 1 43 80
M  V30 85 1 44 81
M  V30 END BOND
M  V30 END CTAB
M  END
>  <Dataset>  (28) 
ChEMBL_Kinases

>  <Ligand_Instance>  (28) 
nan

>  <PDB_ID>  (28) 
nan

>  <Standardized_SMILES>  (28) 
Nc1c(C(=O)NCc2ccc(C(=O)N[C@@H](CCC3CCCCC3)C(=O)Nc3ccc(Br)cc3)cc2)cnn1-c1ccccc1

>  <Name>  (28) 
nan

>  <Pocket>  (28) 
nan

>  <ATP_Site>  (28) 
nan

>  <Peripheral>  (28) 
nan

>  <Num_H_Atoms_ProtBoundConf>  (28) 
nan

>  <Num_Resolved_Atoms>  (28) 
nan

>  <Num_Not_Resolved_Atoms>  (28) 
nan

$$$$
CHEMBL4291946
     RDKit          3D

  0  0  0  0  0  0  0  0  0  0999 V3000
M  V30 BEGIN CTAB
M  V30 COUNTS 63 67 0 0 0
M  V30 BEGIN ATOM
M  V30 1 C 0.901560 1.690059 0.638635 0
M  V30 2 C 1.119494 1.324161 2.075452 0
M  V30 3 N 2.169896 1.447536 2.848846 0
M  V30 4 C 2.293825 1.145979 3.972389 0
M  V30 5 C 3.333810 1.183956 5.031891 0
M  V30 6 C 3.541398 2.579875 5.577772 0
M  V30 7 C 4.283882 3.387396 4.566889 0
M  V30 8 N 5.568937 2.809892 4.218453 0
M  V30 9 C 6.154178 3.653012 3.191312 0
M  V30 10 C 5.425815 1.486387 3.672769 0
M  V30 11 C 4.597172 0.572231 4.538259 0
M  V30 12 S 0.602204 0.434292 4.402732 0
M  V30 13 C -0.015084 0.754908 2.663982 0
M  V30 14 C -1.426237 0.379524 2.346927 0
M  V30 15 C -2.182307 -0.123754 3.345101 0
M  V30 16 C -3.488298 -0.442616 2.953501 0
M  V30 17 N -3.946546 -0.261281 1.689465 0
M  V30 18 C -3.127579 0.252137 0.729219 0
M  V30 19 N -3.536455 0.476981 -0.610364 0
M  V30 20 C -3.552727 -0.693351 -1.419777 0
M  V30 21 C -3.246349 -1.936873 -0.927414 0
M  V30 22 C -3.273922 -3.067923 -1.702269 0
M  V30 23 C -3.613428 -3.033388 -3.036140 0
M  V30 24 N -3.670654 -4.177156 -3.874899 0
M  V30 25 C -3.894075 -4.182632 -5.305341 0
M  V30 26 C -2.651337 -4.780050 -5.968356 0
M  V30 27 N -2.349423 -6.095843 -5.490619 0
M  V30 28 C -2.313816 -6.194553 -4.057870 0
M  V30 29 C -3.524152 -5.544590 -3.420087 0
M  V30 30 C -3.916681 -1.798681 -3.522959 0
M  V30 31 C -3.896865 -0.644547 -2.766637 0
M  V30 32 N -1.850916 0.563858 1.111417 0
M  V30 33 H 0.595543 0.824074 0.017926 0
M  V30 34 H 0.059123 2.432930 0.591278 0
M  V30 35 H 1.774505 2.226281 0.223797 0
M  V30 36 H 2.999688 0.584940 5.935288 0
M  V30 37 H 2.550249 3.047202 5.724845 0
M  V30 38 H 4.064360 2.500255 6.553067 0
M  V30 39 H 3.628679 3.547238 3.687685 0
M  V30 40 H 4.519076 4.423785 4.937014 0
M  V30 41 H 6.663166 4.551918 3.602569 0
M  V30 42 H 6.798971 3.074844 2.484952 0
M  V30 43 H 5.298367 4.046972 2.575871 0
M  V30 44 H 4.987116 1.560521 2.654096 0
M  V30 45 H 6.436367 1.046391 3.561521 0
M  V30 46 H 4.360619 -0.320169 3.919707 0
M  V30 47 H 5.175969 0.189510 5.404033 0
M  V30 48 H -1.907731 -0.297877 4.358987 0
M  V30 49 H -4.166179 -0.854130 3.695856 0
M  V30 50 H -3.817589 1.377386 -1.055074 0
M  V30 51 H -2.967576 -2.031890 0.131879 0
M  V30 52 H -3.015494 -3.999847 -1.227339 0
M  V30 53 H -4.762983 -4.857973 -5.516044 0
M  V30 54 H -4.040673 -3.192436 -5.750579 0
M  V30 55 H -1.808791 -4.103161 -5.711990 0
M  V30 56 H -2.842046 -4.858506 -7.047389 0
M  V30 57 H -2.827084 -6.874688 -5.965400 0
M  V30 58 H -1.369117 -5.844107 -3.623225 0
M  V30 59 H -2.411075 -7.293205 -3.825515 0
M  V30 60 H -4.403096 -6.143173 -3.778510 0
M  V30 61 H -3.405227 -5.618385 -2.333701 0
M  V30 62 H -4.201461 -1.591877 -4.537422 0
M  V30 63 H -4.136461 0.349666 -3.140168 0
M  V30 END ATOM
M  V30 BEGIN BOND
M  V30 1 1 1 2
M  V30 2 1 2 3
M  V30 3 2 3 4
M  V30 4 1 4 5
M  V30 5 1 5 6
M  V30 6 1 6 7
M  V30 7 1 7 8
M  V30 8 1 8 9
M  V30 9 1 8 10
M  V30 10 1 10 11
M  V30 11 1 4 12
M  V30 12 1 12 13
M  V30 13 1 13 14
M  V30 14 2 14 15
M  V30 15 1 15 16
M  V30 16 2 16 17
M  V30 17 1 17 18
M  V30 18 1 18 19
M  V30 19 1 19 20
M  V30 20 2 20 21
M  V30 21 1 21 22
M  V30 22 2 22 23
M  V30 23 1 23 24
M  V30 24 1 24 25
M  V30 25 1 25 26
M  V30 26 1 26 27
M  V30 27 1 27 28
M  V30 28 1 28 29
M  V30 29 1 23 30
M  V30 30 2 30 31
M  V30 31 2 18 32
M  V30 32 2 13 2
M  V30 33 1 32 14
M  V30 34 1 11 5
M  V30 35 1 31 20
M  V30 36 1 29 24
M  V30 37 1 1 33
M  V30 38 1 1 34
M  V30 39 1 1 35
M  V30 40 1 5 36
M  V30 41 1 6 37
M  V30 42 1 6 38
M  V30 43 1 7 39
M  V30 44 1 7 40
M  V30 45 1 9 41
M  V30 46 1 9 42
M  V30 47 1 9 43
M  V30 48 1 10 44
M  V30 49 1 10 45
M  V30 50 1 11 46
M  V30 51 1 11 47
M  V30 52 1 15 48
M  V30 53 1 16 49
M  V30 54 1 19 50
M  V30 55 1 21 51
M  V30 56 1 22 52
M  V30 57 1 25 53
M  V30 58 1 25 54
M  V30 59 1 26 55
M  V30 60 1 26 56
M  V30 61 1 27 57
M  V30 62 1 28 58
M  V30 63 1 28 59
M  V30 64 1 29 60
M  V30 65 1 29 61
M  V30 66 1 30 62
M  V30 67 1 31 63
M  V30 END BOND
M  V30 END CTAB
M  END
>  <Dataset>  (29) 
ChEMBL_Kinases

>  <Ligand_Instance>  (29) 
nan

>  <PDB_ID>  (29) 
nan

>  <Standardized_SMILES>  (29) 
Cc1nc(C2CCN(C)CC2)sc1-c1ccnc(Nc2ccc(N3CCNCC3)cc2)n1

>  <Name>  (29) 
nan

>  <Pocket>  (29) 
nan

>  <ATP_Site>  (29) 
nan

>  <Peripheral>  (29) 
nan

>  <Num_H_Atoms_ProtBoundConf>  (29) 
nan

>  <Num_Resolved_Atoms>  (29) 
nan

>  <Num_Not_Resolved_Atoms>  (29) 
nan

$$$$
CHEMBL4291759
     RDKit          3D

  0  0  0  0  0  0  0  0  0  0999 V3000
M  V30 BEGIN CTAB
M  V30 COUNTS 28 29 0 0 0
M  V30 BEGIN ATOM
M  V30 1 O 0.628619 -2.789065 5.145815 0
M  V30 2 C 1.293864 -2.911003 4.060333 0
M  V30 3 C 0.937443 -2.107688 2.900109 0
M  V30 4 C 1.582124 -2.145375 1.682580 0
M  V30 5 C 1.238554 -1.382914 0.586189 0
M  V30 6 C 0.168071 -0.510297 0.703637 0
M  V30 7 C -0.291576 0.348154 -0.383306 0
M  V30 8 C -0.863252 1.579809 -0.133945 0
M  V30 9 C -1.290897 2.374946 -1.175056 0
M  V30 10 C -1.143481 1.929728 -2.479700 0
M  V30 11 O -1.562332 2.703546 -3.546177 0
M  V30 12 C -0.565760 0.688250 -2.700173 0
M  V30 13 C -0.120154 -0.145502 -1.667682 0
M  V30 14 C -0.511111 -0.440086 1.914359 0
M  V30 15 C -0.122598 -1.229107 2.982159 0
M  V30 16 C 2.418924 -3.881554 4.028853 0
M  V30 17 Cl 3.906181 -2.986594 3.626479 0
M  V30 18 Cl 2.109199 -5.043185 2.733412 0
M  V30 19 H 2.413181 -2.810086 1.565524 0
M  V30 20 H 1.768394 -1.441303 -0.350103 0
M  V30 21 H -0.986648 1.942556 0.860642 0
M  V30 22 H -1.747209 3.349088 -1.062073 0
M  V30 23 H -1.426342 3.699377 -3.478415 0
M  V30 24 H -0.431560 0.300487 -3.715940 0
M  V30 25 H 0.325056 -1.107781 -1.893002 0
M  V30 26 H -1.350845 0.246722 2.000631 0
M  V30 27 H -0.700971 -1.112344 3.879265 0
M  V30 28 H 2.530732 -4.371765 5.018195 0
M  V30 END ATOM
M  V30 BEGIN BOND
M  V30 1 2 1 2
M  V30 2 1 2 3
M  V30 3 2 3 4
M  V30 4 1 4 5
M  V30 5 2 5 6
M  V30 6 1 6 7
M  V30 7 2 7 8
M  V30 8 1 8 9
M  V30 9 2 9 10
M  V30 10 1 10 11
M  V30 11 1 10 12
M  V30 12 2 12 13
M  V30 13 1 6 14
M  V30 14 2 14 15
M  V30 15 1 2 16
M  V30 16 1 16 17
M  V30 17 1 16 18
M  V30 18 1 15 3
M  V30 19 1 13 7
M  V30 20 1 4 19
M  V30 21 1 5 20
M  V30 22 1 8 21
M  V30 23 1 9 22
M  V30 24 1 11 23
M  V30 25 1 12 24
M  V30 26 1 13 25
M  V30 27 1 14 26
M  V30 28 1 15 27
M  V30 29 1 16 28
M  V30 END BOND
M  V30 END CTAB
M  END
>  <Dataset>  (30) 
ChEMBL_Kinases

>  <Ligand_Instance>  (30) 
nan

>  <PDB_ID>  (30) 
nan

>  <Standardized_SMILES>  (30) 
O=C(c1ccc(-c2ccc(O)cc2)cc1)C(Cl)Cl

>  <Name>  (30) 
nan

>  <Pocket>  (30) 
nan

>  <ATP_Site>  (30) 
nan

>  <Peripheral>  (30) 
nan

>  <Num_H_Atoms_ProtBoundConf>  (30) 
nan

>  <Num_Resolved_Atoms>  (30) 
nan

>  <Num_Not_Resolved_Atoms>  (30) 
nan

$$$$
CHEMBL4291675
     RDKit          3D

  0  0  0  0  0  0  0  0  0  0999 V3000
M  V30 BEGIN CTAB
M  V30 COUNTS 63 67 0 0 0
M  V30 BEGIN ATOM
M  V30 1 C 3.545081 0.748048 4.255378 0
M  V30 2 C 3.644434 0.066349 2.916419 0
M  V30 3 C 4.440034 -1.065281 2.740464 0
M  V30 4 C 4.438851 -1.595779 1.447099 0
M  V30 5 C 3.691342 -1.010840 0.449564 0
M  V30 6 C 2.912173 0.120033 0.677003 0
M  V30 7 C 2.187023 0.596298 -0.492882 0
M  V30 8 N 2.721761 0.984758 -1.667419 0
M  V30 9 N 1.783301 1.348131 -2.508065 0
M  V30 10 C 0.560077 1.226003 -1.948942 0
M  V30 11 C 0.831409 0.754914 -0.688871 0
M  V30 12 C -0.174053 0.467784 0.326344 0
M  V30 13 C -0.130740 1.347846 1.407339 0
M  V30 14 C -1.010223 1.223702 2.461580 0
M  V30 15 N -1.933663 0.219245 2.435931 0
M  V30 16 C -1.946206 -0.614459 1.372959 0
M  V30 17 N -2.946357 -1.613134 1.453442 0
M  V30 18 C -3.075932 -2.923030 2.037436 0
M  V30 19 C -4.280260 -3.579555 1.849485 0
M  V30 20 C -4.332145 -4.813774 2.441669 0
M  V30 21 C -3.315918 -5.404331 3.169822 0
M  V30 22 S -3.497226 -7.002488 3.894717 0
M  V30 23 N -4.120852 -6.736693 5.490216 0
M  V30 24 O -2.209801 -7.760033 3.925637 0
M  V30 25 O -4.524665 -7.724953 3.044191 0
M  V30 26 C -2.149079 -4.671924 3.303302 0
M  V30 27 C -2.003789 -3.421804 2.743362 0
M  V30 28 C -1.103680 -0.548042 0.294572 0
M  V30 29 C -0.532666 1.629364 -2.875434 0
M  V30 30 C -0.952219 0.420976 -3.687937 0
M  V30 31 C 0.258685 2.579550 -3.785648 0
M  V30 32 C -0.395073 2.759335 -5.122606 0
M  V30 33 C 0.380569 3.868689 -3.026598 0
M  V30 34 C 1.580709 1.856615 -3.873526 0
M  V30 35 N 2.914574 0.635007 1.936387 0
M  V30 36 H 2.481988 0.552018 4.580250 0
M  V30 37 H 4.175105 0.260699 4.999939 0
M  V30 38 H 3.664316 1.846985 4.171378 0
M  V30 39 H 5.001038 -1.469587 3.573334 0
M  V30 40 H 5.062065 -2.489625 1.288445 0
M  V30 41 H 3.762901 -1.506361 -0.525606 0
M  V30 42 H 0.591118 2.176767 1.483383 0
M  V30 43 H -0.970704 1.907761 3.292394 0
M  V30 44 H -3.721654 -1.163796 0.920292 0
M  V30 45 H -5.097608 -3.152483 1.287558 0
M  V30 46 H -5.243590 -5.401629 2.345027 0
M  V30 47 H -4.702717 -5.874118 5.547958 0
M  V30 48 H -3.294000 -6.737153 6.129634 0
M  V30 49 H -1.340678 -5.140871 3.882022 0
M  V30 50 H -1.086397 -2.863475 2.856441 0
M  V30 51 H -1.112015 -1.204743 -0.543360 0
M  V30 52 H -1.369896 2.114313 -2.376856 0
M  V30 53 H -2.052088 0.419557 -3.864683 0
M  V30 54 H -0.722281 -0.511299 -3.108980 0
M  V30 55 H -0.368687 0.336505 -4.626071 0
M  V30 56 H -1.246716 2.053221 -5.293438 0
M  V30 57 H -0.790450 3.783723 -5.300053 0
M  V30 58 H 0.338927 2.550752 -5.947336 0
M  V30 59 H -0.479727 3.977734 -2.301261 0
M  V30 60 H 0.372785 4.769596 -3.697415 0
M  V30 61 H 1.325123 3.885866 -2.465795 0
M  V30 62 H 2.354468 2.593615 -4.157634 0
M  V30 63 H 1.558430 0.986936 -4.525664 0
M  V30 END ATOM
M  V30 BEGIN BOND
M  V30 1 1 1 2
M  V30 2 2 2 3
M  V30 3 1 3 4
M  V30 4 2 4 5
M  V30 5 1 5 6
M  V30 6 1 6 7
M  V30 7 2 7 8
M  V30 8 1 8 9
M  V30 9 1 9 10
M  V30 10 2 10 11
M  V30 11 1 11 12
M  V30 12 2 12 13
M  V30 13 1 13 14
M  V30 14 2 14 15
M  V30 15 1 15 16
M  V30 16 1 16 17
M  V30 17 1 17 18
M  V30 18 2 18 19
M  V30 19 1 19 20
M  V30 20 2 20 21
M  V30 21 1 21 22
M  V30 22 1 22 23
M  V30 23 2 22 24
M  V30 24 2 22 25
M  V30 25 1 21 26
M  V30 26 2 26 27
M  V30 27 2 16 28
M  V30 28 1 10 29
M  V30 29 1 29 30
M  V30 30 1 29 31
M  V30 31 1 31 32
M  V30 32 1 31 33
M  V30 33 1 31 34
M  V30 34 2 6 35
M  V30 35 1 35 2
M  V30 36 1 11 7
M  V30 37 1 28 12
M  V30 38 1 34 9
M  V30 39 1 27 18
M  V30 40 1 1 36
M  V30 41 1 1 37
M  V30 42 1 1 38
M  V30 43 1 3 39
M  V30 44 1 4 40
M  V30 45 1 5 41
M  V30 46 1 13 42
M  V30 47 1 14 43
M  V30 48 1 17 44
M  V30 49 1 19 45
M  V30 50 1 20 46
M  V30 51 1 23 47
M  V30 52 1 23 48
M  V30 53 1 26 49
M  V30 54 1 27 50
M  V30 55 1 28 51
M  V30 56 1 29 52
M  V30 57 1 30 53
M  V30 58 1 30 54
M  V30 59 1 30 55
M  V30 60 1 32 56
M  V30 61 1 32 57
M  V30 62 1 32 58
M  V30 63 1 33 59
M  V30 64 1 33 60
M  V30 65 1 33 61
M  V30 66 1 34 62
M  V30 67 1 34 63
M  V30 END BOND
M  V30 END CTAB
M  END
>  <Dataset>  (31) 
ChEMBL_Kinases

>  <Ligand_Instance>  (31) 
nan

>  <PDB_ID>  (31) 
nan

>  <Standardized_SMILES>  (31) 
Cc1cccc(-c2nn3c(c2-c2ccnc(Nc4ccc(S(N)(=O)=O)cc4)c2)C(C)C(C)(C)C3)n1

>  <Name>  (31) 
nan

>  <Pocket>  (31) 
nan

>  <ATP_Site>  (31) 
nan

>  <Peripheral>  (31) 
nan

>  <Num_H_Atoms_ProtBoundConf>  (31) 
nan

>  <Num_Resolved_Atoms>  (31) 
nan

>  <Num_Not_Resolved_Atoms>  (31) 
nan

$$$$
CHEMBL4291519
     RDKit          3D

  0  0  0  0  0  0  0  0  0  0999 V3000
M  V30 BEGIN CTAB
M  V30 COUNTS 42 45 0 0 0
M  V30 BEGIN ATOM
M  V30 1 C 0.369538 -3.767433 3.089314 0
M  V30 2 C -0.678766 -4.129281 2.082365 0
M  V30 3 N -1.694775 -3.082442 2.046541 0
M  V30 4 C -1.347986 -1.756756 1.708943 0
M  V30 5 N -0.098479 -1.425202 1.721043 0
M  V30 6 N 0.337953 -0.139815 1.402041 0
M  V30 7 C -0.462560 0.815462 1.071594 0
M  V30 8 C 0.281712 2.043417 0.794000 0
M  V30 9 C -0.337384 3.239829 0.411880 0
M  V30 10 C 0.296189 4.427450 0.136267 0
M  V30 11 C 1.668065 4.449455 0.244159 0
M  V30 12 N 2.590098 5.410823 0.055036 0
M  V30 13 C 3.824342 4.889984 0.301530 0
M  V30 14 O 4.889923 5.558186 0.205365 0
M  V30 15 N 3.706729 3.576195 0.654890 0
M  V30 16 C 2.385102 3.332026 0.612578 0
M  V30 17 C 1.672468 2.185784 0.870192 0
M  V30 18 C -1.937763 0.954729 0.910707 0
M  V30 19 S -2.683001 -0.648863 1.291882 0
M  V30 20 C -0.135892 -4.440815 0.736763 0
M  V30 21 C 1.225377 -4.582831 0.557801 0
M  V30 22 C 1.674045 -4.875855 -0.731747 0
M  V30 23 C 0.736598 -5.003664 -1.736066 0
M  V30 24 F 1.257509 -5.290749 -2.967753 0
M  V30 25 C -0.616679 -4.859920 -1.545342 0
M  V30 26 C -1.080313 -4.566168 -0.258023 0
M  V30 27 H 0.731150 -4.668374 3.656441 0
M  V30 28 H 1.198310 -3.157696 2.711171 0
M  V30 29 H -0.143237 -3.136044 3.873070 0
M  V30 30 H -1.143820 -5.076339 2.445009 0
M  V30 31 H -2.702208 -3.322573 2.276684 0
M  V30 32 H -1.430215 3.241710 0.320574 0
M  V30 33 H -0.280611 5.294304 -0.151250 0
M  V30 34 H 2.364811 6.390003 -0.234316 0
M  V30 35 H 4.494191 2.933301 0.898012 0
M  V30 36 H 2.225592 1.303156 1.160103 0
M  V30 37 H -2.345041 1.758995 1.567327 0
M  V30 38 H -2.216357 1.234953 -0.122721 0
M  V30 39 H 1.944088 -4.480558 1.349158 0
M  V30 40 H 2.749161 -4.995220 -0.909087 0
M  V30 41 H -1.285124 -4.977425 -2.393152 0
M  V30 42 H -2.137848 -4.448282 -0.081269 0
M  V30 END ATOM
M  V30 BEGIN BOND
M  V30 1 1 1 2
M  V30 2 1 2 3
M  V30 3 1 3 4
M  V30 4 2 4 5
M  V30 5 1 5 6
M  V30 6 2 6 7
M  V30 7 1 7 8
M  V30 8 2 8 9
M  V30 9 1 9 10
M  V30 10 2 10 11
M  V30 11 1 11 12
M  V30 12 1 12 13
M  V30 13 2 13 14
M  V30 14 1 13 15
M  V30 15 1 15 16
M  V30 16 2 16 17
M  V30 17 1 7 18
M  V30 18 1 18 19
M  V30 19 1 2 20
M  V30 20 2 20 21
M  V30 21 1 21 22
M  V30 22 2 22 23
M  V30 23 1 23 24
M  V30 24 1 23 25
M  V30 25 2 25 26
M  V30 26 1 19 4
M  V30 27 1 26 20
M  V30 28 1 17 8
M  V30 29 1 16 11
M  V30 30 1 1 27
M  V30 31 1 1 28
M  V30 32 1 1 29
M  V30 33 1 2 30
M  V30 34 1 3 31
M  V30 35 1 9 32
M  V30 36 1 10 33
M  V30 37 1 12 34
M  V30 38 1 15 35
M  V30 39 1 17 36
M  V30 40 1 18 37
M  V30 41 1 18 38
M  V30 42 1 21 39
M  V30 43 1 22 40
M  V30 44 1 25 41
M  V30 45 1 26 42
M  V30 END BOND
M  V30 END CTAB
M  END
>  <Dataset>  (32) 
ChEMBL_Kinases

>  <Ligand_Instance>  (32) 
nan

>  <PDB_ID>  (32) 
nan

>  <Standardized_SMILES>  (32) 
CC(NC1=NN=C(c2ccc3[nH]c(=O)[nH]c3c2)CS1)c1ccc(F)cc1

>  <Name>  (32) 
nan

>  <Pocket>  (32) 
nan

>  <ATP_Site>  (32) 
nan

>  <Peripheral>  (32) 
nan

>  <Num_H_Atoms_ProtBoundConf>  (32) 
nan

>  <Num_Resolved_Atoms>  (32) 
nan

>  <Num_Not_Resolved_Atoms>  (32) 
nan

$$$$
CHEMBL4291472
     RDKit          3D

  0  0  0  0  0  0  0  0  0  0999 V3000
M  V30 BEGIN CTAB
M  V30 COUNTS 43 46 0 0 0
M  V30 BEGIN ATOM
M  V30 1 O -1.857130 -2.132263 1.745395 0
M  V30 2 C -1.206102 -3.110213 2.221349 0
M  V30 3 N 0.122374 -2.819932 2.589703 0
M  V30 4 C 0.422166 -1.450983 2.329064 0
M  V30 5 C 0.936095 -1.065852 1.107063 0
M  V30 6 C 1.247374 0.236412 0.789306 0
M  V30 7 C 1.788094 0.662001 -0.492990 0
M  V30 8 C 2.008024 -0.279599 -1.471177 0
M  V30 9 C 2.517518 0.188536 -2.661312 0
M  V30 10 N 2.796464 1.468756 -2.897005 0
M  V30 11 C 2.576219 2.399809 -1.921991 0
M  V30 12 N 2.854308 3.778305 -2.131414 0
M  V30 13 C 2.715418 4.911507 -1.267936 0
M  V30 14 C 1.291311 5.110096 -0.776974 0
M  V30 15 C 2.417504 4.790668 0.166909 0
M  V30 16 N 2.079427 1.943161 -0.761618 0
M  V30 17 C 0.990279 1.111508 1.822407 0
M  V30 18 N 0.490552 0.773449 3.025085 0
M  V30 19 C 0.194363 -0.507733 3.310884 0
M  V30 20 O -0.274080 -0.911121 4.404098 0
M  V30 21 C -1.864207 -4.412006 2.344279 0
M  V30 22 C -3.175664 -4.463635 1.918670 0
M  V30 23 C -3.884958 -5.666917 1.998478 0
M  V30 24 C -3.195692 -6.752850 2.515733 0
M  V30 25 C -1.886798 -6.696353 2.939200 0
M  V30 26 C -1.193850 -5.485175 2.851834 0
M  V30 27 H 0.693225 -3.609250 2.989032 0
M  V30 28 H 1.087136 -1.856837 0.390770 0
M  V30 29 H 1.822234 -1.338624 -1.397997 0
M  V30 30 H 2.754293 -0.412453 -3.546878 0
M  V30 31 H 3.226827 3.989700 -3.099828 0
M  V30 32 H 3.294248 5.816902 -1.557211 0
M  V30 33 H 0.924559 6.135023 -0.875079 0
M  V30 34 H 0.548796 4.318727 -0.940650 0
M  V30 35 H 2.664782 5.654940 0.832007 0
M  V30 36 H 2.519858 3.802806 0.606094 0
M  V30 37 H 1.185416 2.168890 1.715551 0
M  V30 38 H 0.311478 1.470982 3.779512 0
M  V30 39 H -3.716492 -3.610692 1.512584 0
M  V30 40 H -4.913525 -5.765828 1.680082 0
M  V30 41 H -3.723828 -7.709341 2.591121 0
M  V30 42 H -1.432472 -7.608124 3.331839 0
M  V30 43 H -0.180578 -5.445777 3.180803 0
M  V30 END ATOM
M  V30 BEGIN BOND
M  V30 1 2 1 2
M  V30 2 1 2 3
M  V30 3 1 3 4
M  V30 4 2 4 5
M  V30 5 1 5 6
M  V30 6 1 6 7
M  V30 7 2 7 8
M  V30 8 1 8 9
M  V30 9 2 9 10
M  V30 10 1 10 11
M  V30 11 1 11 12
M  V30 12 1 12 13
M  V30 13 1 13 14
M  V30 14 1 14 15
M  V30 15 2 11 16
M  V30 16 2 6 17
M  V30 17 1 17 18
M  V30 18 1 18 19
M  V30 19 2 19 20
M  V30 20 1 2 21
M  V30 21 2 21 22
M  V30 22 1 22 23
M  V30 23 2 23 24
M  V30 24 1 24 25
M  V30 25 2 25 26
M  V30 26 1 19 4
M  V30 27 1 26 21
M  V30 28 1 16 7
M  V30 29 1 15 13
M  V30 30 1 3 27
M  V30 31 1 5 28
M  V30 32 1 8 29
M  V30 33 1 9 30
M  V30 34 1 12 31
M  V30 35 1 13 32
M  V30 36 1 14 33
M  V30 37 1 14 34
M  V30 38 1 15 35
M  V30 39 1 15 36
M  V30 40 1 17 37
M  V30 41 1 18 38
M  V30 42 1 22 39
M  V30 43 1 23 40
M  V30 44 1 24 41
M  V30 45 1 25 42
M  V30 46 1 26 43
M  V30 END BOND
M  V30 END CTAB
M  END
>  <Dataset>  (33) 
ChEMBL_Kinases

>  <Ligand_Instance>  (33) 
nan

>  <PDB_ID>  (33) 
nan

>  <Standardized_SMILES>  (33) 
O=C(Nc1cc(-c2ccnc(NC3CC3)n2)c[nH]c1=O)c1ccccc1

>  <Name>  (33) 
nan

>  <Pocket>  (33) 
nan

>  <ATP_Site>  (33) 
nan

>  <Peripheral>  (33) 
nan

>  <Num_H_Atoms_ProtBoundConf>  (33) 
nan

>  <Num_Resolved_Atoms>  (33) 
nan

>  <Num_Not_Resolved_Atoms>  (33) 
nan

$$$$
CHEMBL4291453
     RDKit          3D

  0  0  0  0  0  0  0  0  0  0999 V3000
M  V30 BEGIN CTAB
M  V30 COUNTS 68 71 0 0 0
M  V30 BEGIN ATOM
M  V30 1 C 10.212496 -2.966522 1.996800 0
M  V30 2 C 8.725149 -3.160458 2.024708 0
M  V30 3 O 8.001875 -1.946766 2.080110 0
M  V30 4 C 8.158671 -1.031646 1.051683 0
M  V30 5 O 8.960357 -1.355068 0.108611 0
M  V30 6 C 7.462761 0.240902 1.015630 0
M  V30 7 C 7.704182 1.072553 -0.071354 0
M  V30 8 C 7.043120 2.286486 -0.112615 0
M  V30 9 C 6.174516 2.641043 0.905214 0
M  V30 10 C 5.955761 1.788459 1.975912 0
M  V30 11 N 5.049613 2.145922 3.041913 0
M  V30 12 C 3.690728 1.743749 2.878107 0
M  V30 13 O 3.509131 1.117787 1.785490 0
M  V30 14 N 2.630898 1.987708 3.794025 0
M  V30 15 C 1.336710 1.453801 3.361131 0
M  V30 16 N 0.858359 0.311712 3.601581 0
M  V30 17 C -0.326214 -0.031179 3.140440 0
M  V30 18 C -1.067045 0.862556 2.380837 0
M  V30 19 S -0.040424 2.253520 2.315966 0
M  V30 20 C -2.396950 0.648693 1.785499 0
M  V30 21 C -2.805760 -0.795926 1.935966 0
M  V30 22 N -4.251838 -0.853161 1.853697 0
M  V30 23 C -4.832666 -1.610363 0.786044 0
M  V30 24 O -4.108381 -2.219047 -0.073354 0
M  V30 25 N -6.239524 -1.795516 0.526040 0
M  V30 26 C -6.523418 -2.616275 -0.632406 0
M  V30 27 C -6.665062 -3.986799 -0.569566 0
M  V30 28 C -6.936482 -4.669144 -1.740156 0
M  V30 29 C -7.068717 -4.016814 -2.963679 0
M  V30 30 C -6.924398 -2.630259 -3.018680 0
M  V30 31 C -7.064508 -1.930507 -4.313999 0
M  V30 32 O -7.308610 -2.591476 -5.333325 0
M  V30 33 O -6.906971 -0.547921 -4.287329 0
M  V30 34 C -7.024929 0.200855 -5.482600 0
M  V30 35 C -6.818303 1.678822 -5.228766 0
M  V30 36 C -6.655309 -1.973068 -1.846718 0
M  V30 37 C -2.356909 -1.390008 3.231823 0
M  V30 38 C -0.876025 -1.406526 3.440379 0
M  V30 39 C 6.606226 0.553961 2.051284 0
M  V30 40 H 10.551206 -2.101782 2.612560 0
M  V30 41 H 10.612633 -2.919704 0.951918 0
M  V30 42 H 10.671526 -3.874546 2.453640 0
M  V30 43 H 8.452225 -3.778191 1.146641 0
M  V30 44 H 8.478908 -3.736682 2.946179 0
M  V30 45 H 8.396471 0.769014 -0.866545 0
M  V30 46 H 7.196474 2.978948 -0.946939 0
M  V30 47 H 5.660839 3.600668 0.858273 0
M  V30 48 H 5.276001 2.674949 3.936648 0
M  V30 49 H 2.859886 2.501275 4.654136 0
M  V30 50 H -2.397013 0.850348 0.676104 0
M  V30 51 H -3.091455 1.367843 2.253800 0
M  V30 52 H -2.421754 -1.405886 1.092765 0
M  V30 53 H -4.942490 -0.400957 2.491142 0
M  V30 54 H -6.877658 -1.302539 1.220721 0
M  V30 55 H -6.558942 -4.480878 0.392595 0
M  V30 56 H -7.053276 -5.763545 -1.714793 0
M  V30 57 H -7.283070 -4.566127 -3.886222 0
M  V30 58 H -6.224095 -0.095398 -6.218573 0
M  V30 59 H -7.989010 0.042645 -5.991820 0
M  V30 60 H -7.280436 2.304341 -6.012471 0
M  V30 61 H -5.736336 1.955649 -5.217327 0
M  V30 62 H -7.219644 2.011799 -4.249271 0
M  V30 63 H -6.550210 -0.892657 -1.933775 0
M  V30 64 H -2.885440 -0.968249 4.103970 0
M  V30 65 H -2.672789 -2.474663 3.197433 0
M  V30 66 H -0.699490 -1.718725 4.489803 0
M  V30 67 H -0.380054 -2.155261 2.809447 0
M  V30 68 H 6.407662 -0.066636 2.890386 0
M  V30 END ATOM
M  V30 BEGIN BOND
M  V30 1 1 1 2
M  V30 2 1 2 3
M  V30 3 1 3 4
M  V30 4 2 4 5
M  V30 5 1 4 6
M  V30 6 2 6 7
M  V30 7 1 7 8
M  V30 8 2 8 9
M  V30 9 1 9 10
M  V30 10 1 10 11
M  V30 11 1 11 12
M  V30 12 2 12 13
M  V30 13 1 12 14
M  V30 14 1 14 15
M  V30 15 2 15 16
M  V30 16 1 16 17
M  V30 17 2 17 18
M  V30 18 1 18 19
M  V30 19 1 18 20
M  V30 20 1 20 21
M  V30 21 1 21 22
M  V30 22 1 22 23
M  V30 23 2 23 24
M  V30 24 1 23 25
M  V30 25 1 25 26
M  V30 26 2 26 27
M  V30 27 1 27 28
M  V30 28 2 28 29
M  V30 29 1 29 30
M  V30 30 1 30 31
M  V30 31 2 31 32
M  V30 32 1 31 33
M  V30 33 1 33 34
M  V30 34 1 34 35
M  V30 35 2 30 36
M  V30 36 1 21 37
M  V30 37 1 37 38
M  V30 38 2 10 39
M  V30 39 1 39 6
M  V30 40 1 19 15
M  V30 41 1 36 26
M  V30 42 1 38 17
M  V30 43 1 1 40
M  V30 44 1 1 41
M  V30 45 1 1 42
M  V30 46 1 2 43
M  V30 47 1 2 44
M  V30 48 1 7 45
M  V30 49 1 8 46
M  V30 50 1 9 47
M  V30 51 1 11 48
M  V30 52 1 14 49
M  V30 53 1 20 50
M  V30 54 1 20 51
M  V30 55 1 21 52
M  V30 56 1 22 53
M  V30 57 1 25 54
M  V30 58 1 27 55
M  V30 59 1 28 56
M  V30 60 1 29 57
M  V30 61 1 34 58
M  V30 62 1 34 59
M  V30 63 1 35 60
M  V30 64 1 35 61
M  V30 65 1 35 62
M  V30 66 1 36 63
M  V30 67 1 37 64
M  V30 68 1 37 65
M  V30 69 1 38 66
M  V30 70 1 38 67
M  V30 71 1 39 68
M  V30 END BOND
M  V30 END CTAB
M  END
>  <Dataset>  (34) 
ChEMBL_Kinases

>  <Ligand_Instance>  (34) 
nan

>  <PDB_ID>  (34) 
nan

>  <Standardized_SMILES>  (34) 
CCOC(=O)c1cccc(NC(=O)Nc2nc3c(s2)CC(NC(=O)Nc2cccc(C(=O)OCC)c2)CC3)c1

>  <Name>  (34) 
nan

>  <Pocket>  (34) 
nan

>  <ATP_Site>  (34) 
nan

>  <Peripheral>  (34) 
nan

>  <Num_H_Atoms_ProtBoundConf>  (34) 
nan

>  <Num_Resolved_Atoms>  (34) 
nan

>  <Num_Not_Resolved_Atoms>  (34) 
nan

$$$$
CHEMBL4291439
     RDKit          3D

  0  0  0  0  0  0  0  0  0  0999 V3000
M  V30 BEGIN CTAB
M  V30 COUNTS 45 48 0 0 0
M  V30 BEGIN ATOM
M  V30 1 C 2.801657 -4.043188 3.880405 0
M  V30 2 C 3.050310 -3.085198 2.744501 0
M  V30 3 C 4.346004 -2.674738 2.443544 0
M  V30 4 C 4.579794 -1.799287 1.399909 0
M  V30 5 C 3.527865 -1.319137 0.640038 0
M  V30 6 C 2.249972 -1.732860 0.947988 0
M  V30 7 C 0.963929 -1.406643 0.340266 0
M  V30 8 N 0.193360 -2.342614 -0.277015 0
M  V30 9 N -0.920013 -1.747370 -0.727797 0
M  V30 10 C -0.860632 -0.443819 -0.401227 0
M  V30 11 C 0.332017 -0.183949 0.284607 0
M  V30 12 C 0.740731 1.091085 0.786060 0
M  V30 13 C 1.816121 1.860073 0.400050 0
M  V30 14 C 2.171404 3.087764 0.913718 0
M  V30 15 C 1.354876 3.599263 1.927293 0
M  V30 16 O 1.772229 4.848558 2.403025 0
M  V30 17 C 0.262637 2.878665 2.358911 0
M  V30 18 C -0.038042 1.651811 1.801091 0
M  V30 19 C -2.097496 0.214569 -0.900666 0
M  V30 20 C -3.056831 -0.953518 -0.924410 0
M  V30 21 C -3.434453 -1.278353 0.484158 0
M  V30 22 C -4.235438 -0.708781 -1.819779 0
M  V30 23 C -2.147964 -2.048386 -1.442022 0
M  V30 24 N 2.078407 -2.584748 1.972199 0
M  V30 25 H 2.729342 -3.495792 4.817569 0
M  V30 26 H 1.799552 -4.537423 3.710544 0
M  V30 27 H 3.555839 -4.849089 3.900678 0
M  V30 28 H 5.196835 -3.020156 3.005242 0
M  V30 29 H 5.542125 -1.438000 1.106345 0
M  V30 30 H 3.547940 -0.640031 -0.200053 0
M  V30 31 H 2.430208 1.447514 -0.386858 0
M  V30 32 H 3.061117 3.599120 0.512910 0
M  V30 33 H 1.510425 5.661056 1.837002 0
M  V30 34 H -0.263958 3.387871 3.129715 0
M  V30 35 H -0.921072 1.225749 2.252940 0
M  V30 36 H -2.440197 1.023655 -0.226465 0
M  V30 37 H -1.885680 0.560264 -1.921349 0
M  V30 38 H -4.511624 -1.474551 0.637697 0
M  V30 39 H -2.913404 -2.205677 0.849790 0
M  V30 40 H -3.136539 -0.494519 1.224921 0
M  V30 41 H -4.505889 0.362793 -1.737100 0
M  V30 42 H -5.042608 -1.371046 -1.465859 0
M  V30 43 H -3.943595 -0.986802 -2.846181 0
M  V30 44 H -1.907543 -1.941167 -2.517919 0
M  V30 45 H -2.522884 -3.065971 -1.198271 0
M  V30 END ATOM
M  V30 BEGIN BOND
M  V30 1 1 1 2
M  V30 2 2 2 3
M  V30 3 1 3 4
M  V30 4 2 4 5
M  V30 5 1 5 6
M  V30 6 1 6 7
M  V30 7 2 7 8
M  V30 8 1 8 9
M  V30 9 1 9 10
M  V30 10 2 10 11
M  V30 11 1 11 12
M  V30 12 2 12 13
M  V30 13 1 13 14
M  V30 14 2 14 15
M  V30 15 1 15 16
M  V30 16 1 15 17
M  V30 17 2 17 18
M  V30 18 1 10 19
M  V30 19 1 19 20
M  V30 20 1 20 21
M  V30 21 1 20 22
M  V30 22 1 20 23
M  V30 23 2 6 24
M  V30 24 1 24 2
M  V30 25 1 11 7
M  V30 26 1 18 12
M  V30 27 1 23 9
M  V30 28 1 1 25
M  V30 29 1 1 26
M  V30 30 1 1 27
M  V30 31 1 3 28
M  V30 32 1 4 29
M  V30 33 1 5 30
M  V30 34 1 13 31
M  V30 35 1 14 32
M  V30 36 1 16 33
M  V30 37 1 17 34
M  V30 38 1 18 35
M  V30 39 1 19 36
M  V30 40 1 19 37
M  V30 41 1 21 38
M  V30 42 1 21 39
M  V30 43 1 21 40
M  V30 44 1 22 41
M  V30 45 1 22 42
M  V30 46 1 22 43
M  V30 47 1 23 44
M  V30 48 1 23 45
M  V30 END BOND
M  V30 END CTAB
M  END
>  <Dataset>  (35) 
ChEMBL_Kinases

>  <Ligand_Instance>  (35) 
nan

>  <PDB_ID>  (35) 
nan

>  <Standardized_SMILES>  (35) 
Cc1cccc(-c2nn3c(c2-c2ccc(O)cc2)CC(C)(C)C3)n1

>  <Name>  (35) 
nan

>  <Pocket>  (35) 
nan

>  <ATP_Site>  (35) 
nan

>  <Peripheral>  (35) 
nan

>  <Num_H_Atoms_ProtBoundConf>  (35) 
nan

>  <Num_Resolved_Atoms>  (35) 
nan

>  <Num_Not_Resolved_Atoms>  (35) 
nan

$$$$
CHEMBL4291431
     RDKit          3D

  0  0  0  0  0  0  0  0  0  0999 V3000
M  V30 BEGIN CTAB
M  V30 COUNTS 38 41 0 0 0
M  V30 BEGIN ATOM
M  V30 1 O 0.942592 -7.690189 3.809456 0
M  V30 2 C 0.759977 -6.560101 3.274668 0
M  V30 3 N -0.150148 -6.317754 2.304550 0
M  V30 4 C -0.064772 -5.035980 1.985338 0
M  V30 5 C -0.736447 -4.245862 1.077340 0
M  V30 6 C -0.388949 -2.915819 1.000493 0
M  V30 7 C 0.592164 -2.285429 1.765871 0
M  V30 8 C 0.932887 -0.867249 1.654840 0
M  V30 9 N 0.214100 -0.287567 0.765636 0
M  V30 10 N 0.291836 1.070083 0.415072 0
M  V30 11 C 1.145877 1.825968 1.017250 0
M  V30 12 N 1.137235 3.170942 0.585702 0
M  V30 13 C 0.052252 3.912041 0.071699 0
M  V30 14 C -0.625394 3.487304 -1.117977 0
M  V30 15 C -0.193141 3.911506 -2.359452 0
M  V30 16 C -0.820694 3.527997 -3.547532 0
M  V30 17 C -1.929588 2.683483 -3.499340 0
M  V30 18 N -2.337462 2.279455 -2.278929 0
M  V30 19 C -1.703740 2.671803 -1.143590 0
M  V30 20 S 2.290619 1.340547 2.296066 0
M  V30 21 C 2.011965 -0.426165 2.576837 0
M  V30 22 C 1.208604 -3.162405 2.646952 0
M  V30 23 C 0.921511 -4.500669 2.785674 0
M  V30 24 N 1.445217 -5.445702 3.597208 0
M  V30 25 H -0.806660 -7.006806 1.876425 0
M  V30 26 H -1.496169 -4.670483 0.464824 0
M  V30 27 H -0.933305 -2.321389 0.279083 0
M  V30 28 H 2.003709 3.773734 0.615337 0
M  V30 29 H -0.289366 4.206830 0.459529 0
M  V30 30 H -0.479862 4.615627 0.766462 0
M  V30 31 H 0.669976 4.577017 -2.499900 0
M  V30 32 H -0.491967 3.853122 -4.524944 0
M  V30 33 H -2.429856 2.374333 -4.401278 0
M  V30 34 H -2.137986 2.274865 -0.240890 0
M  V30 35 H 2.952950 -1.005005 2.382753 0
M  V30 36 H 1.714176 -0.579624 3.630106 0
M  V30 37 H 1.998918 -2.745332 3.291979 0
M  V30 38 H 2.203664 -5.308262 4.298861 0
M  V30 END ATOM
M  V30 BEGIN BOND
M  V30 1 2 1 2
M  V30 2 1 2 3
M  V30 3 1 3 4
M  V30 4 2 4 5
M  V30 5 1 5 6
M  V30 6 2 6 7
M  V30 7 1 7 8
M  V30 8 2 8 9
M  V30 9 1 9 10
M  V30 10 2 10 11
M  V30 11 1 11 12
M  V30 12 1 12 13
M  V30 13 1 13 14
M  V30 14 2 14 15
M  V30 15 1 15 16
M  V30 16 2 16 17
M  V30 17 1 17 18
M  V30 18 2 18 19
M  V30 19 1 11 20
M  V30 20 1 20 21
M  V30 21 1 7 22
M  V30 22 2 22 23
M  V30 23 1 23 24
M  V30 24 1 24 2
M  V30 25 1 23 4
M  V30 26 1 21 8
M  V30 27 1 19 14
M  V30 28 1 3 25
M  V30 29 1 5 26
M  V30 30 1 6 27
M  V30 31 1 12 28
M  V30 32 1 13 29
M  V30 33 1 13 30
M  V30 34 1 15 31
M  V30 35 1 16 32
M  V30 36 1 17 33
M  V30 37 1 19 34
M  V30 38 1 21 35
M  V30 39 1 21 36
M  V30 40 1 22 37
M  V30 41 1 24 38
M  V30 END BOND
M  V30 END CTAB
M  END
>  <Dataset>  (36) 
ChEMBL_Kinases

>  <Ligand_Instance>  (36) 
nan

>  <PDB_ID>  (36) 
nan

>  <Standardized_SMILES>  (36) 
O=c1[nH]c2ccc(C3=NN=C(NCc4cccnc4)SC3)cc2[nH]1

>  <Name>  (36) 
nan

>  <Pocket>  (36) 
nan

>  <ATP_Site>  (36) 
nan

>  <Peripheral>  (36) 
nan

>  <Num_H_Atoms_ProtBoundConf>  (36) 
nan

>  <Num_Resolved_Atoms>  (36) 
nan

>  <Num_Not_Resolved_Atoms>  (36) 
nan

$$$$
CHEMBL4291365
     RDKit          3D

  0  0  0  0  0  0  0  0  0  0999 V3000
M  V30 BEGIN CTAB
M  V30 COUNTS 39 42 0 0 0
M  V30 BEGIN ATOM
M  V30 1 O 1.410225 -7.668130 3.897492 0
M  V30 2 C 1.291003 -6.610404 3.208235 0
M  V30 3 N 0.628615 -6.599339 2.017076 0
M  V30 4 C 0.706249 -5.329094 1.585017 0
M  V30 5 C 0.223889 -4.724415 0.448871 0
M  V30 6 C 0.461731 -3.390579 0.273383 0
M  V30 7 C 1.152539 -2.572640 1.141627 0
M  V30 8 C 1.379024 -1.127596 0.898633 0
M  V30 9 N 0.861999 -0.746698 -0.192200 0
M  V30 10 N 0.881937 0.542519 -0.733375 0
M  V30 11 C 1.488857 1.461873 -0.063720 0
M  V30 12 N 1.488135 2.758629 -0.644550 0
M  V30 13 C 0.446024 3.283076 -1.492910 0
M  V30 14 C -0.877804 3.363120 -0.831326 0
M  V30 15 C -1.843199 2.405250 -0.833002 0
M  V30 16 C -3.062717 2.501132 -0.209206 0
M  V30 17 C -3.362954 3.670635 0.493240 0
M  V30 18 C -2.399080 4.659773 0.510308 0
M  V30 19 C -1.192692 4.522648 -0.126987 0
M  V30 20 S 2.324113 1.284846 1.502425 0
M  V30 21 C 2.151795 -0.450239 1.970973 0
M  V30 22 C 1.616289 -3.233466 2.270650 0
M  V30 23 C 1.403789 -4.568489 2.492199 0
M  V30 24 N 1.755576 -5.392757 3.492605 0
M  V30 25 H 0.154420 -7.360599 1.508598 0
M  V30 26 H -0.332137 -5.303141 -0.287513 0
M  V30 27 H 0.063193 -2.960329 -0.635411 0
M  V30 28 H 2.331236 3.374597 -0.422111 0
M  V30 29 H 0.711708 4.308311 -1.794360 0
M  V30 30 H 0.325235 2.640716 -2.414177 0
M  V30 31 H -1.656650 1.494712 -1.361638 0
M  V30 32 H -3.791110 1.706066 -0.244953 0
M  V30 33 H -4.298713 3.817172 1.006498 0
M  V30 34 H -2.618506 5.575019 1.052843 0
M  V30 35 H -0.477380 5.336320 -0.075709 0
M  V30 36 H 3.143044 -0.946226 2.018270 0
M  V30 37 H 1.646479 -0.479995 2.955172 0
M  V30 38 H 2.171053 -2.667380 3.010510 0
M  V30 39 H 2.281749 -5.215701 4.354637 0
M  V30 END ATOM
M  V30 BEGIN BOND
M  V30 1 2 1 2
M  V30 2 1 2 3
M  V30 3 1 3 4
M  V30 4 2 4 5
M  V30 5 1 5 6
M  V30 6 2 6 7
M  V30 7 1 7 8
M  V30 8 2 8 9
M  V30 9 1 9 10
M  V30 10 2 10 11
M  V30 11 1 11 12
M  V30 12 1 12 13
M  V30 13 1 13 14
M  V30 14 2 14 15
M  V30 15 1 15 16
M  V30 16 2 16 17
M  V30 17 1 17 18
M  V30 18 2 18 19
M  V30 19 1 11 20
M  V30 20 1 20 21
M  V30 21 1 7 22
M  V30 22 2 22 23
M  V30 23 1 23 24
M  V30 24 1 24 2
M  V30 25 1 23 4
M  V30 26 1 21 8
M  V30 27 1 19 14
M  V30 28 1 3 25
M  V30 29 1 5 26
M  V30 30 1 6 27
M  V30 31 1 12 28
M  V30 32 1 13 29
M  V30 33 1 13 30
M  V30 34 1 15 31
M  V30 35 1 16 32
M  V30 36 1 17 33
M  V30 37 1 18 34
M  V30 38 1 19 35
M  V30 39 1 21 36
M  V30 40 1 21 37
M  V30 41 1 22 38
M  V30 42 1 24 39
M  V30 END BOND
M  V30 END CTAB
M  END
>  <Dataset>  (37) 
ChEMBL_Kinases

>  <Ligand_Instance>  (37) 
nan

>  <PDB_ID>  (37) 
nan

>  <Standardized_SMILES>  (37) 
O=c1[nH]c2ccc(C3=NN=C(NCc4ccccc4)SC3)cc2[nH]1

>  <Name>  (37) 
nan

>  <Pocket>  (37) 
nan

>  <ATP_Site>  (37) 
nan

>  <Peripheral>  (37) 
nan

>  <Num_H_Atoms_ProtBoundConf>  (37) 
nan

>  <Num_Resolved_Atoms>  (37) 
nan

>  <Num_Not_Resolved_Atoms>  (37) 
nan

$$$$
CHEMBL4756601
     RDKit          3D

  0  0  0  0  0  0  0  0  0  0999 V3000
M  V30 BEGIN CTAB
M  V30 COUNTS 45 49 0 0 0
M  V30 BEGIN ATOM
M  V30 1 N 4.515521 -1.786104 -2.942041 0
M  V30 2 C 3.460319 -1.324562 -2.900312 0
M  V30 3 C 2.133927 -0.753692 -2.824513 0
M  V30 4 C 1.672558 -0.222919 -1.637701 0
M  V30 5 C 2.538481 -0.248566 -0.479213 0
M  V30 6 C 2.570060 -1.291903 0.423118 0
M  V30 7 C 3.440922 -1.223338 1.510338 0
M  V30 8 C 4.263144 -0.112090 1.673359 0
M  V30 9 C 4.224972 0.924475 0.767802 0
M  V30 10 C 3.360522 0.866243 -0.319495 0
M  V30 11 Cl 3.393749 2.236935 -1.406982 0
M  V30 12 C 0.394354 0.301416 -1.652426 0
M  V30 13 C -0.339278 0.894462 -0.640671 0
M  V30 14 N 0.077568 1.109326 0.705282 0
M  V30 15 N -0.202680 0.057369 1.583924 0
M  V30 16 C -1.283612 -0.016480 2.284907 0
M  V30 17 C -2.295951 1.019072 2.195776 0
M  V30 18 C -3.390203 0.918960 2.921839 0
M  V30 19 C -3.697891 -0.185775 3.852135 0
M  V30 20 O -4.758085 -0.228979 4.519356 0
M  V30 21 C -2.669112 -1.239297 3.943562 0
M  V30 22 C -2.876235 -2.325363 4.800830 0
M  V30 23 C -1.879959 -3.276108 4.842491 0
M  V30 24 C -0.704166 -3.243780 4.113016 0
M  V30 25 C -0.599076 -2.135834 3.302475 0
M  V30 26 C -1.521524 -1.138423 3.184895 0
M  V30 27 N -1.536121 1.229268 -1.198411 0
M  V30 28 N -1.551494 0.869843 -2.475493 0
M  V30 29 C -0.376617 0.292235 -2.797218 0
M  V30 30 N 0.150064 -0.245190 -3.913061 0
M  V30 31 C 1.387169 -0.779616 -3.992967 0
M  V30 32 O 1.839234 -1.273998 -5.065810 0
M  V30 33 H 1.906973 -2.130922 0.244984 0
M  V30 34 H 3.397615 -2.093559 2.171456 0
M  V30 35 H 4.883627 -0.189886 2.552726 0
M  V30 36 H 4.895089 1.761819 0.956542 0
M  V30 37 H 0.558527 1.915565 1.161026 0
M  V30 38 H -2.118419 1.843668 1.532637 0
M  V30 39 H -4.167922 1.692159 2.868431 0
M  V30 40 H -3.776001 -2.409761 5.399324 0
M  V30 41 H -2.042853 -4.127825 5.515087 0
M  V30 42 H 0.039031 -4.021513 4.190399 0
M  V30 43 H 0.310327 -2.038065 2.688886 0
M  V30 44 H -2.342245 0.997558 -3.171636 0
M  V30 45 H -0.455476 -0.239825 -4.768507 0
M  V30 END ATOM
M  V30 BEGIN BOND
M  V30 1 3 1 2
M  V30 2 1 2 3
M  V30 3 2 3 4
M  V30 4 1 4 5
M  V30 5 2 5 6
M  V30 6 1 6 7
M  V30 7 2 7 8
M  V30 8 1 8 9
M  V30 9 2 9 10
M  V30 10 1 10 11
M  V30 11 1 4 12
M  V30 12 1 12 13
M  V30 13 1 13 14
M  V30 14 1 14 15
M  V30 15 2 15 16
M  V30 16 1 16 17
M  V30 17 2 17 18
M  V30 18 1 18 19
M  V30 19 2 19 20
M  V30 20 1 19 21
M  V30 21 2 21 22
M  V30 22 1 22 23
M  V30 23 2 23 24
M  V30 24 1 24 25
M  V30 25 2 25 26
M  V30 26 2 13 27
M  V30 27 1 27 28
M  V30 28 1 28 29
M  V30 29 1 29 30
M  V30 30 1 30 31
M  V30 31 2 31 32
M  V30 32 1 31 3
M  V30 33 1 10 5
M  V30 34 2 29 12
M  V30 35 1 26 16
M  V30 36 1 26 21
M  V30 37 1 6 33
M  V30 38 1 7 34
M  V30 39 1 8 35
M  V30 40 1 9 36
M  V30 41 1 14 37
M  V30 42 1 17 38
M  V30 43 1 18 39
M  V30 44 1 22 40
M  V30 45 1 23 41
M  V30 46 1 24 42
M  V30 47 1 25 43
M  V30 48 1 28 44
M  V30 49 1 30 45
M  V30 END BOND
M  V30 END CTAB
M  END
>  <Dataset>  (38) 
ChEMBL_Kinases

>  <Ligand_Instance>  (38) 
nan

>  <PDB_ID>  (38) 
nan

>  <Standardized_SMILES>  (38) 
N#Cc1c(-c2ccccc2Cl)c2c(N/N=C3\C=CC(=O)c4ccccc43)n[nH]c2[nH]c1=O

>  <Name>  (38) 
nan

>  <Pocket>  (38) 
nan

>  <ATP_Site>  (38) 
nan

>  <Peripheral>  (38) 
nan

>  <Num_H_Atoms_ProtBoundConf>  (38) 
nan

>  <Num_Resolved_Atoms>  (38) 
nan

>  <Num_Not_Resolved_Atoms>  (38) 
nan

$$$$
CHEMBL4291307
     RDKit          3D

  0  0  0  0  0  0  0  0  0  0999 V3000
M  V30 BEGIN CTAB
M  V30 COUNTS 40 43 0 0 0
M  V30 BEGIN ATOM
M  V30 1 C 2.027027 -5.036154 2.919550 0
M  V30 2 C 1.449368 -4.280597 1.766540 0
M  V30 3 O 0.408749 -3.557519 1.936002 0
M  V30 4 N 1.897283 -4.228165 0.412490 0
M  V30 5 C 0.930763 -3.339047 -0.192960 0
M  V30 6 C 1.179092 -1.981503 -0.201918 0
M  V30 7 C 0.251518 -1.134674 -0.773665 0
M  V30 8 C 0.491913 0.300555 -0.789678 0
M  V30 9 N 1.148918 1.086114 -1.655085 0
M  V30 10 C 1.073342 2.358183 -1.189405 0
M  V30 11 C 1.595891 3.531680 -1.726498 0
M  V30 12 C 1.368932 4.723506 -1.032121 0
M  V30 13 C 0.646190 4.696590 0.143740 0
M  V30 14 N 0.149418 3.526313 0.639817 0
M  V30 15 C 0.355972 2.363786 -0.013261 0
M  V30 16 C -0.032215 1.050051 0.269085 0
M  V30 17 C -0.808190 0.706055 1.448402 0
M  V30 18 C -0.315640 -0.126873 2.432296 0
M  V30 19 C -1.037715 -0.468785 3.566004 0
M  V30 20 C -2.325343 0.065749 3.702146 0
M  V30 21 F -3.112144 -0.207371 4.774780 0
M  V30 22 C -2.789242 0.895023 2.701221 0
M  V30 23 N -2.064704 1.221482 1.590705 0
M  V30 24 C -0.869476 -1.739143 -1.298688 0
M  V30 25 C -1.133098 -3.090825 -1.298842 0
M  V30 26 N -0.199356 -3.884361 -0.728902 0
M  V30 27 H 3.146759 -4.998622 2.927899 0
M  V30 28 H 1.620081 -6.050654 3.015756 0
M  V30 29 H 1.711056 -4.461682 3.838598 0
M  V30 30 H 2.763422 -4.819226 0.240209 0
M  V30 31 H 2.097256 -1.619299 0.241105 0
M  V30 32 H 1.614586 0.725000 -2.515698 0
M  V30 33 H 2.171883 3.567345 -2.661364 0
M  V30 34 H 1.763781 5.673298 -1.423789 0
M  V30 35 H 0.456257 5.619770 0.704936 0
M  V30 36 H 0.672082 -0.547552 2.345709 0
M  V30 37 H -0.669945 -1.117891 4.346937 0
M  V30 38 H -3.770839 1.346274 2.732720 0
M  V30 39 H -1.625637 -1.107245 -1.760153 0
M  V30 40 H -2.034514 -3.508033 -1.728791 0
M  V30 END ATOM
M  V30 BEGIN BOND
M  V30 1 1 1 2
M  V30 2 2 2 3
M  V30 3 1 2 4
M  V30 4 1 4 5
M  V30 5 2 5 6
M  V30 6 1 6 7
M  V30 7 1 7 8
M  V30 8 1 8 9
M  V30 9 1 9 10
M  V30 10 2 10 11
M  V30 11 1 11 12
M  V30 12 2 12 13
M  V30 13 1 13 14
M  V30 14 2 14 15
M  V30 15 1 15 16
M  V30 16 1 16 17
M  V30 17 2 17 18
M  V30 18 1 18 19
M  V30 19 2 19 20
M  V30 20 1 20 21
M  V30 21 1 20 22
M  V30 22 2 22 23
M  V30 23 2 7 24
M  V30 24 1 24 25
M  V30 25 2 25 26
M  V30 26 1 26 5
M  V30 27 2 16 8
M  V30 28 1 23 17
M  V30 29 1 15 10
M  V30 30 1 1 27
M  V30 31 1 1 28
M  V30 32 1 1 29
M  V30 33 1 4 30
M  V30 34 1 6 31
M  V30 35 1 9 32
M  V30 36 1 11 33
M  V30 37 1 12 34
M  V30 38 1 13 35
M  V30 39 1 18 36
M  V30 40 1 19 37
M  V30 41 1 22 38
M  V30 42 1 24 39
M  V30 43 1 25 40
M  V30 END BOND
M  V30 END CTAB
M  END
>  <Dataset>  (39) 
ChEMBL_Kinases

>  <Ligand_Instance>  (39) 
nan

>  <PDB_ID>  (39) 
nan

>  <Standardized_SMILES>  (39) 
CC(=O)Nc1cc(-c2[nH]c3cccnc3c2-c2ccc(F)cn2)ccn1

>  <Name>  (39) 
nan

>  <Pocket>  (39) 
nan

>  <ATP_Site>  (39) 
nan

>  <Peripheral>  (39) 
nan

>  <Num_H_Atoms_ProtBoundConf>  (39) 
nan

>  <Num_Resolved_Atoms>  (39) 
nan

>  <Num_Not_Resolved_Atoms>  (39) 
nan

$$$$
CHEMBL4291297
     RDKit          3D

  0  0  0  0  0  0  0  0  0  0999 V3000
M  V30 BEGIN CTAB
M  V30 COUNTS 41 44 0 0 0
M  V30 BEGIN ATOM
M  V30 1 O 1.087552 -1.991202 4.244427 0
M  V30 2 C 0.238069 -2.662794 3.582383 0
M  V30 3 N 0.562292 -3.012135 2.239358 0
M  V30 4 C 1.718705 -2.739518 1.450640 0
M  V30 5 C 2.850515 -3.534662 1.354339 0
M  V30 6 N 3.850770 -3.116785 0.558112 0
M  V30 7 C 3.816571 -1.973908 -0.149084 0
M  V30 8 C 2.692861 -1.179997 -0.056297 0
M  V30 9 C 2.644982 0.060227 -0.817394 0
M  V30 10 C 1.673329 1.020569 -0.913666 0
M  V30 11 C 1.911309 2.086949 -1.715082 0
M  V30 12 C 0.926821 3.172482 -1.883833 0
M  V30 13 C -0.429589 2.970507 -1.828201 0
M  V30 14 C -1.375056 3.962244 -1.979230 0
M  V30 15 C -0.881784 5.237198 -2.200974 0
M  V30 16 N 0.441510 5.468244 -2.261052 0
M  V30 17 C 1.332088 4.470827 -2.108166 0
M  V30 18 C 3.124277 2.149168 -2.394333 0
M  V30 19 S 3.940008 0.589780 -1.836208 0
M  V30 20 C 1.644930 -1.558588 0.740375 0
M  V30 21 C -1.082278 -3.176680 3.949687 0
M  V30 22 C -2.119498 -2.645360 3.180265 0
M  V30 23 C -3.436584 -3.007626 3.375103 0
M  V30 24 C -3.733981 -3.937761 4.377841 0
M  V30 25 C -2.696252 -4.463912 5.141438 0
M  V30 26 C -1.379407 -4.092704 4.936373 0
M  V30 27 Cl -0.023563 -4.699008 5.842263 0
M  V30 28 H -0.023570 -3.556661 1.568904 0
M  V30 29 H 2.841463 -4.444766 1.936448 0
M  V30 30 H 4.680451 -1.722901 -0.766866 0
M  V30 31 H 0.776841 0.853149 -0.335202 0
M  V30 32 H -0.771502 1.957608 -1.652462 0
M  V30 33 H -2.428606 3.694382 -1.917325 0
M  V30 34 H -1.632243 6.019971 -2.320162 0
M  V30 35 H 2.407821 4.659954 -2.156895 0
M  V30 36 H 3.474952 2.888898 -3.048217 0
M  V30 37 H 0.799240 -0.887898 0.764015 0
M  V30 38 H -1.971014 -1.912433 2.376227 0
M  V30 39 H -4.251941 -2.599146 2.780531 0
M  V30 40 H -4.766303 -4.259092 4.572761 0
M  V30 41 H -2.881349 -5.182670 5.924243 0
M  V30 END ATOM
M  V30 BEGIN BOND
M  V30 1 2 1 2
M  V30 2 1 2 3
M  V30 3 1 3 4
M  V30 4 2 4 5
M  V30 5 1 5 6
M  V30 6 2 6 7
M  V30 7 1 7 8
M  V30 8 1 8 9
M  V30 9 2 9 10
M  V30 10 1 10 11
M  V30 11 1 11 12
M  V30 12 2 12 13
M  V30 13 1 13 14
M  V30 14 2 14 15
M  V30 15 1 15 16
M  V30 16 2 16 17
M  V30 17 2 11 18
M  V30 18 1 18 19
M  V30 19 2 8 20
M  V30 20 1 2 21
M  V30 21 2 21 22
M  V30 22 1 22 23
M  V30 23 2 23 24
M  V30 24 1 24 25
M  V30 25 2 25 26
M  V30 26 1 26 27
M  V30 27 1 20 4
M  V30 28 1 26 21
M  V30 29 1 19 9
M  V30 30 1 17 12
M  V30 31 1 3 28
M  V30 32 1 5 29
M  V30 33 1 7 30
M  V30 34 1 10 31
M  V30 35 1 13 32
M  V30 36 1 14 33
M  V30 37 1 15 34
M  V30 38 1 17 35
M  V30 39 1 18 36
M  V30 40 1 20 37
M  V30 41 1 22 38
M  V30 42 1 23 39
M  V30 43 1 24 40
M  V30 44 1 25 41
M  V30 END BOND
M  V30 END CTAB
M  END
>  <Dataset>  (40) 
ChEMBL_Kinases

>  <Ligand_Instance>  (40) 
nan

>  <PDB_ID>  (40) 
nan

>  <Standardized_SMILES>  (40) 
O=C(Nc1cncc(-c2cc(-c3cccnc3)cs2)c1)c1ccccc1Cl

>  <Name>  (40) 
nan

>  <Pocket>  (40) 
nan

>  <ATP_Site>  (40) 
nan

>  <Peripheral>  (40) 
nan

>  <Num_H_Atoms_ProtBoundConf>  (40) 
nan

>  <Num_Resolved_Atoms>  (40) 
nan

>  <Num_Not_Resolved_Atoms>  (40) 
nan

$$$$
CHEMBL4291950
     RDKit          3D

  0  0  0  0  0  0  0  0  0  0999 V3000
M  V30 BEGIN CTAB
M  V30 COUNTS 68 73 0 0 0
M  V30 BEGIN ATOM
M  V30 1 C 4.077631 -4.535952 3.563456 0
M  V30 2 C 3.783834 -3.983975 4.937291 0 CFG=2
M  V30 3 C 3.029829 -4.969052 5.795176 0
M  V30 4 N 1.596061 -4.739739 5.805865 0
M  V30 5 C 1.246209 -3.468629 6.393069 0
M  V30 6 C 2.384676 -2.468082 6.149882 0 CFG=2
M  V30 7 C 1.779199 -1.079513 6.178803 0
M  V30 8 N 2.940921 -2.787242 4.836611 0
M  V30 9 C 2.614333 -1.975686 3.688308 0
M  V30 10 C 1.439984 -2.387009 3.084682 0
M  V30 11 C 1.017072 -1.668340 1.951679 0
M  V30 12 C 1.729550 -0.593688 1.448527 0
M  V30 13 C 1.266302 0.062813 0.249701 0
M  V30 14 C 0.072073 -0.244192 -0.306447 0
M  V30 15 N -0.477237 0.331594 -1.385430 0
M  V30 16 C 0.240131 1.357359 -2.018250 0
M  V30 17 C -0.038752 2.171587 -3.147164 0
M  V30 18 C -1.330274 1.818097 -3.805111 0
M  V30 19 C -1.203311 1.040410 -4.927048 0
M  V30 20 C -2.389668 0.676747 -5.565907 0
M  V30 21 C -3.613527 1.067431 -5.107908 0
M  V30 22 N -4.957216 0.798338 -5.539936 0
M  V30 23 S -4.944714 -0.904908 -5.438329 0
M  V30 24 C -4.600402 -1.431900 -3.741918 0
M  V30 25 O -6.323042 -1.492652 -5.731603 0
M  V30 26 O -4.005570 -1.592368 -6.370178 0
M  V30 27 C -3.725670 1.859918 -3.967504 0
M  V30 28 C -4.859801 2.331108 -3.356446 0
M  V30 29 C -4.960362 3.093847 -2.220892 0
M  V30 30 C -3.731518 3.395770 -1.665411 0
M  V30 31 C -2.482561 3.006927 -2.149475 0
M  V30 32 C -2.541933 2.233702 -3.313892 0
M  V30 33 C 1.058749 2.994977 -3.237369 0
M  V30 34 N 1.937192 2.720446 -2.265702 0
M  V30 35 N 1.470989 1.735679 -1.513916 0
M  V30 36 C 1.907505 1.067180 -0.412801 0
M  V30 37 C 2.883312 -0.258484 2.115811 0
M  V30 38 C 3.361737 -0.916163 3.229878 0
M  V30 39 H 3.140826 -5.025090 3.188878 0
M  V30 40 H 4.432075 -3.718271 2.906791 0
M  V30 41 H 4.921308 -5.244500 3.715361 0
M  V30 42 H 4.693276 -3.693072 5.467103 0
M  V30 43 H 3.188947 -5.987655 5.412198 0
M  V30 44 H 3.380215 -4.889988 6.835831 0
M  V30 45 H 1.169524 -5.489433 6.387809 0
M  V30 46 H 0.287589 -3.044710 5.965447 0
M  V30 47 H 1.093910 -3.508757 7.488196 0
M  V30 48 H 3.092330 -2.596482 6.981618 0
M  V30 49 H 1.250074 -0.981384 7.132342 0
M  V30 50 H 1.088548 -1.033193 5.284544 0
M  V30 51 H 2.571528 -0.311613 6.106412 0
M  V30 52 H 0.858234 -3.236734 3.460177 0
M  V30 53 H 0.075054 -2.051442 1.539951 0
M  V30 54 H -0.623169 -1.001137 0.026496 0
M  V30 55 H -0.286187 0.665925 -5.394129 0
M  V30 56 H -2.460030 0.077605 -6.456909 0
M  V30 57 H -5.636123 1.571155 -5.812335 0
M  V30 58 H -3.795707 -0.760494 -3.320907 0
M  V30 59 H -5.493790 -1.505608 -3.138583 0
M  V30 60 H -4.098488 -2.433029 -3.756595 0
M  V30 61 H -5.798749 2.060284 -3.853782 0
M  V30 62 H -5.880276 3.427791 -1.780625 0
M  V30 63 H -3.677291 3.992894 -0.745641 0
M  V30 64 H -1.551849 3.263697 -1.697777 0
M  V30 65 H 0.954719 3.679948 -4.081409 0
M  V30 66 H 2.892654 1.407626 -0.047661 0
M  V30 67 H 3.466192 0.581252 1.731248 0
M  V30 68 H 4.275701 -0.662807 3.750617 0
M  V30 END ATOM
M  V30 BEGIN BOND
M  V30 1 1 1 2
M  V30 2 1 2 3
M  V30 3 1 3 4
M  V30 4 1 4 5
M  V30 5 1 5 6
M  V30 6 1 6 7
M  V30 7 1 6 8
M  V30 8 1 8 9
M  V30 9 2 9 10
M  V30 10 1 10 11
M  V30 11 2 11 12
M  V30 12 1 12 13
M  V30 13 1 13 14
M  V30 14 2 14 15
M  V30 15 1 15 16
M  V30 16 2 16 17
M  V30 17 1 17 18
M  V30 18 2 18 19
M  V30 19 1 19 20
M  V30 20 2 20 21
M  V30 21 1 21 22
M  V30 22 1 22 23
M  V30 23 1 23 24
M  V30 24 2 23 25
M  V30 25 2 23 26
M  V30 26 1 21 27
M  V30 27 2 27 28
M  V30 28 1 28 29
M  V30 29 2 29 30
M  V30 30 1 30 31
M  V30 31 2 31 32
M  V30 32 1 17 33
M  V30 33 2 33 34
M  V30 34 1 34 35
M  V30 35 1 35 36
M  V30 36 1 12 37
M  V30 37 2 37 38
M  V30 38 1 8 2
M  V30 39 1 38 9
M  V30 40 2 36 13
M  V30 41 1 35 16
M  V30 42 1 32 18
M  V30 43 1 32 27
M  V30 44 1 1 39
M  V30 45 1 1 40
M  V30 46 1 1 41
M  V30 47 1 2 42 CFG=1
M  V30 48 1 3 43
M  V30 49 1 3 44
M  V30 50 1 4 45
M  V30 51 1 5 46
M  V30 52 1 5 47
M  V30 53 1 6 48 CFG=1
M  V30 54 1 7 49
M  V30 55 1 7 50
M  V30 56 1 7 51
M  V30 57 1 10 52
M  V30 58 1 11 53
M  V30 59 1 14 54
M  V30 60 1 19 55
M  V30 61 1 20 56
M  V30 62 1 22 57
M  V30 63 1 24 58
M  V30 64 1 24 59
M  V30 65 1 24 60
M  V30 66 1 28 61
M  V30 67 1 29 62
M  V30 68 1 30 63
M  V30 69 1 31 64
M  V30 70 1 33 65
M  V30 71 1 36 66
M  V30 72 1 37 67
M  V30 73 1 38 68
M  V30 END BOND
M  V30 END CTAB
M  END
>  <Dataset>  (41) 
ChEMBL_Kinases

>  <Ligand_Instance>  (41) 
nan

>  <PDB_ID>  (41) 
nan

>  <Standardized_SMILES>  (41) 
C[C@@H]1CNC[C@H](C)N1c1ccc(-c2cnc3c(-c4ccc(NS(C)(=O)=O)c5ccccc45)cnn3c2)cc1

>  <Name>  (41) 
nan

>  <Pocket>  (41) 
nan

>  <ATP_Site>  (41) 
nan

>  <Peripheral>  (41) 
nan

>  <Num_H_Atoms_ProtBoundConf>  (41) 
nan

>  <Num_Resolved_Atoms>  (41) 
nan

>  <Num_Not_Resolved_Atoms>  (41) 
nan

$$$$
CHEMBL4293418
     RDKit          3D

  0  0  0  0  0  0  0  0  0  0999 V3000
M  V30 BEGIN CTAB
M  V30 COUNTS 72 77 0 0 0
M  V30 BEGIN ATOM
M  V30 1 C 0.624983 -4.543449 5.864820 0
M  V30 2 O 0.599703 -4.064367 4.508490 0
M  V30 3 C 0.201537 -2.731868 4.260212 0
M  V30 4 N -0.171874 -1.791642 5.085333 0
M  V30 5 C -0.496920 -0.700105 4.878048 0
M  V30 6 C -0.943907 0.481141 5.680669 0
M  V30 7 C -1.068013 0.429072 7.043622 0
M  V30 8 C -1.474712 1.603671 7.635917 0
M  V30 9 N -1.741533 2.737190 6.971825 0
M  V30 10 C -1.631512 2.828088 5.631223 0
M  V30 11 N -1.901410 4.026111 4.921360 0
M  V30 12 C -2.277840 5.192666 5.626314 0
M  V30 13 O -2.364897 5.135921 6.879788 0
M  V30 14 C -2.554745 6.436591 4.869231 0
M  V30 15 C -2.004735 6.638194 3.505142 0
M  V30 16 C -3.442457 6.290724 3.636078 0
M  V30 17 C -1.225932 1.663343 5.026893 0
M  V30 18 S -0.323261 -0.698853 2.991791 0
M  V30 19 C 0.201437 -2.346125 2.936603 0
M  V30 20 C 0.567871 -3.140439 1.682195 0
M  V30 21 O 0.941231 -4.329205 1.807435 0
M  V30 22 N 0.458267 -2.467692 0.462966 0
M  V30 23 C 0.787440 -3.094175 -0.803028 0
M  V30 24 C -0.004127 -4.327474 -1.127983 0
M  V30 25 C 0.424172 -4.858904 -2.447933 0
M  V30 26 N 0.239689 -4.057969 -3.595774 0
M  V30 27 C 0.386171 -2.750523 -4.128705 0
M  V30 28 C 1.549630 -2.273567 -4.708513 0
M  V30 29 C 1.480493 -0.974262 -5.173044 0
M  V30 30 N 0.388697 -0.200802 -5.088752 0
M  V30 31 C -0.756769 -0.624322 -4.535002 0
M  V30 32 C -1.906597 0.130050 -4.426711 0
M  V30 33 C -3.067095 -0.372468 -3.841353 0
M  V30 34 Cl -4.513187 0.629317 -3.728005 0
M  V30 35 C -3.079687 -1.680656 -3.346246 0
M  V30 36 C -1.916863 -2.415627 -3.466159 0
M  V30 37 C -0.760986 -1.937974 -4.039871 0
M  V30 38 C 2.720230 -0.449575 -5.775702 0
M  V30 39 C 3.276262 -1.549582 -6.656388 0
M  V30 40 C 3.590386 -2.817415 -5.947932 0
M  V30 41 C 2.716913 -3.153110 -4.774003 0
M  V30 42 H 1.387594 -5.331760 5.952070 0
M  V30 43 H 0.812637 -3.696075 6.563579 0
M  V30 44 H -0.362200 -4.964413 6.079001 0
M  V30 45 H -0.821318 -0.542639 7.447171 0
M  V30 46 H -1.556383 1.505213 8.727964 0
M  V30 47 H -1.801020 3.969867 3.875542 0
M  V30 48 H -2.830425 7.344141 5.471900 0
M  V30 49 H -1.307283 5.839821 3.160367 0
M  V30 50 H -1.715951 7.671446 3.192911 0
M  V30 51 H -3.828860 5.303877 3.379005 0
M  V30 52 H -4.141337 7.114598 3.378325 0
M  V30 53 H -1.123817 1.700487 3.929518 0
M  V30 54 H 0.119123 -1.455104 0.484874 0
M  V30 55 H 1.860668 -3.401413 -0.839761 0
M  V30 56 H 0.568472 -2.342696 -1.585313 0
M  V30 57 H 0.285688 -5.121210 -0.374537 0
M  V30 58 H -1.099330 -4.206670 -1.022593 0
M  V30 59 H -0.150267 -5.813661 -2.618303 0
M  V30 60 H 1.491233 -5.208247 -2.313668 0
M  V30 61 H -0.156997 -4.486757 -4.493271 0
M  V30 62 H -1.894881 1.136020 -4.809343 0
M  V30 63 H -3.982946 -2.091732 -2.886299 0
M  V30 64 H -1.983406 -3.404167 -3.079622 0
M  V30 65 H 3.472285 -0.165425 -5.007343 0
M  V30 66 H 2.543014 0.445756 -6.399393 0
M  V30 67 H 4.162442 -1.105024 -7.170733 0
M  V30 68 H 2.503541 -1.753543 -7.436132 0
M  V30 69 H 4.666956 -2.776754 -5.637397 0
M  V30 70 H 3.528763 -3.658840 -6.676639 0
M  V30 71 H 3.356814 -3.093703 -3.855894 0
M  V30 72 H 2.353405 -4.199455 -4.860206 0
M  V30 END ATOM
M  V30 BEGIN BOND
M  V30 1 1 1 2
M  V30 2 1 2 3
M  V30 3 1 3 4
M  V30 4 2 4 5
M  V30 5 1 5 6
M  V30 6 2 6 7
M  V30 7 1 7 8
M  V30 8 2 8 9
M  V30 9 1 9 10
M  V30 10 1 10 11
M  V30 11 1 11 12
M  V30 12 2 12 13
M  V30 13 1 12 14
M  V30 14 1 14 15
M  V30 15 1 15 16
M  V30 16 2 10 17
M  V30 17 1 5 18
M  V30 18 1 18 19
M  V30 19 1 19 20
M  V30 20 2 20 21
M  V30 21 1 20 22
M  V30 22 1 22 23
M  V30 23 1 23 24
M  V30 24 1 24 25
M  V30 25 1 25 26
M  V30 26 1 26 27
M  V30 27 2 27 28
M  V30 28 1 28 29
M  V30 29 2 29 30
M  V30 30 1 30 31
M  V30 31 2 31 32
M  V30 32 1 32 33
M  V30 33 1 33 34
M  V30 34 2 33 35
M  V30 35 1 35 36
M  V30 36 2 36 37
M  V30 37 1 29 38
M  V30 38 1 38 39
M  V30 39 1 39 40
M  V30 40 1 40 41
M  V30 41 2 19 3
M  V30 42 1 37 27
M  V30 43 1 17 6
M  V30 44 1 41 28
M  V30 45 1 16 14
M  V30 46 1 37 31
M  V30 47 1 1 42
M  V30 48 1 1 43
M  V30 49 1 1 44
M  V30 50 1 7 45
M  V30 51 1 8 46
M  V30 52 1 11 47
M  V30 53 1 14 48
M  V30 54 1 15 49
M  V30 55 1 15 50
M  V30 56 1 16 51
M  V30 57 1 16 52
M  V30 58 1 17 53
M  V30 59 1 22 54
M  V30 60 1 23 55
M  V30 61 1 23 56
M  V30 62 1 24 57
M  V30 63 1 24 58
M  V30 64 1 25 59
M  V30 65 1 25 60
M  V30 66 1 26 61
M  V30 67 1 32 62
M  V30 68 1 35 63
M  V30 69 1 36 64
M  V30 70 1 38 65
M  V30 71 1 38 66
M  V30 72 1 39 67
M  V30 73 1 39 68
M  V30 74 1 40 69
M  V30 75 1 40 70
M  V30 76 1 41 71
M  V30 77 1 41 72
M  V30 END BOND
M  V30 END CTAB
M  END
>  <Dataset>  (42) 
ChEMBL_Kinases

>  <Ligand_Instance>  (42) 
nan

>  <PDB_ID>  (42) 
nan

>  <Standardized_SMILES>  (42) 
COc1nc(-c2ccnc(NC(=O)C3CC3)c2)sc1C(=O)NCCCNc1c2c(nc3cc(Cl)ccc13)CCCC2

>  <Name>  (42) 
nan

>  <Pocket>  (42) 
nan

>  <ATP_Site>  (42) 
nan

>  <Peripheral>  (42) 
nan

>  <Num_H_Atoms_ProtBoundConf>  (42) 
nan

>  <Num_Resolved_Atoms>  (42) 
nan

>  <Num_Not_Resolved_Atoms>  (42) 
nan

$$$$
CHEMBL4756005
     RDKit          3D

  0  0  0  0  0  0  0  0  0  0999 V3000
M  V30 BEGIN CTAB
M  V30 COUNTS 51 54 0 0 0
M  V30 BEGIN ATOM
M  V30 1 C 3.843041 -4.588770 3.951628 0
M  V30 2 N 4.158651 -3.306331 3.335382 0
M  V30 3 C 3.268740 -2.635430 2.487113 0
M  V30 4 O 2.164781 -3.231535 2.296802 0
M  V30 5 C 3.547716 -1.371482 1.863370 0
M  V30 6 C 4.750349 -0.714821 2.062059 0
M  V30 7 C 4.994308 0.500707 1.450159 0
M  V30 8 C 4.031292 1.064089 0.634595 0
M  V30 9 C 2.805131 0.429237 0.411122 0
M  V30 10 C 1.818845 1.062874 -0.457942 0
M  V30 11 C 2.207907 1.853942 -1.542903 0
M  V30 12 N 1.320255 2.450745 -2.358944 0
M  V30 13 C -0.021619 2.306364 -2.158236 0
M  V30 14 N -1.105729 2.786073 -2.812452 0
M  V30 15 C -2.211323 2.331006 -2.185990 0
M  V30 16 C -1.874471 1.535340 -1.096798 0
M  V30 17 C -2.765510 0.856117 -0.165707 0
M  V30 18 C -3.819539 1.613279 0.309895 0
M  V30 19 C -4.694155 1.008255 1.198374 0
M  V30 20 C -5.810367 1.743413 1.728540 0
M  V30 21 N -6.703334 2.353419 2.154348 0
M  V30 22 C -4.499600 -0.284640 1.572202 0
M  V30 23 Cl -5.635247 -1.007749 2.701429 0
M  V30 24 C -3.467228 -1.081876 1.128584 0
M  V30 25 N -3.244398 -2.412203 1.499231 0
M  V30 26 S -2.025326 -3.448463 0.854814 0
M  V30 27 C -2.275262 -3.675399 -0.888488 0
M  V30 28 O -2.076862 -4.771802 1.562471 0
M  V30 29 O -0.653624 -2.861184 1.032979 0
M  V30 30 C -2.617123 -0.432795 0.240614 0
M  V30 31 C -0.474825 1.537308 -1.103437 0
M  V30 32 C 0.457150 0.936208 -0.281774 0
M  V30 33 C 2.599424 -0.782122 1.039504 0
M  V30 34 H 4.767754 -5.205657 3.884672 0
M  V30 35 H 3.666804 -4.401987 5.029226 0
M  V30 36 H 2.972955 -5.067885 3.447278 0
M  V30 37 H 5.088796 -2.908394 3.558884 0
M  V30 38 H 5.530109 -1.117427 2.689946 0
M  V30 39 H 5.928819 1.028383 1.594082 0
M  V30 40 H 4.231794 2.027229 0.153342 0
M  V30 41 H 3.275708 2.004978 -1.752050 0
M  V30 42 H -1.056960 3.393537 -3.644541 0
M  V30 43 H -3.233245 2.552404 -2.486686 0
M  V30 44 H -4.031172 2.637234 0.056204 0
M  V30 45 H -3.902658 -2.771093 2.239972 0
M  V30 46 H -3.377635 -3.622800 -1.040831 0
M  V30 47 H -1.897512 -4.701742 -1.148785 0
M  V30 48 H -1.729638 -2.925916 -1.496992 0
M  V30 49 H -1.757970 -0.919654 -0.198921 0
M  V30 50 H 0.142497 0.330269 0.549907 0
M  V30 51 H 1.637208 -1.219956 0.827408 0
M  V30 END ATOM
M  V30 BEGIN BOND
M  V30 1 1 1 2
M  V30 2 1 2 3
M  V30 3 2 3 4
M  V30 4 1 3 5
M  V30 5 2 5 6
M  V30 6 1 6 7
M  V30 7 2 7 8
M  V30 8 1 8 9
M  V30 9 1 9 10
M  V30 10 2 10 11
M  V30 11 1 11 12
M  V30 12 2 12 13
M  V30 13 1 13 14
M  V30 14 1 14 15
M  V30 15 2 15 16
M  V30 16 1 16 17
M  V30 17 2 17 18
M  V30 18 1 18 19
M  V30 19 1 19 20
M  V30 20 3 20 21
M  V30 21 2 19 22
M  V30 22 1 22 23
M  V30 23 1 22 24
M  V30 24 1 24 25
M  V30 25 1 25 26
M  V30 26 1 26 27
M  V30 27 2 26 28
M  V30 28 2 26 29
M  V30 29 2 24 30
M  V30 30 1 16 31
M  V30 31 2 31 32
M  V30 32 2 9 33
M  V30 33 1 33 5
M  V30 34 1 32 10
M  V30 35 1 31 13
M  V30 36 1 30 17
M  V30 37 1 1 34
M  V30 38 1 1 35
M  V30 39 1 1 36
M  V30 40 1 2 37
M  V30 41 1 6 38
M  V30 42 1 7 39
M  V30 43 1 8 40
M  V30 44 1 11 41
M  V30 45 1 14 42
M  V30 46 1 15 43
M  V30 47 1 18 44
M  V30 48 1 25 45
M  V30 49 1 27 46
M  V30 50 1 27 47
M  V30 51 1 27 48
M  V30 52 1 30 49
M  V30 53 1 32 50
M  V30 54 1 33 51
M  V30 END BOND
M  V30 END CTAB
M  END
>  <Dataset>  (43) 
ChEMBL_Kinases

>  <Ligand_Instance>  (43) 
nan

>  <PDB_ID>  (43) 
nan

>  <Standardized_SMILES>  (43) 
CNC(=O)c1cccc(-c2cnc3[nH]cc(-c4cc(C#N)c(Cl)c(NS(C)(=O)=O)c4)c3c2)c1

>  <Name>  (43) 
nan

>  <Pocket>  (43) 
nan

>  <ATP_Site>  (43) 
nan

>  <Peripheral>  (43) 
nan

>  <Num_H_Atoms_ProtBoundConf>  (43) 
nan

>  <Num_Resolved_Atoms>  (43) 
nan

>  <Num_Not_Resolved_Atoms>  (43) 
nan

$$$$
CHEMBL4293369
     RDKit          3D

  0  0  0  0  0  0  0  0  0  0999 V3000
M  V30 BEGIN CTAB
M  V30 COUNTS 27 28 0 0 0
M  V30 BEGIN ATOM
M  V30 1 C -2.242344 -1.156240 2.099044 0
M  V30 2 C -0.876189 -1.547751 2.510537 0
M  V30 3 N -0.519921 -2.104758 3.683158 0
M  V30 4 N 0.797564 -2.299791 3.652509 0
M  V30 5 C 1.313457 -1.879072 2.476414 0
M  V30 6 N 2.695090 -1.928791 2.081741 0
M  V30 7 C 0.251664 -1.393262 1.731522 0
M  V30 8 C 0.326685 -0.830405 0.385664 0
M  V30 9 C 0.194378 -1.624203 -0.739430 0
M  V30 10 C 0.267310 -1.078292 -2.025136 0
M  V30 11 C 0.477195 0.284519 -2.062538 0
M  V30 12 C 0.614015 1.109193 -0.965753 0
M  V30 13 C 0.838665 2.573209 -1.099590 0
M  V30 14 F 1.739215 3.051831 -0.173312 0
M  V30 15 F -0.380428 3.182335 -0.776818 0
M  V30 16 F 1.213707 2.902999 -2.380382 0
M  V30 17 C 0.535424 0.528818 0.280686 0
M  V30 18 H -2.466762 -1.482695 1.061206 0
M  V30 19 H -3.025101 -1.645762 2.724240 0
M  V30 20 H -2.376927 -0.047282 2.095125 0
M  V30 21 H -1.182045 -2.331719 4.459564 0
M  V30 22 H 3.223611 -2.783357 2.420318 0
M  V30 23 H 3.057439 -1.130479 1.502847 0
M  V30 24 H 0.030536 -2.691571 -0.647712 0
M  V30 25 H 0.168371 -1.668463 -2.926392 0
M  V30 26 H 0.535454 0.718605 -3.053139 0
M  V30 27 H 0.635597 1.128023 1.163863 0
M  V30 END ATOM
M  V30 BEGIN BOND
M  V30 1 1 1 2
M  V30 2 1 2 3
M  V30 3 1 3 4
M  V30 4 2 4 5
M  V30 5 1 5 6
M  V30 6 1 5 7
M  V30 7 1 7 8
M  V30 8 2 8 9
M  V30 9 1 9 10
M  V30 10 2 10 11
M  V30 11 1 11 12
M  V30 12 1 12 13
M  V30 13 1 13 14
M  V30 14 1 13 15
M  V30 15 1 13 16
M  V30 16 2 12 17
M  V30 17 2 7 2
M  V30 18 1 17 8
M  V30 19 1 1 18
M  V30 20 1 1 19
M  V30 21 1 1 20
M  V30 22 1 3 21
M  V30 23 1 6 22
M  V30 24 1 6 23
M  V30 25 1 9 24
M  V30 26 1 10 25
M  V30 27 1 11 26
M  V30 28 1 17 27
M  V30 END BOND
M  V30 END CTAB
M  END
>  <Dataset>  (44) 
ChEMBL_Kinases

>  <Ligand_Instance>  (44) 
nan

>  <PDB_ID>  (44) 
nan

>  <Standardized_SMILES>  (44) 
Cc1[nH]nc(N)c1-c1cccc(C(F)(F)F)c1

>  <Name>  (44) 
nan

>  <Pocket>  (44) 
nan

>  <ATP_Site>  (44) 
nan

>  <Peripheral>  (44) 
nan

>  <Num_H_Atoms_ProtBoundConf>  (44) 
nan

>  <Num_Resolved_Atoms>  (44) 
nan

>  <Num_Not_Resolved_Atoms>  (44) 
nan

$$$$
CHEMBL4756050
     RDKit          3D

  0  0  0  0  0  0  0  0  0  0999 V3000
M  V30 BEGIN CTAB
M  V30 COUNTS 52 55 0 0 0
M  V30 BEGIN ATOM
M  V30 1 C 1.769239 -4.860945 4.190088 0
M  V30 2 C 2.900215 -4.041779 3.693306 0
M  V30 3 O 3.981460 -4.669815 3.473658 0
M  V30 4 N 2.736954 -2.648765 3.491507 0
M  V30 5 C 3.890895 -1.899965 3.000331 0 CFG=2
M  V30 6 C 4.350262 -0.875769 3.986363 0
M  V30 7 C 3.348685 0.200318 4.208382 0
M  V30 8 C 2.451744 0.501519 3.066249 0
M  V30 9 C 2.893533 0.039130 1.722823 0 CFG=2
M  V30 10 C 1.671998 -0.047081 0.874036 0
M  V30 11 O 0.612557 0.268255 1.441827 0
M  V30 12 N 1.651800 -0.447649 -0.473988 0
M  V30 13 C 0.551740 -0.560575 -1.355628 0
M  V30 14 C -0.766478 -0.300505 -1.090380 0
M  V30 15 C -1.822538 -0.426954 -1.996965 0
M  V30 16 C -3.161288 -0.115236 -1.557602 0
M  V30 17 C -3.587529 -0.621131 -0.325709 0
M  V30 18 N -4.844961 -0.223475 -0.083946 0
M  V30 19 C -5.200271 0.520919 -1.150075 0
M  V30 20 N -4.178223 0.577263 -2.028118 0
M  V30 21 C -4.585079 1.378115 -3.151823 0
M  V30 22 C -5.703220 2.253785 -2.605542 0
M  V30 23 C -6.376680 1.297733 -1.643697 0
M  V30 24 C -1.473462 -0.852893 -3.260123 0
M  V30 25 Cl -2.725833 -1.045556 -4.460917 0
M  V30 26 C -0.149883 -1.115525 -3.531645 0
M  V30 27 N 0.810203 -0.970554 -2.607416 0
M  V30 28 C 3.658089 -1.242092 1.686609 0
M  V30 29 H 0.878620 -4.233602 4.406525 0
M  V30 30 H 2.039284 -5.476111 5.085636 0
M  V30 31 H 1.430073 -5.544432 3.367082 0
M  V30 32 H 1.851104 -2.136123 3.671854 0
M  V30 33 H 4.761035 -2.607549 2.859695 0
M  V30 34 H 4.518835 -1.434991 4.952576 0
M  V30 35 H 5.346238 -0.504707 3.625030 0
M  V30 36 H 3.922080 1.107742 4.557195 0
M  V30 37 H 2.702777 -0.105595 5.083391 0
M  V30 38 H 2.363550 1.627764 3.016241 0
M  V30 39 H 1.389366 0.181488 3.274445 0
M  V30 40 H 3.548940 0.844179 1.274632 0
M  V30 41 H 2.618945 -0.679019 -0.803852 0
M  V30 42 H -1.023505 0.027785 -0.110791 0
M  V30 43 H -3.076893 -1.251645 0.418161 0
M  V30 44 H -3.790724 1.937222 -3.645215 0
M  V30 45 H -5.081222 0.680261 -3.887077 0
M  V30 46 H -5.312628 3.102835 -2.013016 0
M  V30 47 H -6.387809 2.574451 -3.411070 0
M  V30 48 H -6.863261 1.824377 -0.789326 0
M  V30 49 H -7.103446 0.622873 -2.138723 0
M  V30 50 H 0.158056 -1.449269 -4.506174 0
M  V30 51 H 3.118157 -1.961044 1.004867 0
M  V30 52 H 4.652837 -1.114207 1.179999 0
M  V30 END ATOM
M  V30 BEGIN BOND
M  V30 1 1 1 2
M  V30 2 2 2 3
M  V30 3 1 2 4
M  V30 4 1 4 5
M  V30 5 1 5 6
M  V30 6 1 6 7
M  V30 7 1 7 8
M  V30 8 1 8 9
M  V30 9 1 9 10
M  V30 10 2 10 11
M  V30 11 1 10 12
M  V30 12 1 12 13
M  V30 13 2 13 14
M  V30 14 1 14 15
M  V30 15 1 15 16
M  V30 16 2 16 17
M  V30 17 1 17 18
M  V30 18 2 18 19
M  V30 19 1 19 20
M  V30 20 1 20 21
M  V30 21 1 21 22
M  V30 22 1 22 23
M  V30 23 2 15 24
M  V30 24 1 24 25
M  V30 25 1 24 26
M  V30 26 2 26 27
M  V30 27 1 9 28
M  V30 28 1 28 5
M  V30 29 1 27 13
M  V30 30 1 20 16
M  V30 31 1 23 19
M  V30 32 1 1 29
M  V30 33 1 1 30
M  V30 34 1 1 31
M  V30 35 1 4 32
M  V30 36 1 5 33 CFG=3
M  V30 37 1 6 34
M  V30 38 1 6 35
M  V30 39 1 7 36
M  V30 40 1 7 37
M  V30 41 1 8 38
M  V30 42 1 8 39
M  V30 43 1 9 40 CFG=3
M  V30 44 1 12 41
M  V30 45 1 14 42
M  V30 46 1 17 43
M  V30 47 1 21 44
M  V30 48 1 21 45
M  V30 49 1 22 46
M  V30 50 1 22 47
M  V30 51 1 23 48
M  V30 52 1 23 49
M  V30 53 1 26 50
M  V30 54 1 28 51
M  V30 55 1 28 52
M  V30 END BOND
M  V30 END CTAB
M  END
>  <Dataset>  (45) 
ChEMBL_Kinases

>  <Ligand_Instance>  (45) 
nan

>  <PDB_ID>  (45) 
nan

>  <Standardized_SMILES>  (45) 
CC(=O)N[C@@H]1CCC[C@H](C(=O)Nc2cc(-c3cnc4n3CCC4)c(Cl)cn2)C1

>  <Name>  (45) 
nan

>  <Pocket>  (45) 
nan

>  <ATP_Site>  (45) 
nan

>  <Peripheral>  (45) 
nan

>  <Num_H_Atoms_ProtBoundConf>  (45) 
nan

>  <Num_Resolved_Atoms>  (45) 
nan

>  <Num_Not_Resolved_Atoms>  (45) 
nan

$$$$
CHEMBL4293305
     RDKit          3D

  0  0  0  0  0  0  0  0  0  0999 V3000
M  V30 BEGIN CTAB
M  V30 COUNTS 65 70 0 0 0
M  V30 BEGIN ATOM
M  V30 1 O 0.507166 -6.713576 2.694604 0
M  V30 2 C 1.482408 -5.910619 2.737694 0
M  V30 3 O 2.490158 -6.290115 3.604577 0
M  V30 4 C 1.674585 -4.672510 2.011619 0
M  V30 5 S 3.141106 -3.591666 2.165311 0
M  V30 6 C 2.488063 -2.342856 0.917906 0
M  V30 7 C 3.334150 -1.187415 0.644733 0
M  V30 8 C 4.558826 -0.971943 1.238455 0
M  V30 9 C 5.200715 0.188011 0.839857 0
M  V30 10 N 4.704409 1.052668 -0.046145 0
M  V30 11 C 3.506719 0.816023 -0.609114 0
M  V30 12 N 2.978611 1.746583 -1.559080 0
M  V30 13 C 3.754608 2.888635 -1.864401 0
M  V30 14 O 4.890848 3.119805 -1.334447 0
M  V30 15 C 3.279756 3.891589 -2.831570 0
M  V30 16 C 1.782317 4.264052 -2.747644 0
M  V30 17 C 2.346020 3.540006 -3.923772 0
M  V30 18 C 2.774274 -0.330099 -0.274573 0
M  V30 19 N 1.469600 -2.819344 0.624229 0
M  V30 20 C 0.902249 -3.923576 1.032219 0
M  V30 21 O -0.235236 -4.601125 0.801919 0
M  V30 22 C -1.347125 -4.470883 0.040877 0
M  V30 23 C -2.158281 -3.259124 0.330138 0
M  V30 24 N -1.405796 -2.063880 0.102756 0
M  V30 25 C -2.293674 -0.980802 0.456916 0
M  V30 26 C -2.342314 -0.437057 1.721013 0
M  V30 27 C -3.222837 0.586387 2.052597 0
M  V30 28 N -4.062639 1.074891 1.117944 0
M  V30 29 C -4.073986 0.591022 -0.152900 0
M  V30 30 C -4.930119 1.081833 -1.128630 0
M  V30 31 C -4.886779 0.536833 -2.416488 0
M  V30 32 C -4.002167 -0.478102 -2.712844 0
M  V30 33 C -3.153789 -0.961551 -1.738180 0
M  V30 34 C -3.182509 -0.437528 -0.467002 0
M  V30 35 C -3.349542 1.233138 3.380760 0
M  V30 36 C -2.641061 0.514136 4.486640 0
M  V30 37 C -2.241881 -0.894057 4.094881 0
M  V30 38 C -1.455733 -0.887794 2.798223 0
M  V30 39 H 2.663074 -7.286688 3.813974 0
M  V30 40 H 4.936767 -1.687211 1.951834 0
M  V30 41 H 6.171878 0.397335 1.284447 0
M  V30 42 H 2.044114 1.556119 -1.994417 0
M  V30 43 H 3.983794 4.742538 -2.982754 0
M  V30 44 H 1.537371 5.341395 -2.889301 0
M  V30 45 H 1.148204 3.660074 -2.061194 0
M  V30 46 H 2.055117 2.494416 -4.071093 0
M  V30 47 H 2.475926 4.106508 -4.867288 0
M  V30 48 H 1.819447 -0.476406 -0.751909 0
M  V30 49 H -2.030434 -5.352606 0.288040 0
M  V30 50 H -1.183298 -4.620091 -1.062994 0
M  V30 51 H -2.446065 -3.302169 1.403565 0
M  V30 52 H -3.135494 -3.251390 -0.215106 0
M  V30 53 H -0.677159 -1.360911 -0.135788 0
M  V30 54 H -5.616878 1.890222 -0.844529 0
M  V30 55 H -5.598112 0.998485 -3.088281 0
M  V30 56 H -4.033051 -0.844121 -3.736447 0
M  V30 57 H -2.498246 -1.749515 -2.050100 0
M  V30 58 H -2.851915 2.243216 3.285367 0
M  V30 59 H -4.426483 1.363379 3.636073 0
M  V30 60 H -1.666680 1.015070 4.760536 0
M  V30 61 H -3.242393 0.475938 5.393538 0
M  V30 62 H -1.600477 -1.291162 4.897871 0
M  V30 63 H -3.171895 -1.480115 3.965138 0
M  V30 64 H -0.577813 -0.200231 2.937888 0
M  V30 65 H -1.041483 -1.889876 2.648641 0
M  V30 END ATOM
M  V30 BEGIN BOND
M  V30 1 2 1 2
M  V30 2 1 2 3
M  V30 3 1 2 4
M  V30 4 1 4 5
M  V30 5 1 5 6
M  V30 6 1 6 7
M  V30 7 2 7 8
M  V30 8 1 8 9
M  V30 9 2 9 10
M  V30 10 1 10 11
M  V30 11 1 11 12
M  V30 12 1 12 13
M  V30 13 2 13 14
M  V30 14 1 13 15
M  V30 15 1 15 16
M  V30 16 1 16 17
M  V30 17 2 11 18
M  V30 18 2 6 19
M  V30 19 1 19 20
M  V30 20 1 20 21
M  V30 21 1 21 22
M  V30 22 1 22 23
M  V30 23 1 23 24
M  V30 24 1 24 25
M  V30 25 2 25 26
M  V30 26 1 26 27
M  V30 27 2 27 28
M  V30 28 1 28 29
M  V30 29 2 29 30
M  V30 30 1 30 31
M  V30 31 2 31 32
M  V30 32 1 32 33
M  V30 33 2 33 34
M  V30 34 1 27 35
M  V30 35 1 35 36
M  V30 36 1 36 37
M  V30 37 1 37 38
M  V30 38 2 20 4
M  V30 39 1 34 25
M  V30 40 1 18 7
M  V30 41 1 38 26
M  V30 42 1 17 15
M  V30 43 1 34 29
M  V30 44 1 3 39
M  V30 45 1 8 40
M  V30 46 1 9 41
M  V30 47 1 12 42
M  V30 48 1 15 43
M  V30 49 1 16 44
M  V30 50 1 16 45
M  V30 51 1 17 46
M  V30 52 1 17 47
M  V30 53 1 18 48
M  V30 54 1 22 49
M  V30 55 1 22 50
M  V30 56 1 23 51
M  V30 57 1 23 52
M  V30 58 1 24 53
M  V30 59 1 30 54
M  V30 60 1 31 55
M  V30 61 1 32 56
M  V30 62 1 33 57
M  V30 63 1 35 58
M  V30 64 1 35 59
M  V30 65 1 36 60
M  V30 66 1 36 61
M  V30 67 1 37 62
M  V30 68 1 37 63
M  V30 69 1 38 64
M  V30 70 1 38 65
M  V30 END BOND
M  V30 END CTAB
M  END
>  <Dataset>  (46) 
ChEMBL_Kinases

>  <Ligand_Instance>  (46) 
nan

>  <PDB_ID>  (46) 
nan

>  <Standardized_SMILES>  (46) 
O=C(O)c1sc(-c2ccnc(NC(=O)C3CC3)c2)nc1OCCNc1c2c(nc3ccccc13)CCCC2

>  <Name>  (46) 
nan

>  <Pocket>  (46) 
nan

>  <ATP_Site>  (46) 
nan

>  <Peripheral>  (46) 
nan

>  <Num_H_Atoms_ProtBoundConf>  (46) 
nan

>  <Num_Resolved_Atoms>  (46) 
nan

>  <Num_Not_Resolved_Atoms>  (46) 
nan

$$$$
CHEMBL4293121
     RDKit          3D

  0  0  0  0  0  0  0  0  0  0999 V3000
M  V30 BEGIN CTAB
M  V30 COUNTS 53 58 0 0 0
M  V30 BEGIN ATOM
M  V30 1 C 3.875613 3.313875 7.274704 0
M  V30 2 O 3.049423 3.690122 6.202931 0
M  V30 3 C 2.897883 2.857266 5.110834 0
M  V30 4 C 2.077053 3.252296 4.067055 0
M  V30 5 C 1.909427 2.437610 2.964848 0
M  V30 6 C 2.572382 1.226828 2.922421 0
M  V30 7 C 2.550205 0.209961 1.873708 0
M  V30 8 N 3.703572 -0.366383 1.459863 0
M  V30 9 C 3.718458 -1.318367 0.483476 0
M  V30 10 C 2.532262 -1.725457 -0.118785 0
M  V30 11 C 1.366169 -1.133761 0.308856 0
M  V30 12 C 1.356670 -0.172290 1.295843 0
M  V30 13 F 0.169639 0.364933 1.664276 0
M  V30 14 C 0.165247 -1.603744 -0.361034 0
M  V30 15 N -1.131490 -1.275247 -0.224006 0
M  V30 16 C -1.851113 -2.017947 -1.099533 0
M  V30 17 C -0.990666 -2.833767 -1.805478 0
M  V30 18 C 0.298071 -2.571389 -1.335907 0
M  V30 19 C 1.527331 -3.241481 -1.835272 0
M  V30 20 C 2.755128 -2.755109 -1.142209 0
M  V30 21 C -1.570217 -3.735954 -2.823288 0
M  V30 22 O -0.784631 -4.492210 -3.479640 0
M  V30 23 N -2.980402 -3.717484 -3.022627 0
M  V30 24 C -3.756279 -3.366510 -1.847709 0
M  V30 25 C -3.305329 -2.027460 -1.334732 0
M  V30 26 C -4.156311 -1.440484 -0.263679 0
M  V30 27 N -4.248444 -0.186696 -0.988241 0
M  V30 28 C -5.626827 0.288240 -1.143699 0
M  V30 29 C -3.727579 -0.844443 -2.160736 0
M  V30 30 C 3.391680 0.856770 3.988326 0
M  V30 31 N 3.545742 1.667699 5.063069 0
M  V30 32 H 4.789583 2.855406 6.806952 0
M  V30 33 H 4.255561 4.190195 7.840441 0
M  V30 34 H 3.446413 2.580998 7.960774 0
M  V30 35 H 1.530972 4.192648 4.045435 0
M  V30 36 H 1.304140 2.620937 2.087949 0
M  V30 37 H 4.720185 -1.691849 0.254688 0
M  V30 38 H -1.519014 -0.577521 0.433738 0
M  V30 39 H 1.383381 -4.350063 -1.725438 0
M  V30 40 H 1.628885 -3.088218 -2.928211 0
M  V30 41 H 3.244218 -3.655735 -0.671488 0
M  V30 42 H 3.488884 -2.417384 -1.900619 0
M  V30 43 H -3.312688 -3.959947 -3.999918 0
M  V30 44 H -3.584463 -4.123346 -1.068419 0
M  V30 45 H -4.835380 -3.350065 -2.093585 0
M  V30 46 H -5.165129 -1.925418 -0.247876 0
M  V30 47 H -3.704321 -1.349332 0.744521 0
M  V30 48 H -6.251986 -0.529408 -1.606983 0
M  V30 49 H -5.647869 1.108606 -1.889443 0
M  V30 50 H -6.077578 0.528783 -0.173068 0
M  V30 51 H -4.499586 -1.082284 -2.944370 0
M  V30 52 H -2.912263 -0.271087 -2.644092 0
M  V30 53 H 3.971456 -0.059320 4.092983 0
M  V30 END ATOM
M  V30 BEGIN BOND
M  V30 1 1 1 2
M  V30 2 1 2 3
M  V30 3 2 3 4
M  V30 4 1 4 5
M  V30 5 2 5 6
M  V30 6 1 6 7
M  V30 7 2 7 8
M  V30 8 1 8 9
M  V30 9 2 9 10
M  V30 10 1 10 11
M  V30 11 2 11 12
M  V30 12 1 12 13
M  V30 13 1 11 14
M  V30 14 1 14 15
M  V30 15 1 15 16
M  V30 16 2 16 17
M  V30 17 1 17 18
M  V30 18 1 18 19
M  V30 19 1 19 20
M  V30 20 1 17 21
M  V30 21 2 21 22
M  V30 22 1 21 23
M  V30 23 1 23 24
M  V30 24 1 24 25
M  V30 25 1 25 26
M  V30 26 1 26 27
M  V30 27 1 27 28
M  V30 28 1 27 29
M  V30 29 1 6 30
M  V30 30 2 30 31
M  V30 31 1 31 3
M  V30 32 1 12 7
M  V30 33 2 18 14
M  V30 34 1 29 25
M  V30 35 1 20 10
M  V30 36 1 25 16
M  V30 37 1 1 32
M  V30 38 1 1 33
M  V30 39 1 1 34
M  V30 40 1 4 35
M  V30 41 1 5 36
M  V30 42 1 9 37
M  V30 43 1 15 38
M  V30 44 1 19 39
M  V30 45 1 19 40
M  V30 46 1 20 41
M  V30 47 1 20 42
M  V30 48 1 23 43
M  V30 49 1 24 44
M  V30 50 1 24 45
M  V30 51 1 26 46
M  V30 52 1 26 47
M  V30 53 1 28 48
M  V30 54 1 28 49
M  V30 55 1 28 50
M  V30 56 1 29 51
M  V30 57 1 29 52
M  V30 58 1 30 53
M  V30 END BOND
M  V30 END CTAB
M  END
>  <Dataset>  (47) 
ChEMBL_Kinases

>  <Ligand_Instance>  (47) 
nan

>  <PDB_ID>  (47) 
nan

>  <Standardized_SMILES>  (47) 
COc1ccc(-c2ncc3c(c2F)-c2[nH]c4c(c2CC3)C(=O)NCC42CN(C)C2)cn1

>  <Name>  (47) 
nan

>  <Pocket>  (47) 
nan

>  <ATP_Site>  (47) 
nan

>  <Peripheral>  (47) 
nan

>  <Num_H_Atoms_ProtBoundConf>  (47) 
nan

>  <Num_Resolved_Atoms>  (47) 
nan

>  <Num_Not_Resolved_Atoms>  (47) 
nan

$$$$
CHEMBL429298
     RDKit          3D

  0  0  0  0  0  0  0  0  0  0999 V3000
M  V30 BEGIN CTAB
M  V30 COUNTS 38 40 0 0 0
M  V30 BEGIN ATOM
M  V30 1 O 0.851493 -0.952511 3.599922 0
M  V30 2 S 0.972454 -0.217042 2.268420 0
M  V30 3 O 1.622632 1.091002 2.618034 0
M  V30 4 C 1.950407 -1.229845 1.283321 0
M  V30 5 C 2.582020 -2.412182 1.647755 0
M  V30 6 C 3.347332 -3.136412 0.747351 0
M  V30 7 C 3.492391 -2.678024 -0.551759 0
M  V30 8 C 2.874242 -1.507858 -0.933112 0
M  V30 9 C 3.062448 -1.109753 -2.246151 0
M  V30 10 Cl 4.038649 -2.061964 -3.340848 0
M  V30 11 C 2.452564 0.070212 -2.670637 0
M  V30 12 C 1.681032 0.818248 -1.796853 0
M  V30 13 C 1.540033 0.365408 -0.520284 0
M  V30 14 C 2.111544 -0.793777 -0.021230 0
M  V30 15 N -0.637977 0.011808 1.739306 0
M  V30 16 C -1.407137 -1.181039 1.678909 0
M  V30 17 C -2.897671 -0.938227 1.765023 0
M  V30 18 C -3.335246 -0.087289 0.602028 0
M  V30 19 N -2.573536 1.126905 0.552074 0
M  V30 20 C -2.414197 1.695779 1.880476 0
M  V30 21 C -1.227327 1.042738 2.569055 0
M  V30 22 H 2.410145 -2.686565 2.677916 0
M  V30 23 H 3.808820 -4.043512 1.095525 0
M  V30 24 H 4.082736 -3.248156 -1.224584 0
M  V30 25 H 2.603206 0.377387 -3.699847 0
M  V30 26 H 1.209252 1.737735 -2.137986 0
M  V30 27 H 0.933121 0.962091 0.151448 0
M  V30 28 H -1.106255 -1.954919 2.432952 0
M  V30 29 H -1.238555 -1.629906 0.662187 0
M  V30 30 H -3.230490 -0.513913 2.711061 0
M  V30 31 H -3.380119 -1.939321 1.675433 0
M  V30 32 H -4.409097 0.112825 0.620423 0
M  V30 33 H -3.089617 -0.679097 -0.324804 0
M  V30 34 H -1.643420 0.977530 0.106587 0
M  V30 35 H -3.347835 1.515354 2.422919 0
M  V30 36 H -2.255686 2.790776 1.743754 0
M  V30 37 H -0.453829 1.823858 2.725158 0
M  V30 38 H -1.503809 0.660524 3.573236 0
M  V30 END ATOM
M  V30 BEGIN BOND
M  V30 1 2 1 2
M  V30 2 2 2 3
M  V30 3 1 2 4
M  V30 4 2 4 5
M  V30 5 1 5 6
M  V30 6 2 6 7
M  V30 7 1 7 8
M  V30 8 2 8 9
M  V30 9 1 9 10
M  V30 10 1 9 11
M  V30 11 2 11 12
M  V30 12 1 12 13
M  V30 13 2 13 14
M  V30 14 1 2 15
M  V30 15 1 15 16
M  V30 16 1 16 17
M  V30 17 1 17 18
M  V30 18 1 18 19
M  V30 19 1 19 20
M  V30 20 1 20 21
M  V30 21 1 14 4
M  V30 22 1 21 15
M  V30 23 1 14 8
M  V30 24 1 5 22
M  V30 25 1 6 23
M  V30 26 1 7 24
M  V30 27 1 11 25
M  V30 28 1 12 26
M  V30 29 1 13 27
M  V30 30 1 16 28
M  V30 31 1 16 29
M  V30 32 1 17 30
M  V30 33 1 17 31
M  V30 34 1 18 32
M  V30 35 1 18 33
M  V30 36 1 19 34
M  V30 37 1 20 35
M  V30 38 1 20 36
M  V30 39 1 21 37
M  V30 40 1 21 38
M  V30 END BOND
M  V30 END CTAB
M  END
>  <Dataset>  (48) 
ChEMBL_Kinases

>  <Ligand_Instance>  (48) 
nan

>  <PDB_ID>  (48) 
nan

>  <Standardized_SMILES>  (48) 
O=S(=O)(c1cccc2c(Cl)cccc12)N1CCCNCC1

>  <Name>  (48) 
nan

>  <Pocket>  (48) 
nan

>  <ATP_Site>  (48) 
nan

>  <Peripheral>  (48) 
nan

>  <Num_H_Atoms_ProtBoundConf>  (48) 
nan

>  <Num_Resolved_Atoms>  (48) 
nan

>  <Num_Not_Resolved_Atoms>  (48) 
nan

$$$$
CHEMBL4756070
     RDKit          3D

  0  0  0  0  0  0  0  0  0  0999 V3000
M  V30 BEGIN CTAB
M  V30 COUNTS 46 49 0 0 0
M  V30 BEGIN ATOM
M  V30 1 O 0.730083 3.792644 3.010821 0
M  V30 2 C 0.987102 2.628728 2.557909 0
M  V30 3 N 2.297568 2.285102 2.324776 0
M  V30 4 C 2.538094 1.113684 1.870437 0
M  V30 5 N 3.834865 0.608379 1.578190 0
M  V30 6 C 4.852152 1.461515 0.994613 0
M  V30 7 C 4.415526 1.975434 -0.336692 0
M  V30 8 C 4.772803 1.137500 -1.401448 0
M  V30 9 C 4.452675 1.445909 -2.731156 0
M  V30 10 C 3.764271 2.629049 -2.907253 0
M  V30 11 O 3.401513 3.019030 -4.206155 0
M  V30 12 C 3.395366 3.479582 -1.884979 0
M  V30 13 C 3.730586 3.137714 -0.590392 0
M  V30 14 S 0.979817 0.211878 1.661327 0
M  V30 15 C -0.000775 1.593904 2.253256 0
M  V30 16 C -1.304503 1.751548 2.418531 0
M  V30 17 C -2.112828 0.593368 2.052883 0
M  V30 18 C -3.353040 0.738518 1.468428 0
M  V30 19 C -3.871036 -0.530696 1.239781 0
M  V30 20 C -2.881041 -1.387977 1.715032 0
M  V30 21 C -2.989094 -2.842164 1.681253 0
M  V30 22 C -1.928296 -3.596723 2.194765 0
M  V30 23 C -2.029650 -4.992156 2.161378 0
M  V30 24 C -3.166712 -5.560991 1.625793 0
M  V30 25 C -3.262527 -7.054712 1.595312 0
M  V30 26 F -4.354846 -7.483225 0.903046 0
M  V30 27 F -2.145649 -7.613558 0.965715 0
M  V30 28 F -3.266893 -7.545893 2.872158 0
M  V30 29 C -4.230281 -4.847466 1.111566 0
M  V30 30 C -4.097719 -3.474004 1.160157 0
M  V30 31 O -1.900517 -0.675616 2.167583 0
M  V30 32 H 4.028177 -0.414803 1.801887 0
M  V30 33 H 5.085685 2.328017 1.672332 0
M  V30 34 H 5.786574 0.896594 0.924968 0
M  V30 35 H 5.319700 0.197926 -1.273629 0
M  V30 36 H 4.736779 0.787878 -3.534743 0
M  V30 37 H 3.010564 2.332872 -4.870597 0
M  V30 38 H 2.852299 4.402993 -2.073574 0
M  V30 39 H 3.485532 3.741210 0.267563 0
M  V30 40 H -1.720057 2.675639 2.797286 0
M  V30 41 H -3.866914 1.653957 1.216214 0
M  V30 42 H -4.819728 -0.742590 0.796933 0
M  V30 43 H -1.029323 -3.171957 2.618875 0
M  V30 44 H -1.234803 -5.612950 2.546442 0
M  V30 45 H -5.118087 -5.280766 0.693810 0
M  V30 46 H -4.885117 -2.838793 0.777497 0
M  V30 END ATOM
M  V30 BEGIN BOND
M  V30 1 2 1 2
M  V30 2 1 2 3
M  V30 3 2 3 4
M  V30 4 1 4 5
M  V30 5 1 5 6
M  V30 6 1 6 7
M  V30 7 2 7 8
M  V30 8 1 8 9
M  V30 9 2 9 10
M  V30 10 1 10 11
M  V30 11 1 10 12
M  V30 12 2 12 13
M  V30 13 1 4 14
M  V30 14 1 14 15
M  V30 15 2 15 16
M  V30 16 1 16 17
M  V30 17 2 17 18
M  V30 18 1 18 19
M  V30 19 2 19 20
M  V30 20 1 20 21
M  V30 21 2 21 22
M  V30 22 1 22 23
M  V30 23 2 23 24
M  V30 24 1 24 25
M  V30 25 1 25 26
M  V30 26 1 25 27
M  V30 27 1 25 28
M  V30 28 1 24 29
M  V30 29 2 29 30
M  V30 30 1 20 31
M  V30 31 1 15 2
M  V30 32 1 31 17
M  V30 33 1 13 7
M  V30 34 1 30 21
M  V30 35 1 5 32
M  V30 36 1 6 33
M  V30 37 1 6 34
M  V30 38 1 8 35
M  V30 39 1 9 36
M  V30 40 1 11 37
M  V30 41 1 12 38
M  V30 42 1 13 39
M  V30 43 1 16 40
M  V30 44 1 18 41
M  V30 45 1 19 42
M  V30 46 1 22 43
M  V30 47 1 23 44
M  V30 48 1 29 45
M  V30 49 1 30 46
M  V30 END BOND
M  V30 END CTAB
M  END
>  <Dataset>  (49) 
ChEMBL_Kinases

>  <Ligand_Instance>  (49) 
nan

>  <PDB_ID>  (49) 
nan

>  <Standardized_SMILES>  (49) 
O=C1N=C(NCc2ccc(O)cc2)S/C1=C\c1ccc(-c2ccc(C(F)(F)F)cc2)o1

>  <Name>  (49) 
nan

>  <Pocket>  (49) 
nan

>  <ATP_Site>  (49) 
nan

>  <Peripheral>  (49) 
nan

>  <Num_H_Atoms_ProtBoundConf>  (49) 
nan

>  <Num_Resolved_Atoms>  (49) 
nan

>  <Num_Not_Resolved_Atoms>  (49) 
nan

$$$$
CHEMBL4292952
     RDKit          3D

  0  0  0  0  0  0  0  0  0  0999 V3000
M  V30 BEGIN CTAB
M  V30 COUNTS 24 25 0 0 0
M  V30 BEGIN ATOM
M  V30 1 C 1.005234 -0.047025 3.505480 0
M  V30 2 C 0.908225 -1.181947 2.548073 0
M  V30 3 N 1.039811 -2.474356 2.898902 0
M  V30 4 N 0.888837 -3.171490 1.766616 0
M  V30 5 C 0.667641 -2.348720 0.725021 0
M  V30 6 N 0.457807 -2.697887 -0.641167 0
M  V30 7 C 0.673364 -1.049855 1.193913 0
M  V30 8 C 0.470446 0.148909 0.387170 0
M  V30 9 C -0.852058 0.585198 0.254389 0
M  V30 10 C -1.112586 1.697268 -0.484732 0
M  V30 11 C -0.076036 2.373010 -1.087769 0
M  V30 12 C 1.236699 1.968926 -0.976103 0
M  V30 13 Cl 2.592766 2.791655 -1.722433 0
M  V30 14 C 1.495916 0.846490 -0.229613 0
M  V30 15 H 0.195860 -0.098823 4.273242 0
M  V30 16 H 0.843128 0.918655 2.986889 0
M  V30 17 H 2.005940 -0.025461 3.980062 0
M  V30 18 H 1.220320 -2.908643 3.828346 0
M  V30 19 H 0.803278 -3.565958 -1.103109 0
M  V30 20 H -0.091123 -2.042957 -1.268233 0
M  V30 21 H -1.700324 0.086246 0.710337 0
M  V30 22 H -2.112669 2.053875 -0.603692 0
M  V30 23 H -0.207380 3.277420 -1.699233 0
M  V30 24 H 2.499042 0.457213 -0.088343 0
M  V30 END ATOM
M  V30 BEGIN BOND
M  V30 1 1 1 2
M  V30 2 1 2 3
M  V30 3 1 3 4
M  V30 4 2 4 5
M  V30 5 1 5 6
M  V30 6 1 5 7
M  V30 7 1 7 8
M  V30 8 2 8 9
M  V30 9 1 9 10
M  V30 10 2 10 11
M  V30 11 1 11 12
M  V30 12 1 12 13
M  V30 13 2 12 14
M  V30 14 2 7 2
M  V30 15 1 14 8
M  V30 16 1 1 15
M  V30 17 1 1 16
M  V30 18 1 1 17
M  V30 19 1 3 18
M  V30 20 1 6 19
M  V30 21 1 6 20
M  V30 22 1 9 21
M  V30 23 1 10 22
M  V30 24 1 11 23
M  V30 25 1 14 24
M  V30 END BOND
M  V30 END CTAB
M  END
>  <Dataset>  (50) 
ChEMBL_Kinases

>  <Ligand_Instance>  (50) 
nan

>  <PDB_ID>  (50) 
nan

>  <Standardized_SMILES>  (50) 
Cc1[nH]nc(N)c1-c1cccc(Cl)c1

>  <Name>  (50) 
nan

>  <Pocket>  (50) 
nan

>  <ATP_Site>  (50) 
nan

>  <Peripheral>  (50) 
nan

>  <Num_H_Atoms_ProtBoundConf>  (50) 
nan

>  <Num_Resolved_Atoms>  (50) 
nan

>  <Num_Not_Resolved_Atoms>  (50) 
nan

$$$$
CHEMBL4756075
     RDKit          3D

  0  0  0  0  0  0  0  0  0  0999 V3000
M  V30 BEGIN CTAB
M  V30 COUNTS 73 78 0 0 0
M  V30 BEGIN ATOM
M  V30 1 C 8.095182 -1.585757 2.604716 0
M  V30 2 C 6.811093 -1.860180 1.890731 0
M  V30 3 C 6.540502 -0.849897 0.773317 0 CFG=2
M  V30 4 C 6.473106 0.482795 1.455784 0
M  V30 5 N 7.584769 1.114108 1.886503 0
M  V30 6 N 7.171686 2.220374 2.500330 0
M  V30 7 C 5.812649 2.297994 2.462850 0
M  V30 8 N 5.400945 1.199550 1.802237 0
M  V30 9 C 4.133973 0.715137 1.380005 0
M  V30 10 C 3.043576 1.441809 1.751959 0
M  V30 11 N 1.852989 0.971070 1.350050 0
M  V30 12 C 1.692867 -0.142680 0.624393 0
M  V30 13 N 0.469543 -0.685303 0.164005 0
M  V30 14 C -0.841946 -0.170871 0.297607 0
M  V30 15 C -1.136930 1.033377 0.909256 0
M  V30 16 C -2.389519 1.592080 1.062225 0
M  V30 17 C -3.473151 0.891552 0.559991 0
M  V30 18 C -4.808011 1.449339 0.688643 0
M  V30 19 O -4.921904 2.591186 1.197866 0
M  V30 20 N -5.957736 0.760505 0.267249 0
M  V30 21 C -7.344438 1.083821 0.280620 0
M  V30 22 C -7.826868 1.093007 -1.149562 0
M  V30 23 C -8.716342 -0.085667 -1.461194 0
M  V30 24 N -8.146243 -1.254298 -0.850946 0
M  V30 25 C -8.533906 -2.499888 -1.420187 0
M  V30 26 C -8.324967 -1.199605 0.587769 0
M  V30 27 C -8.233495 0.223568 1.097328 0
M  V30 28 C -3.229716 -0.315230 -0.058618 0
M  V30 29 C -1.978754 -0.831121 -0.189267 0
M  V30 30 O -1.773782 -2.050503 -0.819162 0
M  V30 31 C -2.889854 -2.750920 -1.327370 0
M  V30 32 N 2.816764 -0.797969 0.300715 0
M  V30 33 C 4.040452 -0.440837 0.632344 0
M  V30 34 N 5.226560 -1.162176 0.265090 0
M  V30 35 C 4.923125 -2.218021 -0.690687 0
M  V30 36 C 6.117650 -2.890924 -1.238425 0
M  V30 37 C 6.970548 -3.955751 -1.076208 0
M  V30 38 C 7.945102 -3.946567 -2.051144 0
M  V30 39 C 7.637377 -2.832626 -2.800878 0
M  V30 40 O 6.579744 -2.246922 -2.306271 0
M  V30 41 H 8.340286 -2.503385 3.195809 0
M  V30 42 H 8.965251 -1.449960 1.928034 0
M  V30 43 H 7.991291 -0.747676 3.316049 0
M  V30 44 H 6.714798 -2.874639 1.530037 0
M  V30 45 H 5.994364 -1.688842 2.649691 0
M  V30 46 H 7.311552 -0.888188 0.005553 0
M  V30 47 H 5.169784 3.066063 2.869773 0
M  V30 48 H 3.148578 2.341115 2.336980 0
M  V30 49 H 0.486660 -1.601527 -0.356274 0
M  V30 50 H -0.357626 1.652574 1.331092 0
M  V30 51 H -2.564345 2.532505 1.548208 0
M  V30 52 H -5.905435 -0.197497 -0.157560 0
M  V30 53 H -7.439584 2.121468 0.660119 0
M  V30 54 H -6.977408 1.055562 -1.868993 0
M  V30 55 H -8.413442 2.006785 -1.386946 0
M  V30 56 H -9.762833 0.100910 -1.150072 0
M  V30 57 H -8.665505 -0.247209 -2.578902 0
M  V30 58 H -8.645808 -3.323083 -0.684554 0
M  V30 59 H -9.497403 -2.367662 -1.951079 0
M  V30 60 H -7.805905 -2.805473 -2.214646 0
M  V30 61 H -7.645468 -1.904249 1.049527 0
M  V30 62 H -9.347397 -1.562255 0.800600 0
M  V30 63 H -9.257771 0.637472 0.972825 0
M  V30 64 H -8.054197 0.196776 2.174389 0
M  V30 65 H -4.038845 -0.904270 -0.471144 0
M  V30 66 H -3.403375 -2.089320 -2.066884 0
M  V30 67 H -2.486665 -3.634624 -1.885287 0
M  V30 68 H -3.629875 -3.022961 -0.560220 0
M  V30 69 H 4.382959 -2.994170 -0.063979 0
M  V30 70 H 4.181914 -1.903957 -1.456866 0
M  V30 71 H 6.692033 -4.576697 -0.210404 0
M  V30 72 H 8.687370 -4.730721 -2.044372 0
M  V30 73 H 8.260144 -2.586048 -3.651041 0
M  V30 END ATOM
M  V30 BEGIN BOND
M  V30 1 1 1 2
M  V30 2 1 2 3
M  V30 3 1 3 4
M  V30 4 2 4 5
M  V30 5 1 5 6
M  V30 6 2 6 7
M  V30 7 1 7 8
M  V30 8 1 8 9
M  V30 9 2 9 10
M  V30 10 1 10 11
M  V30 11 2 11 12
M  V30 12 1 12 13
M  V30 13 1 13 14
M  V30 14 2 14 15
M  V30 15 1 15 16
M  V30 16 2 16 17
M  V30 17 1 17 18
M  V30 18 2 18 19
M  V30 19 1 18 20
M  V30 20 1 20 21
M  V30 21 1 21 22
M  V30 22 1 22 23
M  V30 23 1 23 24
M  V30 24 1 24 25
M  V30 25 1 24 26
M  V30 26 1 26 27
M  V30 27 1 17 28
M  V30 28 2 28 29
M  V30 29 1 29 30
M  V30 30 1 30 31
M  V30 31 1 12 32
M  V30 32 2 32 33
M  V30 33 1 33 34
M  V30 34 1 34 35
M  V30 35 1 35 36
M  V30 36 2 36 37
M  V30 37 1 37 38
M  V30 38 2 38 39
M  V30 39 1 39 40
M  V30 40 1 34 3
M  V30 41 1 40 36
M  V30 42 1 8 4
M  V30 43 1 33 9
M  V30 44 1 29 14
M  V30 45 1 27 21
M  V30 46 1 1 41
M  V30 47 1 1 42
M  V30 48 1 1 43
M  V30 49 1 2 44
M  V30 50 1 2 45
M  V30 51 1 3 46 CFG=3
M  V30 52 1 7 47
M  V30 53 1 10 48
M  V30 54 1 13 49
M  V30 55 1 15 50
M  V30 56 1 16 51
M  V30 57 1 20 52
M  V30 58 1 21 53
M  V30 59 1 22 54
M  V30 60 1 22 55
M  V30 61 1 23 56
M  V30 62 1 23 57
M  V30 63 1 25 58
M  V30 64 1 25 59
M  V30 65 1 25 60
M  V30 66 1 26 61
M  V30 67 1 26 62
M  V30 68 1 27 63
M  V30 69 1 27 64
M  V30 70 1 28 65
M  V30 71 1 31 66
M  V30 72 1 31 67
M  V30 73 1 31 68
M  V30 74 1 35 69
M  V30 75 1 35 70
M  V30 76 1 37 71
M  V30 77 1 38 72
M  V30 78 1 39 73
M  V30 END BOND
M  V30 END CTAB
M  END
>  <Dataset>  (51) 
ChEMBL_Kinases

>  <Ligand_Instance>  (51) 
nan

>  <PDB_ID>  (51) 
nan

>  <Standardized_SMILES>  (51) 
CC[C@@H]1c2nncn2-c2cnc(Nc3ccc(C(=O)NC4CCN(C)CC4)cc3OC)nc2N1Cc1ccco1

>  <Name>  (51) 
nan

>  <Pocket>  (51) 
nan

>  <ATP_Site>  (51) 
nan

>  <Peripheral>  (51) 
nan

>  <Num_H_Atoms_ProtBoundConf>  (51) 
nan

>  <Num_Resolved_Atoms>  (51) 
nan

>  <Num_Not_Resolved_Atoms>  (51) 
nan

$$$$
CHEMBL4292878
     RDKit          3D

  0  0  0  0  0  0  0  0  0  0999 V3000
M  V30 BEGIN CTAB
M  V30 COUNTS 50 53 0 0 0
M  V30 BEGIN ATOM
M  V30 1 C -0.428250 -4.632950 0.060122 0
M  V30 2 O -1.059185 -3.406749 0.173031 0
M  V30 3 C -1.041844 -2.653691 -0.974906 0
M  V30 4 C -1.757011 -1.326285 -0.754911 0
M  V30 5 C -1.074265 -0.556478 0.336451 0
M  V30 6 C 0.130365 0.066731 0.679572 0
M  V30 7 C 1.284042 0.090099 -0.228546 0
M  V30 8 C 1.238312 1.158645 -1.123684 0
M  V30 9 C 2.249700 1.325072 -2.044469 0
M  V30 10 N 3.246738 0.448552 -2.046350 0
M  V30 11 C 3.308053 -0.584791 -1.193838 0
M  V30 12 C 2.328167 -0.806338 -0.249196 0
M  V30 13 C -0.012595 0.607020 1.963599 0
M  V30 14 C 1.130309 1.312916 2.531143 0
M  V30 15 C 1.185098 2.639884 2.932843 0
M  V30 16 C 2.367083 3.129402 3.445484 0
M  V30 17 C 3.496343 2.331189 3.568226 0
M  V30 18 C 3.405077 1.021322 3.159936 0
M  V30 19 C 4.613708 0.157025 3.287358 0
M  V30 20 N 2.250673 0.574706 2.668523 0
M  V30 21 N -1.273201 0.295679 2.339535 0
M  V30 22 N -1.883754 -0.377371 1.395011 0
M  V30 23 C -3.189962 -0.979647 1.178400 0
M  V30 24 C -3.144686 -1.509010 -0.227774 0
M  V30 25 C -3.635229 -2.949437 -0.290632 0
M  V30 26 C -4.078001 -0.697349 -1.123723 0
M  V30 27 H -0.880221 -5.278045 -0.713624 0
M  V30 28 H -0.593575 -5.153621 1.040735 0
M  V30 29 H 0.673619 -4.501455 -0.042815 0
M  V30 30 H 0.039576 -2.362580 -1.126246 0
M  V30 31 H -1.420173 -3.126504 -1.879266 0
M  V30 32 H -1.705725 -0.707916 -1.657699 0
M  V30 33 H 0.428260 1.901640 -1.149347 0
M  V30 34 H 2.209938 2.155932 -2.737141 0
M  V30 35 H 4.127394 -1.296709 -1.201860 0
M  V30 36 H 2.276972 -1.590403 0.472508 0
M  V30 37 H 0.262530 3.175717 2.798723 0
M  V30 38 H 2.354484 4.168303 3.742426 0
M  V30 39 H 4.393947 2.782037 3.980508 0
M  V30 40 H 5.303529 0.314853 2.417124 0
M  V30 41 H 5.187415 0.437854 4.190713 0
M  V30 42 H 4.361323 -0.922459 3.394529 0
M  V30 43 H -3.989586 -0.184853 1.247247 0
M  V30 44 H -3.344712 -1.766650 1.925110 0
M  V30 45 H -3.424901 -3.476001 0.668504 0
M  V30 46 H -4.762370 -2.896966 -0.360829 0
M  V30 47 H -3.294576 -3.494529 -1.169566 0
M  V30 48 H -3.559666 -0.397551 -2.081824 0
M  V30 49 H -4.959796 -1.282246 -1.459794 0
M  V30 50 H -4.437846 0.182569 -0.590057 0
M  V30 END ATOM
M  V30 BEGIN BOND
M  V30 1 1 1 2
M  V30 2 1 2 3
M  V30 3 1 3 4
M  V30 4 1 4 5
M  V30 5 2 5 6
M  V30 6 1 6 7
M  V30 7 2 7 8
M  V30 8 1 8 9
M  V30 9 2 9 10
M  V30 10 1 10 11
M  V30 11 2 11 12
M  V30 12 1 6 13
M  V30 13 1 13 14
M  V30 14 2 14 15
M  V30 15 1 15 16
M  V30 16 2 16 17
M  V30 17 1 17 18
M  V30 18 1 18 19
M  V30 19 2 18 20
M  V30 20 2 13 21
M  V30 21 1 21 22
M  V30 22 1 22 23
M  V30 23 1 23 24
M  V30 24 1 24 25
M  V30 25 1 24 26
M  V30 26 1 24 4
M  V30 27 1 22 5
M  V30 28 1 12 7
M  V30 29 1 20 14
M  V30 30 1 1 27
M  V30 31 1 1 28
M  V30 32 1 1 29
M  V30 33 1 3 30
M  V30 34 1 3 31
M  V30 35 1 4 32
M  V30 36 1 8 33
M  V30 37 1 9 34
M  V30 38 1 11 35
M  V30 39 1 12 36
M  V30 40 1 15 37
M  V30 41 1 16 38
M  V30 42 1 17 39
M  V30 43 1 19 40
M  V30 44 1 19 41
M  V30 45 1 19 42
M  V30 46 1 23 43
M  V30 47 1 23 44
M  V30 48 1 25 45
M  V30 49 1 25 46
M  V30 50 1 25 47
M  V30 51 1 26 48
M  V30 52 1 26 49
M  V30 53 1 26 50
M  V30 END BOND
M  V30 END CTAB
M  END
>  <Dataset>  (52) 
ChEMBL_Kinases

>  <Ligand_Instance>  (52) 
nan

>  <PDB_ID>  (52) 
nan

>  <Standardized_SMILES>  (52) 
COCC1c2c(-c3ccncc3)c(-c3cccc(C)n3)nn2CC1(C)C

>  <Name>  (52) 
nan

>  <Pocket>  (52) 
nan

>  <ATP_Site>  (52) 
nan

>  <Peripheral>  (52) 
nan

>  <Num_H_Atoms_ProtBoundConf>  (52) 
nan

>  <Num_Resolved_Atoms>  (52) 
nan

>  <Num_Not_Resolved_Atoms>  (52) 
nan

$$$$
CHEMBL4292170
     RDKit          3D

  0  0  0  0  0  0  0  0  0  0999 V3000
M  V30 BEGIN CTAB
M  V30 COUNTS 51 54 0 0 0
M  V30 BEGIN ATOM
M  V30 1 C 3.658459 -3.849437 4.159672 0
M  V30 2 O 3.278120 -3.876987 2.806940 0
M  V30 3 C 2.429735 -2.933325 2.263642 0
M  V30 4 C 1.862170 -1.878238 2.931464 0
M  V30 5 C 1.026134 -1.010798 2.258176 0
M  V30 6 C 0.773347 -1.220182 0.914819 0
M  V30 7 C -0.126455 -0.395823 0.089880 0
M  V30 8 C -0.102104 0.650765 -0.769853 0
M  V30 9 C 1.156303 1.309140 -1.078288 0
M  V30 10 C 1.786126 1.192053 -2.308096 0
M  V30 11 C 2.965034 1.826571 -2.627594 0
M  V30 12 C 3.576408 2.640253 -1.669046 0
M  V30 13 C 2.930258 2.743359 -0.447289 0
M  V30 14 C 3.512491 3.599579 0.646748 0
M  V30 15 N 1.781479 2.104439 -0.181768 0
M  V30 16 N -1.374450 0.872541 -1.175147 0
M  V30 17 N -2.183677 0.000651 -0.595457 0
M  V30 18 C -1.459461 -0.827418 0.213522 0
M  V30 19 C -2.466283 -1.789390 0.818441 0
M  V30 20 C -2.516892 -2.925248 -0.163067 0
M  V30 21 C -3.679000 -0.923731 0.844503 0
M  V30 22 C -3.466856 0.230706 1.794317 0
M  V30 23 C -4.965309 -1.618293 1.130257 0
M  V30 24 C -3.619105 -0.332537 -0.564090 0
M  V30 25 C 1.338529 -2.279916 0.227097 0
M  V30 26 C 2.184287 -3.157410 0.909470 0
M  V30 27 H 4.068689 -2.848791 4.384920 0
M  V30 28 H 4.409516 -4.643338 4.383335 0
M  V30 29 H 2.738462 -4.075420 4.757338 0
M  V30 30 H 2.083708 -1.750824 3.978106 0
M  V30 31 H 0.549179 -0.167005 2.730898 0
M  V30 32 H 1.350034 0.570613 -3.087808 0
M  V30 33 H 3.459912 1.731236 -3.599473 0
M  V30 34 H 4.511449 3.162453 -1.877902 0
M  V30 35 H 3.695381 2.906478 1.505179 0
M  V30 36 H 4.418671 4.133970 0.318978 0
M  V30 37 H 2.696092 4.289541 0.998077 0
M  V30 38 H -2.135410 -2.149139 1.790595 0
M  V30 39 H -1.596131 -3.542962 0.055511 0
M  V30 40 H -3.367337 -3.613326 0.017791 0
M  V30 41 H -2.405803 -2.630072 -1.214329 0
M  V30 42 H -3.534043 -0.059028 2.860643 0
M  V30 43 H -2.517351 0.751108 1.599579 0
M  V30 44 H -4.271723 0.992422 1.644805 0
M  V30 45 H -5.012375 -2.589936 0.623163 0
M  V30 46 H -5.135120 -1.662849 2.210837 0
M  V30 47 H -5.791825 -1.014856 0.688316 0
M  V30 48 H -4.255026 0.548766 -0.696538 0
M  V30 49 H -3.782964 -1.161722 -1.267089 0
M  V30 50 H 1.156645 -2.469782 -0.840017 0
M  V30 51 H 2.615785 -3.985567 0.330492 0
M  V30 END ATOM
M  V30 BEGIN BOND
M  V30 1 1 1 2
M  V30 2 1 2 3
M  V30 3 2 3 4
M  V30 4 1 4 5
M  V30 5 2 5 6
M  V30 6 1 6 7
M  V30 7 1 7 8
M  V30 8 1 8 9
M  V30 9 2 9 10
M  V30 10 1 10 11
M  V30 11 2 11 12
M  V30 12 1 12 13
M  V30 13 1 13 14
M  V30 14 2 13 15
M  V30 15 2 8 16
M  V30 16 1 16 17
M  V30 17 1 17 18
M  V30 18 1 18 19
M  V30 19 1 19 20
M  V30 20 1 19 21
M  V30 21 1 21 22
M  V30 22 1 21 23
M  V30 23 1 21 24
M  V30 24 1 6 25
M  V30 25 2 25 26
M  V30 26 1 26 3
M  V30 27 2 18 7
M  V30 28 1 15 9
M  V30 29 1 24 17
M  V30 30 1 1 27
M  V30 31 1 1 28
M  V30 32 1 1 29
M  V30 33 1 4 30
M  V30 34 1 5 31
M  V30 35 1 10 32
M  V30 36 1 11 33
M  V30 37 1 12 34
M  V30 38 1 14 35
M  V30 39 1 14 36
M  V30 40 1 14 37
M  V30 41 1 19 38
M  V30 42 1 20 39
M  V30 43 1 20 40
M  V30 44 1 20 41
M  V30 45 1 22 42
M  V30 46 1 22 43
M  V30 47 1 22 44
M  V30 48 1 23 45
M  V30 49 1 23 46
M  V30 50 1 23 47
M  V30 51 1 24 48
M  V30 52 1 24 49
M  V30 53 1 25 50
M  V30 54 1 26 51
M  V30 END BOND
M  V30 END CTAB
M  END
>  <Dataset>  (53) 
ChEMBL_Kinases

>  <Ligand_Instance>  (53) 
nan

>  <PDB_ID>  (53) 
nan

>  <Standardized_SMILES>  (53) 
COc1ccc(-c2c(-c3cccc(C)n3)nn3c2C(C)C(C)(C)C3)cc1

>  <Name>  (53) 
nan

>  <Pocket>  (53) 
nan

>  <ATP_Site>  (53) 
nan

>  <Peripheral>  (53) 
nan

>  <Num_H_Atoms_ProtBoundConf>  (53) 
nan

>  <Num_Resolved_Atoms>  (53) 
nan

>  <Num_Not_Resolved_Atoms>  (53) 
nan

$$$$
CHEMBL4756141
     RDKit          3D

  0  0  0  0  0  0  0  0  0  0999 V3000
M  V30 BEGIN CTAB
M  V30 COUNTS 34 36 0 0 0
M  V30 BEGIN ATOM
M  V30 1 C -2.298154 -7.001991 2.401080 0
M  V30 2 C -2.077487 -5.820375 2.271825 0
M  V30 3 C -1.810560 -4.416811 2.093493 0
M  V30 4 N -0.905622 -4.014769 1.204717 0
M  V30 5 C -0.610701 -2.741260 0.991088 0
M  V30 6 N 0.360813 -2.370557 0.031608 0
M  V30 7 C 0.811443 -1.081185 -0.328230 0
M  V30 8 C 0.386454 0.105944 0.223047 0
M  V30 9 C 0.826471 1.362405 -0.130645 0
M  V30 10 C 1.777892 1.455120 -1.124502 0
M  V30 11 C 2.334927 2.715517 -1.602327 0
M  V30 12 O 3.206800 2.779467 -2.521060 0
M  V30 13 N 1.970519 3.990595 -1.101806 0
M  V30 14 C 2.589257 5.188506 -1.651389 0
M  V30 15 C 2.243077 0.300252 -1.715120 0
M  V30 16 C 1.759248 -0.923318 -1.312392 0
M  V30 17 N -1.302079 -1.887315 1.747233 0
M  V30 18 C -2.226817 -2.202757 2.661649 0
M  V30 19 N -2.986142 -1.447339 3.479945 0
M  V30 20 C -3.756482 -2.301678 4.202498 0
M  V30 21 N -3.465147 -3.566267 3.823809 0
M  V30 22 C -2.514153 -3.531360 2.864070 0
M  V30 23 H -2.495118 -8.042236 2.532399 0
M  V30 24 H 0.817629 -3.172804 -0.493042 0
M  V30 25 H -0.354152 0.096373 1.002643 0
M  V30 26 H 0.459146 2.265052 0.335094 0
M  V30 27 H 1.257994 4.049402 -0.339999 0
M  V30 28 H 3.480403 5.402138 -1.026424 0
M  V30 29 H 1.906222 6.056734 -1.572678 0
M  V30 30 H 2.931137 5.038442 -2.687736 0
M  V30 31 H 2.992812 0.355425 -2.499692 0
M  V30 32 H 2.175723 -1.801248 -1.827358 0
M  V30 33 H -3.016750 -0.391871 3.580984 0
M  V30 34 H -4.470210 -1.989716 4.945461 0
M  V30 END ATOM
M  V30 BEGIN BOND
M  V30 1 3 1 2
M  V30 2 1 2 3
M  V30 3 2 3 4
M  V30 4 1 4 5
M  V30 5 1 5 6
M  V30 6 1 6 7
M  V30 7 2 7 8
M  V30 8 1 8 9
M  V30 9 2 9 10
M  V30 10 1 10 11
M  V30 11 2 11 12
M  V30 12 1 11 13
M  V30 13 1 13 14
M  V30 14 1 10 15
M  V30 15 2 15 16
M  V30 16 2 5 17
M  V30 17 1 17 18
M  V30 18 1 18 19
M  V30 19 1 19 20
M  V30 20 2 20 21
M  V30 21 1 21 22
M  V30 22 1 22 3
M  V30 23 1 16 7
M  V30 24 2 22 18
M  V30 25 1 1 23
M  V30 26 1 6 24
M  V30 27 1 8 25
M  V30 28 1 9 26
M  V30 29 1 13 27
M  V30 30 1 14 28
M  V30 31 1 14 29
M  V30 32 1 14 30
M  V30 33 1 15 31
M  V30 34 1 16 32
M  V30 35 1 19 33
M  V30 36 1 20 34
M  V30 END BOND
M  V30 END CTAB
M  END
>  <Dataset>  (54) 
ChEMBL_Kinases

>  <Ligand_Instance>  (54) 
nan

>  <PDB_ID>  (54) 
nan

>  <Standardized_SMILES>  (54) 
C#Cc1nc(Nc2ccc(C(=O)NC)cc2)nc2[nH]cnc12

>  <Name>  (54) 
nan

>  <Pocket>  (54) 
nan

>  <ATP_Site>  (54) 
nan

>  <Peripheral>  (54) 
nan

>  <Num_H_Atoms_ProtBoundConf>  (54) 
nan

>  <Num_Resolved_Atoms>  (54) 
nan

>  <Num_Not_Resolved_Atoms>  (54) 
nan

$$$$
CHEMBL4756172
     RDKit          3D

  0  0  0  0  0  0  0  0  0  0999 V3000
M  V30 BEGIN CTAB
M  V30 COUNTS 32 33 0 0 0
M  V30 BEGIN ATOM
M  V30 1 O 1.590765 -0.317738 0.772346 0
M  V30 2 C 0.511628 -0.433358 0.144526 0
M  V30 3 C 0.413975 -1.634480 -0.700919 0
M  V30 4 C 1.624362 -2.495607 -0.653027 0
M  V30 5 S 1.963798 -3.091071 1.024907 0
M  V30 6 C 0.947983 -4.533450 1.287979 0
M  V30 7 C -0.045272 -4.867179 0.257859 0
M  V30 8 N 0.297799 -4.602574 -1.101886 0
M  V30 9 C 1.332536 -3.712106 -1.458156 0
M  V30 10 O 2.040311 -3.949301 -2.495756 0
M  V30 11 N -0.496196 0.546602 0.278793 0
M  V30 12 C -0.482664 1.721739 1.064071 0
M  V30 13 C 0.522677 2.177456 1.879495 0
M  V30 14 C 0.468502 3.337277 2.620053 0
M  V30 15 C -0.659061 4.125538 2.566170 0
M  V30 16 O -0.714711 5.277431 3.300723 0
M  V30 17 C -1.681249 3.690873 1.756086 0
M  V30 18 C -1.597327 2.527802 1.028569 0
M  V30 19 H -0.445744 -2.230126 -0.360885 0
M  V30 20 H 0.221182 -1.401397 -1.780718 0
M  V30 21 H 2.545196 -2.014511 -1.019217 0
M  V30 22 H 0.433486 -4.409381 2.270564 0
M  V30 23 H 1.661888 -5.393032 1.458594 0
M  V30 24 H -1.034330 -4.405987 0.463574 0
M  V30 25 H -0.231413 -5.979896 0.325319 0
M  V30 26 H -0.246330 -5.093841 -1.847244 0
M  V30 27 H -1.325646 0.309502 -0.301956 0
M  V30 28 H 1.422474 1.602927 1.958596 0
M  V30 29 H 1.307787 3.628647 3.241793 0
M  V30 30 H -1.601408 5.773224 3.358433 0
M  V30 31 H -2.593017 4.263787 1.669797 0
M  V30 32 H -2.454097 2.237932 0.398892 0
M  V30 END ATOM
M  V30 BEGIN BOND
M  V30 1 2 1 2
M  V30 2 1 2 3
M  V30 3 1 3 4
M  V30 4 1 4 5
M  V30 5 1 5 6
M  V30 6 1 6 7
M  V30 7 1 7 8
M  V30 8 1 8 9
M  V30 9 2 9 10
M  V30 10 1 2 11
M  V30 11 1 11 12
M  V30 12 2 12 13
M  V30 13 1 13 14
M  V30 14 2 14 15
M  V30 15 1 15 16
M  V30 16 1 15 17
M  V30 17 2 17 18
M  V30 18 1 9 4
M  V30 19 1 18 12
M  V30 20 1 3 19
M  V30 21 1 3 20
M  V30 22 1 4 21
M  V30 23 1 6 22
M  V30 24 1 6 23
M  V30 25 1 7 24
M  V30 26 1 7 25
M  V30 27 1 8 26
M  V30 28 1 11 27
M  V30 29 1 13 28
M  V30 30 1 14 29
M  V30 31 1 16 30
M  V30 32 1 17 31
M  V30 33 1 18 32
M  V30 END BOND
M  V30 END CTAB
M  END
>  <Dataset>  (55) 
ChEMBL_Kinases

>  <Ligand_Instance>  (55) 
nan

>  <PDB_ID>  (55) 
nan

>  <Standardized_SMILES>  (55) 
O=C(CC1SCCNC1=O)Nc1ccc(O)cc1

>  <Name>  (55) 
nan

>  <Pocket>  (55) 
nan

>  <ATP_Site>  (55) 
nan

>  <Peripheral>  (55) 
nan

>  <Num_H_Atoms_ProtBoundConf>  (55) 
nan

>  <Num_Resolved_Atoms>  (55) 
nan

>  <Num_Not_Resolved_Atoms>  (55) 
nan

$$$$
CHEMBL4756240
     RDKit          3D

  0  0  0  0  0  0  0  0  0  0999 V3000
M  V30 BEGIN CTAB
M  V30 COUNTS 53 56 0 0 0
M  V30 BEGIN ATOM
M  V30 1 C -0.604037 -1.367668 -1.355777 0
M  V30 2 C 0.558356 -0.723252 -0.688778 0
M  V30 3 C 1.767249 -1.383779 -0.941638 0
M  V30 4 C 2.934734 -0.905306 -0.385364 0
M  V30 5 C 2.965589 0.211203 0.421244 0
M  V30 6 C 4.159819 0.803288 1.012626 0
M  V30 7 O 4.142362 1.671497 1.951909 0
M  V30 8 N 5.454268 0.453940 0.577896 0
M  V30 9 C 6.766077 0.924560 1.028710 0
M  V30 10 C 7.996366 0.291271 0.361949 0
M  V30 11 C 7.560612 1.596167 -0.150549 0
M  V30 12 C 1.761255 0.854913 0.663415 0
M  V30 13 C 0.571433 0.415172 0.128895 0
M  V30 14 N -0.714322 0.963475 0.245734 0
M  V30 15 C -1.283678 2.068819 -0.202693 0
M  V30 16 C -2.598026 2.199513 0.140052 0
M  V30 17 N -3.253412 1.289471 0.865737 0
M  V30 18 C -2.802373 0.071692 1.416078 0
M  V30 19 N -4.079988 -0.045585 1.886895 0
M  V30 20 C -4.110462 -1.320450 2.578516 0 CFG=1
M  V30 21 C -5.419103 -1.618597 3.287355 0
M  V30 22 C -3.946523 -2.421751 1.567067 0
M  V30 23 C -3.138288 -3.551418 1.633229 0
M  V30 24 C -3.114911 -4.480602 0.618963 0
M  V30 25 C -3.898146 -4.323659 -0.508228 0
M  V30 26 C -4.695604 -3.197742 -0.562124 0
M  V30 27 C -4.741440 -2.241496 0.445613 0
M  V30 28 C -1.535186 0.188285 0.948955 0
M  V30 29 O -1.290562 -0.948946 1.522949 0
M  V30 30 H -1.454548 -0.678531 -1.352963 0
M  V30 31 H -0.381958 -1.606458 -2.423327 0
M  V30 32 H -0.896682 -2.330718 -0.853136 0
M  V30 33 H 1.854482 -2.276991 -1.568942 0
M  V30 34 H 3.857424 -1.411619 -0.575575 0
M  V30 35 H 5.475686 -0.268451 -0.203805 0
M  V30 36 H 6.857018 1.484786 1.962807 0
M  V30 37 H 7.763861 -0.656743 -0.220104 0
M  V30 38 H 8.924053 0.177794 0.961378 0
M  V30 39 H 7.042738 1.614430 -1.129198 0
M  V30 40 H 8.189545 2.473020 0.132649 0
M  V30 41 H 1.659507 1.753842 1.290797 0
M  V30 42 H -0.581640 2.655360 -0.755324 0
M  V30 43 H -2.868295 3.193001 -0.341126 0
M  V30 44 H -5.033609 0.273102 2.018466 0
M  V30 45 H -3.265773 -1.399651 3.291172 0
M  V30 46 H -6.224350 -0.917757 2.949846 0
M  V30 47 H -5.803735 -2.626897 3.053644 0
M  V30 48 H -5.320983 -1.566770 4.399428 0
M  V30 49 H -2.577918 -3.556883 2.557254 0
M  V30 50 H -2.444837 -5.305561 0.800645 0
M  V30 51 H -3.850345 -5.075958 -1.280576 0
M  V30 52 H -5.328667 -3.047020 -1.448792 0
M  V30 53 H -5.416969 -1.386324 0.293750 0
M  V30 END ATOM
M  V30 BEGIN BOND
M  V30 1 1 1 2
M  V30 2 2 2 3
M  V30 3 1 3 4
M  V30 4 2 4 5
M  V30 5 1 5 6
M  V30 6 2 6 7
M  V30 7 1 6 8
M  V30 8 1 8 9
M  V30 9 1 9 10
M  V30 10 1 10 11
M  V30 11 1 5 12
M  V30 12 2 12 13
M  V30 13 1 13 14
M  V30 14 1 14 15
M  V30 15 2 15 16
M  V30 16 1 16 17
M  V30 17 2 17 18
M  V30 18 1 18 19
M  V30 19 1 19 20
M  V30 20 1 20 21
M  V30 21 1 20 22
M  V30 22 2 22 23
M  V30 23 1 23 24
M  V30 24 2 24 25
M  V30 25 1 25 26
M  V30 26 2 26 27
M  V30 27 1 18 28
M  V30 28 2 28 29
M  V30 29 1 13 2
M  V30 30 1 28 14
M  V30 31 1 11 9
M  V30 32 1 27 22
M  V30 33 1 1 30
M  V30 34 1 1 31
M  V30 35 1 1 32
M  V30 36 1 3 33
M  V30 37 1 4 34
M  V30 38 1 8 35
M  V30 39 1 9 36
M  V30 40 1 10 37
M  V30 41 1 10 38
M  V30 42 1 11 39
M  V30 43 1 11 40
M  V30 44 1 12 41
M  V30 45 1 15 42
M  V30 46 1 16 43
M  V30 47 1 19 44
M  V30 48 1 20 45 CFG=1
M  V30 49 1 21 46
M  V30 50 1 21 47
M  V30 51 1 21 48
M  V30 52 1 23 49
M  V30 53 1 24 50
M  V30 54 1 25 51
M  V30 55 1 26 52
M  V30 56 1 27 53
M  V30 END BOND
M  V30 END CTAB
M  END
>  <Dataset>  (56) 
ChEMBL_Kinases

>  <Ligand_Instance>  (56) 
nan

>  <PDB_ID>  (56) 
nan

>  <Standardized_SMILES>  (56) 
Cc1ccc(C(=O)NC2CC2)cc1-n1ccnc(N[C@@H](C)c2ccccc2)c1=O

>  <Name>  (56) 
nan

>  <Pocket>  (56) 
nan

>  <ATP_Site>  (56) 
nan

>  <Peripheral>  (56) 
nan

>  <Num_H_Atoms_ProtBoundConf>  (56) 
nan

>  <Num_Resolved_Atoms>  (56) 
nan

>  <Num_Not_Resolved_Atoms>  (56) 
nan

$$$$
CHEMBL4756244
     RDKit          3D

  0  0  0  0  0  0  0  0  0  0999 V3000
M  V30 BEGIN CTAB
M  V30 COUNTS 56 59 0 0 0
M  V30 BEGIN ATOM
M  V30 1 C 1.243139 -2.614040 6.470961 0
M  V30 2 C 1.282873 -2.561753 4.956337 0
M  V30 3 O 1.462036 -3.850746 4.415749 0
M  V30 4 C 1.557097 -4.080001 3.059742 0
M  V30 5 N 1.507615 -3.228937 2.034481 0
M  V30 6 C 1.621896 -3.625279 0.770460 0
M  V30 7 N 1.556115 -2.747343 -0.320751 0
M  V30 8 C 1.211698 -1.395162 -0.425622 0
M  V30 9 C 0.712006 -0.728622 0.675373 0
M  V30 10 C 0.305575 0.588569 0.684058 0
M  V30 11 C 0.394590 1.331376 -0.498961 0
M  V30 12 C 0.029076 2.709953 -0.793589 0
M  V30 13 O 0.822897 3.666812 -1.045651 0
M  V30 14 N -1.371447 2.983627 -0.794473 0
M  V30 15 C -2.388877 1.952953 -0.501493 0
M  V30 16 C -3.131919 1.740910 -1.793374 0
M  V30 17 N -3.813054 2.949340 -2.126692 0
M  V30 18 C -4.990587 3.176392 -1.351631 0
M  V30 19 C -2.948678 4.073904 -2.253894 0
M  V30 20 C -1.999543 4.275933 -1.089673 0
M  V30 21 C 0.893940 0.678621 -1.608805 0
M  V30 22 C 1.295076 -0.639796 -1.595243 0
M  V30 23 O 1.796335 -1.277090 -2.721765 0
M  V30 24 C 1.897847 -0.534026 -3.915344 0
M  V30 25 N 1.792362 -4.936745 0.523416 0
M  V30 26 C 1.851783 -5.855552 1.495772 0
M  V30 27 N 2.014841 -7.185452 1.383984 0
M  V30 28 C 2.005870 -7.675345 2.659770 0
M  V30 29 C 1.834577 -6.609529 3.513899 0
M  V30 30 C 1.734432 -5.447213 2.809376 0
M  V30 31 H 1.291474 -3.687288 6.772715 0
M  V30 32 H 0.293201 -2.235644 6.841263 0
M  V30 33 H 2.086703 -2.038790 6.860485 0
M  V30 34 H 2.137700 -1.894195 4.671640 0
M  V30 35 H 0.360086 -2.062271 4.563892 0
M  V30 36 H 1.810156 -3.141342 -1.278581 0
M  V30 37 H 0.568741 -1.131619 1.655362 0
M  V30 38 H -0.091710 1.174667 1.488688 0
M  V30 39 H -1.952610 1.021792 -0.143645 0
M  V30 40 H -3.116474 2.387462 0.217888 0
M  V30 41 H -3.833580 0.894670 -1.710389 0
M  V30 42 H -2.410011 1.483051 -2.599425 0
M  V30 43 H -4.766122 3.836115 -0.493177 0
M  V30 44 H -5.769340 3.612256 -2.014963 0
M  V30 45 H -5.385358 2.207922 -0.959381 0
M  V30 46 H -2.316876 4.007142 -3.161373 0
M  V30 47 H -3.566758 4.996940 -2.354765 0
M  V30 48 H -1.180254 4.948844 -1.405000 0
M  V30 49 H -2.579996 4.674606 -0.252608 0
M  V30 50 H 1.009812 1.154482 -2.589935 0
M  V30 51 H 2.417572 -1.085365 -4.716913 0
M  V30 52 H 2.513011 0.372692 -3.691366 0
M  V30 53 H 0.896379 -0.260114 -4.249503 0
M  V30 54 H 2.130167 -7.782513 0.537362 0
M  V30 55 H 2.118155 -8.743216 2.916066 0
M  V30 56 H 1.779864 -6.651907 4.602092 0
M  V30 END ATOM
M  V30 BEGIN BOND
M  V30 1 1 1 2
M  V30 2 1 2 3
M  V30 3 1 3 4
M  V30 4 2 4 5
M  V30 5 1 5 6
M  V30 6 1 6 7
M  V30 7 1 7 8
M  V30 8 2 8 9
M  V30 9 1 9 10
M  V30 10 2 10 11
M  V30 11 1 11 12
M  V30 12 2 12 13
M  V30 13 1 12 14
M  V30 14 1 14 15
M  V30 15 1 15 16
M  V30 16 1 16 17
M  V30 17 1 17 18
M  V30 18 1 17 19
M  V30 19 1 19 20
M  V30 20 1 11 21
M  V30 21 2 21 22
M  V30 22 1 22 23
M  V30 23 1 23 24
M  V30 24 2 6 25
M  V30 25 1 25 26
M  V30 26 1 26 27
M  V30 27 1 27 28
M  V30 28 2 28 29
M  V30 29 1 29 30
M  V30 30 1 30 4
M  V30 31 1 22 8
M  V30 32 2 30 26
M  V30 33 1 20 14
M  V30 34 1 1 31
M  V30 35 1 1 32
M  V30 36 1 1 33
M  V30 37 1 2 34
M  V30 38 1 2 35
M  V30 39 1 7 36
M  V30 40 1 9 37
M  V30 41 1 10 38
M  V30 42 1 15 39
M  V30 43 1 15 40
M  V30 44 1 16 41
M  V30 45 1 16 42
M  V30 46 1 18 43
M  V30 47 1 18 44
M  V30 48 1 18 45
M  V30 49 1 19 46
M  V30 50 1 19 47
M  V30 51 1 20 48
M  V30 52 1 20 49
M  V30 53 1 21 50
M  V30 54 1 24 51
M  V30 55 1 24 52
M  V30 56 1 24 53
M  V30 57 1 27 54
M  V30 58 1 28 55
M  V30 59 1 29 56
M  V30 END BOND
M  V30 END CTAB
M  END
>  <Dataset>  (57) 
ChEMBL_Kinases

>  <Ligand_Instance>  (57) 
nan

>  <PDB_ID>  (57) 
nan

>  <Standardized_SMILES>  (57) 
CCOc1nc(Nc2ccc(C(=O)N3CCN(C)CC3)cc2OC)nc2[nH]ccc12

>  <Name>  (57) 
nan

>  <Pocket>  (57) 
nan

>  <ATP_Site>  (57) 
nan

>  <Peripheral>  (57) 
nan

>  <Num_H_Atoms_ProtBoundConf>  (57) 
nan

>  <Num_Resolved_Atoms>  (57) 
nan

>  <Num_Not_Resolved_Atoms>  (57) 
nan

$$$$
CHEMBL4292491
     RDKit          3D

  0  0  0  0  0  0  0  0  0  0999 V3000
M  V30 BEGIN CTAB
M  V30 COUNTS 60 64 0 0 0
M  V30 BEGIN ATOM
M  V30 1 C 2.620390 -3.850844 3.782014 0
M  V30 2 C 3.068103 -2.701116 2.952119 0
M  V30 3 C 3.966070 -1.804989 3.485451 0
M  V30 4 C 4.414532 -0.723663 2.766988 0
M  V30 5 C 3.976050 -0.499937 1.477187 0
M  V30 6 C 3.084975 -1.400097 0.964879 0
M  V30 7 C 2.429724 -1.444054 -0.356427 0
M  V30 8 N 2.496738 -2.322759 -1.383838 0
M  V30 9 N 1.695117 -1.906339 -2.363546 0
M  V30 10 C 1.086304 -0.754830 -2.010224 0
M  V30 11 C 1.554902 -0.459265 -0.727851 0
M  V30 12 C 1.129963 0.724691 0.014511 0
M  V30 13 C 1.877498 1.874036 0.166799 0
M  V30 14 C 1.344246 2.905876 0.906970 0
M  V30 15 N 0.137737 2.857825 1.490137 0
M  V30 16 C -0.645357 1.751530 1.376542 0
M  V30 17 N -1.913694 1.761386 2.002323 0
M  V30 18 C -2.917240 0.789798 2.245352 0
M  V30 19 C -4.272997 1.045387 2.262054 0
M  V30 20 C -5.162490 0.032284 2.534034 0
M  V30 21 C -4.752686 -1.257353 2.797334 0
M  V30 22 S -5.892963 -2.567486 3.152530 0
M  V30 23 N -6.071985 -2.575498 4.867239 0
M  V30 24 O -5.334039 -3.881792 2.690605 0
M  V30 25 O -7.206876 -2.241115 2.536870 0
M  V30 26 C -3.404410 -1.541065 2.787626 0
M  V30 27 C -2.493631 -0.516239 2.511406 0
M  V30 28 C -0.106621 0.728505 0.636408 0
M  V30 29 C 0.189785 -0.290725 -3.119688 0
M  V30 30 C 0.896997 -0.943359 -4.312446 0
M  V30 31 C -0.043280 -1.103301 -5.482621 0
M  V30 32 C 2.123649 -0.137197 -4.637291 0
M  V30 33 C 1.257679 -2.285936 -3.687862 0
M  V30 34 N 2.644940 -2.473415 1.688920 0
M  V30 35 H 3.475588 -4.518287 4.024827 0
M  V30 36 H 1.831331 -4.401512 3.194343 0
M  V30 37 H 2.133571 -3.483833 4.702469 0
M  V30 38 H 4.333452 -1.943861 4.499748 0
M  V30 39 H 5.127139 0.019184 3.136089 0
M  V30 40 H 4.218345 0.273906 0.797549 0
M  V30 41 H 2.851125 1.906403 -0.306657 0
M  V30 42 H 1.917478 3.820721 1.036215 0
M  V30 43 H -2.255076 2.685073 2.407814 0
M  V30 44 H -4.599393 2.061450 2.054890 0
M  V30 45 H -6.230043 0.254403 2.543627 0
M  V30 46 H -5.099345 -2.634875 5.294912 0
M  V30 47 H -6.438413 -1.665575 5.183893 0
M  V30 48 H -3.108399 -2.567009 2.998230 0
M  V30 49 H -1.480515 -0.884948 2.553440 0
M  V30 50 H -0.690851 -0.160134 0.504372 0
M  V30 51 H -0.818936 -0.764057 -3.008493 0
M  V30 52 H 0.152050 0.810636 -3.211689 0
M  V30 53 H -0.624033 -2.033536 -5.356809 0
M  V30 54 H 0.565523 -1.198433 -6.398487 0
M  V30 55 H -0.666324 -0.185710 -5.573444 0
M  V30 56 H 2.572389 -0.404466 -5.607519 0
M  V30 57 H 2.855458 -0.350567 -3.805660 0
M  V30 58 H 1.863683 0.928619 -4.587421 0
M  V30 59 H 1.981561 -2.858213 -4.270629 0
M  V30 60 H 0.312181 -2.839284 -3.555242 0
M  V30 END ATOM
M  V30 BEGIN BOND
M  V30 1 1 1 2
M  V30 2 2 2 3
M  V30 3 1 3 4
M  V30 4 2 4 5
M  V30 5 1 5 6
M  V30 6 1 6 7
M  V30 7 2 7 8
M  V30 8 1 8 9
M  V30 9 1 9 10
M  V30 10 2 10 11
M  V30 11 1 11 12
M  V30 12 2 12 13
M  V30 13 1 13 14
M  V30 14 2 14 15
M  V30 15 1 15 16
M  V30 16 1 16 17
M  V30 17 1 17 18
M  V30 18 2 18 19
M  V30 19 1 19 20
M  V30 20 2 20 21
M  V30 21 1 21 22
M  V30 22 1 22 23
M  V30 23 2 22 24
M  V30 24 2 22 25
M  V30 25 1 21 26
M  V30 26 2 26 27
M  V30 27 2 16 28
M  V30 28 1 10 29
M  V30 29 1 29 30
M  V30 30 1 30 31
M  V30 31 1 30 32
M  V30 32 1 30 33
M  V30 33 2 6 34
M  V30 34 1 34 2
M  V30 35 1 11 7
M  V30 36 1 28 12
M  V30 37 1 33 9
M  V30 38 1 27 18
M  V30 39 1 1 35
M  V30 40 1 1 36
M  V30 41 1 1 37
M  V30 42 1 3 38
M  V30 43 1 4 39
M  V30 44 1 5 40
M  V30 45 1 13 41
M  V30 46 1 14 42
M  V30 47 1 17 43
M  V30 48 1 19 44
M  V30 49 1 20 45
M  V30 50 1 23 46
M  V30 51 1 23 47
M  V30 52 1 26 48
M  V30 53 1 27 49
M  V30 54 1 28 50
M  V30 55 1 29 51
M  V30 56 1 29 52
M  V30 57 1 31 53
M  V30 58 1 31 54
M  V30 59 1 31 55
M  V30 60 1 32 56
M  V30 61 1 32 57
M  V30 62 1 32 58
M  V30 63 1 33 59
M  V30 64 1 33 60
M  V30 END BOND
M  V30 END CTAB
M  END
>  <Dataset>  (58) 
ChEMBL_Kinases

>  <Ligand_Instance>  (58) 
nan

>  <PDB_ID>  (58) 
nan

>  <Standardized_SMILES>  (58) 
Cc1cccc(-c2nn3c(c2-c2ccnc(Nc4ccc(S(N)(=O)=O)cc4)c2)CC(C)(C)C3)n1

>  <Name>  (58) 
nan

>  <Pocket>  (58) 
nan

>  <ATP_Site>  (58) 
nan

>  <Peripheral>  (58) 
nan

>  <Num_H_Atoms_ProtBoundConf>  (58) 
nan

>  <Num_Resolved_Atoms>  (58) 
nan

>  <Num_Not_Resolved_Atoms>  (58) 
nan

$$$$
CHEMBL4756277
     RDKit          3D

  0  0  0  0  0  0  0  0  0  0999 V3000
M  V30 BEGIN CTAB
M  V30 COUNTS 60 63 0 0 0
M  V30 BEGIN ATOM
M  V30 1 C 2.185428 -2.752889 2.083611 0
M  V30 2 C 2.585717 -1.341560 1.865343 0
M  V30 3 C 3.931279 -1.148124 1.634438 0
M  V30 4 C 4.382842 0.139442 1.421982 0
M  V30 5 C 3.524754 1.219583 1.436394 0
M  V30 6 C 3.920011 2.605084 1.221904 0
M  V30 7 O 3.139692 3.591905 1.234669 0
M  V30 8 N 5.271792 2.961896 0.971803 0
M  V30 9 C 5.773022 4.309179 0.745054 0
M  V30 10 C 6.918649 4.553538 -0.139848 0
M  V30 11 C 7.067012 4.726489 1.353112 0
M  V30 12 C 2.178664 1.021511 1.667890 0
M  V30 13 C 1.722082 -0.265996 1.881117 0
M  V30 14 N 0.360716 -0.664527 2.137190 0
M  V30 15 C -0.179110 -0.758364 3.362033 0
M  V30 16 C -1.495680 -1.156957 3.377080 0
M  V30 17 N -2.189650 -1.430907 2.266390 0
M  V30 18 C -1.608665 -1.322245 1.081666 0
M  V30 19 N -2.509068 -1.628406 -0.004943 0
M  V30 20 C -3.852760 -2.052213 -0.171049 0 CFG=1
M  V30 21 C -4.232865 -1.881062 -1.634782 0
M  V30 22 C -3.413521 -2.238997 -2.683837 0
M  V30 23 C -3.815711 -2.060869 -3.989708 0
M  V30 24 C -5.035294 -1.525546 -4.291286 0
M  V30 25 C -5.879217 -1.156705 -3.291802 0
M  V30 26 C -5.448976 -1.347150 -1.997638 0
M  V30 27 C -4.179231 -3.472872 0.125382 0 CFG=1
M  V30 28 C -3.386442 -4.451413 -0.756668 0
M  V30 29 C -4.222460 -3.908479 1.537811 0
M  V30 30 O -4.570810 -5.288763 1.524964 0
M  V30 31 C -0.289519 -0.926829 0.998231 0
M  V30 32 O 0.179395 -0.850981 -0.164421 0
M  V30 33 H 1.128057 -2.897972 2.311920 0
M  V30 34 H 2.487554 -3.312164 1.164564 0
M  V30 35 H 2.776844 -3.201903 2.907448 0
M  V30 36 H 4.677375 -1.931416 1.604691 0
M  V30 37 H 5.420224 0.326374 1.239768 0
M  V30 38 H 6.032197 2.248343 0.931892 0
M  V30 39 H 4.992542 5.101027 0.779519 0
M  V30 40 H 6.945217 5.440004 -0.804370 0
M  V30 41 H 7.519895 3.712037 -0.569482 0
M  V30 42 H 7.223017 5.778379 1.645895 0
M  V30 43 H 7.637376 4.010126 1.958747 0
M  V30 44 H 1.392763 1.752953 1.709563 0
M  V30 45 H 0.440990 -0.521465 4.214478 0
M  V30 46 H -1.969198 -1.244286 4.364716 0
M  V30 47 H -1.949396 -1.475417 -0.900837 0
M  V30 48 H -4.591206 -1.431067 0.384499 0
M  V30 49 H -2.447086 -2.661695 -2.470887 0
M  V30 50 H -3.129714 -2.360705 -4.787446 0
M  V30 51 H -5.361773 -1.380974 -5.311768 0
M  V30 52 H -6.864265 -0.724380 -3.483250 0
M  V30 53 H -6.119285 -1.054233 -1.185585 0
M  V30 54 H -5.240607 -3.612404 -0.262057 0
M  V30 55 H -2.310775 -4.282422 -0.718012 0
M  V30 56 H -3.820793 -4.492097 -1.776505 0
M  V30 57 H -3.651620 -5.458922 -0.316366 0
M  V30 58 H -5.043153 -3.394943 2.070124 0
M  V30 59 H -3.260442 -3.901663 2.088091 0
M  V30 60 H -3.790142 -5.870851 1.673437 0
M  V30 END ATOM
M  V30 BEGIN BOND
M  V30 1 1 1 2
M  V30 2 2 2 3
M  V30 3 1 3 4
M  V30 4 2 4 5
M  V30 5 1 5 6
M  V30 6 2 6 7
M  V30 7 1 6 8
M  V30 8 1 8 9
M  V30 9 1 9 10
M  V30 10 1 10 11
M  V30 11 1 5 12
M  V30 12 2 12 13
M  V30 13 1 13 14
M  V30 14 1 14 15
M  V30 15 2 15 16
M  V30 16 1 16 17
M  V30 17 2 17 18
M  V30 18 1 18 19
M  V30 19 1 19 20
M  V30 20 1 20 21
M  V30 21 2 21 22
M  V30 22 1 22 23
M  V30 23 2 23 24
M  V30 24 1 24 25
M  V30 25 2 25 26
M  V30 26 1 20 27
M  V30 27 1 27 28
M  V30 28 1 27 29
M  V30 29 1 29 30
M  V30 30 1 18 31
M  V30 31 2 31 32
M  V30 32 1 13 2
M  V30 33 1 31 14
M  V30 34 1 11 9
M  V30 35 1 26 21
M  V30 36 1 1 33
M  V30 37 1 1 34
M  V30 38 1 1 35
M  V30 39 1 3 36
M  V30 40 1 4 37
M  V30 41 1 8 38
M  V30 42 1 9 39
M  V30 43 1 10 40
M  V30 44 1 10 41
M  V30 45 1 11 42
M  V30 46 1 11 43
M  V30 47 1 12 44
M  V30 48 1 15 45
M  V30 49 1 16 46
M  V30 50 1 19 47
M  V30 51 1 20 48 CFG=1
M  V30 52 1 22 49
M  V30 53 1 23 50
M  V30 54 1 24 51
M  V30 55 1 25 52
M  V30 56 1 26 53
M  V30 57 1 27 54 CFG=3
M  V30 58 1 28 55
M  V30 59 1 28 56
M  V30 60 1 28 57
M  V30 61 1 29 58
M  V30 62 1 29 59
M  V30 63 1 30 60
M  V30 END BOND
M  V30 END CTAB
M  END
>  <Dataset>  (59) 
ChEMBL_Kinases

>  <Ligand_Instance>  (59) 
nan

>  <PDB_ID>  (59) 
nan

>  <Standardized_SMILES>  (59) 
Cc1ccc(C(=O)NC2CC2)cc1-n1ccnc(N[C@@H](c2ccccc2)[C@@H](C)CO)c1=O

>  <Name>  (59) 
nan

>  <Pocket>  (59) 
nan

>  <ATP_Site>  (59) 
nan

>  <Peripheral>  (59) 
nan

>  <Num_H_Atoms_ProtBoundConf>  (59) 
nan

>  <Num_Resolved_Atoms>  (59) 
nan

>  <Num_Not_Resolved_Atoms>  (59) 
nan

$$$$
CHEMBL4292471
     RDKit          3D

  0  0  0  0  0  0  0  0  0  0999 V3000
M  V30 BEGIN CTAB
M  V30 COUNTS 44 47 0 0 0
M  V30 BEGIN ATOM
M  V30 1 C -3.680762 -6.161516 -2.077548 0
M  V30 2 C -2.689819 -5.061965 -1.985898 0
M  V30 3 C -3.133337 -3.760841 -2.160064 0
M  V30 4 C -2.266586 -2.678642 -2.089670 0
M  V30 5 C -0.940098 -2.896335 -1.842332 0
M  V30 6 C 0.100590 -1.866840 -1.739095 0
M  V30 7 O 1.327654 -2.120473 -1.490828 0
M  V30 8 N -0.175545 -0.483938 -1.909355 0
M  V30 9 C 0.959480 0.363543 -1.772273 0
M  V30 10 C 1.833005 0.765428 -2.770302 0
M  V30 11 N 2.871143 1.575621 -2.500995 0
M  V30 12 C 3.124783 2.041061 -1.264651 0
M  V30 13 C 2.267971 1.651243 -0.266237 0
M  V30 14 C 2.545174 2.174969 1.148331 0
M  V30 15 C 1.874137 1.945480 2.255421 0
M  V30 16 C 2.324660 2.535085 3.409489 0
M  V30 17 C 1.661765 2.358979 4.724179 0
M  V30 18 C 2.382326 2.382673 5.900189 0
M  V30 19 C 1.769656 2.219455 7.136623 0
M  V30 20 C 0.391344 2.033807 7.079387 0
M  V30 21 N -0.324037 2.008360 5.940999 0
M  V30 22 C 0.280605 2.168275 4.738868 0
M  V30 23 C 3.466272 3.339898 3.331830 0
M  V30 24 S 3.858794 3.197410 1.478460 0
M  V30 25 C 1.197439 0.822598 -0.514110 0
M  V30 26 C -0.507806 -4.197741 -1.669983 0
M  V30 27 C -1.359079 -5.297624 -1.736325 0
M  V30 28 H -3.317248 -7.102118 -1.642678 0
M  V30 29 H -4.625428 -5.916368 -1.544881 0
M  V30 30 H -3.942525 -6.315266 -3.134482 0
M  V30 31 H -4.156479 -3.473311 -2.358996 0
M  V30 32 H -2.560867 -1.643600 -2.218105 0
M  V30 33 H -1.150825 -0.167991 -2.116976 0
M  V30 34 H 1.603085 0.371538 -3.765655 0
M  V30 35 H 3.987622 2.700328 -1.106666 0
M  V30 36 H 1.001871 1.309068 2.220035 0
M  V30 37 H 3.466449 2.534904 5.839262 0
M  V30 38 H 2.318336 2.235847 8.064229 0
M  V30 39 H -0.155218 1.898015 8.020179 0
M  V30 40 H -0.322707 2.142962 3.834984 0
M  V30 41 H 3.950965 3.877625 4.153616 0
M  V30 42 H 0.588453 0.579546 0.343736 0
M  V30 43 H 0.543418 -4.449299 -1.467461 0
M  V30 44 H -0.990747 -6.310669 -1.596662 0
M  V30 END ATOM
M  V30 BEGIN BOND
M  V30 1 1 1 2
M  V30 2 2 2 3
M  V30 3 1 3 4
M  V30 4 2 4 5
M  V30 5 1 5 6
M  V30 6 2 6 7
M  V30 7 1 6 8
M  V30 8 1 8 9
M  V30 9 2 9 10
M  V30 10 1 10 11
M  V30 11 2 11 12
M  V30 12 1 12 13
M  V30 13 1 13 14
M  V30 14 2 14 15
M  V30 15 1 15 16
M  V30 16 1 16 17
M  V30 17 2 17 18
M  V30 18 1 18 19
M  V30 19 2 19 20
M  V30 20 1 20 21
M  V30 21 2 21 22
M  V30 22 2 16 23
M  V30 23 1 23 24
M  V30 24 2 13 25
M  V30 25 1 5 26
M  V30 26 2 26 27
M  V30 27 1 27 2
M  V30 28 1 25 9
M  V30 29 1 24 14
M  V30 30 1 22 17
M  V30 31 1 1 28
M  V30 32 1 1 29
M  V30 33 1 1 30
M  V30 34 1 3 31
M  V30 35 1 4 32
M  V30 36 1 8 33
M  V30 37 1 10 34
M  V30 38 1 12 35
M  V30 39 1 15 36
M  V30 40 1 18 37
M  V30 41 1 19 38
M  V30 42 1 20 39
M  V30 43 1 22 40
M  V30 44 1 23 41
M  V30 45 1 25 42
M  V30 46 1 26 43
M  V30 47 1 27 44
M  V30 END BOND
M  V30 END CTAB
M  END
>  <Dataset>  (60) 
ChEMBL_Kinases

>  <Ligand_Instance>  (60) 
nan

>  <PDB_ID>  (60) 
nan

>  <Standardized_SMILES>  (60) 
Cc1ccc(C(=O)Nc2cncc(-c3cc(-c4cccnc4)cs3)c2)cc1

>  <Name>  (60) 
nan

>  <Pocket>  (60) 
nan

>  <ATP_Site>  (60) 
nan

>  <Peripheral>  (60) 
nan

>  <Num_H_Atoms_ProtBoundConf>  (60) 
nan

>  <Num_Resolved_Atoms>  (60) 
nan

>  <Num_Not_Resolved_Atoms>  (60) 
nan

$$$$
CHEMBL4292463
     RDKit          3D

  0  0  0  0  0  0  0  0  0  0999 V3000
M  V30 BEGIN CTAB
M  V30 COUNTS 39 42 0 0 0
M  V30 BEGIN ATOM
M  V30 1 O 2.041700 -6.954915 4.978599 0
M  V30 2 C 1.963367 -5.960018 4.197915 0
M  V30 3 N 2.212954 -6.041132 2.866734 0
M  V30 4 C 2.038618 -4.811519 2.346518 0
M  V30 5 C 2.162917 -4.344341 1.056115 0
M  V30 6 C 1.907398 -3.004400 0.865149 0
M  V30 7 C 1.542502 -2.075465 1.809565 0
M  V30 8 C 1.286002 -0.665153 1.537407 0
M  V30 9 N 1.447428 -0.403361 0.288273 0
M  V30 10 N 1.272766 0.873235 -0.287904 0
M  V30 11 C 0.922561 1.890423 0.463033 0
M  V30 12 N 0.772448 3.132477 -0.211171 0
M  V30 13 C 0.242059 3.230777 -1.564847 0
M  V30 14 C -1.142123 2.716803 -1.676785 0
M  V30 15 C -2.145774 3.661312 -1.437907 0
M  V30 16 C -3.502123 3.395293 -1.492996 0
M  V30 17 C -3.902691 2.113164 -1.804149 0
M  V30 18 Cl -5.580172 1.621215 -1.912152 0
M  V30 19 C -2.928489 1.170327 -2.042445 0
M  V30 20 C -1.579996 1.446951 -1.984746 0
M  V30 21 S 0.617098 1.867967 2.246993 0
M  V30 22 C 0.899514 0.147322 2.749530 0
M  V30 23 C 1.441995 -2.637026 3.080184 0
M  V30 24 C 1.678045 -3.963225 3.365818 0
M  V30 25 N 1.635893 -4.685842 4.500895 0
M  V30 26 H 2.487269 -6.911154 2.369002 0
M  V30 27 H 2.442516 -4.993582 0.255133 0
M  V30 28 H 2.016862 -2.670531 -0.175439 0
M  V30 29 H 1.066806 3.999925 0.322944 0
M  V30 30 H 0.286362 4.297813 -1.853341 0
M  V30 31 H 0.945345 2.666146 -2.219679 0
M  V30 32 H -1.910014 4.687747 -1.188175 0
M  V30 33 H -4.243498 4.130631 -1.307319 0
M  V30 34 H -3.224454 0.157293 -2.288447 0
M  V30 35 H -0.780543 0.741016 -2.165628 0
M  V30 36 H -0.056928 -0.220867 3.185619 0
M  V30 37 H 1.708294 0.055588 3.499146 0
M  V30 38 H 1.155330 -1.987639 3.921510 0
M  V30 39 H 1.389718 -4.314060 5.453161 0
M  V30 END ATOM
M  V30 BEGIN BOND
M  V30 1 2 1 2
M  V30 2 1 2 3
M  V30 3 1 3 4
M  V30 4 2 4 5
M  V30 5 1 5 6
M  V30 6 2 6 7
M  V30 7 1 7 8
M  V30 8 2 8 9
M  V30 9 1 9 10
M  V30 10 2 10 11
M  V30 11 1 11 12
M  V30 12 1 12 13
M  V30 13 1 13 14
M  V30 14 2 14 15
M  V30 15 1 15 16
M  V30 16 2 16 17
M  V30 17 1 17 18
M  V30 18 1 17 19
M  V30 19 2 19 20
M  V30 20 1 11 21
M  V30 21 1 21 22
M  V30 22 1 7 23
M  V30 23 2 23 24
M  V30 24 1 24 25
M  V30 25 1 25 2
M  V30 26 1 24 4
M  V30 27 1 22 8
M  V30 28 1 20 14
M  V30 29 1 3 26
M  V30 30 1 5 27
M  V30 31 1 6 28
M  V30 32 1 12 29
M  V30 33 1 13 30
M  V30 34 1 13 31
M  V30 35 1 15 32
M  V30 36 1 16 33
M  V30 37 1 19 34
M  V30 38 1 20 35
M  V30 39 1 22 36
M  V30 40 1 22 37
M  V30 41 1 23 38
M  V30 42 1 25 39
M  V30 END BOND
M  V30 END CTAB
M  END
>  <Dataset>  (61) 
ChEMBL_Kinases

>  <Ligand_Instance>  (61) 
nan

>  <PDB_ID>  (61) 
nan

>  <Standardized_SMILES>  (61) 
O=c1[nH]c2ccc(C3=NN=C(NCc4ccc(Cl)cc4)SC3)cc2[nH]1

>  <Name>  (61) 
nan

>  <Pocket>  (61) 
nan

>  <ATP_Site>  (61) 
nan

>  <Peripheral>  (61) 
nan

>  <Num_H_Atoms_ProtBoundConf>  (61) 
nan

>  <Num_Resolved_Atoms>  (61) 
nan

>  <Num_Not_Resolved_Atoms>  (61) 
nan

$$$$
CHEMBL4756318
     RDKit          3D

  0  0  0  0  0  0  0  0  0  0999 V3000
M  V30 BEGIN CTAB
M  V30 COUNTS 43 45 0 0 0
M  V30 BEGIN ATOM
M  V30 1 C 1.234149 -7.290142 -0.046950 0
M  V30 2 C 0.977079 -6.248523 1.022746 0 CFG=1
M  V30 3 O 0.213409 -5.169515 0.574068 0
M  V30 4 C 0.578695 -3.840478 0.584519 0
M  V30 5 C -0.406689 -3.023682 0.068331 0
M  V30 6 C -0.254247 -1.655192 -0.017499 0
M  V30 7 C 0.916673 -1.074348 0.423983 0
M  V30 8 C 1.301644 0.333014 0.434284 0
M  V30 9 C 2.585695 0.805272 0.301708 0
M  V30 10 N 2.802175 2.139982 0.328811 0
M  V30 11 C 1.822901 3.053916 0.480143 0
M  V30 12 N 2.239740 4.391877 0.483847 0
M  V30 13 C 0.539576 2.600147 0.613395 0
M  V30 14 C -0.518420 3.619368 0.778097 0
M  V30 15 C -0.235286 4.637735 1.674827 0
M  V30 16 C -1.224008 5.606637 1.841276 0
M  V30 17 C -2.437981 5.585892 1.163537 0
M  V30 18 Cl -3.625256 6.850043 1.437134 0
M  V30 19 C -2.680062 4.541728 0.270373 0
M  V30 20 C -1.713510 3.556684 0.080042 0
M  V30 21 C 0.261454 1.236945 0.592410 0
M  V30 22 C 1.921548 -1.889054 0.948350 0
M  V30 23 C 1.749959 -3.254886 1.025545 0
M  V30 24 C 0.300042 -6.972444 2.151422 0
M  V30 25 O 0.907408 -7.968046 2.632630 0
M  V30 26 O -0.794903 -7.044154 2.978865 0
M  V30 27 H 0.387582 -7.247358 -0.772217 0
M  V30 28 H 2.194776 -7.093625 -0.568329 0
M  V30 29 H 1.256762 -8.298646 0.391803 0
M  V30 30 H 1.989889 -5.943725 1.417064 0
M  V30 31 H -1.375879 -3.356079 -0.313492 0
M  V30 32 H -0.964613 -0.938245 -0.403899 0
M  V30 33 H 3.368961 0.074217 0.180786 0
M  V30 34 H 2.876240 4.767894 1.245476 0
M  V30 35 H 1.795503 4.812698 -0.357513 0
M  V30 36 H 0.663777 4.741629 2.241156 0
M  V30 37 H -1.031043 6.420940 2.540126 0
M  V30 38 H -3.606199 4.489916 -0.273142 0
M  V30 39 H -1.848753 2.730902 -0.595733 0
M  V30 40 H -0.788034 1.018537 0.707449 0
M  V30 41 H 2.896222 -1.570357 1.334186 0
M  V30 42 H 2.466991 -3.963467 1.413695 0
M  V30 43 H -0.769001 -6.553389 3.875478 0
M  V30 END ATOM
M  V30 BEGIN BOND
M  V30 1 1 1 2
M  V30 2 1 2 3
M  V30 3 1 3 4
M  V30 4 2 4 5
M  V30 5 1 5 6
M  V30 6 2 6 7
M  V30 7 1 7 8
M  V30 8 2 8 9
M  V30 9 1 9 10
M  V30 10 2 10 11
M  V30 11 1 11 12
M  V30 12 1 11 13
M  V30 13 1 13 14
M  V30 14 2 14 15
M  V30 15 1 15 16
M  V30 16 2 16 17
M  V30 17 1 17 18
M  V30 18 1 17 19
M  V30 19 2 19 20
M  V30 20 2 13 21
M  V30 21 1 7 22
M  V30 22 2 22 23
M  V30 23 1 2 24
M  V30 24 2 24 25
M  V30 25 1 24 26
M  V30 26 1 23 4
M  V30 27 1 21 8
M  V30 28 1 20 14
M  V30 29 1 1 27
M  V30 30 1 1 28
M  V30 31 1 1 29
M  V30 32 1 2 30 CFG=1
M  V30 33 1 5 31
M  V30 34 1 6 32
M  V30 35 1 9 33
M  V30 36 1 12 34
M  V30 37 1 12 35
M  V30 38 1 15 36
M  V30 39 1 16 37
M  V30 40 1 19 38
M  V30 41 1 20 39
M  V30 42 1 21 40
M  V30 43 1 22 41
M  V30 44 1 23 42
M  V30 45 1 26 43
M  V30 END BOND
M  V30 END CTAB
M  END
>  <Dataset>  (62) 
ChEMBL_Kinases

>  <Ligand_Instance>  (62) 
nan

>  <PDB_ID>  (62) 
nan

>  <Standardized_SMILES>  (62) 
C[C@@H](Oc1ccc(-c2cnc(N)c(-c3ccc(Cl)cc3)c2)cc1)C(=O)O

>  <Name>  (62) 
nan

>  <Pocket>  (62) 
nan

>  <ATP_Site>  (62) 
nan

>  <Peripheral>  (62) 
nan

>  <Num_H_Atoms_ProtBoundConf>  (62) 
nan

>  <Num_Resolved_Atoms>  (62) 
nan

>  <Num_Not_Resolved_Atoms>  (62) 
nan

$$$$
CHEMBL4756388
     RDKit          3D

  0  0  0  0  0  0  0  0  0  0999 V3000
M  V30 BEGIN CTAB
M  V30 COUNTS 70 73 0 0 0
M  V30 BEGIN ATOM
M  V30 1 C 1.647824 -2.901969 7.269289 0
M  V30 2 O 1.106521 -3.010223 5.992664 0
M  V30 3 C 0.885536 -2.023504 5.075841 0
M  V30 4 C 1.215541 -0.709826 5.375009 0
M  V30 5 C 0.988843 0.279940 4.444746 0
M  V30 6 C 0.440551 -0.045570 3.236631 0
M  V30 7 C 0.111239 -1.344097 2.932467 0
M  V30 8 C 0.333625 -2.342722 3.855798 0
M  V30 9 O 0.016350 -3.671166 3.593862 0
M  V30 10 C -0.554034 -4.084877 2.366774 0
M  V30 11 C 0.278354 1.156791 2.385059 0
M  V30 12 C -0.210585 1.334760 1.127651 0
M  V30 13 C -0.226809 2.718706 0.563529 0
M  V30 14 O 0.452565 2.957545 -0.544805 0
M  V30 15 C 0.136408 2.498633 -1.768316 0
M  V30 16 C -0.034386 1.080947 -2.020178 0
M  V30 17 C -1.197697 0.379411 -1.829872 0
M  V30 18 C -2.479249 0.899072 -1.411507 0
M  V30 19 C -3.104247 0.267374 -0.333656 0
M  V30 20 C -4.338272 0.614125 0.170197 0
M  V30 21 C -5.045318 1.649283 -0.393568 0
M  V30 22 F -6.253280 2.067096 0.021577 0
M  V30 23 C -4.474734 2.311598 -1.465811 0
M  V30 24 C -3.241011 1.919146 -1.923462 0
M  V30 25 N -1.258159 -0.970932 -2.038173 0
M  V30 26 C -0.184314 -1.671298 -2.439623 0
M  V30 27 N -0.248511 -3.075669 -2.653958 0
M  V30 28 C 0.926060 -3.800997 -3.095048 0
M  V30 29 S -1.766850 -3.799443 -2.361452 0
M  V30 30 C -2.310444 -3.632414 -0.694491 0
M  V30 31 O -2.834017 -3.247449 -3.277537 0
M  V30 32 O -1.699734 -5.281259 -2.648853 0
M  V30 33 N 0.957899 -0.989717 -2.629794 0
M  V30 34 C 1.062943 0.353480 -2.433557 0
M  V30 35 C 2.401887 0.878695 -2.700658 0
M  V30 36 C 3.209949 0.849995 -1.425610 0
M  V30 37 C 3.155180 0.016177 -3.723220 0
M  V30 38 O 0.774665 2.195202 3.196305 0
M  V30 39 C 1.202659 1.717359 4.417938 0
M  V30 40 O 1.694921 2.418903 5.348066 0
M  V30 41 H 2.694749 -3.323525 7.227031 0
M  V30 42 H 1.141280 -3.541721 8.024245 0
M  V30 43 H 1.665891 -1.885409 7.670096 0
M  V30 44 H 1.650932 -0.384983 6.308025 0
M  V30 45 H -0.326471 -1.596528 1.963511 0
M  V30 46 H -0.850233 -5.142669 2.436320 0
M  V30 47 H -1.474561 -3.501198 2.130644 0
M  V30 48 H 0.110731 -3.930181 1.492836 0
M  V30 49 H -0.490119 0.358129 0.813865 0
M  V30 50 H -1.336914 2.999658 0.491641 0
M  V30 51 H 0.123698 3.394810 1.403137 0
M  V30 52 H -0.820090 3.075200 -2.052785 0
M  V30 53 H 0.836951 2.962622 -2.566689 0
M  V30 54 H -2.645402 -0.574197 0.206386 0
M  V30 55 H -4.803064 0.113709 1.003341 0
M  V30 56 H -4.997931 3.131105 -1.936931 0
M  V30 57 H -2.861014 2.455737 -2.776758 0
M  V30 58 H 1.399001 -3.375095 -3.986739 0
M  V30 59 H 0.591241 -4.833289 -3.338532 0
M  V30 60 H 1.599924 -3.916444 -2.221907 0
M  V30 61 H -2.124067 -4.562616 -0.091857 0
M  V30 62 H -1.796161 -2.818274 -0.159964 0
M  V30 63 H -3.392426 -3.406969 -0.622170 0
M  V30 64 H 2.437712 1.903337 -3.125310 0
M  V30 65 H 4.039300 0.119210 -1.496308 0
M  V30 66 H 3.703638 1.827110 -1.228718 0
M  V30 67 H 2.570353 0.522049 -0.597485 0
M  V30 68 H 3.689122 -0.821766 -3.229184 0
M  V30 69 H 2.457211 -0.452220 -4.437011 0
M  V30 70 H 3.950622 0.608977 -4.244481 0
M  V30 END ATOM
M  V30 BEGIN BOND
M  V30 1 1 1 2
M  V30 2 1 2 3
M  V30 3 2 3 4
M  V30 4 1 4 5
M  V30 5 2 5 6
M  V30 6 1 6 7
M  V30 7 2 7 8
M  V30 8 1 8 9
M  V30 9 1 9 10
M  V30 10 1 6 11
M  V30 11 2 11 12
M  V30 12 1 12 13
M  V30 13 1 13 14
M  V30 14 1 14 15
M  V30 15 1 15 16
M  V30 16 1 16 17
M  V30 17 1 17 18
M  V30 18 2 18 19
M  V30 19 1 19 20
M  V30 20 2 20 21
M  V30 21 1 21 22
M  V30 22 1 21 23
M  V30 23 2 23 24
M  V30 24 2 17 25
M  V30 25 1 25 26
M  V30 26 1 26 27
M  V30 27 1 27 28
M  V30 28 1 27 29
M  V30 29 1 29 30
M  V30 30 2 29 31
M  V30 31 2 29 32
M  V30 32 2 26 33
M  V30 33 1 33 34
M  V30 34 1 34 35
M  V30 35 1 35 36
M  V30 36 1 35 37
M  V30 37 1 11 38
M  V30 38 1 38 39
M  V30 39 2 39 40
M  V30 40 1 8 3
M  V30 41 2 34 16
M  V30 42 1 39 5
M  V30 43 1 24 18
M  V30 44 1 1 41
M  V30 45 1 1 42
M  V30 46 1 1 43
M  V30 47 1 4 44
M  V30 48 1 7 45
M  V30 49 1 10 46
M  V30 50 1 10 47
M  V30 51 1 10 48
M  V30 52 1 12 49
M  V30 53 1 13 50
M  V30 54 1 13 51
M  V30 55 1 15 52
M  V30 56 1 15 53
M  V30 57 1 19 54
M  V30 58 1 20 55
M  V30 59 1 23 56
M  V30 60 1 24 57
M  V30 61 1 28 58
M  V30 62 1 28 59
M  V30 63 1 28 60
M  V30 64 1 30 61
M  V30 65 1 30 62
M  V30 66 1 30 63
M  V30 67 1 35 64
M  V30 68 1 36 65
M  V30 69 1 36 66
M  V30 70 1 36 67
M  V30 71 1 37 68
M  V30 72 1 37 69
M  V30 73 1 37 70
M  V30 END BOND
M  V30 END CTAB
M  END
>  <Dataset>  (63) 
ChEMBL_Kinases

>  <Ligand_Instance>  (63) 
nan

>  <PDB_ID>  (63) 
nan

>  <Standardized_SMILES>  (63) 
COc1cc2c(cc1OC)/C(=C/COCc1c(-c3ccc(F)cc3)nc(N(C)S(C)(=O)=O)nc1C(C)C)OC2=O

>  <Name>  (63) 
nan

>  <Pocket>  (63) 
nan

>  <ATP_Site>  (63) 
nan

>  <Peripheral>  (63) 
nan

>  <Num_H_Atoms_ProtBoundConf>  (63) 
nan

>  <Num_Resolved_Atoms>  (63) 
nan

>  <Num_Not_Resolved_Atoms>  (63) 
nan

$$$$
CHEMBL475640
     RDKit          3D

  0  0  0  0  0  0  0  0  0  0999 V3000
M  V30 BEGIN CTAB
M  V30 COUNTS 63 68 0 0 0
M  V30 BEGIN ATOM
M  V30 1 C 3.715097 0.640347 8.586130 0
M  V30 2 O 2.740304 1.287214 7.794677 0
M  V30 3 C 2.662310 0.978359 6.442371 0
M  V30 4 C 3.498070 0.057030 5.810120 0
M  V30 5 C 3.375010 -0.212232 4.455832 0
M  V30 6 C 2.403831 0.451700 3.736883 0
M  V30 7 C 2.358613 0.095192 2.319047 0
M  V30 8 C 1.102224 -0.138218 1.777312 0
M  V30 9 C 1.001137 -0.483001 0.424836 0
M  V30 10 C 2.154380 -0.581777 -0.334699 0
M  V30 11 C 2.375211 -0.893449 -1.654898 0
M  V30 12 C 1.349969 -1.220725 -2.644475 0
M  V30 13 N 0.020915 -1.270162 -2.425602 0
M  V30 14 C -0.638972 -1.607875 -3.571657 0
M  V30 15 C -1.983657 -1.784280 -3.856241 0
M  V30 16 N -2.881107 -1.583371 -2.768608 0
M  V30 17 C -2.874041 -2.336216 -1.521457 0
M  V30 18 C -4.178510 -3.142842 -1.563091 0
M  V30 19 N -5.316799 -2.290935 -1.690225 0
M  V30 20 C -6.374609 -2.581620 -0.779529 0
M  V30 21 C -5.032560 -0.888231 -1.828120 0
M  V30 22 C -3.931782 -0.579003 -2.781380 0
M  V30 23 C -2.343586 -2.133848 -5.143725 0
M  V30 24 C -1.343914 -2.295949 -6.106908 0
M  V30 25 C -0.007099 -2.113978 -5.797534 0
M  V30 26 C 0.370043 -1.760907 -4.501433 0
M  V30 27 N 1.572168 -1.526360 -3.938829 0
M  V30 28 N 3.698648 -0.850068 -1.896912 0
M  V30 29 N 4.341534 -0.518399 -0.768017 0
M  V30 30 C 3.404583 -0.348713 0.207563 0
M  V30 31 C 3.500784 -0.008007 1.545233 0
M  V30 32 C 1.559554 1.377662 4.358600 0
M  V30 33 O 0.626202 1.970146 3.504738 0
M  V30 34 C -0.322733 2.925124 3.896947 0
M  V30 35 C 1.691240 1.638093 5.708777 0
M  V30 36 H 3.713474 -0.448032 8.376528 0
M  V30 37 H 3.494023 0.743248 9.669568 0
M  V30 38 H 4.703167 1.052642 8.333997 0
M  V30 39 H 4.245396 -0.443815 6.399294 0
M  V30 40 H 4.058551 -0.939828 4.031443 0
M  V30 41 H 0.157410 -0.083480 2.294480 0
M  V30 42 H 0.045923 -0.678551 -0.059630 0
M  V30 43 H -2.072913 -3.077590 -1.481034 0
M  V30 44 H -2.866727 -1.690031 -0.639270 0
M  V30 45 H -4.211078 -3.731493 -0.644587 0
M  V30 46 H -4.067731 -3.775727 -2.486889 0
M  V30 47 H -6.425141 -3.708138 -0.715122 0
M  V30 48 H -6.086731 -2.229798 0.235567 0
M  V30 49 H -7.368321 -2.274847 -1.113577 0
M  V30 50 H -4.753801 -0.524400 -0.798474 0
M  V30 51 H -5.956221 -0.383293 -2.104367 0
M  V30 52 H -4.288116 -0.328591 -3.803356 0
M  V30 53 H -3.430067 0.364714 -2.413893 0
M  V30 54 H -3.401427 -2.264845 -5.336417 0
M  V30 55 H -1.643057 -2.570582 -7.113281 0
M  V30 56 H 0.716539 -2.249686 -6.568349 0
M  V30 57 H 2.477396 -1.583419 -4.451432 0
M  V30 58 H 5.358207 -0.384969 -0.552182 0
M  V30 59 H 4.466163 0.185544 2.018541 0
M  V30 60 H -0.477199 3.603054 3.013179 0
M  V30 61 H -1.299284 2.380491 4.010920 0
M  V30 62 H -0.054336 3.482601 4.793252 0
M  V30 63 H 1.017981 2.355554 6.129657 0
M  V30 END ATOM
M  V30 BEGIN BOND
M  V30 1 1 1 2
M  V30 2 1 2 3
M  V30 3 2 3 4
M  V30 4 1 4 5
M  V30 5 2 5 6
M  V30 6 1 6 7
M  V30 7 2 7 8
M  V30 8 1 8 9
M  V30 9 2 9 10
M  V30 10 1 10 11
M  V30 11 1 11 12
M  V30 12 2 12 13
M  V30 13 1 13 14
M  V30 14 2 14 15
M  V30 15 1 15 16
M  V30 16 1 16 17
M  V30 17 1 17 18
M  V30 18 1 18 19
M  V30 19 1 19 20
M  V30 20 1 19 21
M  V30 21 1 21 22
M  V30 22 1 15 23
M  V30 23 2 23 24
M  V30 24 1 24 25
M  V30 25 2 25 26
M  V30 26 1 26 27
M  V30 27 2 11 28
M  V30 28 1 28 29
M  V30 29 1 29 30
M  V30 30 2 30 31
M  V30 31 1 6 32
M  V30 32 1 32 33
M  V30 33 1 33 34
M  V30 34 2 32 35
M  V30 35 1 35 3
M  V30 36 1 31 7
M  V30 37 1 30 10
M  V30 38 1 27 12
M  V30 39 1 26 14
M  V30 40 1 22 16
M  V30 41 1 1 36
M  V30 42 1 1 37
M  V30 43 1 1 38
M  V30 44 1 4 39
M  V30 45 1 5 40
M  V30 46 1 8 41
M  V30 47 1 9 42
M  V30 48 1 17 43
M  V30 49 1 17 44
M  V30 50 1 18 45
M  V30 51 1 18 46
M  V30 52 1 20 47
M  V30 53 1 20 48
M  V30 54 1 20 49
M  V30 55 1 21 50
M  V30 56 1 21 51
M  V30 57 1 22 52
M  V30 58 1 22 53
M  V30 59 1 23 54
M  V30 60 1 24 55
M  V30 61 1 25 56
M  V30 62 1 27 57
M  V30 63 1 29 58
M  V30 64 1 31 59
M  V30 65 1 34 60
M  V30 66 1 34 61
M  V30 67 1 34 62
M  V30 68 1 35 63
M  V30 END BOND
M  V30 END CTAB
M  END
>  <Dataset>  (64) 
ChEMBL_Kinases

>  <Ligand_Instance>  (64) 
nan

>  <PDB_ID>  (64) 
nan

>  <Standardized_SMILES>  (64) 
COc1ccc(-c2ccc3c(-c4nc5c(N6CCN(C)CC6)cccc5[nH]4)n[nH]c3c2)c(OC)c1

>  <Name>  (64) 
nan

>  <Pocket>  (64) 
nan

>  <ATP_Site>  (64) 
nan

>  <Peripheral>  (64) 
nan

>  <Num_H_Atoms_ProtBoundConf>  (64) 
nan

>  <Num_Resolved_Atoms>  (64) 
nan

>  <Num_Not_Resolved_Atoms>  (64) 
nan

$$$$
CHEMBL4756117
     RDKit          3D

  0  0  0  0  0  0  0  0  0  0999 V3000
M  V30 BEGIN CTAB
M  V30 COUNTS 51 54 0 0 0
M  V30 BEGIN ATOM
M  V30 1 C 0.274978 -2.666127 4.444879 0
M  V30 2 C 1.003112 -1.340894 4.347804 0
M  V30 3 C 0.081459 -0.229494 4.727147 0
M  V30 4 C 2.205332 -1.437947 5.262546 0
M  V30 5 O 1.403723 -1.205131 3.001069 0
M  V30 6 C 2.092930 -0.147401 2.480565 0
M  V30 7 O 2.429583 0.814286 3.196380 0
M  V30 8 N 2.447236 -0.112672 1.103401 0
M  V30 9 C 3.140770 0.772320 0.188546 0
M  V30 10 C 2.823901 -0.098339 -0.977657 0
M  V30 11 C 2.180486 0.467083 -2.151994 0
M  V30 12 C 0.889368 1.141184 -2.134061 0
M  V30 13 N -0.293691 0.502874 -1.712826 0
M  V30 14 C -0.894194 0.483390 -0.494973 0
M  V30 15 O -0.306846 1.146762 0.385959 0
M  V30 16 C -2.049427 -0.180590 -0.171355 0
M  V30 17 C -2.531967 -0.100200 1.118444 0
M  V30 18 C -3.697505 -0.804724 1.333273 0
M  V30 19 F -4.218462 -0.757208 2.598970 0
M  V30 20 C -4.364913 -1.542655 0.376660 0
M  V30 21 C -3.828145 -1.582355 -0.897601 0
M  V30 22 C -2.677082 -0.902106 -1.159872 0
M  V30 23 N -2.128493 -0.913721 -2.368720 0
M  V30 24 C -2.510295 -1.515942 -3.497881 0
M  V30 25 S -3.768948 -2.467523 -3.882676 0
M  V30 26 N -1.634644 -1.240812 -4.479351 0
M  V30 27 N -0.708124 -0.463438 -3.947822 0
M  V30 28 C -0.992774 -0.243227 -2.628989 0
M  V30 29 C 2.234264 -1.032158 -0.028426 0
M  V30 30 H -0.529573 -2.636817 5.201249 0
M  V30 31 H -0.197812 -2.942100 3.468141 0
M  V30 32 H 0.960723 -3.515156 4.692003 0
M  V30 33 H -0.786073 -0.650615 5.262493 0
M  V30 34 H -0.303344 0.240749 3.798253 0
M  V30 35 H 0.602286 0.534903 5.353546 0
M  V30 36 H 2.451037 -0.468286 5.722725 0
M  V30 37 H 2.041474 -2.224292 6.051942 0
M  V30 38 H 3.065228 -1.806890 4.674152 0
M  V30 39 H 2.678860 1.780173 0.190757 0
M  V30 40 H 4.222093 0.843959 0.410469 0
M  V30 41 H 3.826645 -0.561283 -1.345332 0
M  V30 42 H 2.919220 1.238931 -2.570051 0
M  V30 43 H 2.251722 -0.320063 -2.980282 0
M  V30 44 H 1.025408 2.127957 -1.610616 0
M  V30 45 H 0.690287 1.486389 -3.204894 0
M  V30 46 H -2.049598 0.461750 1.902179 0
M  V30 47 H -5.278683 -2.062643 0.649516 0
M  V30 48 H -4.393066 -2.168721 -1.583840 0
M  V30 49 H -1.556810 -1.502133 -5.489298 0
M  V30 50 H 2.816874 -2.004052 0.143973 0
M  V30 51 H 1.189175 -1.321704 -0.043863 0
M  V30 END ATOM
M  V30 BEGIN BOND
M  V30 1 1 1 2
M  V30 2 1 2 3
M  V30 3 1 2 4
M  V30 4 1 2 5
M  V30 5 1 5 6
M  V30 6 2 6 7
M  V30 7 1 6 8
M  V30 8 1 8 9
M  V30 9 1 9 10
M  V30 10 1 10 11
M  V30 11 1 11 12
M  V30 12 1 12 13
M  V30 13 1 13 14
M  V30 14 2 14 15
M  V30 15 1 14 16
M  V30 16 2 16 17
M  V30 17 1 17 18
M  V30 18 1 18 19
M  V30 19 2 18 20
M  V30 20 1 20 21
M  V30 21 2 21 22
M  V30 22 1 22 23
M  V30 23 1 23 24
M  V30 24 2 24 25
M  V30 25 1 24 26
M  V30 26 1 26 27
M  V30 27 2 27 28
M  V30 28 1 10 29
M  V30 29 1 29 8
M  V30 30 1 28 13
M  V30 31 1 22 16
M  V30 32 1 28 23
M  V30 33 1 1 30
M  V30 34 1 1 31
M  V30 35 1 1 32
M  V30 36 1 3 33
M  V30 37 1 3 34
M  V30 38 1 3 35
M  V30 39 1 4 36
M  V30 40 1 4 37
M  V30 41 1 4 38
M  V30 42 1 9 39
M  V30 43 1 9 40
M  V30 44 1 10 41
M  V30 45 1 11 42
M  V30 46 1 11 43
M  V30 47 1 12 44
M  V30 48 1 12 45
M  V30 49 1 17 46
M  V30 50 1 20 47
M  V30 51 1 21 48
M  V30 52 1 26 49
M  V30 53 1 29 50
M  V30 54 1 29 51
M  V30 END BOND
M  V30 END CTAB
M  END
>  <Dataset>  (65) 
ChEMBL_Kinases

>  <Ligand_Instance>  (65) 
nan

>  <PDB_ID>  (65) 
nan

>  <Standardized_SMILES>  (65) 
CC(C)(C)OC(=O)N1CC(CCn2c(=O)c3cc(F)ccc3n3c(=S)[nH]nc23)C1

>  <Name>  (65) 
nan

>  <Pocket>  (65) 
nan

>  <ATP_Site>  (65) 
nan

>  <Peripheral>  (65) 
nan

>  <Num_H_Atoms_ProtBoundConf>  (65) 
nan

>  <Num_Resolved_Atoms>  (65) 
nan

>  <Num_Not_Resolved_Atoms>  (65) 
nan

$$$$
CHEMBL439267
     RDKit          3D

  0  0  0  0  0  0  0  0  0  0999 V3000
M  V30 BEGIN CTAB
M  V30 COUNTS 42 45 0 0 0
M  V30 BEGIN ATOM
M  V30 1 C 3.228074 -1.760512 0.511500 0
M  V30 2 C 3.027274 -1.211122 -0.865377 0
M  V30 3 C 3.385282 -2.071709 -1.879486 0
M  V30 4 C 3.204979 -1.569086 -3.151451 0
M  V30 5 C 2.702402 -0.298980 -3.320500 0
M  V30 6 C 2.580981 0.062126 -4.716806 0
M  V30 7 N 2.050306 1.388531 -4.935494 0
M  V30 8 O 2.558136 0.171554 -5.940336 0
M  V30 9 C 2.349372 0.549134 -2.310037 0
M  V30 10 C 2.515374 0.081526 -1.028898 0
M  V30 11 N 2.218107 0.828445 0.108254 0
M  V30 12 C 1.368940 0.830727 1.242914 0
M  V30 13 N 1.541910 1.784569 2.185851 0
M  V30 14 C 0.765696 1.839634 3.274693 0
M  V30 15 N -0.217180 0.947671 3.472917 0
M  V30 16 C -0.459474 -0.033740 2.586632 0
M  V30 17 C 0.355655 -0.067370 1.472721 0
M  V30 18 C -0.096703 -1.125014 0.753535 0
M  V30 19 N -1.124866 -1.674213 1.425770 0
M  V30 20 N -1.361866 -1.029578 2.538788 0
M  V30 21 C -2.375312 -1.342031 3.487588 0
M  V30 22 C -2.725856 -0.500596 4.516242 0
M  V30 23 C -3.724161 -0.847510 5.424748 0
M  V30 24 C -4.404442 -2.063425 5.322047 0
M  V30 25 C -4.044245 -2.899158 4.286216 0
M  V30 26 C -3.052681 -2.543946 3.391749 0
M  V30 27 H 2.460953 -2.482839 0.802709 0
M  V30 28 H 4.255022 -2.193116 0.609163 0
M  V30 29 H 3.211072 -0.900540 1.209274 0
M  V30 30 H 3.774333 -3.056745 -1.693823 0
M  V30 31 H 3.464472 -2.189734 -3.997686 0
M  V30 32 H 1.678357 2.346978 -5.105272 0
M  V30 33 H 1.336965 2.031292 -4.575173 0
M  V30 34 H 1.963383 1.527564 -2.497933 0
M  V30 35 H 2.891158 1.648200 0.029825 0
M  V30 36 H 0.998723 2.648742 3.961629 0
M  V30 37 H 0.283771 -1.469765 -0.184428 0
M  V30 38 H -2.228413 0.450781 4.637219 0
M  V30 39 H -3.985915 -0.164804 6.232566 0
M  V30 40 H -5.184895 -2.369419 6.007664 0
M  V30 41 H -4.549296 -3.861935 4.165440 0
M  V30 42 H -2.770502 -3.203133 2.576760 0
M  V30 END ATOM
M  V30 BEGIN BOND
M  V30 1 1 1 2
M  V30 2 2 2 3
M  V30 3 1 3 4
M  V30 4 2 4 5
M  V30 5 1 5 6
M  V30 6 1 6 7
M  V30 7 2 6 8
M  V30 8 1 5 9
M  V30 9 2 9 10
M  V30 10 1 10 11
M  V30 11 1 11 12
M  V30 12 2 12 13
M  V30 13 1 13 14
M  V30 14 2 14 15
M  V30 15 1 15 16
M  V30 16 2 16 17
M  V30 17 1 17 18
M  V30 18 2 18 19
M  V30 19 1 19 20
M  V30 20 1 20 21
M  V30 21 2 21 22
M  V30 22 1 22 23
M  V30 23 2 23 24
M  V30 24 1 24 25
M  V30 25 2 25 26
M  V30 26 1 10 2
M  V30 27 1 17 12
M  V30 28 1 26 21
M  V30 29 1 20 16
M  V30 30 1 1 27
M  V30 31 1 1 28
M  V30 32 1 1 29
M  V30 33 1 3 30
M  V30 34 1 4 31
M  V30 35 1 7 32
M  V30 36 1 7 33
M  V30 37 1 9 34
M  V30 38 1 11 35
M  V30 39 1 14 36
M  V30 40 1 18 37
M  V30 41 1 22 38
M  V30 42 1 23 39
M  V30 43 1 24 40
M  V30 44 1 25 41
M  V30 45 1 26 42
M  V30 END BOND
M  V30 END CTAB
M  END
>  <Dataset>  (66) 
ChEMBL_Kinases

>  <Ligand_Instance>  (66) 
nan

>  <PDB_ID>  (66) 
nan

>  <Standardized_SMILES>  (66) 
Cc1ccc(C(N)=O)cc1Nc1ncnc2c1cnn2-c1ccccc1

>  <Name>  (66) 
nan

>  <Pocket>  (66) 
nan

>  <ATP_Site>  (66) 
nan

>  <Peripheral>  (66) 
nan

>  <Num_H_Atoms_ProtBoundConf>  (66) 
nan

>  <Num_Resolved_Atoms>  (66) 
nan

>  <Num_Not_Resolved_Atoms>  (66) 
nan

$$$$
CHEMBL438978
     RDKit          3D

  0  0  0  0  0  0  0  0  0  0999 V3000
M  V30 BEGIN CTAB
M  V30 COUNTS 45 48 0 0 0
M  V30 BEGIN ATOM
M  V30 1 C -2.261147 -6.062320 0.953490 0
M  V30 2 O -3.493603 -5.676995 0.375346 0
M  V30 3 C -3.620207 -4.355653 -0.032867 0
M  V30 4 C -2.584002 -3.452541 0.119355 0
M  V30 5 C -2.631915 -2.125216 -0.260235 0
M  V30 6 C -1.479936 -1.236249 -0.059983 0
M  V30 7 C -0.704499 -1.522428 1.043766 0
M  V30 8 C 0.404804 -0.721174 1.296556 0
M  V30 9 C 0.678676 0.317260 0.438223 0
M  V30 10 C -0.091536 0.618703 -0.676955 0
M  V30 11 C -1.164018 -0.198210 -0.875121 0
M  V30 12 N 0.455573 1.754207 -1.363075 0
M  V30 13 C 1.611307 2.173083 -0.643887 0
M  V30 14 O 2.334398 3.147883 -0.974544 0
M  V30 15 C 1.769570 1.273192 0.503049 0
M  V30 16 C 2.778744 1.420623 1.369663 0
M  V30 17 C 3.837921 2.441135 1.331559 0
M  V30 18 C 5.042415 1.819734 2.052764 0
M  V30 19 C 5.130631 2.479118 3.398080 0
M  V30 20 C 4.427949 3.793206 3.140817 0
M  V30 21 N 3.405264 3.537505 2.172250 0
M  V30 22 C -3.817271 -1.666981 -0.840161 0
M  V30 23 C -4.861543 -2.551364 -1.000557 0
M  V30 24 C -4.779512 -3.877224 -0.608312 0
M  V30 25 O -5.852524 -4.744850 -0.784289 0
M  V30 26 H -2.342639 -7.130322 1.305764 0
M  V30 27 H -1.478960 -5.984375 0.171234 0
M  V30 28 H -1.962859 -5.387965 1.783766 0
M  V30 29 H -1.669361 -3.779610 0.559128 0
M  V30 30 H -0.874859 -2.334393 1.759490 0
M  V30 31 H 1.030629 -0.931774 2.164585 0
M  V30 32 H -1.826802 -0.059230 -1.702972 0
M  V30 33 H 0.042340 2.168103 -2.238074 0
M  V30 34 H 2.742980 0.660811 2.165380 0
M  V30 35 H 4.207135 2.721685 0.350374 0
M  V30 36 H 4.963415 0.714189 2.095790 0
M  V30 37 H 5.996018 2.026647 1.531389 0
M  V30 38 H 4.642801 1.843744 4.138219 0
M  V30 39 H 6.194562 2.622512 3.696846 0
M  V30 40 H 4.002949 4.138186 4.121799 0
M  V30 41 H 5.156423 4.506310 2.746626 0
M  V30 42 H 3.258977 4.374531 1.584129 0
M  V30 43 H -3.872277 -0.616010 -1.147413 0
M  V30 44 H -5.790666 -2.182131 -1.457851 0
M  V30 45 H -6.126511 -5.328359 0.017003 0
M  V30 END ATOM
M  V30 BEGIN BOND
M  V30 1 1 1 2
M  V30 2 1 2 3
M  V30 3 2 3 4
M  V30 4 1 4 5
M  V30 5 1 5 6
M  V30 6 2 6 7
M  V30 7 1 7 8
M  V30 8 2 8 9
M  V30 9 1 9 10
M  V30 10 2 10 11
M  V30 11 1 10 12
M  V30 12 1 12 13
M  V30 13 2 13 14
M  V30 14 1 13 15
M  V30 15 2 15 16
M  V30 16 1 16 17
M  V30 17 1 17 18
M  V30 18 1 18 19
M  V30 19 1 19 20
M  V30 20 1 20 21
M  V30 21 2 5 22
M  V30 22 1 22 23
M  V30 23 2 23 24
M  V30 24 1 24 25
M  V30 25 1 24 3
M  V30 26 1 11 6
M  V30 27 1 21 17
M  V30 28 1 15 9
M  V30 29 1 1 26
M  V30 30 1 1 27
M  V30 31 1 1 28
M  V30 32 1 4 29
M  V30 33 1 7 30
M  V30 34 1 8 31
M  V30 35 1 11 32
M  V30 36 1 12 33
M  V30 37 1 16 34
M  V30 38 1 17 35
M  V30 39 1 18 36
M  V30 40 1 18 37
M  V30 41 1 19 38
M  V30 42 1 19 39
M  V30 43 1 20 40
M  V30 44 1 20 41
M  V30 45 1 21 42
M  V30 46 1 22 43
M  V30 47 1 23 44
M  V30 48 1 25 45
M  V30 END BOND
M  V30 END CTAB
M  END
>  <Dataset>  (67) 
ChEMBL_Kinases

>  <Ligand_Instance>  (67) 
nan

>  <PDB_ID>  (67) 
nan

>  <Standardized_SMILES>  (67) 
COc1cc(-c2ccc3c(c2)NC(=O)/C3=C\C2CCCN2)ccc1O

>  <Name>  (67) 
nan

>  <Pocket>  (67) 
nan

>  <ATP_Site>  (67) 
nan

>  <Peripheral>  (67) 
nan

>  <Num_H_Atoms_ProtBoundConf>  (67) 
nan

>  <Num_Resolved_Atoms>  (67) 
nan

>  <Num_Not_Resolved_Atoms>  (67) 
nan

$$$$
CHEMBL438909
     RDKit          3D

  0  0  0  0  0  0  0  0  0  0999 V3000
M  V30 BEGIN CTAB
M  V30 COUNTS 24 25 0 0 0
M  V30 BEGIN ATOM
M  V30 1 O 3.952333 -1.156770 3.597729 0
M  V30 2 C 2.856522 -1.703622 3.309109 0
M  V30 3 O 2.513840 -2.852360 3.985744 0
M  V30 4 C 1.982211 -1.134172 2.289946 0
M  V30 5 C 0.788519 -1.762339 2.001022 0
M  V30 6 C -0.031740 -1.225933 1.043174 0
M  V30 7 C 0.335020 -0.062892 0.371083 0
M  V30 8 N -0.629997 0.355514 -0.588991 0
M  V30 9 C -1.070006 0.037095 -1.821094 0
M  V30 10 C -2.086822 0.896469 -2.179834 0
M  V30 11 C -2.275596 1.772318 -1.128999 0
M  V30 12 C -1.354058 1.419359 -0.139483 0
M  V30 13 C 1.529862 0.559525 0.665271 0
M  V30 14 C 2.361566 0.018639 1.634128 0
M  V30 15 O 3.554444 0.668401 1.905583 0
M  V30 16 H 3.162154 -3.468203 4.461085 0
M  V30 17 H 0.520717 -2.675064 2.541573 0
M  V30 18 H -0.955280 -1.770553 0.865618 0
M  V30 19 H -0.556979 -0.801139 -2.271356 0
M  V30 20 H -2.563365 0.785781 -3.148915 0
M  V30 21 H -3.039404 2.532180 -1.220162 0
M  V30 22 H -1.414310 2.051927 0.746635 0
M  V30 23 H 1.736937 1.454599 0.098797 0
M  V30 24 H 3.535570 1.652985 2.136348 0
M  V30 END ATOM
M  V30 BEGIN BOND
M  V30 1 2 1 2
M  V30 2 1 2 3
M  V30 3 1 2 4
M  V30 4 2 4 5
M  V30 5 1 5 6
M  V30 6 2 6 7
M  V30 7 1 7 8
M  V30 8 1 8 9
M  V30 9 2 9 10
M  V30 10 1 10 11
M  V30 11 2 11 12
M  V30 12 1 7 13
M  V30 13 2 13 14
M  V30 14 1 14 15
M  V30 15 1 14 4
M  V30 16 1 12 8
M  V30 17 1 3 16
M  V30 18 1 5 17
M  V30 19 1 6 18
M  V30 20 1 9 19
M  V30 21 1 10 20
M  V30 22 1 11 21
M  V30 23 1 12 22
M  V30 24 1 13 23
M  V30 25 1 15 24
M  V30 END BOND
M  V30 END CTAB
M  END
>  <Dataset>  (68) 
ChEMBL_Kinases

>  <Ligand_Instance>  (68) 
nan

>  <PDB_ID>  (68) 
nan

>  <Standardized_SMILES>  (68) 
O=C(O)c1ccc(-n2cccc2)cc1O

>  <Name>  (68) 
nan

>  <Pocket>  (68) 
nan

>  <ATP_Site>  (68) 
nan

>  <Peripheral>  (68) 
nan

>  <Num_H_Atoms_ProtBoundConf>  (68) 
nan

>  <Num_Resolved_Atoms>  (68) 
nan

>  <Num_Not_Resolved_Atoms>  (68) 
nan

$$$$
CHEMBL438868
     RDKit          3D

  0  0  0  0  0  0  0  0  0  0999 V3000
M  V30 BEGIN CTAB
M  V30 COUNTS 64 68 0 0 0
M  V30 BEGIN ATOM
M  V30 1 N 8.774883 0.913144 -2.764403 0
M  V30 2 C 8.647430 0.509373 -1.407708 0
M  V30 3 O 9.683465 0.079175 -0.840101 0
M  V30 4 C 7.371440 0.590876 -0.706406 0
M  V30 5 C 7.323745 0.178728 0.612970 0
M  V30 6 C 6.120111 0.248223 1.297425 0
M  V30 7 C 5.000328 0.728479 0.639785 0
M  V30 8 N 3.706993 0.914325 1.029273 0
M  V30 9 C 2.991593 1.414704 0.006465 0
M  V30 10 C 1.570985 1.735630 0.070271 0
M  V30 11 C 0.905661 1.514003 1.256627 0
M  V30 12 C -0.421119 1.804563 1.344967 0
M  V30 13 C -1.187811 2.316847 0.323988 0
M  V30 14 O -2.465662 2.691016 0.109592 0
M  V30 15 C -3.537102 2.648690 0.992957 0
M  V30 16 C -3.953190 1.311247 1.482797 0
M  V30 17 C -4.417697 0.333931 0.460148 0
M  V30 18 C -3.460149 -0.044731 -0.606292 0
M  V30 19 C -2.399224 -1.009569 -0.082435 0
M  V30 20 N -3.174380 -2.216084 0.260590 0
M  V30 21 C -2.258768 -3.295804 0.361847 0
M  V30 22 C -2.897919 -4.604956 0.709301 0
M  V30 23 C -2.968942 -4.827592 2.078177 0
M  V30 24 C -3.522942 -5.976443 2.636298 0
M  V30 25 C -4.016570 -6.918578 1.730230 0
M  V30 26 Cl -4.726336 -8.386856 2.390110 0
M  V30 27 C -3.946106 -6.698122 0.379214 0
M  V30 28 C -3.393219 -5.552880 -0.155699 0
M  V30 29 C -3.894298 -1.910140 1.454124 0
M  V30 30 C -4.968221 -0.884194 1.169525 0
M  V30 31 C -0.484461 2.533639 -0.875034 0
M  V30 32 C 0.882795 2.248236 -1.009052 0
M  V30 33 N 3.831544 1.549199 -1.041282 0
M  V30 34 C 5.064288 1.138093 -0.683841 0
M  V30 35 C 6.272660 1.073291 -1.386481 0
M  V30 36 H 8.770616 0.557989 -3.749218 0
M  V30 37 H 8.928364 1.745639 -3.355065 0
M  V30 38 H 8.233102 -0.187233 1.072184 0
M  V30 39 H 6.091293 -0.069903 2.309855 0
M  V30 40 H 3.370414 0.688311 1.985280 0
M  V30 41 H 1.355923 1.117761 2.151936 0
M  V30 42 H -1.015070 1.672606 2.228899 0
M  V30 43 H -3.193185 3.227316 1.909381 0
M  V30 44 H -4.388747 3.269099 0.622685 0
M  V30 45 H -3.205230 0.902325 2.177502 0
M  V30 46 H -4.860633 1.485163 2.155474 0
M  V30 47 H -5.301619 0.800169 -0.051694 0
M  V30 48 H -4.046004 -0.681812 -1.342288 0
M  V30 49 H -3.067553 0.783991 -1.179048 0
M  V30 50 H -1.716752 -1.231577 -0.899924 0
M  V30 51 H -1.890415 -0.622999 0.804837 0
M  V30 52 H -1.422987 -3.056209 1.023252 0
M  V30 53 H -1.796253 -3.421858 -0.660213 0
M  V30 54 H -2.596890 -4.121685 2.831515 0
M  V30 55 H -3.570692 -6.134813 3.704018 0
M  V30 56 H -4.332800 -7.435926 -0.333307 0
M  V30 57 H -3.301181 -5.307364 -1.189380 0
M  V30 58 H -4.441385 -2.839153 1.753121 0
M  V30 59 H -3.263769 -1.655503 2.330172 0
M  V30 60 H -5.757933 -1.370297 0.584434 0
M  V30 61 H -5.382292 -0.555480 2.145015 0
M  V30 62 H -0.840597 2.929799 -1.840414 0
M  V30 63 H 1.484412 2.383757 -1.879579 0
M  V30 64 H 6.314524 1.393044 -2.413661 0
M  V30 END ATOM
M  V30 BEGIN BOND
M  V30 1 1 1 2
M  V30 2 2 2 3
M  V30 3 1 2 4
M  V30 4 2 4 5
M  V30 5 1 5 6
M  V30 6 2 6 7
M  V30 7 1 7 8
M  V30 8 1 8 9
M  V30 9 1 9 10
M  V30 10 2 10 11
M  V30 11 1 11 12
M  V30 12 2 12 13
M  V30 13 1 13 14
M  V30 14 1 14 15
M  V30 15 1 15 16
M  V30 16 1 16 17
M  V30 17 1 17 18
M  V30 18 1 18 19
M  V30 19 1 19 20
M  V30 20 1 20 21
M  V30 21 1 21 22
M  V30 22 2 22 23
M  V30 23 1 23 24
M  V30 24 2 24 25
M  V30 25 1 25 26
M  V30 26 1 25 27
M  V30 27 2 27 28
M  V30 28 1 20 29
M  V30 29 1 29 30
M  V30 30 1 13 31
M  V30 31 2 31 32
M  V30 32 2 9 33
M  V30 33 1 33 34
M  V30 34 2 34 35
M  V30 35 1 35 4
M  V30 36 1 34 7
M  V30 37 1 32 10
M  V30 38 1 30 17
M  V30 39 1 28 22
M  V30 40 1 1 36
M  V30 41 1 1 37
M  V30 42 1 5 38
M  V30 43 1 6 39
M  V30 44 1 8 40
M  V30 45 1 11 41
M  V30 46 1 12 42
M  V30 47 1 15 43
M  V30 48 1 15 44
M  V30 49 1 16 45
M  V30 50 1 16 46
M  V30 51 1 17 47
M  V30 52 1 18 48
M  V30 53 1 18 49
M  V30 54 1 19 50
M  V30 55 1 19 51
M  V30 56 1 21 52
M  V30 57 1 21 53
M  V30 58 1 23 54
M  V30 59 1 24 55
M  V30 60 1 27 56
M  V30 61 1 28 57
M  V30 62 1 29 58
M  V30 63 1 29 59
M  V30 64 1 30 60
M  V30 65 1 30 61
M  V30 66 1 31 62
M  V30 67 1 32 63
M  V30 68 1 35 64
M  V30 END BOND
M  V30 END CTAB
M  END
>  <Dataset>  (69) 
ChEMBL_Kinases

>  <Ligand_Instance>  (69) 
nan

>  <PDB_ID>  (69) 
nan

>  <Standardized_SMILES>  (69) 
NC(=O)c1ccc2[nH]c(-c3ccc(OCCC4CCN(Cc5ccc(Cl)cc5)CC4)cc3)nc2c1

>  <Name>  (69) 
nan

>  <Pocket>  (69) 
nan

>  <ATP_Site>  (69) 
nan

>  <Peripheral>  (69) 
nan

>  <Num_H_Atoms_ProtBoundConf>  (69) 
nan

>  <Num_Resolved_Atoms>  (69) 
nan

>  <Num_Not_Resolved_Atoms>  (69) 
nan

$$$$
CHEMBL438642
     RDKit          3D

  0  0  0  0  0  0  0  0  0  0999 V3000
M  V30 BEGIN CTAB
M  V30 COUNTS 54 57 0 0 0
M  V30 BEGIN ATOM
M  V30 1 N 4.003565 -2.437749 5.018283 0
M  V30 2 C 3.871494 -1.609144 4.145563 0
M  V30 3 C 3.701658 -0.573352 3.088811 0
M  V30 4 N 4.849638 -0.146663 2.524344 0
M  V30 5 C 4.859702 0.810540 1.589934 0
M  V30 6 C 3.595931 1.306835 1.270795 0
M  V30 7 N 2.884214 0.690052 1.961810 0
M  V30 8 C 2.378656 -0.096451 2.791788 0
M  V30 9 O 1.382342 -0.572690 3.380835 0
M  V30 10 C 0.328014 -1.055955 4.004577 0
M  V30 11 C -1.030997 -0.706327 3.518695 0
M  V30 12 C -1.486900 0.698773 3.593056 0
M  V30 13 C -0.874953 1.712624 2.719323 0
M  V30 14 C -1.112764 1.576824 1.246313 0
M  V30 15 O -0.637252 0.400657 0.667590 0
M  V30 16 C -0.723767 0.159660 -0.725679 0
M  V30 17 C -1.499845 -0.810356 -1.309364 0
M  V30 18 C -1.623377 -1.090371 -2.633070 0
M  V30 19 N -2.469652 -2.125681 -3.091964 0
M  V30 20 C -3.316262 -3.073566 -2.451268 0
M  V30 21 C -2.617584 -4.059752 -1.585425 0
M  V30 22 C -2.149261 -5.257229 -2.160454 0
M  V30 23 N -1.576260 -5.903746 -1.118121 0
M  V30 24 C -1.652458 -5.230388 0.011640 0
M  V30 25 N -2.291810 -4.103377 -0.285364 0
M  V30 26 C -0.864745 -0.290624 -3.495981 0
M  V30 27 Cl -0.988068 -0.622466 -5.229365 0
M  V30 28 C -0.080458 0.683349 -2.975844 0
M  V30 29 C 0.021519 0.939392 -1.634745 0
M  V30 30 N 0.944019 2.031377 -1.372893 0
M  V30 31 C 2.051630 2.042495 -0.446559 0
M  V30 32 O 1.516253 0.910728 -0.407677 0
M  V30 33 N 3.145347 2.289528 0.368840 0
M  V30 34 H 5.623303 1.320776 0.989488 0
M  V30 35 H 0.367438 -2.214975 4.126464 0
M  V30 36 H 0.321949 -0.796166 5.149256 0
M  V30 37 H -1.110220 -1.018394 2.443978 0
M  V30 38 H -1.781116 -1.333745 4.081859 0
M  V30 39 H -2.625615 0.721076 3.538616 0
M  V30 40 H -1.304496 1.029185 4.676187 0
M  V30 41 H -1.230077 2.734602 3.017054 0
M  V30 42 H 0.243136 1.714150 2.877576 0
M  V30 43 H -2.234139 1.693632 1.103755 0
M  V30 44 H -0.706004 2.486917 0.719330 0
M  V30 45 H -2.053808 -1.360451 -0.529917 0
M  V30 46 H -2.465710 -2.210024 -4.156864 0
M  V30 47 H -3.926317 -3.622099 -3.175993 0
M  V30 48 H -4.069757 -2.491580 -1.844417 0
M  V30 49 H -2.223530 -5.589188 -3.187975 0
M  V30 50 H -1.131521 -6.839137 -1.235954 0
M  V30 51 H -1.307035 -5.458138 1.011600 0
M  V30 52 H 0.456759 1.235229 -3.749464 0
M  V30 53 H 0.757251 2.894844 -1.944114 0
M  V30 54 H 3.752903 3.093090 0.519813 0
M  V30 END ATOM
M  V30 BEGIN BOND
M  V30 1 3 1 2
M  V30 2 1 2 3
M  V30 3 2 3 4
M  V30 4 1 4 5
M  V30 5 2 5 6
M  V30 6 1 6 7
M  V30 7 2 7 8
M  V30 8 1 8 9
M  V30 9 1 9 10
M  V30 10 1 10 11
M  V30 11 1 11 12
M  V30 12 1 12 13
M  V30 13 1 13 14
M  V30 14 1 14 15
M  V30 15 1 15 16
M  V30 16 2 16 17
M  V30 17 1 17 18
M  V30 18 1 18 19
M  V30 19 1 19 20
M  V30 20 1 20 21
M  V30 21 2 21 22
M  V30 22 1 22 23
M  V30 23 1 23 24
M  V30 24 2 24 25
M  V30 25 2 18 26
M  V30 26 1 26 27
M  V30 27 1 26 28
M  V30 28 2 28 29
M  V30 29 1 29 30
M  V30 30 1 30 31
M  V30 31 2 31 32
M  V30 32 1 31 33
M  V30 33 1 8 3
M  V30 34 1 29 16
M  V30 35 1 33 6
M  V30 36 1 25 21
M  V30 37 1 5 34
M  V30 38 1 10 35
M  V30 39 1 10 36
M  V30 40 1 11 37
M  V30 41 1 11 38
M  V30 42 1 12 39
M  V30 43 1 12 40
M  V30 44 1 13 41
M  V30 45 1 13 42
M  V30 46 1 14 43
M  V30 47 1 14 44
M  V30 48 1 17 45
M  V30 49 1 19 46
M  V30 50 1 20 47
M  V30 51 1 20 48
M  V30 52 1 22 49
M  V30 53 1 23 50
M  V30 54 1 24 51
M  V30 55 1 28 52
M  V30 56 1 30 53
M  V30 57 1 33 54
M  V30 END BOND
M  V30 END CTAB
M  END
>  <Dataset>  (70) 
ChEMBL_Kinases

>  <Ligand_Instance>  (70) 
nan

>  <PDB_ID>  (70) 
nan

>  <Standardized_SMILES>  (70) 
N#Cc1ncc2nc1OCCCCCOc1cc(NCc3c[nH]cn3)c(Cl)cc1NC(=O)N2

>  <Name>  (70) 
nan

>  <Pocket>  (70) 
nan

>  <ATP_Site>  (70) 
nan

>  <Peripheral>  (70) 
nan

>  <Num_H_Atoms_ProtBoundConf>  (70) 
nan

>  <Num_Resolved_Atoms>  (70) 
nan

>  <Num_Not_Resolved_Atoms>  (70) 
nan

$$$$
CHEMBL438628
     RDKit          3D

  0  0  0  0  0  0  0  0  0  0999 V3000
M  V30 BEGIN CTAB
M  V30 COUNTS 49 51 0 0 0
M  V30 BEGIN ATOM
M  V30 1 C 4.094098 -3.093461 4.496076 0
M  V30 2 C 3.630425 -2.780809 3.051755 0
M  V30 3 C 2.574070 -1.700715 3.197628 0
M  V30 4 O 3.092404 -3.943091 2.550365 0
M  V30 5 C 4.770457 -2.295212 2.245014 0
M  V30 6 C 4.498040 -2.011046 0.815176 0
M  V30 7 C 3.510890 -0.986078 0.489524 0
M  V30 8 C 4.056945 0.305495 0.476438 0
M  V30 9 C 3.267191 1.385941 0.143263 0
M  V30 10 C 1.944495 1.171599 -0.172778 0
M  V30 11 C 1.335960 -0.063475 -0.182123 0
M  V30 12 C -0.047090 -0.388552 -0.474355 0
M  V30 13 O -0.259675 -1.576630 -0.883442 0
M  V30 14 C -1.231301 0.441318 -0.368293 0
M  V30 15 C -1.444222 1.709054 0.083747 0
M  V30 16 N -2.732323 1.994224 -0.022682 0
M  V30 17 N -3.388759 0.945554 -0.535886 0
M  V30 18 C -4.790270 0.945536 -0.772004 0
M  V30 19 C -5.489455 1.788103 -1.623581 0
M  V30 20 C -6.857294 1.641184 -1.732590 0
M  V30 21 C -7.565860 0.675569 -1.017623 0
M  V30 22 F -8.910523 0.556857 -1.146470 0
M  V30 23 C -6.833353 -0.156665 -0.168915 0
M  V30 24 C -5.466630 -0.024872 -0.046907 0
M  V30 25 C -2.473049 -0.017799 -0.752555 0
M  V30 26 N -2.924080 -1.249989 -1.301199 0
M  V30 27 C 2.181994 -1.089343 0.158653 0
M  V30 28 H 5.009956 -3.677839 4.410074 0
M  V30 29 H 4.175862 -2.173154 5.075474 0
M  V30 30 H 3.272397 -3.704640 4.919916 0
M  V30 31 H 1.602400 -1.999145 2.731956 0
M  V30 32 H 2.381894 -1.600322 4.307016 0
M  V30 33 H 2.884693 -0.716574 2.864894 0
M  V30 34 H 2.118894 -3.830746 2.434353 0
M  V30 35 H 5.639566 -3.030759 2.325821 0
M  V30 36 H 5.196152 -1.370221 2.735205 0
M  V30 37 H 5.462924 -1.853862 0.244720 0
M  V30 38 H 4.090112 -2.967912 0.323552 0
M  V30 39 H 5.083908 0.537820 0.713866 0
M  V30 40 H 3.659991 2.393830 0.123626 0
M  V30 41 H 1.356522 2.024847 -0.438531 0
M  V30 42 H -0.739995 2.392495 0.471568 0
M  V30 43 H -4.895167 2.513302 -2.150623 0
M  V30 44 H -7.381078 2.298956 -2.393734 0
M  V30 45 H -7.380616 -0.910296 0.389784 0
M  V30 46 H -4.992201 -0.714509 0.633733 0
M  V30 47 H -3.265488 -2.153280 -0.921931 0
M  V30 48 H -3.052834 -1.632001 -2.249212 0
M  V30 49 H 1.821926 -2.116138 0.187838 0
M  V30 END ATOM
M  V30 BEGIN BOND
M  V30 1 1 1 2
M  V30 2 1 2 3
M  V30 3 1 2 4
M  V30 4 1 2 5
M  V30 5 1 5 6
M  V30 6 1 6 7
M  V30 7 2 7 8
M  V30 8 1 8 9
M  V30 9 2 9 10
M  V30 10 1 10 11
M  V30 11 1 11 12
M  V30 12 2 12 13
M  V30 13 1 12 14
M  V30 14 1 14 15
M  V30 15 2 15 16
M  V30 16 1 16 17
M  V30 17 1 17 18
M  V30 18 2 18 19
M  V30 19 1 19 20
M  V30 20 2 20 21
M  V30 21 1 21 22
M  V30 22 1 21 23
M  V30 23 2 23 24
M  V30 24 1 17 25
M  V30 25 1 25 26
M  V30 26 2 11 27
M  V30 27 1 27 7
M  V30 28 2 25 14
M  V30 29 1 24 18
M  V30 30 1 1 28
M  V30 31 1 1 29
M  V30 32 1 1 30
M  V30 33 1 3 31
M  V30 34 1 3 32
M  V30 35 1 3 33
M  V30 36 1 4 34
M  V30 37 1 5 35
M  V30 38 1 5 36
M  V30 39 1 6 37
M  V30 40 1 6 38
M  V30 41 1 8 39
M  V30 42 1 9 40
M  V30 43 1 10 41
M  V30 44 1 15 42
M  V30 45 1 19 43
M  V30 46 1 20 44
M  V30 47 1 23 45
M  V30 48 1 24 46
M  V30 49 1 26 47
M  V30 50 1 26 48
M  V30 51 1 27 49
M  V30 END BOND
M  V30 END CTAB
M  END
>  <Dataset>  (71) 
ChEMBL_Kinases

>  <Ligand_Instance>  (71) 
nan

>  <PDB_ID>  (71) 
nan

>  <Standardized_SMILES>  (71) 
CC(C)(O)CCc1cccc(C(=O)c2cnn(-c3ccc(F)cc3)c2N)c1

>  <Name>  (71) 
nan

>  <Pocket>  (71) 
nan

>  <ATP_Site>  (71) 
nan

>  <Peripheral>  (71) 
nan

>  <Num_H_Atoms_ProtBoundConf>  (71) 
nan

>  <Num_Resolved_Atoms>  (71) 
nan

>  <Num_Not_Resolved_Atoms>  (71) 
nan

$$$$
CHEMBL438566
     RDKit          3D

  0  0  0  0  0  0  0  0  0  0999 V3000
M  V30 BEGIN CTAB
M  V30 COUNTS 65 70 0 0 0
M  V30 BEGIN ATOM
M  V30 1 C -1.125045 -3.298436 2.694551 0
M  V30 2 N -1.044117 -1.874389 2.517450 0
M  V30 3 C -0.088812 -1.127765 1.929879 0
M  V30 4 C 1.077227 -1.610174 1.331137 0
M  V30 5 C 2.018621 -0.761154 0.727894 0
M  V30 6 C 3.216177 -1.373601 0.111534 0
M  V30 7 C 3.066143 -1.474391 -1.430899 0
M  V30 8 C 4.274426 -2.086900 -2.024827 0
M  V30 9 C 4.250528 -2.314582 -3.492184 0
M  V30 10 N 4.072679 -1.183170 -4.304642 0
M  V30 11 C 2.797638 -0.555399 -4.358908 0
M  V30 12 C 2.275721 -0.520483 -5.807219 0
M  V30 13 O 3.124253 0.138890 -6.657905 0
M  V30 14 C 4.464009 -0.039893 -6.389920 0
M  V30 15 C 4.758484 -1.260642 -5.580792 0
M  V30 16 C 1.724464 0.607990 0.760208 0
M  V30 17 O 2.670820 1.417226 0.158672 0
M  V30 18 C 0.565313 1.033780 1.360966 0
M  V30 19 C -0.357221 0.224534 1.949143 0
M  V30 20 C -1.557759 0.318764 2.592316 0
M  V30 21 C -2.326181 1.400447 2.898590 0
M  V30 22 C -3.517415 1.236160 3.546072 0
M  V30 23 C -3.944685 -0.045101 3.893455 0
M  V30 24 C -5.208094 -0.307638 4.568338 0
M  V30 25 C -6.224444 -0.537950 3.633362 0
M  V30 26 C -7.515605 -0.812747 4.019863 0
M  V30 27 C -7.806014 -0.861183 5.356479 0
M  V30 28 C -6.827038 -0.639371 6.288479 0
M  V30 29 C -5.530445 -0.362660 5.930059 0
M  V30 30 Cl -4.143939 -0.049420 6.948664 0
M  V30 31 C -3.157762 -1.146708 3.580955 0
M  V30 32 C -1.942593 -0.960768 2.918731 0
M  V30 33 C -4.197605 2.510046 3.790765 0
M  V30 34 O -5.312880 2.655694 4.369236 0
M  V30 35 N -3.320163 3.487645 3.236010 0
M  V30 36 C -2.189963 2.819675 2.697196 0
M  V30 37 O -1.325762 3.534771 2.172714 0
M  V30 38 H -2.135807 -3.644940 2.338823 0
M  V30 39 H -0.406347 -3.846407 2.047867 0
M  V30 40 H -0.954647 -3.612343 3.743676 0
M  V30 41 H 1.294080 -2.680256 1.312984 0
M  V30 42 H 4.081416 -0.698048 0.276253 0
M  V30 43 H 3.330940 -2.393242 0.466910 0
M  V30 44 H 2.186323 -2.107693 -1.620645 0
M  V30 45 H 2.826775 -0.451047 -1.811153 0
M  V30 46 H 4.490243 -3.048311 -1.468524 0
M  V30 47 H 5.147537 -1.376864 -1.844888 0
M  V30 48 H 3.514978 -3.152738 -3.756007 0
M  V30 49 H 5.270684 -2.750532 -3.743980 0
M  V30 50 H 2.719163 0.454717 -3.954602 0
M  V30 51 H 2.054924 -1.229997 -3.848108 0
M  V30 52 H 2.065476 -1.566333 -6.115839 0
M  V30 53 H 1.314335 0.018142 -5.771992 0
M  V30 54 H 5.063767 -0.071730 -7.346958 0
M  V30 55 H 4.824736 0.842484 -5.823913 0
M  V30 56 H 4.432721 -2.212512 -6.053926 0
M  V30 57 H 5.864832 -1.253707 -5.400052 0
M  V30 58 H 3.463514 1.840026 0.615691 0
M  V30 59 H 0.444179 2.073540 1.331785 0
M  V30 60 H -6.115011 -0.525872 2.554327 0
M  V30 61 H -8.330227 -0.996887 3.347338 0
M  V30 62 H -8.813548 -1.077342 5.710907 0
M  V30 63 H -6.952002 -0.654547 7.356098 0
M  V30 64 H -3.467812 -2.161599 3.841256 0
M  V30 65 H -3.589248 4.495133 3.286040 0
M  V30 END ATOM
M  V30 BEGIN BOND
M  V30 1 1 1 2
M  V30 2 1 2 3
M  V30 3 2 3 4
M  V30 4 1 4 5
M  V30 5 1 5 6
M  V30 6 1 6 7
M  V30 7 1 7 8
M  V30 8 1 8 9
M  V30 9 1 9 10
M  V30 10 1 10 11
M  V30 11 1 11 12
M  V30 12 1 12 13
M  V30 13 1 13 14
M  V30 14 1 14 15
M  V30 15 2 5 16
M  V30 16 1 16 17
M  V30 17 1 16 18
M  V30 18 2 18 19
M  V30 19 1 19 20
M  V30 20 2 20 21
M  V30 21 1 21 22
M  V30 22 2 22 23
M  V30 23 1 23 24
M  V30 24 2 24 25
M  V30 25 1 25 26
M  V30 26 2 26 27
M  V30 27 1 27 28
M  V30 28 2 28 29
M  V30 29 1 29 30
M  V30 30 1 23 31
M  V30 31 2 31 32
M  V30 32 1 22 33
M  V30 33 2 33 34
M  V30 34 1 33 35
M  V30 35 1 35 36
M  V30 36 2 36 37
M  V30 37 1 32 2
M  V30 38 1 19 3
M  V30 39 1 32 20
M  V30 40 1 15 10
M  V30 41 1 36 21
M  V30 42 1 29 24
M  V30 43 1 1 38
M  V30 44 1 1 39
M  V30 45 1 1 40
M  V30 46 1 4 41
M  V30 47 1 6 42
M  V30 48 1 6 43
M  V30 49 1 7 44
M  V30 50 1 7 45
M  V30 51 1 8 46
M  V30 52 1 8 47
M  V30 53 1 9 48
M  V30 54 1 9 49
M  V30 55 1 11 50
M  V30 56 1 11 51
M  V30 57 1 12 52
M  V30 58 1 12 53
M  V30 59 1 14 54
M  V30 60 1 14 55
M  V30 61 1 15 56
M  V30 62 1 15 57
M  V30 63 1 17 58
M  V30 64 1 18 59
M  V30 65 1 25 60
M  V30 66 1 26 61
M  V30 67 1 27 62
M  V30 68 1 28 63
M  V30 69 1 31 64
M  V30 70 1 35 65
M  V30 END BOND
M  V30 END CTAB
M  END
>  <Dataset>  (72) 
ChEMBL_Kinases

>  <Ligand_Instance>  (72) 
nan

>  <PDB_ID>  (72) 
nan

>  <Standardized_SMILES>  (72) 
Cn1c2cc(CCCCN3CCOCC3)c(O)cc2c2c3c(c(-c4ccccc4Cl)cc21)C(=O)NC3=O

>  <Name>  (72) 
nan

>  <Pocket>  (72) 
nan

>  <ATP_Site>  (72) 
nan

>  <Peripheral>  (72) 
nan

>  <Num_H_Atoms_ProtBoundConf>  (72) 
nan

>  <Num_Resolved_Atoms>  (72) 
nan

>  <Num_Not_Resolved_Atoms>  (72) 
nan

$$$$
CHEMBL438515
     RDKit          3D

  0  0  0  0  0  0  0  0  0  0999 V3000
M  V30 BEGIN CTAB
M  V30 COUNTS 37 39 0 0 0
M  V30 BEGIN ATOM
M  V30 1 O -0.037059 0.014315 3.299719 0
M  V30 2 C 0.593438 -1.028196 3.100274 0
M  V30 3 O -0.193545 -1.952559 3.761203 0
M  V30 4 C 1.807305 -1.355304 2.405957 0
M  V30 5 C 2.311426 -2.633216 2.389434 0
M  V30 6 C 3.479447 -2.912244 1.752585 0
M  V30 7 C 4.204009 -1.928468 1.099370 0
M  V30 8 C 3.683774 -0.660001 1.126781 0
M  V30 9 C 2.483803 -0.341208 1.773044 0
M  V30 10 N 2.128509 1.028537 1.675737 0
M  V30 11 C 1.006924 1.706782 1.072543 0
M  V30 12 C 0.883434 3.063503 1.172194 0
M  V30 13 C -0.205938 3.625536 0.550207 0
M  V30 14 N -1.091244 2.872765 -0.114309 0
M  V30 15 C -0.984521 1.537753 -0.221520 0
M  V30 16 N -1.925579 0.778433 -0.927645 0
M  V30 17 C -2.003364 -0.601941 -1.127804 0
M  V30 18 C -1.134444 -1.539075 -0.618160 0
M  V30 19 C -1.190781 -2.903731 -0.796444 0
M  V30 20 C -2.224518 -3.392677 -1.565582 0
M  V30 21 C -3.137735 -2.520029 -2.112348 0
M  V30 22 C -3.012653 -1.170243 -1.888007 0
M  V30 23 F -3.950419 -0.357727 -2.456852 0
M  V30 24 N 0.084355 1.024454 0.393607 0
M  V30 25 H -1.188157 -2.101538 3.600213 0
M  V30 26 H 1.718569 -3.374249 2.909895 0
M  V30 27 H 3.788791 -3.930666 1.794398 0
M  V30 28 H 5.134800 -2.173956 0.598319 0
M  V30 29 H 4.289521 0.086957 0.598178 0
M  V30 30 H 2.862206 1.627968 2.157157 0
M  V30 31 H 1.594745 3.656003 1.703817 0
M  V30 32 H -0.331408 4.712624 0.613705 0
M  V30 33 H -2.706370 1.341113 -1.384364 0
M  V30 34 H -0.304142 -1.229505 -0.007356 0
M  V30 35 H -0.488834 -3.595959 -0.378380 0
M  V30 36 H -2.377568 -4.440153 -1.779263 0
M  V30 37 H -3.969133 -2.890521 -2.727332 0
M  V30 END ATOM
M  V30 BEGIN BOND
M  V30 1 2 1 2
M  V30 2 1 2 3
M  V30 3 1 2 4
M  V30 4 2 4 5
M  V30 5 1 5 6
M  V30 6 2 6 7
M  V30 7 1 7 8
M  V30 8 2 8 9
M  V30 9 1 9 10
M  V30 10 1 10 11
M  V30 11 2 11 12
M  V30 12 1 12 13
M  V30 13 2 13 14
M  V30 14 1 14 15
M  V30 15 1 15 16
M  V30 16 1 16 17
M  V30 17 2 17 18
M  V30 18 1 18 19
M  V30 19 2 19 20
M  V30 20 1 20 21
M  V30 21 2 21 22
M  V30 22 1 22 23
M  V30 23 2 15 24
M  V30 24 1 9 4
M  V30 25 1 24 11
M  V30 26 1 22 17
M  V30 27 1 3 25
M  V30 28 1 5 26
M  V30 29 1 6 27
M  V30 30 1 7 28
M  V30 31 1 8 29
M  V30 32 1 10 30
M  V30 33 1 12 31
M  V30 34 1 13 32
M  V30 35 1 16 33
M  V30 36 1 18 34
M  V30 37 1 19 35
M  V30 38 1 20 36
M  V30 39 1 21 37
M  V30 END BOND
M  V30 END CTAB
M  END
>  <Dataset>  (73) 
ChEMBL_Kinases

>  <Ligand_Instance>  (73) 
nan

>  <PDB_ID>  (73) 
nan

>  <Standardized_SMILES>  (73) 
O=C(O)c1ccccc1Nc1ccnc(Nc2ccccc2F)n1

>  <Name>  (73) 
nan

>  <Pocket>  (73) 
nan

>  <ATP_Site>  (73) 
nan

>  <Peripheral>  (73) 
nan

>  <Num_H_Atoms_ProtBoundConf>  (73) 
nan

>  <Num_Resolved_Atoms>  (73) 
nan

>  <Num_Not_Resolved_Atoms>  (73) 
nan

$$$$
CHEMBL4754482
     RDKit          3D

  0  0  0  0  0  0  0  0  0  0999 V3000
M  V30 BEGIN CTAB
M  V30 COUNTS 26 27 0 0 0
M  V30 BEGIN ATOM
M  V30 1 C -0.236700 -4.223392 3.645971 0
M  V30 2 O 0.206851 -4.125459 2.298577 0
M  V30 3 C 0.203273 -2.870837 1.701042 0
M  V30 4 C 0.630496 -2.758829 0.394716 0
M  V30 5 C 0.628450 -1.507597 -0.205706 0
M  V30 6 C 0.223610 -0.349277 0.419358 0
M  V30 7 C 0.238005 0.932568 -0.244382 0
M  V30 8 C -0.167518 2.089852 0.383395 0
M  V30 9 C -0.172021 3.348097 -0.213690 0
M  V30 10 C 0.257160 3.458318 -1.525622 0
M  V30 11 C 0.660358 2.286949 -2.139728 0
M  V30 12 O 1.045611 2.414555 -3.331264 0
M  V30 13 N 0.640276 1.092413 -1.501451 0
M  V30 14 C -0.187167 -0.534862 1.713154 0
M  V30 15 C -0.214719 -1.742785 2.379326 0
M  V30 16 H -0.277647 -5.251142 4.005419 0
M  V30 17 H -1.245406 -3.732703 3.710576 0
M  V30 18 H 0.455751 -3.619430 4.285988 0
M  V30 19 H 0.954575 -3.653310 -0.121563 0
M  V30 20 H 0.977889 -1.519153 -1.224169 0
M  V30 21 H -0.514500 2.105043 1.393474 0
M  V30 22 H -0.490958 4.237866 0.289937 0
M  V30 23 H 0.270652 4.412198 -2.027863 0
M  V30 24 H 0.967133 0.316449 -2.083496 0
M  V30 25 H -0.528760 0.297426 2.310878 0
M  V30 26 H -0.548734 -1.839885 3.405267 0
M  V30 END ATOM
M  V30 BEGIN BOND
M  V30 1 1 1 2
M  V30 2 1 2 3
M  V30 3 2 3 4
M  V30 4 1 4 5
M  V30 5 2 5 6
M  V30 6 1 6 7
M  V30 7 2 7 8
M  V30 8 1 8 9
M  V30 9 2 9 10
M  V30 10 1 10 11
M  V30 11 2 11 12
M  V30 12 1 11 13
M  V30 13 1 6 14
M  V30 14 2 14 15
M  V30 15 1 15 3
M  V30 16 1 13 7
M  V30 17 1 1 16
M  V30 18 1 1 17
M  V30 19 1 1 18
M  V30 20 1 4 19
M  V30 21 1 5 20
M  V30 22 1 8 21
M  V30 23 1 9 22
M  V30 24 1 10 23
M  V30 25 1 13 24
M  V30 26 1 14 25
M  V30 27 1 15 26
M  V30 END BOND
M  V30 END CTAB
M  END
>  <Dataset>  (74) 
ChEMBL_Kinases

>  <Ligand_Instance>  (74) 
nan

>  <PDB_ID>  (74) 
nan

>  <Standardized_SMILES>  (74) 
COc1ccc(-c2cccc(=O)[nH]2)cc1

>  <Name>  (74) 
nan

>  <Pocket>  (74) 
nan

>  <ATP_Site>  (74) 
nan

>  <Peripheral>  (74) 
nan

>  <Num_H_Atoms_ProtBoundConf>  (74) 
nan

>  <Num_Resolved_Atoms>  (74) 
nan

>  <Num_Not_Resolved_Atoms>  (74) 
nan

$$$$
CHEMBL438483
     RDKit          3D

  0  0  0  0  0  0  0  0  0  0999 V3000
M  V30 BEGIN CTAB
M  V30 COUNTS 49 52 0 0 0
M  V30 BEGIN ATOM
M  V30 1 C 1.963959 -2.606749 4.608383 0
M  V30 2 C 3.279869 -2.586586 3.952305 0
M  V30 3 N 4.450991 -2.983438 4.480476 0
M  V30 4 N 5.449525 -2.830961 3.627927 0
M  V30 5 C 4.954165 -2.318027 2.489926 0
M  V30 6 C 5.514720 -1.949331 1.260955 0
M  V30 7 C 4.738524 -1.427316 0.220747 0
M  V30 8 C 3.387640 -1.270097 0.405131 0
M  V30 9 C 2.534576 -0.731551 -0.651872 0
M  V30 10 C 2.705513 -0.875744 -2.015724 0
M  V30 11 N 1.782664 -0.294611 -2.785243 0
M  V30 12 C 0.729536 0.399557 -2.320058 0
M  V30 13 C 0.503832 0.579626 -0.923596 0
M  V30 14 O -0.631993 1.316748 -0.898044 0
M  V30 15 C -1.279617 1.738768 0.265408 0
M  V30 16 C -1.793138 0.625747 1.146277 0 CFG=1
M  V30 17 N -2.466425 1.282923 2.274865 0
M  V30 18 C -2.591270 -0.411467 0.472509 0
M  V30 19 C -3.823452 -0.086439 -0.186290 0
M  V30 20 C -4.632406 1.014652 -0.284781 0
M  V30 21 C -5.812794 1.122317 -0.973645 0
M  V30 22 C -6.233171 -0.006824 -1.642796 0
M  V30 23 C -5.491078 -1.150993 -1.600348 0
M  V30 24 F -6.032939 -2.181737 -2.305196 0
M  V30 25 C -4.316910 -1.201039 -0.895327 0
M  V30 26 F -3.725797 -2.439316 -0.981398 0
M  V30 27 C 1.464919 -0.025520 -0.167556 0
M  V30 28 C 2.877073 -1.644439 1.627872 0
M  V30 29 C 3.601589 -2.161638 2.679279 0
M  V30 30 H 1.735446 -3.658827 4.883031 0
M  V30 31 H 1.958692 -2.050908 5.569780 0
M  V30 32 H 1.183491 -2.146263 3.983615 0
M  V30 33 H 6.457933 -3.065390 3.798055 0
M  V30 34 H 6.582578 -2.104414 1.197712 0
M  V30 35 H 5.224315 -1.162657 -0.700686 0
M  V30 36 H 3.566170 -1.440808 -2.289536 0
M  V30 37 H 0.191409 0.727286 -3.226741 0
M  V30 38 H -2.092104 2.458421 0.068402 0
M  V30 39 H -0.498386 2.343099 0.849789 0
M  V30 40 H -0.886972 0.174086 1.652073 0
M  V30 41 H -2.740614 0.580319 3.003236 0
M  V30 42 H -1.699877 1.873970 2.722316 0
M  V30 43 H -2.846791 -1.179839 1.271530 0
M  V30 44 H -1.904222 -1.000963 -0.219808 0
M  V30 45 H -4.280205 1.873314 0.261239 0
M  V30 46 H -6.345647 2.053846 -0.968475 0
M  V30 47 H -7.165562 0.101582 -2.175278 0
M  V30 48 H 1.241107 0.159263 0.854804 0
M  V30 49 H 1.804033 -1.539080 1.830355 0
M  V30 END ATOM
M  V30 BEGIN BOND
M  V30 1 1 1 2
M  V30 2 2 2 3
M  V30 3 1 3 4
M  V30 4 1 4 5
M  V30 5 2 5 6
M  V30 6 1 6 7
M  V30 7 2 7 8
M  V30 8 1 8 9
M  V30 9 2 9 10
M  V30 10 1 10 11
M  V30 11 2 11 12
M  V30 12 1 12 13
M  V30 13 1 13 14
M  V30 14 1 14 15
M  V30 15 1 15 16
M  V30 16 1 16 17
M  V30 17 1 16 18
M  V30 18 1 18 19
M  V30 19 2 19 20
M  V30 20 1 20 21
M  V30 21 2 21 22
M  V30 22 1 22 23
M  V30 23 1 23 24
M  V30 24 2 23 25
M  V30 25 1 25 26
M  V30 26 2 13 27
M  V30 27 1 8 28
M  V30 28 2 28 29
M  V30 29 1 29 2
M  V30 30 1 29 5
M  V30 31 1 27 9
M  V30 32 1 25 19
M  V30 33 1 1 30
M  V30 34 1 1 31
M  V30 35 1 1 32
M  V30 36 1 4 33
M  V30 37 1 6 34
M  V30 38 1 7 35
M  V30 39 1 10 36
M  V30 40 1 12 37
M  V30 41 1 15 38
M  V30 42 1 15 39
M  V30 43 1 16 40 CFG=1
M  V30 44 1 17 41
M  V30 45 1 17 42
M  V30 46 1 18 43
M  V30 47 1 18 44
M  V30 48 1 20 45
M  V30 49 1 21 46
M  V30 50 1 22 47
M  V30 51 1 27 48
M  V30 52 1 28 49
M  V30 END BOND
M  V30 END CTAB
M  END
>  <Dataset>  (75) 
ChEMBL_Kinases

>  <Ligand_Instance>  (75) 
nan

>  <PDB_ID>  (75) 
nan

>  <Standardized_SMILES>  (75) 
Cc1n[nH]c2ccc(-c3cncc(OC[C@@H](N)Cc4cccc(F)c4F)c3)cc12

>  <Name>  (75) 
nan

>  <Pocket>  (75) 
nan

>  <ATP_Site>  (75) 
nan

>  <Peripheral>  (75) 
nan

>  <Num_H_Atoms_ProtBoundConf>  (75) 
nan

>  <Num_Resolved_Atoms>  (75) 
nan

>  <Num_Not_Resolved_Atoms>  (75) 
nan

$$$$
CHEMBL438439
     RDKit          3D

  0  0  0  0  0  0  0  0  0  0999 V3000
M  V30 BEGIN CTAB
M  V30 COUNTS 67 73 0 0 0
M  V30 BEGIN ATOM
M  V30 1 O 3.924735 -4.396986 8.327633 0
M  V30 2 C 3.767807 -3.798380 7.240355 0
M  V30 3 C 4.791944 -3.006544 6.517965 0
M  V30 4 C 4.044237 -2.538762 5.310301 0
M  V30 5 C 4.518018 -1.751757 4.282446 0
M  V30 6 C 3.595331 -1.478646 3.296066 0
M  V30 7 C 2.293574 -1.914288 3.262665 0
M  V30 8 N 1.358685 -1.632400 2.249150 0
M  V30 9 C 1.343122 -0.908429 1.012488 0 CFG=2
M  V30 10 C 2.282691 -1.478855 -0.034027 0
M  V30 11 O 2.304291 -0.817165 -1.241750 0
M  V30 12 C 1.375539 -0.579698 -2.186969 0
M  V30 13 C 2.014129 0.171359 -3.192699 0
M  V30 14 N 1.393633 0.609890 -4.332724 0
M  V30 15 C 0.074039 0.306544 -4.517170 0
M  V30 16 C -0.593382 -0.421728 -3.569200 0
M  V30 17 C -1.995588 -0.804969 -3.657583 0
M  V30 18 C -2.796906 -0.955744 -2.548367 0
M  V30 19 C -4.119742 -1.317105 -2.611196 0
M  V30 20 C -4.717560 -1.551350 -3.835137 0
M  V30 21 C -3.933139 -1.406748 -4.973411 0
M  V30 22 C -2.607718 -1.043640 -4.892893 0
M  V30 23 N -4.756584 -1.696720 -6.103425 0
M  V30 24 C -6.071484 -2.027449 -5.680268 0
M  V30 25 O -7.127186 -2.349110 -6.287468 0
M  V30 26 C -6.095925 -1.945736 -4.190768 0
M  V30 27 C 0.047204 -0.854146 -2.429511 0
M  V30 28 C 1.708028 0.558358 1.149693 0
M  V30 29 C 0.813538 1.307659 2.039689 0
M  V30 30 C 1.245406 1.636932 3.323185 0
M  V30 31 N 0.241672 2.309737 3.908501 0
M  V30 32 C -0.800967 2.421402 3.059580 0
M  V30 33 C -2.053612 2.996465 3.133895 0
M  V30 34 C -2.888088 2.917036 2.035458 0
M  V30 35 C -2.563779 2.293271 0.837767 0
M  V30 36 C -1.296737 1.719071 0.781178 0
M  V30 37 C -0.463170 1.797439 1.875999 0
M  V30 38 C 1.912481 -2.694138 4.332363 0
M  V30 39 C 2.756300 -3.022889 5.365415 0
M  V30 40 N 2.535854 -3.805064 6.535566 0
M  V30 41 H 5.155606 -2.166318 7.148146 0
M  V30 42 H 5.624096 -3.669123 6.183804 0
M  V30 43 H 5.527002 -1.387457 4.263944 0
M  V30 44 H 3.981736 -0.858804 2.503103 0
M  V30 45 H 0.387166 -2.051126 2.401668 0
M  V30 46 H 0.340628 -0.902319 0.538918 0
M  V30 47 H 3.324462 -1.476356 0.360578 0
M  V30 48 H 2.061490 -2.572082 -0.185145 0
M  V30 49 H 3.046238 0.535150 -3.277277 0
M  V30 50 H -0.516782 0.597557 -5.372641 0
M  V30 51 H -2.365272 -0.780268 -1.561164 0
M  V30 52 H -4.727072 -1.428552 -1.723956 0
M  V30 53 H -2.000694 -0.932969 -5.796089 0
M  V30 54 H -4.520097 -1.694319 -7.137035 0
M  V30 55 H -6.774930 -1.090788 -3.939825 0
M  V30 56 H -6.428679 -2.881284 -3.719358 0
M  V30 57 H -0.357976 -1.433796 -1.621146 0
M  V30 58 H 1.506843 0.974417 0.110890 0
M  V30 59 H 2.781235 0.748984 1.295851 0
M  V30 60 H 2.196823 1.430167 3.837893 0
M  V30 61 H 0.247742 2.693497 4.867811 0
M  V30 62 H -2.373791 3.500183 4.038647 0
M  V30 63 H -3.860910 3.388095 2.154003 0
M  V30 64 H -3.268341 2.272466 0.024758 0
M  V30 65 H -0.982643 1.221630 -0.114615 0
M  V30 66 H 0.890313 -3.093881 4.401592 0
M  V30 67 H 1.655876 -4.289637 6.828631 0
M  V30 END ATOM
M  V30 BEGIN BOND
M  V30 1 2 1 2
M  V30 2 1 2 3
M  V30 3 1 3 4
M  V30 4 2 4 5
M  V30 5 1 5 6
M  V30 6 2 6 7
M  V30 7 1 7 8
M  V30 8 1 8 9
M  V30 9 1 9 10
M  V30 10 1 10 11
M  V30 11 1 11 12
M  V30 12 2 12 13
M  V30 13 1 13 14
M  V30 14 2 14 15
M  V30 15 1 15 16
M  V30 16 1 16 17
M  V30 17 2 17 18
M  V30 18 1 18 19
M  V30 19 2 19 20
M  V30 20 1 20 21
M  V30 21 2 21 22
M  V30 22 1 21 23
M  V30 23 1 23 24
M  V30 24 2 24 25
M  V30 25 1 24 26
M  V30 26 2 16 27
M  V30 27 1 9 28
M  V30 28 1 28 29
M  V30 29 2 29 30
M  V30 30 1 30 31
M  V30 31 1 31 32
M  V30 32 2 32 33
M  V30 33 1 33 34
M  V30 34 2 34 35
M  V30 35 1 35 36
M  V30 36 2 36 37
M  V30 37 1 7 38
M  V30 38 2 38 39
M  V30 39 1 39 40
M  V30 40 1 40 2
M  V30 41 1 39 4
M  V30 42 1 27 12
M  V30 43 1 37 29
M  V30 44 1 22 17
M  V30 45 1 37 32
M  V30 46 1 26 20
M  V30 47 1 3 41
M  V30 48 1 3 42
M  V30 49 1 5 43
M  V30 50 1 6 44
M  V30 51 1 8 45
M  V30 52 1 9 46 CFG=3
M  V30 53 1 10 47
M  V30 54 1 10 48
M  V30 55 1 13 49
M  V30 56 1 15 50
M  V30 57 1 18 51
M  V30 58 1 19 52
M  V30 59 1 22 53
M  V30 60 1 23 54
M  V30 61 1 26 55
M  V30 62 1 26 56
M  V30 63 1 27 57
M  V30 64 1 28 58
M  V30 65 1 28 59
M  V30 66 1 30 60
M  V30 67 1 31 61
M  V30 68 1 33 62
M  V30 69 1 34 63
M  V30 70 1 35 64
M  V30 71 1 36 65
M  V30 72 1 38 66
M  V30 73 1 40 67
M  V30 END BOND
M  V30 END CTAB
M  END
>  <Dataset>  (76) 
ChEMBL_Kinases

>  <Ligand_Instance>  (76) 
nan

>  <PDB_ID>  (76) 
nan

>  <Standardized_SMILES>  (76) 
O=C1Cc2ccc(N[C@H](COc3cncc(-c4ccc5c(c4)NC(=O)C5)c3)Cc3c[nH]c4ccccc34)cc2N1

>  <Name>  (76) 
nan

>  <Pocket>  (76) 
nan

>  <ATP_Site>  (76) 
nan

>  <Peripheral>  (76) 
nan

>  <Num_H_Atoms_ProtBoundConf>  (76) 
nan

>  <Num_Resolved_Atoms>  (76) 
nan

>  <Num_Not_Resolved_Atoms>  (76) 
nan

$$$$
CHEMBL4755086
     RDKit          3D

  0  0  0  0  0  0  0  0  0  0999 V3000
M  V30 BEGIN CTAB
M  V30 COUNTS 30 32 0 0 0
M  V30 BEGIN ATOM
M  V30 1 O 0.806822 -4.674674 3.667303 0
M  V30 2 C 1.462455 -3.836769 2.974328 0
M  V30 3 O 0.275553 -3.153236 3.123389 0
M  V30 4 C 2.846931 -4.147017 2.555930 0
M  V30 5 S 3.595907 -2.805566 1.615070 0
M  V30 6 C 2.853518 -2.509066 0.048630 0
M  V30 7 N 3.176258 -3.090379 -1.106810 0
M  V30 8 C 2.499771 -2.725778 -2.209873 0
M  V30 9 N 1.528904 -1.835835 -2.279282 0
M  V30 10 C 1.098883 -1.171293 -1.194640 0
M  V30 11 C 0.134177 -0.225233 -1.028359 0
M  V30 12 C -0.146498 0.329584 0.158533 0
M  V30 13 C -1.064776 1.304064 0.629418 0
M  V30 14 C -1.083131 1.645197 1.964906 0
M  V30 15 C -1.985112 2.597476 2.416271 0
M  V30 16 C -2.861946 3.202556 1.532419 0
M  V30 17 Cl -4.025569 4.416047 2.055039 0
M  V30 18 C -2.840225 2.855013 0.182393 0
M  V30 19 Cl -3.923133 3.590092 -0.963702 0
M  V30 20 C -1.928879 1.893544 -0.270115 0
M  V30 21 S 1.007940 -0.478430 1.279158 0
M  V30 22 C 1.798027 -1.540866 -0.025000 0
M  V30 23 H -0.277340 -2.980935 2.278420 0
M  V30 24 H 3.467535 -4.300980 3.468208 0
M  V30 25 H 2.871791 -5.045251 1.889894 0
M  V30 26 H 2.743742 -3.188918 -3.181461 0
M  V30 27 H -0.462854 0.132052 -1.855188 0
M  V30 28 H -0.426009 1.213115 2.714683 0
M  V30 29 H -2.011849 2.873804 3.452766 0
M  V30 30 H -1.928017 1.640539 -1.309423 0
M  V30 END ATOM
M  V30 BEGIN BOND
M  V30 1 2 1 2
M  V30 2 1 2 3
M  V30 3 1 2 4
M  V30 4 1 4 5
M  V30 5 1 5 6
M  V30 6 2 6 7
M  V30 7 1 7 8
M  V30 8 2 8 9
M  V30 9 1 9 10
M  V30 10 1 10 11
M  V30 11 2 11 12
M  V30 12 1 12 13
M  V30 13 2 13 14
M  V30 14 1 14 15
M  V30 15 2 15 16
M  V30 16 1 16 17
M  V30 17 1 16 18
M  V30 18 1 18 19
M  V30 19 2 18 20
M  V30 20 1 12 21
M  V30 21 1 21 22
M  V30 22 1 22 6
M  V30 23 2 22 10
M  V30 24 1 20 13
M  V30 25 1 3 23
M  V30 26 1 4 24
M  V30 27 1 4 25
M  V30 28 1 8 26
M  V30 29 1 11 27
M  V30 30 1 14 28
M  V30 31 1 15 29
M  V30 32 1 20 30
M  V30 END BOND
M  V30 END CTAB
M  END
>  <Dataset>  (77) 
ChEMBL_Kinases

>  <Ligand_Instance>  (77) 
nan

>  <PDB_ID>  (77) 
nan

>  <Standardized_SMILES>  (77) 
O=C(O)CSc1ncnc2cc(-c3ccc(Cl)c(Cl)c3)sc12

>  <Name>  (77) 
nan

>  <Pocket>  (77) 
nan

>  <ATP_Site>  (77) 
nan

>  <Peripheral>  (77) 
nan

>  <Num_H_Atoms_ProtBoundConf>  (77) 
nan

>  <Num_Resolved_Atoms>  (77) 
nan

>  <Num_Not_Resolved_Atoms>  (77) 
nan

$$$$
CHEMBL438329
     RDKit          3D

  0  0  0  0  0  0  0  0  0  0999 V3000
M  V30 BEGIN CTAB
M  V30 COUNTS 60 64 0 0 0
M  V30 BEGIN ATOM
M  V30 1 C 2.133548 -2.018534 5.237900 0
M  V30 2 C 2.527264 -0.893626 4.329238 0 CFG=1
M  V30 3 C 3.943101 -0.424347 4.615108 0
M  V30 4 C 4.136402 0.920804 3.939041 0
M  V30 5 C 3.327481 0.955778 2.624804 0 CFG=1
M  V30 6 N 3.952016 1.933821 1.806996 0
M  V30 7 C 3.111041 2.556083 0.842288 0
M  V30 8 C 2.416763 1.679104 -0.110231 0
M  V30 9 C 3.108365 1.299314 -1.269075 0
M  V30 10 C 2.499457 0.508072 -2.215626 0
M  V30 11 C 1.198258 0.100378 -1.996314 0
M  V30 12 C 0.516627 0.480364 -0.844317 0
M  V30 13 C 1.092321 1.272674 0.127868 0
M  V30 14 C -0.854554 -0.096947 -0.870476 0
M  V30 15 C -0.903002 -0.852672 -2.157749 0
M  V30 16 C -1.736288 -1.630667 -2.921803 0
M  V30 17 C -3.112512 -2.026197 -2.628805 0
M  V30 18 C -3.548580 -3.319209 -2.808654 0
M  V30 19 C -4.856918 -3.696509 -2.530730 0
M  V30 20 C -5.750888 -2.770972 -2.064496 0
M  V30 21 C -7.190356 -3.020266 -1.719801 0
M  V30 22 C -7.275045 -3.402758 -0.285864 0
M  V30 23 O -6.128444 -3.411812 0.230153 0
M  V30 24 O -7.794119 -3.775828 0.929596 0
M  V30 25 C -5.292359 -1.467841 -1.888407 0
M  V30 26 C -4.006012 -1.072155 -2.156012 0
M  V30 27 N -1.022664 -1.962861 -4.013781 0
M  V30 28 N 0.173190 -1.439797 -3.955184 0
M  V30 29 C 0.304673 -0.729645 -2.807344 0
M  V30 30 C 3.386160 -0.462734 2.047243 0
M  V30 31 C 2.504116 -1.334891 2.872613 0
M  V30 32 H 1.217085 -2.486392 4.837223 0
M  V30 33 H 2.964186 -2.726645 5.433265 0
M  V30 34 H 1.805486 -1.551809 6.212497 0
M  V30 35 H 1.815355 -0.055763 4.528149 0
M  V30 36 H 4.596016 -1.160669 4.077060 0
M  V30 37 H 4.183945 -0.390069 5.677624 0
M  V30 38 H 3.752906 1.719459 4.571360 0
M  V30 39 H 5.185192 1.069737 3.655171 0
M  V30 40 H 2.282672 1.199187 2.780208 0
M  V30 41 H 4.655779 2.539068 2.233141 0
M  V30 42 H 3.686898 3.292493 0.208855 0
M  V30 43 H 2.287742 3.142961 1.374207 0
M  V30 44 H 4.119375 1.631672 -1.411934 0
M  V30 45 H 3.048260 0.229800 -3.095152 0
M  V30 46 H 0.628581 1.602016 1.035005 0
M  V30 47 H -1.013657 -0.793678 -0.022389 0
M  V30 48 H -1.644142 0.676153 -0.904089 0
M  V30 49 H -2.896370 -4.088070 -3.170613 0
M  V30 50 H -5.239949 -4.710518 -2.660462 0
M  V30 51 H -7.549618 -3.896350 -2.306639 0
M  V30 52 H -7.796010 -2.129470 -1.949920 0
M  V30 53 H -8.179549 -3.067669 1.560756 0
M  V30 54 H -5.983149 -0.698539 -1.515181 0
M  V30 55 H -3.732421 -0.023385 -1.987856 0
M  V30 56 H 0.945834 -1.528320 -4.662859 0
M  V30 57 H 4.453583 -0.811824 2.065997 0
M  V30 58 H 3.091328 -0.436363 1.006425 0
M  V30 59 H 2.929796 -2.361427 2.869022 0
M  V30 60 H 1.482476 -1.426672 2.467824 0
M  V30 END ATOM
M  V30 BEGIN BOND
M  V30 1 1 1 2
M  V30 2 1 2 3
M  V30 3 1 3 4
M  V30 4 1 4 5
M  V30 5 1 5 6
M  V30 6 1 6 7
M  V30 7 1 7 8
M  V30 8 2 8 9
M  V30 9 1 9 10
M  V30 10 2 10 11
M  V30 11 1 11 12
M  V30 12 2 12 13
M  V30 13 1 12 14
M  V30 14 1 14 15
M  V30 15 1 15 16
M  V30 16 1 16 17
M  V30 17 2 17 18
M  V30 18 1 18 19
M  V30 19 2 19 20
M  V30 20 1 20 21
M  V30 21 1 21 22
M  V30 22 2 22 23
M  V30 23 1 22 24
M  V30 24 1 20 25
M  V30 25 2 25 26
M  V30 26 2 16 27
M  V30 27 1 27 28
M  V30 28 1 28 29
M  V30 29 1 5 30
M  V30 30 1 30 31
M  V30 31 1 31 2
M  V30 32 1 13 8
M  V30 33 2 29 15
M  V30 34 1 29 11
M  V30 35 1 26 17
M  V30 36 1 1 32
M  V30 37 1 1 33
M  V30 38 1 1 34
M  V30 39 1 2 35 CFG=3
M  V30 40 1 3 36
M  V30 41 1 3 37
M  V30 42 1 4 38
M  V30 43 1 4 39
M  V30 44 1 5 40 CFG=1
M  V30 45 1 6 41
M  V30 46 1 7 42
M  V30 47 1 7 43
M  V30 48 1 9 44
M  V30 49 1 10 45
M  V30 50 1 13 46
M  V30 51 1 14 47
M  V30 52 1 14 48
M  V30 53 1 18 49
M  V30 54 1 19 50
M  V30 55 1 21 51
M  V30 56 1 21 52
M  V30 57 1 24 53
M  V30 58 1 25 54
M  V30 59 1 26 55
M  V30 60 1 28 56
M  V30 61 1 30 57
M  V30 62 1 30 58
M  V30 63 1 31 59
M  V30 64 1 31 60
M  V30 END BOND
M  V30 END CTAB
M  END
>  <Dataset>  (78) 
ChEMBL_Kinases

>  <Ligand_Instance>  (78) 
nan

>  <PDB_ID>  (78) 
nan

>  <Standardized_SMILES>  (78) 
C[C@H]1CC[C@@H](NCc2ccc3c(c2)Cc2c(-c4ccc(CC(=O)O)cc4)n[nH]c2-3)CC1

>  <Name>  (78) 
nan

>  <Pocket>  (78) 
nan

>  <ATP_Site>  (78) 
nan

>  <Peripheral>  (78) 
nan

>  <Num_H_Atoms_ProtBoundConf>  (78) 
nan

>  <Num_Resolved_Atoms>  (78) 
nan

>  <Num_Not_Resolved_Atoms>  (78) 
nan

$$$$
CHEMBL4754496
     RDKit          3D

  0  0  0  0  0  0  0  0  0  0999 V3000
M  V30 BEGIN CTAB
M  V30 COUNTS 57 64 0 0 0
M  V30 BEGIN ATOM
M  V30 1 C 2.803564 -0.317883 -1.503678 0
M  V30 2 O 2.078648 -0.950956 -0.532582 0
M  V30 3 C 2.609177 -0.809756 0.747782 0 CFG=2
M  V30 4 C 2.897315 -2.173756 1.338827 0 CFG=2
M  V30 5 N 4.050399 -2.818832 0.794434 0
M  V30 6 C 1.631926 -2.974986 1.097540 0
M  V30 7 C 0.555074 -2.328023 1.915427 0 CFG=1
M  V30 8 O 0.846680 -1.103822 2.397016 0
M  V30 9 C 1.513451 -0.198926 1.592328 0 CFG=1
M  V30 10 C 2.125462 0.790174 2.604931 0
M  V30 11 N 0.517860 0.465326 0.763290 0
M  V30 12 C 0.491502 1.696521 0.226250 0
M  V30 13 C 1.492602 2.655764 0.325977 0
M  V30 14 C 1.394797 3.911661 -0.267662 0
M  V30 15 C 0.215951 4.162863 -0.983270 0
M  V30 16 C -0.728459 3.188496 -1.048332 0
M  V30 17 C -0.658733 1.960340 -0.481115 0
M  V30 18 C -1.424118 0.829963 -0.400477 0
M  V30 19 C -2.653183 0.515121 -0.915029 0
M  V30 20 C -3.226592 -0.719136 -0.703869 0
M  V30 21 C -2.493910 -1.596705 0.043465 0
M  V30 22 C -2.729817 -2.884507 0.437207 0
M  V30 23 C -3.684121 -3.835418 0.321092 0
M  V30 24 C -3.655519 -5.091146 0.839152 0
M  V30 25 C -2.536699 -5.487174 1.580661 0
M  V30 26 C -1.523075 -4.568948 1.740756 0
M  V30 27 C -1.648795 -3.318097 1.174064 0
M  V30 28 N -0.758094 -2.347581 1.249063 0
M  V30 29 C -1.259321 -1.279632 0.560700 0
M  V30 30 C -0.687513 -0.034336 0.346737 0
M  V30 31 C -4.522099 -0.818338 -1.340806 0
M  V30 32 O -5.387234 -1.711463 -1.423557 0
M  V30 33 N -4.747958 0.432946 -1.977363 0
M  V30 34 C -3.615465 1.240797 -1.719252 0
M  V30 35 O -3.621300 2.391037 -2.198624 0
M  V30 36 H 2.896357 0.763424 -1.361927 0
M  V30 37 H 2.232468 -0.443960 -2.457524 0
M  V30 38 H 3.794594 -0.767831 -1.712326 0
M  V30 39 H 3.533446 -0.195489 0.713249 0
M  V30 40 H 2.969296 -2.065199 2.453152 0
M  V30 41 H 4.623225 -3.186056 1.586283 0
M  V30 42 H 4.600856 -2.253926 0.122425 0
M  V30 43 H 1.756739 -4.054486 1.279313 0
M  V30 44 H 1.373986 -2.846404 0.024126 0
M  V30 45 H 0.421681 -2.993323 2.807384 0
M  V30 46 H 1.483829 1.653201 2.776520 0
M  V30 47 H 3.192108 0.994809 2.387358 0
M  V30 48 H 2.189277 0.297328 3.634662 0
M  V30 49 H 2.423113 2.529919 0.841572 0
M  V30 50 H 2.159277 4.668040 -0.201253 0
M  V30 51 H 0.115424 5.145115 -1.459696 0
M  V30 52 H -1.580790 3.464863 -1.607706 0
M  V30 53 H -4.557108 -3.605800 -0.226067 0
M  V30 54 H -4.455213 -5.813792 0.712122 0
M  V30 55 H -2.485917 -6.474302 2.002652 0
M  V30 56 H -0.666319 -4.886456 2.314268 0
M  V30 57 H -5.620719 0.684987 -2.538580 0
M  V30 END ATOM
M  V30 BEGIN BOND
M  V30 1 1 1 2
M  V30 2 1 2 3
M  V30 3 1 3 4
M  V30 4 1 4 5
M  V30 5 1 4 6
M  V30 6 1 6 7
M  V30 7 1 7 8
M  V30 8 1 8 9
M  V30 9 1 9 10 CFG=1
M  V30 10 1 9 11
M  V30 11 1 11 12
M  V30 12 2 12 13
M  V30 13 1 13 14
M  V30 14 2 14 15
M  V30 15 1 15 16
M  V30 16 2 16 17
M  V30 17 1 17 18
M  V30 18 2 18 19
M  V30 19 1 19 20
M  V30 20 2 20 21
M  V30 21 1 21 22
M  V30 22 2 22 23
M  V30 23 1 23 24
M  V30 24 2 24 25
M  V30 25 1 25 26
M  V30 26 2 26 27
M  V30 27 1 27 28
M  V30 28 1 28 29
M  V30 29 2 29 30
M  V30 30 1 20 31
M  V30 31 2 31 32
M  V30 32 1 31 33
M  V30 33 1 33 34
M  V30 34 2 34 35
M  V30 35 1 9 3
M  V30 36 1 30 11
M  V30 37 1 28 7
M  V30 38 1 17 12
M  V30 39 1 30 18
M  V30 40 1 34 19
M  V30 41 1 29 21
M  V30 42 1 27 22
M  V30 43 1 1 36
M  V30 44 1 1 37
M  V30 45 1 1 38
M  V30 46 1 3 39 CFG=3
M  V30 47 1 4 40 CFG=1
M  V30 48 1 5 41
M  V30 49 1 5 42
M  V30 50 1 6 43
M  V30 51 1 6 44
M  V30 52 1 7 45 CFG=1
M  V30 53 1 10 46
M  V30 54 1 10 47
M  V30 55 1 10 48
M  V30 56 1 13 49
M  V30 57 1 14 50
M  V30 58 1 15 51
M  V30 59 1 16 52
M  V30 60 1 23 53
M  V30 61 1 24 54
M  V30 62 1 25 55
M  V30 63 1 26 56
M  V30 64 1 33 57
M  V30 END BOND
M  V30 END CTAB
M  END
>  <Dataset>  (79) 
ChEMBL_Kinases

>  <Ligand_Instance>  (79) 
nan

>  <PDB_ID>  (79) 
nan

>  <Standardized_SMILES>  (79) 
CO[C@@H]1[C@H](N)C[C@H]2O[C@]1(C)n1c3ccccc3c3c4c(c5c6ccccc6n2c5c31)C(=O)NC4=O

>  <Name>  (79) 
nan

>  <Pocket>  (79) 
nan

>  <ATP_Site>  (79) 
nan

>  <Peripheral>  (79) 
nan

>  <Num_H_Atoms_ProtBoundConf>  (79) 
nan

>  <Num_Resolved_Atoms>  (79) 
nan

>  <Num_Not_Resolved_Atoms>  (79) 
nan

$$$$
CHEMBL438303
     RDKit          3D

  0  0  0  0  0  0  0  0  0  0999 V3000
M  V30 BEGIN CTAB
M  V30 COUNTS 47 50 0 0 0
M  V30 BEGIN ATOM
M  V30 1 N 3.901160 -5.921665 3.225320 0
M  V30 2 C 3.830211 -5.125826 2.362581 0
M  V30 3 C 3.720808 -4.157219 1.298661 0
M  V30 4 C 4.674585 -3.925504 0.330146 0
M  V30 5 N 4.158398 -2.962367 -0.430881 0
M  V30 6 N 2.960796 -2.573850 -0.017011 0
M  V30 7 C 2.115801 -1.645263 -0.497702 0
M  V30 8 N 2.466780 -0.889358 -1.645791 0
M  V30 9 C 1.736304 0.126285 -2.312342 0
M  V30 10 C 2.245037 0.762059 -3.432752 0
M  V30 11 C 1.561702 1.748781 -4.099427 0
M  V30 12 C 0.321199 2.155225 -3.675899 0
M  V30 13 C -0.231782 1.558212 -2.568984 0
M  V30 14 C 0.489948 0.572686 -1.931672 0
M  V30 15 N 0.974020 -1.521474 0.188041 0
M  V30 16 C 0.618474 -2.217583 1.268967 0
M  V30 17 N -0.661193 -1.919725 1.849623 0
M  V30 18 C -0.717169 -0.882509 2.883290 0
M  V30 19 C -2.113820 -0.680215 3.396244 0
M  V30 20 C -2.233074 0.375077 4.461344 0
M  V30 21 C -1.968517 1.767567 3.958467 0
M  V30 22 C -2.349766 1.963830 2.519128 0
M  V30 23 C -3.394573 1.013307 2.026818 0
M  V30 24 C -3.127570 -0.432860 2.336908 0
M  V30 25 N 1.492539 -3.127105 1.705973 0
M  V30 26 C 2.660871 -3.305898 1.065815 0
M  V30 27 H 5.652413 -4.405059 0.183882 0
M  V30 28 H 3.413579 -1.106713 -2.079232 0
M  V30 29 H 3.218110 0.474357 -3.801681 0
M  V30 30 H 2.024859 2.200437 -4.969462 0
M  V30 31 H -0.157972 2.923133 -4.233030 0
M  V30 32 H -1.205560 1.883312 -2.243635 0
M  V30 33 H -0.000668 0.158987 -1.086453 0
M  V30 34 H -1.369396 -2.549779 1.388439 0
M  V30 35 H -0.236581 0.044488 2.508579 0
M  V30 36 H -0.063289 -1.268242 3.692653 0
M  V30 37 H -2.390851 -1.646427 3.912699 0
M  V30 38 H -3.287888 0.339110 4.812918 0
M  V30 39 H -1.596777 0.153293 5.346623 0
M  V30 40 H -2.507137 2.497975 4.588116 0
M  V30 41 H -0.885586 1.966331 4.097481 0
M  V30 42 H -1.473844 1.987350 1.838618 0
M  V30 43 H -2.798823 2.992913 2.410689 0
M  V30 44 H -4.368035 1.376358 2.470662 0
M  V30 45 H -3.491654 1.153134 0.939117 0
M  V30 46 H -4.098146 -0.851282 2.683296 0
M  V30 47 H -2.917837 -1.022554 1.396455 0
M  V30 END ATOM
M  V30 BEGIN BOND
M  V30 1 3 1 2
M  V30 2 1 2 3
M  V30 3 1 3 4
M  V30 4 2 4 5
M  V30 5 1 5 6
M  V30 6 1 6 7
M  V30 7 1 7 8
M  V30 8 1 8 9
M  V30 9 2 9 10
M  V30 10 1 10 11
M  V30 11 2 11 12
M  V30 12 1 12 13
M  V30 13 2 13 14
M  V30 14 2 7 15
M  V30 15 1 15 16
M  V30 16 1 16 17
M  V30 17 1 17 18
M  V30 18 1 18 19
M  V30 19 1 19 20
M  V30 20 1 20 21
M  V30 21 1 21 22
M  V30 22 1 22 23
M  V30 23 1 23 24
M  V30 24 2 16 25
M  V30 25 1 25 26
M  V30 26 2 26 3
M  V30 27 1 26 6
M  V30 28 1 14 9
M  V30 29 1 24 19
M  V30 30 1 4 27
M  V30 31 1 8 28
M  V30 32 1 10 29
M  V30 33 1 11 30
M  V30 34 1 12 31
M  V30 35 1 13 32
M  V30 36 1 14 33
M  V30 37 1 17 34
M  V30 38 1 18 35
M  V30 39 1 18 36
M  V30 40 1 19 37
M  V30 41 1 20 38
M  V30 42 1 20 39
M  V30 43 1 21 40
M  V30 44 1 21 41
M  V30 45 1 22 42
M  V30 46 1 22 43
M  V30 47 1 23 44
M  V30 48 1 23 45
M  V30 49 1 24 46
M  V30 50 1 24 47
M  V30 END BOND
M  V30 END CTAB
M  END
>  <Dataset>  (80) 
ChEMBL_Kinases

>  <Ligand_Instance>  (80) 
nan

>  <PDB_ID>  (80) 
nan

>  <Standardized_SMILES>  (80) 
N#Cc1cnn2c(Nc3ccccc3)nc(NCC3CCCCC3)nc12

>  <Name>  (80) 
nan

>  <Pocket>  (80) 
nan

>  <ATP_Site>  (80) 
nan

>  <Peripheral>  (80) 
nan

>  <Num_H_Atoms_ProtBoundConf>  (80) 
nan

>  <Num_Resolved_Atoms>  (80) 
nan

>  <Num_Not_Resolved_Atoms>  (80) 
nan

$$$$
CHEMBL438109
     RDKit          3D

  0  0  0  0  0  0  0  0  0  0999 V3000
M  V30 BEGIN CTAB
M  V30 COUNTS 40 43 0 0 0
M  V30 BEGIN ATOM
M  V30 1 O 1.342395 -1.511386 -1.664135 0
M  V30 2 C 2.047267 -0.626760 -1.059239 0
M  V30 3 C 3.378461 -1.012500 -0.685688 0
M  V30 4 C 4.616689 -0.582186 -1.071825 0
M  V30 5 Cl 4.560506 0.690295 -2.267436 0
M  V30 6 C 5.725368 -1.164706 -0.500771 0
M  V30 7 C 5.563046 -2.152351 0.436517 0
M  V30 8 C 4.330654 -2.656535 0.897901 0
M  V30 9 C 3.250439 -2.020028 0.271430 0
M  V30 10 Cl 1.736238 -2.704335 0.905956 0
M  V30 11 N 1.000394 0.311502 -1.110392 0
M  V30 12 C -0.270342 0.010767 -1.707163 0
M  V30 13 C -1.306289 -0.261518 -0.592851 0
M  V30 14 C -0.876008 0.610104 0.538440 0
M  V30 15 C 0.167860 1.538468 0.676578 0
M  V30 16 C 0.132252 2.087725 1.939018 0
M  V30 17 N -0.906357 1.505409 2.545473 0
M  V30 18 N -1.500450 0.644810 1.743232 0
M  V30 19 C -2.615513 -0.036681 2.306054 0
M  V30 20 C -2.229850 -1.333790 2.664944 0
M  V30 21 C -3.090842 -2.239371 3.237783 0
M  V30 22 C -4.404839 -1.820985 3.461222 0
M  V30 23 C -4.798123 -0.551977 3.114795 0
M  V30 24 C -3.926065 0.341745 2.542605 0
M  V30 25 Cl -4.244721 1.979300 2.034888 0
M  V30 26 C 1.030044 1.679418 -0.558516 0
M  V30 27 H 6.655079 -0.784008 -0.850049 0
M  V30 28 H 6.490265 -2.550611 0.833078 0
M  V30 29 H 4.343804 -3.427545 1.628383 0
M  V30 30 H -0.287793 -0.883410 -2.344214 0
M  V30 31 H -0.622162 0.913775 -2.250519 0
M  V30 32 H -1.300507 -1.321099 -0.288600 0
M  V30 33 H -2.331908 -0.030788 -0.935330 0
M  V30 34 H 0.908603 2.827949 2.155864 0
M  V30 35 H -1.227288 -1.782551 2.543658 0
M  V30 36 H -2.845968 -3.246787 3.536288 0
M  V30 37 H -5.124747 -2.512220 3.914723 0
M  V30 38 H -5.790856 -0.170331 3.260738 0
M  V30 39 H 2.040118 1.991701 -0.329118 0
M  V30 40 H 0.584626 2.403046 -1.267898 0
M  V30 END ATOM
M  V30 BEGIN BOND
M  V30 1 2 1 2
M  V30 2 1 2 3
M  V30 3 2 3 4
M  V30 4 1 4 5
M  V30 5 1 4 6
M  V30 6 2 6 7
M  V30 7 1 7 8
M  V30 8 2 8 9
M  V30 9 1 9 10
M  V30 10 1 2 11
M  V30 11 1 11 12
M  V30 12 1 12 13
M  V30 13 1 13 14
M  V30 14 2 14 15
M  V30 15 1 15 16
M  V30 16 2 16 17
M  V30 17 1 17 18
M  V30 18 1 18 19
M  V30 19 2 19 20
M  V30 20 1 20 21
M  V30 21 2 21 22
M  V30 22 1 22 23
M  V30 23 2 23 24
M  V30 24 1 24 25
M  V30 25 1 15 26
M  V30 26 1 9 3
M  V30 27 1 26 11
M  V30 28 1 18 14
M  V30 29 1 24 19
M  V30 30 1 6 27
M  V30 31 1 7 28
M  V30 32 1 8 29
M  V30 33 1 12 30
M  V30 34 1 12 31
M  V30 35 1 13 32
M  V30 36 1 13 33
M  V30 37 1 16 34
M  V30 38 1 20 35
M  V30 39 1 21 36
M  V30 40 1 22 37
M  V30 41 1 23 38
M  V30 42 1 26 39
M  V30 43 1 26 40
M  V30 END BOND
M  V30 END CTAB
M  END
>  <Dataset>  (81) 
ChEMBL_Kinases

>  <Ligand_Instance>  (81) 
nan

>  <PDB_ID>  (81) 
nan

>  <Standardized_SMILES>  (81) 
O=C(c1c(Cl)cccc1Cl)N1CCc2c(cnn2-c2ccccc2Cl)C1

>  <Name>  (81) 
nan

>  <Pocket>  (81) 
nan

>  <ATP_Site>  (81) 
nan

>  <Peripheral>  (81) 
nan

>  <Num_H_Atoms_ProtBoundConf>  (81) 
nan

>  <Num_Resolved_Atoms>  (81) 
nan

>  <Num_Not_Resolved_Atoms>  (81) 
nan

$$$$
CHEMBL437706
     RDKit          3D

  0  0  0  0  0  0  0  0  0  0999 V3000
M  V30 BEGIN CTAB
M  V30 COUNTS 52 55 0 0 0
M  V30 BEGIN ATOM
M  V30 1 C 2.177696 -2.855055 -0.551793 0
M  V30 2 O 2.761062 -2.164551 0.530874 0
M  V30 3 C 3.091545 -2.731799 1.742977 0
M  V30 4 C 2.975672 -4.012067 2.232570 0
M  V30 5 C 3.395225 -4.328265 3.518418 0
M  V30 6 C 3.934436 -3.344480 4.309683 0
M  V30 7 C 4.067359 -2.032395 3.844481 0
M  V30 8 C 3.635097 -1.745455 2.546604 0
M  V30 9 N 3.878442 -0.336945 2.350656 0
M  V30 10 C 2.588350 0.186210 2.087126 0
M  V30 11 C 2.100005 0.581147 0.862138 0
M  V30 12 C 0.827501 1.065344 0.695660 0
M  V30 13 C 0.218052 1.531073 -0.539827 0
M  V30 14 C 0.872137 2.162357 -1.592431 0
M  V30 15 C 0.116623 2.559008 -2.678531 0
M  V30 16 N -1.207599 2.363267 -2.763383 0
M  V30 17 C -1.906394 1.754475 -1.775754 0
M  V30 18 N -3.332996 1.540248 -1.764926 0
M  V30 19 C -3.879549 0.706025 -0.719369 0
M  V30 20 C -4.762725 1.093868 0.270053 0
M  V30 21 C -5.229505 0.197856 1.205216 0
M  V30 22 C -4.820466 -1.118088 1.174018 0
M  V30 23 C -3.928077 -1.516654 0.176040 0
M  V30 24 C -3.455593 -0.628295 -0.765640 0
M  V30 25 O -2.575210 -1.051520 -1.741909 0
M  V30 26 C -2.058607 -2.324193 -1.932422 0
M  V30 27 C -1.141948 1.360837 -0.692887 0
M  V30 28 C 0.051141 1.135919 1.836759 0
M  V30 29 C 0.503031 0.750335 3.079336 0
M  V30 30 N 1.763678 0.284094 3.172585 0
M  V30 31 H 2.171289 -3.954852 -0.417769 0
M  V30 32 H 2.805796 -2.663478 -1.452999 0
M  V30 33 H 1.115402 -2.522227 -0.712322 0
M  V30 34 H 2.528959 -4.674825 1.482853 0
M  V30 35 H 3.255899 -5.356302 3.798755 0
M  V30 36 H 4.216899 -3.728167 5.289508 0
M  V30 37 H 4.505002 -1.404935 4.593939 0
M  V30 38 H 4.867011 0.040799 2.425764 0
M  V30 39 H 2.727465 0.514594 -0.000410 0
M  V30 40 H 1.940183 2.291439 -1.473618 0
M  V30 41 H 0.642111 3.041768 -3.474849 0
M  V30 42 H -3.802156 2.026848 -2.534624 0
M  V30 43 H -5.039510 2.130550 0.228864 0
M  V30 44 H -5.929810 0.553194 1.972618 0
M  V30 45 H -5.237699 -1.753350 1.949116 0
M  V30 46 H -3.671464 -2.559740 0.244415 0
M  V30 47 H -0.945116 -2.309204 -1.872884 0
M  V30 48 H -2.314415 -2.714805 -2.951360 0
M  V30 49 H -2.417041 -3.081431 -1.231808 0
M  V30 50 H -1.688447 0.868594 0.108100 0
M  V30 51 H -0.968398 1.492160 1.895439 0
M  V30 52 H -0.055999 0.784525 4.000638 0
M  V30 END ATOM
M  V30 BEGIN BOND
M  V30 1 1 1 2
M  V30 2 1 2 3
M  V30 3 2 3 4
M  V30 4 1 4 5
M  V30 5 2 5 6
M  V30 6 1 6 7
M  V30 7 2 7 8
M  V30 8 1 8 9
M  V30 9 1 9 10
M  V30 10 2 10 11
M  V30 11 1 11 12
M  V30 12 1 12 13
M  V30 13 2 13 14
M  V30 14 1 14 15
M  V30 15 2 15 16
M  V30 16 1 16 17
M  V30 17 1 17 18
M  V30 18 1 18 19
M  V30 19 2 19 20
M  V30 20 1 20 21
M  V30 21 2 21 22
M  V30 22 1 22 23
M  V30 23 2 23 24
M  V30 24 1 24 25
M  V30 25 1 25 26
M  V30 26 2 17 27
M  V30 27 2 12 28
M  V30 28 1 28 29
M  V30 29 2 29 30
M  V30 30 1 8 3
M  V30 31 1 30 10
M  V30 32 1 27 13
M  V30 33 1 24 19
M  V30 34 1 1 31
M  V30 35 1 1 32
M  V30 36 1 1 33
M  V30 37 1 4 34
M  V30 38 1 5 35
M  V30 39 1 6 36
M  V30 40 1 7 37
M  V30 41 1 9 38
M  V30 42 1 11 39
M  V30 43 1 14 40
M  V30 44 1 15 41
M  V30 45 1 18 42
M  V30 46 1 20 43
M  V30 47 1 21 44
M  V30 48 1 22 45
M  V30 49 1 23 46
M  V30 50 1 26 47
M  V30 51 1 26 48
M  V30 52 1 26 49
M  V30 53 1 27 50
M  V30 54 1 28 51
M  V30 55 1 29 52
M  V30 END BOND
M  V30 END CTAB
M  END
>  <Dataset>  (82) 
ChEMBL_Kinases

>  <Ligand_Instance>  (82) 
nan

>  <PDB_ID>  (82) 
nan

>  <Standardized_SMILES>  (82) 
COc1ccccc1Nc1cc(-c2ccnc(Nc3ccccc3OC)c2)ccn1

>  <Name>  (82) 
nan

>  <Pocket>  (82) 
nan

>  <ATP_Site>  (82) 
nan

>  <Peripheral>  (82) 
nan

>  <Num_H_Atoms_ProtBoundConf>  (82) 
nan

>  <Num_Resolved_Atoms>  (82) 
nan

>  <Num_Not_Resolved_Atoms>  (82) 
nan

$$$$
CHEMBL4754533
     RDKit          3D

  0  0  0  0  0  0  0  0  0  0999 V3000
M  V30 BEGIN CTAB
M  V30 COUNTS 27 29 0 0 0
M  V30 BEGIN ATOM
M  V30 1 C -1.886749 -0.886023 3.565621 0
M  V30 2 C -0.407314 -0.541803 3.447712 0
M  V30 3 N 0.017952 -0.547538 2.060322 0
M  V30 4 C 0.493445 -1.649125 1.450154 0
M  V30 5 O 0.584141 -2.728151 2.080420 0
M  V30 6 C 0.886145 -1.607403 0.128614 0
M  V30 7 C 1.374831 -2.758435 -0.482258 0
M  V30 8 C 1.760848 -2.674342 -1.818328 0
M  V30 9 C 1.688018 -1.516682 -2.574649 0
M  V30 10 C 1.197227 -0.381416 -1.943334 0
M  V30 11 C 0.818264 -0.461631 -0.633694 0
M  V30 12 N 0.342578 0.618004 -0.004030 0
M  V30 13 C 0.139073 1.871648 -0.415004 0
M  V30 14 S 0.375722 2.622090 -1.834629 0
M  V30 15 N -0.360034 2.590781 0.601107 0
M  V30 16 N -0.472127 1.786551 1.659165 0
M  V30 17 C -0.032890 0.550260 1.283452 0
M  V30 18 H -2.140711 -1.602756 2.741123 0
M  V30 19 H -2.104955 -1.369811 4.542002 0
M  V30 20 H -2.493220 0.017804 3.395878 0
M  V30 21 H -0.226443 0.494724 3.849146 0
M  V30 22 H 0.186686 -1.244722 4.063275 0
M  V30 23 H 1.447149 -3.681177 0.073874 0
M  V30 24 H 2.138333 -3.576331 -2.279131 0
M  V30 25 H 2.010064 -1.541930 -3.607329 0
M  V30 26 H 1.164510 0.479361 -2.575875 0
M  V30 27 H -0.654882 3.593692 0.704631 0
M  V30 END ATOM
M  V30 BEGIN BOND
M  V30 1 1 1 2
M  V30 2 1 2 3
M  V30 3 1 3 4
M  V30 4 2 4 5
M  V30 5 1 4 6
M  V30 6 2 6 7
M  V30 7 1 7 8
M  V30 8 2 8 9
M  V30 9 1 9 10
M  V30 10 2 10 11
M  V30 11 1 11 12
M  V30 12 1 12 13
M  V30 13 2 13 14
M  V30 14 1 13 15
M  V30 15 1 15 16
M  V30 16 2 16 17
M  V30 17 1 17 3
M  V30 18 1 11 6
M  V30 19 1 17 12
M  V30 20 1 1 18
M  V30 21 1 1 19
M  V30 22 1 1 20
M  V30 23 1 2 21
M  V30 24 1 2 22
M  V30 25 1 7 23
M  V30 26 1 8 24
M  V30 27 1 9 25
M  V30 28 1 10 26
M  V30 29 1 15 27
M  V30 END BOND
M  V30 END CTAB
M  END
>  <Dataset>  (83) 
ChEMBL_Kinases

>  <Ligand_Instance>  (83) 
nan

>  <PDB_ID>  (83) 
nan

>  <Standardized_SMILES>  (83) 
CCn1c(=O)c2ccccc2n2c(=S)[nH]nc12

>  <Name>  (83) 
nan

>  <Pocket>  (83) 
nan

>  <ATP_Site>  (83) 
nan

>  <Peripheral>  (83) 
nan

>  <Num_H_Atoms_ProtBoundConf>  (83) 
nan

>  <Num_Resolved_Atoms>  (83) 
nan

>  <Num_Not_Resolved_Atoms>  (83) 
nan

$$$$
CHEMBL437588
     RDKit          3D

  0  0  0  0  0  0  0  0  0  0999 V3000
M  V30 BEGIN CTAB
M  V30 COUNTS 59 63 0 0 0
M  V30 BEGIN ATOM
M  V30 1 C 3.161154 -1.460550 4.986552 0
M  V30 2 N 4.326449 -1.741405 4.208313 0
M  V30 3 C 4.378269 -3.076270 3.699215 0
M  V30 4 C 4.654827 -0.760172 3.222478 0
M  V30 5 C 3.629908 -0.516945 2.204882 0
M  V30 6 C 2.715762 0.472172 2.501518 0
M  V30 7 C 1.707832 0.789288 1.620864 0
M  V30 8 N 1.578734 0.139262 0.429628 0
M  V30 9 C 0.714172 0.223668 -0.621131 0
M  V30 10 C -0.355933 1.197458 -0.581640 0
M  V30 11 C -0.317549 2.288254 -1.422908 0
M  V30 12 C -1.391918 3.138987 -1.291426 0
M  V30 13 N -2.389271 2.925889 -0.421013 0
M  V30 14 C -2.365548 1.823515 0.384543 0
M  V30 15 N -3.395728 1.554537 1.325997 0
M  V30 16 C -3.535012 0.429553 2.231998 0
M  V30 17 C -3.652899 -0.874213 1.557807 0
M  V30 18 C -2.654994 -1.770010 1.241428 0
M  V30 19 C -2.855095 -2.967842 0.598052 0
M  V30 20 F -1.803230 -3.762239 0.341647 0
M  V30 21 C -4.134258 -3.337420 0.225219 0
M  V30 22 C -5.165957 -2.474335 0.520466 0
M  V30 23 F -6.418812 -2.858684 0.144374 0
M  V30 24 C -4.938725 -1.273879 1.168746 0
M  V30 25 N -1.340915 0.960129 0.297855 0
M  V30 26 C 1.070221 -0.698055 -1.574606 0
M  V30 27 C 0.395986 -0.924343 -2.844113 0
M  V30 28 C -0.157473 -2.211102 -2.863504 0
M  V30 29 C -0.856646 -2.685809 -3.964470 0
M  V30 30 C -1.013862 -1.886986 -5.059111 0
M  V30 31 F -1.679962 -2.269773 -6.172739 0
M  V30 32 C -0.471180 -0.620872 -5.043916 0
M  V30 33 C 0.225658 -0.133895 -3.959655 0
M  V30 34 N 2.153611 -1.345616 -1.105181 0
M  V30 35 C 2.467491 -0.843835 0.108023 0
M  V30 36 C 3.487653 -1.166128 0.997233 0
M  V30 37 H 3.106157 -0.428614 5.357198 0
M  V30 38 H 2.220942 -1.804067 4.500730 0
M  V30 39 H 3.240616 -2.093066 5.916496 0
M  V30 40 H 4.648493 -3.832861 4.461307 0
M  V30 41 H 3.398882 -3.401557 3.274927 0
M  V30 42 H 5.100736 -3.191543 2.878458 0
M  V30 43 H 4.929554 0.194762 3.752038 0
M  V30 44 H 5.627461 -1.084799 2.759954 0
M  V30 45 H 2.752208 1.037059 3.433362 0
M  V30 46 H 1.001181 1.562226 1.863302 0
M  V30 47 H 0.470505 2.492016 -2.133471 0
M  V30 48 H -1.467951 4.028497 -1.901198 0
M  V30 49 H -4.160608 2.299225 1.349698 0
M  V30 50 H -4.453957 0.570930 2.835857 0
M  V30 51 H -2.703869 0.430033 2.976157 0
M  V30 52 H -1.658542 -1.486292 1.537259 0
M  V30 53 H -4.278851 -4.273693 -0.276407 0
M  V30 54 H -5.827045 -0.681067 1.345758 0
M  V30 55 H -0.115290 -2.963732 -2.066888 0
M  V30 56 H -1.300508 -3.659481 -4.033036 0
M  V30 57 H -0.540379 0.097730 -5.868785 0
M  V30 58 H 0.696262 0.828072 -3.824307 0
M  V30 59 H 4.210108 -1.937049 0.779712 0
M  V30 END ATOM
M  V30 BEGIN BOND
M  V30 1 1 1 2
M  V30 2 1 2 3
M  V30 3 1 2 4
M  V30 4 1 4 5
M  V30 5 1 5 6
M  V30 6 2 6 7
M  V30 7 1 7 8
M  V30 8 1 8 9
M  V30 9 1 9 10
M  V30 10 2 10 11
M  V30 11 1 11 12
M  V30 12 2 12 13
M  V30 13 1 13 14
M  V30 14 1 14 15
M  V30 15 1 15 16
M  V30 16 1 16 17
M  V30 17 2 17 18
M  V30 18 1 18 19
M  V30 19 1 19 20
M  V30 20 2 19 21
M  V30 21 1 21 22
M  V30 22 1 22 23
M  V30 23 2 22 24
M  V30 24 2 14 25
M  V30 25 2 9 26
M  V30 26 1 26 27
M  V30 27 2 27 28
M  V30 28 1 28 29
M  V30 29 2 29 30
M  V30 30 1 30 31
M  V30 31 1 30 32
M  V30 32 2 32 33
M  V30 33 1 26 34
M  V30 34 2 34 35
M  V30 35 1 35 36
M  V30 36 2 36 5
M  V30 37 1 35 8
M  V30 38 1 25 10
M  V30 39 1 33 27
M  V30 40 1 24 17
M  V30 41 1 1 37
M  V30 42 1 1 38
M  V30 43 1 1 39
M  V30 44 1 3 40
M  V30 45 1 3 41
M  V30 46 1 3 42
M  V30 47 1 4 43
M  V30 48 1 4 44
M  V30 49 1 6 45
M  V30 50 1 7 46
M  V30 51 1 11 47
M  V30 52 1 12 48
M  V30 53 1 15 49
M  V30 54 1 16 50
M  V30 55 1 16 51
M  V30 56 1 18 52
M  V30 57 1 21 53
M  V30 58 1 24 54
M  V30 59 1 28 55
M  V30 60 1 29 56
M  V30 61 1 32 57
M  V30 62 1 33 58
M  V30 63 1 36 59
M  V30 END BOND
M  V30 END CTAB
M  END
>  <Dataset>  (84) 
ChEMBL_Kinases

>  <Ligand_Instance>  (84) 
nan

>  <PDB_ID>  (84) 
nan

>  <Standardized_SMILES>  (84) 
CN(C)Cc1ccn2c(-c3ccnc(NCc4cc(F)cc(F)c4)n3)c(-c3ccc(F)cc3)nc2c1

>  <Name>  (84) 
nan

>  <Pocket>  (84) 
nan

>  <ATP_Site>  (84) 
nan

>  <Peripheral>  (84) 
nan

>  <Num_H_Atoms_ProtBoundConf>  (84) 
nan

>  <Num_Resolved_Atoms>  (84) 
nan

>  <Num_Not_Resolved_Atoms>  (84) 
nan

$$$$
CHEMBL437586
     RDKit          3D

  0  0  0  0  0  0  0  0  0  0999 V3000
M  V30 BEGIN CTAB
M  V30 COUNTS 43 46 0 0 0
M  V30 BEGIN ATOM
M  V30 1 C -0.063826 -6.615869 2.895938 0
M  V30 2 N 0.701009 -5.495887 2.326552 0
M  V30 3 C -0.297378 -4.621288 2.180061 0
M  V30 4 N 0.711768 -3.760103 1.668294 0
M  V30 5 C 0.545870 -2.504531 1.224547 0
M  V30 6 C 1.570678 -1.647251 0.707370 0
M  V30 7 C 1.232452 -0.381160 0.288142 0
M  V30 8 C 2.049869 0.686504 -0.265698 0
M  V30 9 C 3.356310 0.413391 -0.441761 0
M  V30 10 C 4.104155 1.468785 -0.970834 0
M  V30 11 C 3.495652 2.668796 -1.268072 0
M  V30 12 C 2.126642 2.830321 -1.040188 0
M  V30 13 C 1.483381 4.153117 -1.366182 0
M  V30 14 C 1.543268 5.060811 -0.131820 0
M  V30 15 N 0.837094 4.441648 0.976080 0
M  V30 16 C 1.332140 1.831217 -0.521183 0
M  V30 17 S -0.635049 -0.327037 0.615651 0
M  V30 18 C -0.669110 -1.933403 1.232960 0
M  V30 19 N -1.745081 -2.573522 1.673527 0
M  V30 20 C -3.027672 -2.575430 1.912035 0
M  V30 21 C -3.672087 -1.261260 1.540390 0
M  V30 22 C -3.443347 -3.798653 2.450912 0
M  V30 23 N -2.327576 -4.556723 2.530955 0
M  V30 24 C -1.307091 -3.736652 2.031865 0
M  V30 25 H -0.466517 -6.369761 3.890721 0
M  V30 26 H -0.858175 -6.971497 2.183650 0
M  V30 27 H 0.605301 -7.489423 3.039040 0
M  V30 28 H 1.649437 -5.810507 2.270729 0
M  V30 29 H 2.608411 -1.947584 0.628067 0
M  V30 30 H 3.777332 -0.532987 -0.195166 0
M  V30 31 H 5.161820 1.301873 -1.134365 0
M  V30 32 H 4.091866 3.485376 -1.679840 0
M  V30 33 H 0.409005 3.963400 -1.555322 0
M  V30 34 H 1.999607 4.593458 -2.216305 0
M  V30 35 H 1.052654 6.009794 -0.364919 0
M  V30 36 H 2.591643 5.201593 0.153794 0
M  V30 37 H 1.363038 4.487267 1.856824 0
M  V30 38 H -0.156015 4.711882 1.052312 0
M  V30 39 H 0.276523 1.953362 -0.343672 0
M  V30 40 H -3.498575 -1.011240 0.489564 0
M  V30 41 H -4.760422 -1.347341 1.686425 0
M  V30 42 H -3.297135 -0.437575 2.184427 0
M  V30 43 H -4.476905 -3.935291 2.693285 0
M  V30 END ATOM
M  V30 BEGIN BOND
M  V30 1 1 1 2
M  V30 2 1 2 3
M  V30 3 2 3 4
M  V30 4 1 4 5
M  V30 5 1 5 6
M  V30 6 2 6 7
M  V30 7 1 7 8
M  V30 8 2 8 9
M  V30 9 1 9 10
M  V30 10 2 10 11
M  V30 11 1 11 12
M  V30 12 1 12 13
M  V30 13 1 13 14
M  V30 14 1 14 15
M  V30 15 2 12 16
M  V30 16 1 7 17
M  V30 17 1 17 18
M  V30 18 1 18 19
M  V30 19 1 19 20
M  V30 20 1 20 21
M  V30 21 2 20 22
M  V30 22 1 22 23
M  V30 23 2 23 24
M  V30 24 1 24 3
M  V30 25 2 18 5
M  V30 26 1 24 19
M  V30 27 1 16 8
M  V30 28 1 1 25
M  V30 29 1 1 26
M  V30 30 1 1 27
M  V30 31 1 2 28
M  V30 32 1 6 29
M  V30 33 1 9 30
M  V30 34 1 10 31
M  V30 35 1 11 32
M  V30 36 1 13 33
M  V30 37 1 13 34
M  V30 38 1 14 35
M  V30 39 1 14 36
M  V30 40 1 15 37
M  V30 41 1 15 38
M  V30 42 1 16 39
M  V30 43 1 21 40
M  V30 44 1 21 41
M  V30 45 1 21 42
M  V30 46 1 22 43
M  V30 END BOND
M  V30 END CTAB
M  END
>  <Dataset>  (85) 
ChEMBL_Kinases

>  <Ligand_Instance>  (85) 
nan

>  <PDB_ID>  (85) 
nan

>  <Standardized_SMILES>  (85) 
CNc1nc2cc(-c3cccc(CCN)c3)sc2n2c(C)cnc12

>  <Name>  (85) 
nan

>  <Pocket>  (85) 
nan

>  <ATP_Site>  (85) 
nan

>  <Peripheral>  (85) 
nan

>  <Num_H_Atoms_ProtBoundConf>  (85) 
nan

>  <Num_Resolved_Atoms>  (85) 
nan

>  <Num_Not_Resolved_Atoms>  (85) 
nan

$$$$
CHEMBL437384
     RDKit          3D

  0  0  0  0  0  0  0  0  0  0999 V3000
M  V30 BEGIN CTAB
M  V30 COUNTS 55 58 0 0 0
M  V30 BEGIN ATOM
M  V30 1 C -1.829047 -2.489265 5.487549 0
M  V30 2 O -0.780082 -3.302374 5.914995 0
M  V30 3 C 0.330045 -3.642760 5.192397 0
M  V30 4 C 0.533904 -3.190721 3.896959 0
M  V30 5 C 1.693891 -3.579030 3.215668 0
M  V30 6 C 1.914459 -3.099230 1.833985 0
M  V30 7 C 2.613926 -3.881519 0.916519 0
M  V30 8 C 2.807297 -3.410077 -0.372535 0
M  V30 9 C 2.320169 -2.185669 -0.756804 0
M  V30 10 C 1.624192 -1.398349 0.142649 0
M  V30 11 C 1.434993 -1.871648 1.422114 0
M  V30 12 N 1.046784 -0.096145 -0.089092 0
M  V30 13 C 0.813583 0.570404 -1.334482 0
M  V30 14 C 0.079621 1.716038 -1.140862 0
M  V30 15 C -0.254081 2.506855 -2.214599 0
M  V30 16 C -1.039658 3.767338 -2.158926 0
M  V30 17 C -2.489411 3.536664 -2.308442 0
M  V30 18 O -1.899217 2.413801 -2.368638 0
M  V30 19 N -3.872504 3.376517 -2.445122 0
M  V30 20 C -4.767423 4.521241 -2.409601 0
M  V30 21 C -4.596845 2.158892 -2.629071 0
M  V30 22 C 0.170343 2.111454 -3.475825 0
M  V30 23 C 0.914886 0.956534 -3.703506 0
M  V30 24 C 1.234505 0.181608 -2.600094 0
M  V30 25 N 1.995411 -0.952018 -3.035700 0
M  V30 26 C 2.630429 -1.878452 -2.148985 0
M  V30 27 O 3.596286 -2.518263 -2.648298 0
M  V30 28 C 2.650134 -4.399654 3.785042 0
M  V30 29 C 2.440899 -4.853555 5.091855 0
M  V30 30 C 1.292942 -4.457989 5.740634 0
M  V30 31 N 1.096807 -4.921514 7.051429 0
M  V30 32 H -1.962979 -2.419310 4.393629 0
M  V30 33 H -1.654163 -1.449535 5.857763 0
M  V30 34 H -2.815011 -2.777903 5.902202 0
M  V30 35 H -0.183126 -2.546840 3.405764 0
M  V30 36 H 3.005416 -4.836494 1.181753 0
M  V30 37 H 3.339523 -3.986902 -1.098377 0
M  V30 38 H 0.882858 -1.234394 2.116628 0
M  V30 39 H 0.772316 0.403271 0.779069 0
M  V30 40 H -0.260874 2.042498 -0.170084 0
M  V30 41 H -0.805815 4.238913 -1.154080 0
M  V30 42 H -0.692684 4.460826 -2.975688 0
M  V30 43 H -5.632640 4.332755 -1.737035 0
M  V30 44 H -4.217562 5.372317 -1.997626 0
M  V30 45 H -5.145210 4.713923 -3.437387 0
M  V30 46 H -4.966130 1.989236 -3.665458 0
M  V30 47 H -3.964514 1.248936 -2.418152 0
M  V30 48 H -5.415708 2.105805 -1.878472 0
M  V30 49 H -0.058236 2.687631 -4.360840 0
M  V30 50 H 1.239354 0.658057 -4.684060 0
M  V30 51 H 2.109889 -1.137525 -4.046369 0
M  V30 52 H 3.520475 -4.651715 3.185440 0
M  V30 53 H 3.190643 -5.496234 5.536659 0
M  V30 54 H 0.265187 -5.202179 7.638067 0
M  V30 55 H 1.686835 -5.145189 7.882689 0
M  V30 END ATOM
M  V30 BEGIN BOND
M  V30 1 1 1 2
M  V30 2 1 2 3
M  V30 3 2 3 4
M  V30 4 1 4 5
M  V30 5 1 5 6
M  V30 6 2 6 7
M  V30 7 1 7 8
M  V30 8 2 8 9
M  V30 9 1 9 10
M  V30 10 2 10 11
M  V30 11 1 10 12
M  V30 12 1 12 13
M  V30 13 2 13 14
M  V30 14 1 14 15
M  V30 15 1 15 16
M  V30 16 1 16 17
M  V30 17 2 17 18
M  V30 18 1 17 19
M  V30 19 1 19 20
M  V30 20 1 19 21
M  V30 21 2 15 22
M  V30 22 1 22 23
M  V30 23 2 23 24
M  V30 24 1 24 25
M  V30 25 1 25 26
M  V30 26 2 26 27
M  V30 27 2 5 28
M  V30 28 1 28 29
M  V30 29 2 29 30
M  V30 30 1 30 31
M  V30 31 1 30 3
M  V30 32 1 11 6
M  V30 33 1 24 13
M  V30 34 1 26 9
M  V30 35 1 1 32
M  V30 36 1 1 33
M  V30 37 1 1 34
M  V30 38 1 4 35
M  V30 39 1 7 36
M  V30 40 1 8 37
M  V30 41 1 11 38
M  V30 42 1 12 39
M  V30 43 1 14 40
M  V30 44 1 16 41
M  V30 45 1 16 42
M  V30 46 1 20 43
M  V30 47 1 20 44
M  V30 48 1 20 45
M  V30 49 1 21 46
M  V30 50 1 21 47
M  V30 51 1 21 48
M  V30 52 1 22 49
M  V30 53 1 23 50
M  V30 54 1 25 51
M  V30 55 1 28 52
M  V30 56 1 29 53
M  V30 57 1 31 54
M  V30 58 1 31 55
M  V30 END BOND
M  V30 END CTAB
M  END
>  <Dataset>  (86) 
ChEMBL_Kinases

>  <Ligand_Instance>  (86) 
nan

>  <PDB_ID>  (86) 
nan

>  <Standardized_SMILES>  (86) 
COc1cc(-c2ccc3c(c2)Nc2cc(CC(=O)N(C)C)ccc2NC3=O)ccc1N

>  <Name>  (86) 
nan

>  <Pocket>  (86) 
nan

>  <ATP_Site>  (86) 
nan

>  <Peripheral>  (86) 
nan

>  <Num_H_Atoms_ProtBoundConf>  (86) 
nan

>  <Num_Resolved_Atoms>  (86) 
nan

>  <Num_Not_Resolved_Atoms>  (86) 
nan

$$$$
CHEMBL437368
     RDKit          3D

  0  0  0  0  0  0  0  0  0  0999 V3000
M  V30 BEGIN CTAB
M  V30 COUNTS 73 78 0 0 0
M  V30 BEGIN ATOM
M  V30 1 C 4.141253 0.814418 3.630979 0
M  V30 2 C 3.139852 1.133401 2.547876 0 CFG=2
M  V30 3 N 2.785613 2.533145 2.662438 0
M  V30 4 C 1.843585 3.121039 1.747133 0
M  V30 5 N 1.526503 4.443195 1.872074 0
M  V30 6 C 0.640907 4.996958 1.006891 0
M  V30 7 C 0.093628 4.196067 0.029472 0
M  V30 8 C 0.395998 2.870690 -0.114688 0
M  V30 9 C -0.109283 1.932758 -1.109812 0
M  V30 10 C 0.152964 1.906674 -2.484743 0
M  V30 11 C 1.007614 2.835509 -3.214912 0
M  V30 12 C 0.844050 4.184415 -3.437965 0
M  V30 13 C 1.769735 4.910200 -4.153790 0
M  V30 14 C 2.906066 4.288128 -4.674644 0
M  V30 15 F 3.797664 5.055322 -5.378761 0
M  V30 16 C 3.078133 2.936928 -4.456059 0
M  V30 17 C 2.140325 2.204945 -3.731601 0
M  V30 18 N -0.541264 0.861171 -2.972206 0
M  V30 19 C -1.215823 0.238903 -1.988334 0
M  V30 20 C -2.056885 -0.853505 -1.946678 0
M  V30 21 C -2.650791 -1.320417 -0.792517 0
M  V30 22 C -3.556917 -2.493708 -0.707188 0
M  V30 23 N -2.833065 -3.675734 -0.417597 0
M  V30 24 C -1.829298 -4.098366 -1.300034 0
M  V30 25 C -3.325952 -4.545702 0.570794 0
M  V30 26 C -2.446914 -5.748640 0.738119 0
M  V30 27 C -3.075773 -6.759274 1.702195 0
M  V30 28 C -2.370281 -8.038315 1.343611 0
M  V30 29 C -1.880626 -7.755501 -0.039548 0
M  V30 30 O -2.333225 -6.510336 -0.405605 0
M  V30 31 C -2.362183 -0.621600 0.387862 0
M  V30 32 C -1.513092 0.470977 0.308234 0
M  V30 33 N -0.946905 0.905262 -0.831664 0
M  V30 34 N 1.292880 2.375657 0.787501 0
M  V30 35 C 1.971779 0.233553 2.783042 0
M  V30 36 C 1.763196 -0.818576 1.918311 0
M  V30 37 C 0.693864 -1.664564 2.110751 0
M  V30 38 C -0.149704 -1.420363 3.189699 0
M  V30 39 C 0.088374 -0.359219 4.034372 0
M  V30 40 C 1.152183 0.499196 3.859735 0
M  V30 41 H 5.008451 1.485011 3.641807 0
M  V30 42 H 4.534768 -0.220078 3.429819 0
M  V30 43 H 3.673783 0.763831 4.617140 0
M  V30 44 H 3.624641 0.916822 1.573670 0
M  V30 45 H 3.203793 3.144462 3.406581 0
M  V30 46 H 0.356866 6.040574 1.064684 0
M  V30 47 H -0.618045 4.591499 -0.680858 0
M  V30 48 H -0.060815 4.581241 -3.001898 0
M  V30 49 H 1.582489 5.966020 -4.294321 0
M  V30 50 H 3.985010 2.559165 -4.900164 0
M  V30 51 H 2.429780 1.169203 -3.656772 0
M  V30 52 H -2.258743 -1.360953 -2.860051 0
M  V30 53 H -4.376219 -2.286192 0.003352 0
M  V30 54 H -4.042444 -2.552949 -1.726468 0
M  V30 55 H -1.024828 -4.627288 -0.706620 0
M  V30 56 H -1.289317 -3.277673 -1.820508 0
M  V30 57 H -2.217601 -4.854134 -2.019074 0
M  V30 58 H -3.398351 -4.080715 1.594216 0
M  V30 59 H -4.353544 -4.934753 0.372543 0
M  V30 60 H -1.438518 -5.495039 1.131348 0
M  V30 61 H -4.176964 -6.841356 1.468846 0
M  V30 62 H -2.878532 -6.506148 2.744083 0
M  V30 63 H -1.559549 -8.246250 2.085871 0
M  V30 64 H -3.034464 -8.926629 1.396406 0
M  V30 65 H -2.219390 -8.547719 -0.756624 0
M  V30 66 H -0.777793 -7.793977 -0.029601 0
M  V30 67 H -2.767881 -0.890845 1.352746 0
M  V30 68 H -1.296100 1.001361 1.212185 0
M  V30 69 H 2.438338 -0.981430 1.087610 0
M  V30 70 H 0.494915 -2.505085 1.450843 0
M  V30 71 H -0.990443 -2.113541 3.313162 0
M  V30 72 H -0.629301 -0.268090 4.835043 0
M  V30 73 H 1.288558 1.321336 4.561386 0
M  V30 END ATOM
M  V30 BEGIN BOND
M  V30 1 1 1 2
M  V30 2 1 2 3
M  V30 3 1 3 4
M  V30 4 2 4 5
M  V30 5 1 5 6
M  V30 6 2 6 7
M  V30 7 1 7 8
M  V30 8 1 8 9
M  V30 9 2 9 10
M  V30 10 1 10 11
M  V30 11 2 11 12
M  V30 12 1 12 13
M  V30 13 2 13 14
M  V30 14 1 14 15
M  V30 15 1 14 16
M  V30 16 2 16 17
M  V30 17 1 10 18
M  V30 18 2 18 19
M  V30 19 1 19 20
M  V30 20 2 20 21
M  V30 21 1 21 22
M  V30 22 1 22 23
M  V30 23 1 23 24
M  V30 24 1 23 25
M  V30 25 1 25 26
M  V30 26 1 26 27
M  V30 27 1 27 28
M  V30 28 1 28 29
M  V30 29 1 29 30
M  V30 30 1 21 31
M  V30 31 2 31 32
M  V30 32 1 32 33
M  V30 33 2 8 34
M  V30 34 1 2 35
M  V30 35 2 35 36
M  V30 36 1 36 37
M  V30 37 2 37 38
M  V30 38 1 38 39
M  V30 39 2 39 40
M  V30 40 1 34 4
M  V30 41 1 40 35
M  V30 42 1 33 9
M  V30 43 1 17 11
M  V30 44 1 33 19
M  V30 45 1 30 26
M  V30 46 1 1 41
M  V30 47 1 1 42
M  V30 48 1 1 43
M  V30 49 1 2 44 CFG=3
M  V30 50 1 3 45
M  V30 51 1 6 46
M  V30 52 1 7 47
M  V30 53 1 12 48
M  V30 54 1 13 49
M  V30 55 1 16 50
M  V30 56 1 17 51
M  V30 57 1 20 52
M  V30 58 1 22 53
M  V30 59 1 22 54
M  V30 60 1 24 55
M  V30 61 1 24 56
M  V30 62 1 24 57
M  V30 63 1 25 58
M  V30 64 1 25 59
M  V30 65 1 26 60
M  V30 66 1 27 61
M  V30 67 1 27 62
M  V30 68 1 28 63
M  V30 69 1 28 64
M  V30 70 1 29 65
M  V30 71 1 29 66
M  V30 72 1 31 67
M  V30 73 1 32 68
M  V30 74 1 36 69
M  V30 75 1 37 70
M  V30 76 1 38 71
M  V30 77 1 39 72
M  V30 78 1 40 73
M  V30 END BOND
M  V30 END CTAB
M  END
>  <Dataset>  (87) 
ChEMBL_Kinases

>  <Ligand_Instance>  (87) 
nan

>  <PDB_ID>  (87) 
nan

>  <Standardized_SMILES>  (87) 
C[C@H](Nc1nccc(-c2c(-c3ccc(F)cc3)nc3cc(CN(C)CC4CCCO4)ccn23)n1)c1ccccc1

>  <Name>  (87) 
nan

>  <Pocket>  (87) 
nan

>  <ATP_Site>  (87) 
nan

>  <Peripheral>  (87) 
nan

>  <Num_H_Atoms_ProtBoundConf>  (87) 
nan

>  <Num_Resolved_Atoms>  (87) 
nan

>  <Num_Not_Resolved_Atoms>  (87) 
nan

$$$$
CHEMBL437122
     RDKit          3D

  0  0  0  0  0  0  0  0  0  0999 V3000
M  V30 BEGIN CTAB
M  V30 COUNTS 53 57 0 0 0
M  V30 BEGIN ATOM
M  V30 1 N -3.096532 -1.363962 3.741051 0
M  V30 2 C -2.658597 -2.393403 2.849262 0 CFG=2
M  V30 3 C -1.155136 -2.432432 2.701173 0
M  V30 4 O -0.641635 -1.216681 2.203351 0
M  V30 5 C 0.672731 -0.935523 1.957874 0
M  V30 6 C 1.706551 -1.835554 2.169249 0
M  V30 7 N 2.964171 -1.435056 1.887601 0
M  V30 8 C 3.219615 -0.196265 1.413514 0
M  V30 9 C 2.240303 0.752128 1.179068 0
M  V30 10 C 2.543596 2.083509 0.669660 0
M  V30 11 C 3.575502 2.400742 -0.186593 0
M  V30 12 C 3.725742 3.728225 -0.574005 0
M  V30 13 C 2.888309 4.745467 -0.140484 0
M  V30 14 C 3.045154 6.056426 -0.528497 0
M  V30 15 N 2.213471 7.017221 -0.086800 0
M  V30 16 C 1.189479 6.743710 0.754369 0
M  V30 17 C 1.017780 5.421541 1.156123 0
M  V30 18 C 1.847122 4.403340 0.727960 0
M  V30 19 C 1.694742 3.102937 1.111515 0
M  V30 20 C 0.957589 0.340577 1.467279 0
M  V30 21 C -3.369862 -2.258316 1.545601 0
M  V30 22 C -2.980078 -3.290369 0.557073 0
M  V30 23 C -3.720342 -4.477951 0.544111 0
M  V30 24 N -3.523390 -5.533570 -0.274807 0
M  V30 25 C -2.509901 -5.452480 -1.183121 0
M  V30 26 C -2.286630 -6.516525 -2.031447 0
M  V30 27 C -1.259189 -6.412618 -2.938876 0
M  V30 28 C -0.461663 -5.270656 -3.007075 0
M  V30 29 C -0.735375 -4.233286 -2.127086 0
M  V30 30 C -1.759668 -4.295342 -1.197932 0
M  V30 31 C -1.959125 -3.224952 -0.368079 0
M  V30 32 H -2.661040 -1.398960 4.671224 0
M  V30 33 H -3.139913 -0.422294 3.312205 0
M  V30 34 H -2.945146 -3.367929 3.303698 0
M  V30 35 H -0.723656 -2.586921 3.698257 0
M  V30 36 H -0.888568 -3.273763 2.055160 0
M  V30 37 H 1.435752 -2.810118 2.550614 0
M  V30 38 H 4.253635 0.071937 1.203089 0
M  V30 39 H 4.210824 1.603514 -0.509918 0
M  V30 40 H 4.527831 3.994742 -1.244461 0
M  V30 41 H 3.853269 6.327407 -1.203184 0
M  V30 42 H 0.483236 7.471703 1.147730 0
M  V30 43 H 0.217350 5.164848 1.822611 0
M  V30 44 H 0.850836 2.931918 1.794504 0
M  V30 45 H 0.145617 1.062299 1.295499 0
M  V30 46 H -4.466170 -2.327345 1.687327 0
M  V30 47 H -3.172473 -1.265967 1.069327 0
M  V30 48 H -4.545901 -4.592119 1.256390 0
M  V30 49 H -2.920273 -7.391616 -1.957818 0
M  V30 50 H -1.144106 -7.294642 -3.576733 0
M  V30 51 H 0.324987 -5.259463 -3.742991 0
M  V30 52 H -0.107451 -3.354542 -2.192601 0
M  V30 53 H -1.387309 -2.317552 -0.363354 0
M  V30 END ATOM
M  V30 BEGIN BOND
M  V30 1 1 1 2
M  V30 2 1 2 3
M  V30 3 1 3 4
M  V30 4 1 4 5
M  V30 5 2 5 6
M  V30 6 1 6 7
M  V30 7 2 7 8
M  V30 8 1 8 9
M  V30 9 1 9 10
M  V30 10 2 10 11
M  V30 11 1 11 12
M  V30 12 2 12 13
M  V30 13 1 13 14
M  V30 14 2 14 15
M  V30 15 1 15 16
M  V30 16 2 16 17
M  V30 17 1 17 18
M  V30 18 2 18 19
M  V30 19 2 9 20
M  V30 20 1 2 21
M  V30 21 1 21 22
M  V30 22 2 22 23
M  V30 23 1 23 24
M  V30 24 2 24 25
M  V30 25 1 25 26
M  V30 26 2 26 27
M  V30 27 1 27 28
M  V30 28 2 28 29
M  V30 29 1 29 30
M  V30 30 2 30 31
M  V30 31 1 20 5
M  V30 32 1 31 22
M  V30 33 1 19 10
M  V30 34 1 30 25
M  V30 35 1 18 13
M  V30 36 1 1 32
M  V30 37 1 1 33
M  V30 38 1 2 34 CFG=1
M  V30 39 1 3 35
M  V30 40 1 3 36
M  V30 41 1 6 37
M  V30 42 1 8 38
M  V30 43 1 11 39
M  V30 44 1 12 40
M  V30 45 1 14 41
M  V30 46 1 16 42
M  V30 47 1 17 43
M  V30 48 1 19 44
M  V30 49 1 20 45
M  V30 50 1 21 46
M  V30 51 1 21 47
M  V30 52 1 23 48
M  V30 53 1 26 49
M  V30 54 1 27 50
M  V30 55 1 28 51
M  V30 56 1 29 52
M  V30 57 1 31 53
M  V30 END BOND
M  V30 END CTAB
M  END
>  <Dataset>  (88) 
ChEMBL_Kinases

>  <Ligand_Instance>  (88) 
nan

>  <PDB_ID>  (88) 
nan

>  <Standardized_SMILES>  (88) 
N[C@H](COc1cncc(-c2ccc3cnccc3c2)c1)Cc1cnc2ccccc2c1

>  <Name>  (88) 
nan

>  <Pocket>  (88) 
nan

>  <ATP_Site>  (88) 
nan

>  <Peripheral>  (88) 
nan

>  <Num_H_Atoms_ProtBoundConf>  (88) 
nan

>  <Num_Resolved_Atoms>  (88) 
nan

>  <Num_Not_Resolved_Atoms>  (88) 
nan

$$$$
CHEMBL438431
     RDKit          3D

  0  0  0  0  0  0  0  0  0  0999 V3000
M  V30 BEGIN CTAB
M  V30 COUNTS 74 79 0 0 0
M  V30 BEGIN ATOM
M  V30 1 C 4.795499 3.089981 2.216776 0
M  V30 2 C 4.221323 1.709127 1.974446 0
M  V30 3 C 3.584578 1.338285 3.339510 0
M  V30 4 C 5.255774 0.723803 1.628401 0
M  V30 5 C 6.090798 0.898085 0.465729 0
M  V30 6 C 5.663263 0.242322 -0.699794 0
M  V30 7 C 6.263559 0.277835 -1.937570 0
M  V30 8 C 7.407142 1.037606 -2.048147 0
M  V30 9 Cl 8.225930 1.133269 -3.591624 0
M  V30 10 C 7.906054 1.715546 -0.966581 0
M  V30 11 C 7.232266 1.611563 0.218377 0
M  V30 12 Cl 7.944813 2.433080 1.586016 0
M  V30 13 C 3.085026 1.886860 1.028591 0
M  V30 14 C 3.426021 2.471158 -0.274440 0
M  V30 15 O 4.120915 3.452026 -0.643962 0
M  V30 16 N 2.784729 1.692720 -1.308322 0
M  V30 17 C 2.082880 0.630834 -0.655496 0
M  V30 18 C 1.328387 -0.375014 -1.269433 0
M  V30 19 C 0.726663 -1.328504 -0.495418 0
M  V30 20 C 0.854591 -1.309590 0.877043 0
M  V30 21 C 0.215673 -2.318295 1.711473 0
M  V30 22 C 0.639282 -2.829443 2.918273 0
M  V30 23 N -0.063977 -3.764261 3.577732 0
M  V30 24 C -1.237108 -4.226958 3.040243 0
M  V30 25 C -1.750958 -3.762833 1.809109 0
M  V30 26 O -2.884910 -4.424066 1.605419 0
M  V30 27 C -3.890269 -4.510686 0.703606 0
M  V30 28 C -4.758357 -3.301276 0.460538 0 CFG=1
M  V30 29 N -4.110021 -2.130104 0.001277 0
M  V30 30 C -5.909493 -3.787908 -0.392602 0
M  V30 31 C -6.883221 -2.744547 -0.765196 0
M  V30 32 C -8.097113 -2.541270 -0.115048 0
M  V30 33 N -8.714216 -1.487917 -0.723506 0
M  V30 34 C -7.920320 -1.047995 -1.715696 0
M  V30 35 C -8.083760 -0.009221 -2.638802 0
M  V30 36 C -7.124438 0.264273 -3.593292 0
M  V30 37 C -5.962958 -0.493000 -3.659910 0
M  V30 38 C -5.835087 -1.504206 -2.738649 0
M  V30 39 C -6.760499 -1.812451 -1.773306 0
M  V30 40 C -0.966914 -2.817149 1.217758 0
M  V30 41 C 1.616702 -0.284387 1.421168 0
M  V30 42 C 2.262586 0.722262 0.731511 0
M  V30 43 H 5.486819 3.022090 3.061411 0
M  V30 44 H 5.276799 3.546135 1.356019 0
M  V30 45 H 3.971738 3.778766 2.589361 0
M  V30 46 H 4.130894 1.864310 4.173757 0
M  V30 47 H 2.550933 1.713496 3.397923 0
M  V30 48 H 3.727600 0.274188 3.543928 0
M  V30 49 H 5.938161 0.567497 2.533403 0
M  V30 50 H 4.733855 -0.287072 1.588531 0
M  V30 51 H 4.763604 -0.386085 -0.684362 0
M  V30 52 H 5.880592 -0.250104 -2.789124 0
M  V30 53 H 8.788036 2.298170 -1.064447 0
M  V30 54 H 2.400668 2.641729 1.521709 0
M  V30 55 H 2.806767 1.849167 -2.360450 0
M  V30 56 H 1.195998 -0.437852 -2.327431 0
M  V30 57 H 0.146266 -2.103526 -0.967179 0
M  V30 58 H 1.576508 -2.408140 3.270629 0
M  V30 59 H -1.618898 -4.965095 3.743724 0
M  V30 60 H -3.591639 -4.982968 -0.276614 0
M  V30 61 H -4.625325 -5.289590 1.105782 0
M  V30 62 H -5.167313 -3.042056 1.493715 0
M  V30 63 H -4.880657 -1.387824 -0.080713 0
M  V30 64 H -3.573339 -1.743837 0.844648 0
M  V30 65 H -5.548039 -4.302338 -1.308543 0
M  V30 66 H -6.412011 -4.601382 0.204431 0
M  V30 67 H -8.554462 -3.069267 0.727974 0
M  V30 68 H -9.661268 -1.105762 -0.437550 0
M  V30 69 H -8.994980 0.559811 -2.561125 0
M  V30 70 H -7.373746 1.101225 -4.253732 0
M  V30 71 H -5.252829 -0.246959 -4.410948 0
M  V30 72 H -4.953625 -2.116785 -2.752311 0
M  V30 73 H -1.393991 -2.510255 0.295307 0
M  V30 74 H 1.682257 -0.314443 2.487541 0
M  V30 END ATOM
M  V30 BEGIN BOND
M  V30 1 1 1 2
M  V30 2 1 2 3
M  V30 3 1 2 4
M  V30 4 1 4 5
M  V30 5 2 5 6
M  V30 6 1 6 7
M  V30 7 2 7 8
M  V30 8 1 8 9
M  V30 9 1 8 10
M  V30 10 2 10 11
M  V30 11 1 11 12
M  V30 12 1 2 13
M  V30 13 1 13 14
M  V30 14 2 14 15
M  V30 15 1 14 16
M  V30 16 1 16 17
M  V30 17 2 17 18
M  V30 18 1 18 19
M  V30 19 2 19 20
M  V30 20 1 20 21
M  V30 21 2 21 22
M  V30 22 1 22 23
M  V30 23 2 23 24
M  V30 24 1 24 25
M  V30 25 1 25 26
M  V30 26 1 26 27
M  V30 27 1 27 28
M  V30 28 1 28 29
M  V30 29 1 28 30
M  V30 30 1 30 31
M  V30 31 2 31 32
M  V30 32 1 32 33
M  V30 33 1 33 34
M  V30 34 2 34 35
M  V30 35 1 35 36
M  V30 36 2 36 37
M  V30 37 1 37 38
M  V30 38 2 38 39
M  V30 39 2 25 40
M  V30 40 1 20 41
M  V30 41 2 41 42
M  V30 42 1 11 5
M  V30 43 1 42 13
M  V30 44 1 42 17
M  V30 45 1 40 21
M  V30 46 1 39 31
M  V30 47 1 39 34
M  V30 48 1 1 43
M  V30 49 1 1 44
M  V30 50 1 1 45
M  V30 51 1 3 46
M  V30 52 1 3 47
M  V30 53 1 3 48
M  V30 54 1 4 49
M  V30 55 1 4 50
M  V30 56 1 6 51
M  V30 57 1 7 52
M  V30 58 1 10 53
M  V30 59 1 13 54
M  V30 60 1 16 55
M  V30 61 1 18 56
M  V30 62 1 19 57
M  V30 63 1 22 58
M  V30 64 1 24 59
M  V30 65 1 27 60
M  V30 66 1 27 61
M  V30 67 1 28 62 CFG=1
M  V30 68 1 29 63
M  V30 69 1 29 64
M  V30 70 1 30 65
M  V30 71 1 30 66
M  V30 72 1 32 67
M  V30 73 1 33 68
M  V30 74 1 35 69
M  V30 75 1 36 70
M  V30 76 1 37 71
M  V30 77 1 38 72
M  V30 78 1 40 73
M  V30 79 1 41 74
M  V30 END BOND
M  V30 END CTAB
M  END
>  <Dataset>  (89) 
ChEMBL_Kinases

>  <Ligand_Instance>  (89) 
nan

>  <PDB_ID>  (89) 
nan

>  <Standardized_SMILES>  (89) 
CC(C)(Cc1ccc(Cl)cc1Cl)C1C(=O)Nc2ccc(-c3cncc(OC[C@@H](N)Cc4c[nH]c5ccccc45)c3)cc21

>  <Name>  (89) 
nan

>  <Pocket>  (89) 
nan

>  <ATP_Site>  (89) 
nan

>  <Peripheral>  (89) 
nan

>  <Num_H_Atoms_ProtBoundConf>  (89) 
nan

>  <Num_Resolved_Atoms>  (89) 
nan

>  <Num_Not_Resolved_Atoms>  (89) 
nan

$$$$
CHEMBL441695
     RDKit          3D

  0  0  0  0  0  0  0  0  0  0999 V3000
M  V30 BEGIN CTAB
M  V30 COUNTS 36 40 0 0 0
M  V30 BEGIN ATOM
M  V30 1 O 3.650984 0.234825 1.953314 0
M  V30 2 C 2.973738 -0.410756 1.114508 0
M  V30 3 N 3.476009 -1.375525 0.175015 0
M  V30 4 C 2.377082 -1.858573 -0.573404 0
M  V30 5 O 2.627818 -2.706947 -1.438806 0
M  V30 6 C 1.161857 -1.228112 -0.142117 0
M  V30 7 C 1.549632 -0.374324 0.860044 0
M  V30 8 C 0.626256 0.406306 1.520686 0
M  V30 9 C 0.815147 1.383317 2.581835 0
M  V30 10 C 1.694052 2.442918 2.635707 0
M  V30 11 C 1.756752 3.274275 3.732088 0
M  V30 12 C 0.940621 3.079403 4.821668 0
M  V30 13 C 0.049643 2.049737 4.830277 0
M  V30 14 C 0.012139 1.237698 3.720005 0
M  V30 15 C -0.720601 0.313052 1.151757 0
M  V30 16 C -1.111600 -0.544762 0.144993 0
M  V30 17 O -2.257798 -0.842633 -0.405715 0
M  V30 18 C -2.102973 -1.741552 -1.348461 0
M  V30 19 C -3.077339 -2.300702 -2.147982 0
M  V30 20 C -2.728472 -3.238811 -3.094614 0
M  V30 21 C -1.378950 -3.589781 -3.206188 0
M  V30 22 O -1.041750 -4.537484 -4.165551 0
M  V30 23 C -0.467484 -2.987366 -2.372316 0
M  V30 24 C -0.765503 -2.058095 -1.425103 0
M  V30 25 C -0.145493 -1.299005 -0.479549 0
M  V30 26 H 4.503144 -1.600347 0.143457 0
M  V30 27 H 2.312169 2.572450 1.762469 0
M  V30 28 H 2.482451 4.075028 3.670255 0
M  V30 29 H 1.041550 3.770843 5.651590 0
M  V30 30 H -0.607283 1.866347 5.668548 0
M  V30 31 H -0.712747 0.420679 3.756915 0
M  V30 32 H -1.547272 0.878674 1.599856 0
M  V30 33 H -4.103581 -2.019859 -2.048043 0
M  V30 34 H -3.468243 -3.695646 -3.736626 0
M  V30 35 H -0.118950 -4.405710 -4.582696 0
M  V30 36 H 0.518663 -3.316431 -2.532830 0
M  V30 END ATOM
M  V30 BEGIN BOND
M  V30 1 2 1 2
M  V30 2 1 2 3
M  V30 3 1 3 4
M  V30 4 2 4 5
M  V30 5 1 4 6
M  V30 6 2 6 7
M  V30 7 1 7 8
M  V30 8 1 8 9
M  V30 9 2 9 10
M  V30 10 1 10 11
M  V30 11 2 11 12
M  V30 12 1 12 13
M  V30 13 2 13 14
M  V30 14 2 8 15
M  V30 15 1 15 16
M  V30 16 1 16 17
M  V30 17 1 17 18
M  V30 18 2 18 19
M  V30 19 1 19 20
M  V30 20 2 20 21
M  V30 21 1 21 22
M  V30 22 1 21 23
M  V30 23 2 23 24
M  V30 24 1 24 25
M  V30 25 1 7 2
M  V30 26 1 14 9
M  V30 27 2 25 16
M  V30 28 1 25 6
M  V30 29 1 24 18
M  V30 30 1 3 26
M  V30 31 1 10 27
M  V30 32 1 11 28
M  V30 33 1 12 29
M  V30 34 1 13 30
M  V30 35 1 14 31
M  V30 36 1 15 32
M  V30 37 1 19 33
M  V30 38 1 20 34
M  V30 39 1 22 35
M  V30 40 1 23 36
M  V30 END BOND
M  V30 END CTAB
M  END
>  <Dataset>  (90) 
ChEMBL_Kinases

>  <Ligand_Instance>  (90) 
nan

>  <PDB_ID>  (90) 
nan

>  <Standardized_SMILES>  (90) 
O=C1NC(=O)c2c1c(-c1ccccc1)cc1oc3ccc(O)cc3c21

>  <Name>  (90) 
nan

>  <Pocket>  (90) 
nan

>  <ATP_Site>  (90) 
nan

>  <Peripheral>  (90) 
nan

>  <Num_H_Atoms_ProtBoundConf>  (90) 
nan

>  <Num_Resolved_Atoms>  (90) 
nan

>  <Num_Not_Resolved_Atoms>  (90) 
nan

$$$$
CHEMBL441557
     RDKit          3D

  0  0  0  0  0  0  0  0  0  0999 V3000
M  V30 BEGIN CTAB
M  V30 COUNTS 66 69 0 0 0
M  V30 BEGIN ATOM
M  V30 1 C 2.035454 1.055375 5.226251 0
M  V30 2 C 2.921426 1.176772 4.037791 0
M  V30 3 C 4.245561 1.537779 4.122684 0
M  V30 4 C 5.058321 1.648460 3.017892 0
M  V30 5 C 4.487037 1.379163 1.800889 0
M  V30 6 C 5.335099 1.492110 0.630129 0
M  V30 7 N 4.827724 1.230808 -0.660038 0
M  V30 8 O 6.547963 1.816745 0.630802 0
M  V30 9 C 3.175767 1.015388 1.653300 0
M  V30 10 C 2.397189 0.917272 2.790645 0
M  V30 11 N 1.053048 0.543491 2.640694 0
M  V30 12 C 0.329338 0.237946 1.446736 0
M  V30 13 N -0.329647 1.262316 0.864723 0
M  V30 14 C -1.048133 1.094447 -0.274885 0
M  V30 15 N -1.746716 2.176394 -0.878644 0
M  V30 16 C -2.486009 1.948085 -2.087261 0 CFG=1
M  V30 17 C -3.220772 3.209997 -2.567722 0
M  V30 18 C -3.584940 2.716984 -3.977865 0
M  V30 19 N -2.415237 1.986095 -4.424648 0
M  V30 20 C -1.561648 1.760507 -3.288252 0
M  V30 21 N -1.071284 -0.149478 -0.799090 0
M  V30 22 C -0.420199 -1.168880 -0.227069 0
M  V30 23 N -0.482413 -2.456276 -0.830838 0
M  V30 24 C -1.260029 -2.601163 -2.047787 0
M  V30 25 C 0.197147 -3.614862 -0.288849 0
M  V30 26 C -0.716137 -4.673600 0.241608 0
M  V30 27 C 0.112527 -5.802124 0.764763 0
M  V30 28 C -1.640439 -4.247665 1.289866 0
M  V30 29 C -2.981188 -4.287451 1.005510 0
M  V30 30 C -3.948065 -3.903967 1.943962 0
M  V30 31 C -3.518225 -3.478149 3.179936 0
M  V30 32 C -2.166153 -3.443496 3.451804 0
M  V30 33 C -1.198070 -3.816594 2.543469 0
M  V30 34 N 0.292939 -0.992774 0.908144 0
M  V30 35 H 1.063069 1.573886 5.026718 0
M  V30 36 H 1.894083 -0.028765 5.424009 0
M  V30 37 H 2.470072 1.584567 6.101161 0
M  V30 38 H 4.680690 1.747612 5.104457 0
M  V30 39 H 6.093449 1.923667 3.021492 0
M  V30 40 H 4.673086 0.567222 -1.469738 0
M  V30 41 H 4.501744 0.921579 -1.588224 0
M  V30 42 H 2.747296 0.806984 0.665253 0
M  V30 43 H 0.431776 0.451423 3.448058 0
M  V30 44 H -1.714715 3.112231 -0.443660 0
M  V30 45 H -3.237300 1.151936 -2.026207 0
M  V30 46 H -2.532819 4.077282 -2.648611 0
M  V30 47 H -4.123799 3.418694 -1.962326 0
M  V30 48 H -4.380392 1.944408 -3.828590 0
M  V30 49 H -3.908316 3.517785 -4.639322 0
M  V30 50 H -2.641540 1.070308 -4.861861 0
M  V30 51 H -0.837662 2.625621 -3.238654 0
M  V30 52 H -1.078102 0.785641 -3.242011 0
M  V30 53 H -2.332312 -2.818966 -1.825982 0
M  V30 54 H -0.894733 -3.461723 -2.667467 0
M  V30 55 H -1.242941 -1.721399 -2.703361 0
M  V30 56 H 0.786699 -4.097489 -1.106839 0
M  V30 57 H 0.965879 -3.307484 0.465849 0
M  V30 58 H -1.333329 -5.009927 -0.642850 0
M  V30 59 H 0.025745 -6.722410 0.132242 0
M  V30 60 H -0.206725 -6.134079 1.787146 0
M  V30 61 H 1.191403 -5.525835 0.864990 0
M  V30 62 H -3.380410 -4.610919 0.059619 0
M  V30 63 H -5.014331 -3.922996 1.752683 0
M  V30 64 H -4.279523 -3.178845 3.912390 0
M  V30 65 H -1.905939 -3.100343 4.436780 0
M  V30 66 H -0.144560 -3.783624 2.771444 0
M  V30 END ATOM
M  V30 BEGIN BOND
M  V30 1 1 1 2
M  V30 2 2 2 3
M  V30 3 1 3 4
M  V30 4 2 4 5
M  V30 5 1 5 6
M  V30 6 1 6 7
M  V30 7 2 6 8
M  V30 8 1 5 9
M  V30 9 2 9 10
M  V30 10 1 10 11
M  V30 11 1 11 12
M  V30 12 2 12 13
M  V30 13 1 13 14
M  V30 14 1 14 15
M  V30 15 1 15 16
M  V30 16 1 16 17
M  V30 17 1 17 18
M  V30 18 1 18 19
M  V30 19 1 19 20
M  V30 20 2 14 21
M  V30 21 1 21 22
M  V30 22 1 22 23
M  V30 23 1 23 24
M  V30 24 1 23 25
M  V30 25 1 25 26
M  V30 26 1 26 27
M  V30 27 1 26 28
M  V30 28 2 28 29
M  V30 29 1 29 30
M  V30 30 2 30 31
M  V30 31 1 31 32
M  V30 32 2 32 33
M  V30 33 2 22 34
M  V30 34 1 10 2
M  V30 35 1 34 12
M  V30 36 1 20 16
M  V30 37 1 33 28
M  V30 38 1 1 35
M  V30 39 1 1 36
M  V30 40 1 1 37
M  V30 41 1 3 38
M  V30 42 1 4 39
M  V30 43 1 7 40
M  V30 44 1 7 41
M  V30 45 1 9 42
M  V30 46 1 11 43
M  V30 47 1 15 44
M  V30 48 1 16 45 CFG=1
M  V30 49 1 17 46
M  V30 50 1 17 47
M  V30 51 1 18 48
M  V30 52 1 18 49
M  V30 53 1 19 50
M  V30 54 1 20 51
M  V30 55 1 20 52
M  V30 56 1 24 53
M  V30 57 1 24 54
M  V30 58 1 24 55
M  V30 59 1 25 56
M  V30 60 1 25 57
M  V30 61 1 26 58
M  V30 62 1 27 59
M  V30 63 1 27 60
M  V30 64 1 27 61
M  V30 65 1 29 62
M  V30 66 1 30 63
M  V30 67 1 31 64
M  V30 68 1 32 65
M  V30 69 1 33 66
M  V30 END BOND
M  V30 END CTAB
M  END
>  <Dataset>  (91) 
ChEMBL_Kinases

>  <Ligand_Instance>  (91) 
nan

>  <PDB_ID>  (91) 
nan

>  <Standardized_SMILES>  (91) 
Cc1ccc(C(N)=O)cc1Nc1nc(N[C@H]2CCNC2)nc(N(C)CC(C)c2ccccc2)n1

>  <Name>  (91) 
nan

>  <Pocket>  (91) 
nan

>  <ATP_Site>  (91) 
nan

>  <Peripheral>  (91) 
nan

>  <Num_H_Atoms_ProtBoundConf>  (91) 
nan

>  <Num_Resolved_Atoms>  (91) 
nan

>  <Num_Not_Resolved_Atoms>  (91) 
nan

$$$$
CHEMBL441176
     RDKit          3D

  0  0  0  0  0  0  0  0  0  0999 V3000
M  V30 BEGIN CTAB
M  V30 COUNTS 58 62 0 0 0
M  V30 BEGIN ATOM
M  V30 1 C 5.183474 3.168469 3.786343 0
M  V30 2 C 4.484947 1.978493 3.235711 0
M  V30 3 C 4.137100 0.929784 4.048958 0
M  V30 4 C 3.489963 -0.183026 3.559810 0
M  V30 5 C 3.180073 -0.244315 2.199207 0
M  V30 6 C 3.545481 0.833451 1.401447 0
M  V30 7 C 3.172466 0.660149 0.003184 0
M  V30 8 N 4.018889 0.589654 -1.038033 0
M  V30 9 N 3.387100 0.431314 -2.170681 0
M  V30 10 C 2.070352 0.391789 -1.900701 0
M  V30 11 C 1.895917 0.533221 -0.537681 0
M  V30 12 C 0.706783 0.564467 0.309444 0
M  V30 13 C 0.348954 1.672884 1.047681 0
M  V30 14 C -0.789682 1.674535 1.847061 0
M  V30 15 C -1.571268 0.538915 1.896043 0
M  V30 16 N -2.713905 0.201742 2.549872 0
M  V30 17 C -3.048843 -1.057677 2.231488 0
M  V30 18 N -2.148919 -1.590832 1.365788 0
M  V30 19 C -2.124391 -2.903629 0.772253 0
M  V30 20 C -2.852291 -2.997628 -0.530294 0
M  V30 21 C -4.311606 -2.649320 -0.423335 0
M  V30 22 N -4.945221 -3.560773 0.505563 0
M  V30 23 C -6.344943 -3.314760 0.675195 0
M  V30 24 C -4.780491 -4.914318 0.042551 0
M  V30 25 C -1.262559 -0.607406 1.175862 0
M  V30 26 C -0.126283 -0.550558 0.403919 0
M  V30 27 C 1.254765 0.213927 -3.129035 0
M  V30 28 C 2.264374 -0.107353 -4.186399 0
M  V30 29 C 3.581479 0.283158 -3.599738 0
M  V30 30 N 4.177141 1.904213 1.916036 0
M  V30 31 H 5.031617 4.021273 3.110382 0
M  V30 32 H 4.809225 3.401486 4.824014 0
M  V30 33 H 6.262392 2.924517 3.879753 0
M  V30 34 H 4.368080 0.952463 5.117333 0
M  V30 35 H 3.208953 -1.022441 4.197126 0
M  V30 36 H 2.680654 -1.116712 1.856580 0
M  V30 37 H 0.985325 2.566477 0.994470 0
M  V30 38 H -1.071111 2.553860 2.430455 0
M  V30 39 H -3.903577 -1.627626 2.581564 0
M  V30 40 H -2.601597 -3.631140 1.494223 0
M  V30 41 H -1.096776 -3.297957 0.638394 0
M  V30 42 H -2.726492 -4.031077 -0.910174 0
M  V30 43 H -2.327491 -2.353775 -1.265545 0
M  V30 44 H -4.493969 -1.596348 -0.206895 0
M  V30 45 H -4.761666 -2.890586 -1.424767 0
M  V30 46 H -6.770083 -4.250729 1.135344 0
M  V30 47 H -6.816677 -3.229478 -0.306138 0
M  V30 48 H -6.574830 -2.480922 1.356747 0
M  V30 49 H -4.534807 -4.975116 -1.027437 0
M  V30 50 H -5.693391 -5.540283 0.232556 0
M  V30 51 H -3.989987 -5.406035 0.666050 0
M  V30 52 H 0.175594 -1.418716 -0.188671 0
M  V30 53 H 0.521521 -0.631041 -3.024147 0
M  V30 54 H 0.668261 1.132726 -3.345145 0
M  V30 55 H 2.228494 -1.171345 -4.487987 0
M  V30 56 H 2.035578 0.480815 -5.110765 0
M  V30 57 H 4.295352 -0.536893 -3.836851 0
M  V30 58 H 3.957161 1.248180 -3.950724 0
M  V30 END ATOM
M  V30 BEGIN BOND
M  V30 1 1 1 2
M  V30 2 2 2 3
M  V30 3 1 3 4
M  V30 4 2 4 5
M  V30 5 1 5 6
M  V30 6 1 6 7
M  V30 7 2 7 8
M  V30 8 1 8 9
M  V30 9 1 9 10
M  V30 10 2 10 11
M  V30 11 1 11 12
M  V30 12 2 12 13
M  V30 13 1 13 14
M  V30 14 2 14 15
M  V30 15 1 15 16
M  V30 16 2 16 17
M  V30 17 1 17 18
M  V30 18 1 18 19
M  V30 19 1 19 20
M  V30 20 1 20 21
M  V30 21 1 21 22
M  V30 22 1 22 23
M  V30 23 1 22 24
M  V30 24 1 18 25
M  V30 25 2 25 26
M  V30 26 1 10 27
M  V30 27 1 27 28
M  V30 28 1 28 29
M  V30 29 2 6 30
M  V30 30 1 30 2
M  V30 31 1 11 7
M  V30 32 1 26 12
M  V30 33 1 29 9
M  V30 34 1 25 15
M  V30 35 1 1 31
M  V30 36 1 1 32
M  V30 37 1 1 33
M  V30 38 1 3 34
M  V30 39 1 4 35
M  V30 40 1 5 36
M  V30 41 1 13 37
M  V30 42 1 14 38
M  V30 43 1 17 39
M  V30 44 1 19 40
M  V30 45 1 19 41
M  V30 46 1 20 42
M  V30 47 1 20 43
M  V30 48 1 21 44
M  V30 49 1 21 45
M  V30 50 1 23 46
M  V30 51 1 23 47
M  V30 52 1 23 48
M  V30 53 1 24 49
M  V30 54 1 24 50
M  V30 55 1 24 51
M  V30 56 1 26 52
M  V30 57 1 27 53
M  V30 58 1 27 54
M  V30 59 1 28 55
M  V30 60 1 28 56
M  V30 61 1 29 57
M  V30 62 1 29 58
M  V30 END BOND
M  V30 END CTAB
M  END
>  <Dataset>  (92) 
ChEMBL_Kinases

>  <Ligand_Instance>  (92) 
nan

>  <PDB_ID>  (92) 
nan

>  <Standardized_SMILES>  (92) 
Cc1cccc(-c2nn3c(c2-c2ccc4ncn(CCCN(C)C)c4c2)CCC3)n1

>  <Name>  (92) 
nan

>  <Pocket>  (92) 
nan

>  <ATP_Site>  (92) 
nan

>  <Peripheral>  (92) 
nan

>  <Num_H_Atoms_ProtBoundConf>  (92) 
nan

>  <Num_Resolved_Atoms>  (92) 
nan

>  <Num_Not_Resolved_Atoms>  (92) 
nan

$$$$
CHEMBL441119
     RDKit          3D

  0  0  0  0  0  0  0  0  0  0999 V3000
M  V30 BEGIN CTAB
M  V30 COUNTS 46 49 0 0 0
M  V30 BEGIN ATOM
M  V30 1 C -0.349735 -4.917967 -0.283448 0
M  V30 2 C 0.630898 -3.754454 -0.317390 0
M  V30 3 C 1.067511 -3.476065 -1.749377 0 CFG=1
M  V30 4 C -0.081380 -3.125391 -2.624920 0
M  V30 5 N 2.170202 -2.573859 -1.748619 0
M  V30 6 C 2.124868 -1.253233 -1.207966 0
M  V30 7 N 3.188692 -0.410807 -1.212728 0
M  V30 8 C 3.148791 0.834367 -0.704617 0
M  V30 9 C 1.974662 1.300202 -0.144245 0
M  V30 10 C 0.921937 0.409772 -0.162157 0
M  V30 11 C -0.325085 0.931678 0.444308 0
M  V30 12 N -1.491905 1.116276 -0.224939 0
M  V30 13 N -2.408639 1.592718 0.597766 0
M  V30 14 C -1.840652 1.721069 1.811387 0
M  V30 15 C -0.513667 1.314300 1.771620 0
M  V30 16 C 0.515062 1.256542 2.788391 0
M  V30 17 C 0.939191 -0.058154 3.007388 0
M  V30 18 C 1.925486 -0.347531 3.945635 0
M  V30 19 C 2.485975 0.664259 4.661204 0
M  V30 20 F 3.442498 0.378663 5.570148 0
M  V30 21 C 2.076623 1.961223 4.454149 0
M  V30 22 C 1.099164 2.260838 3.526257 0
M  V30 23 O -2.784518 2.226523 2.718875 0
M  V30 24 C -4.046807 1.790287 2.191096 0
M  V30 25 C -3.790630 2.033726 0.708159 0
M  V30 26 N 0.962335 -0.836068 -0.670595 0
M  V30 27 H 0.256858 -5.847364 -0.176273 0
M  V30 28 H -1.005021 -4.859648 0.616028 0
M  V30 29 H -0.916559 -4.999977 -1.227245 0
M  V30 30 H 0.124797 -2.896836 0.151829 0
M  V30 31 H 1.487560 -4.017862 0.323031 0
M  V30 32 H 1.444428 -4.476776 -2.117007 0
M  V30 33 H -0.905121 -2.598976 -2.062441 0
M  V30 34 H -0.584510 -4.052015 -3.002160 0
M  V30 35 H 0.161355 -2.524141 -3.498023 0
M  V30 36 H 3.112006 -2.846839 -2.163766 0
M  V30 37 H 4.046557 1.455670 -0.744457 0
M  V30 38 H 1.907318 2.280717 0.267640 0
M  V30 39 H 0.561189 -0.952345 2.491820 0
M  V30 40 H 2.267266 -1.369786 4.127562 0
M  V30 41 H 2.489761 2.795048 4.995182 0
M  V30 42 H 0.700290 3.237333 3.280314 0
M  V30 43 H -4.896729 2.339428 2.590795 0
M  V30 44 H -4.133611 0.678457 2.306599 0
M  V30 45 H -3.803877 3.115345 0.519712 0
M  V30 46 H -4.466538 1.455182 0.063382 0
M  V30 END ATOM
M  V30 BEGIN BOND
M  V30 1 1 1 2
M  V30 2 1 2 3
M  V30 3 1 3 4
M  V30 4 1 3 5
M  V30 5 1 5 6
M  V30 6 2 6 7
M  V30 7 1 7 8
M  V30 8 2 8 9
M  V30 9 1 9 10
M  V30 10 1 10 11
M  V30 11 2 11 12
M  V30 12 1 12 13
M  V30 13 1 13 14
M  V30 14 2 14 15
M  V30 15 1 15 16
M  V30 16 2 16 17
M  V30 17 1 17 18
M  V30 18 2 18 19
M  V30 19 1 19 20
M  V30 20 1 19 21
M  V30 21 2 21 22
M  V30 22 1 14 23
M  V30 23 1 23 24
M  V30 24 1 24 25
M  V30 25 2 10 26
M  V30 26 1 26 6
M  V30 27 1 15 11
M  V30 28 1 22 16
M  V30 29 1 25 13
M  V30 30 1 1 27
M  V30 31 1 1 28
M  V30 32 1 1 29
M  V30 33 1 2 30
M  V30 34 1 2 31
M  V30 35 1 3 32 CFG=3
M  V30 36 1 4 33
M  V30 37 1 4 34
M  V30 38 1 4 35
M  V30 39 1 5 36
M  V30 40 1 8 37
M  V30 41 1 9 38
M  V30 42 1 17 39
M  V30 43 1 18 40
M  V30 44 1 21 41
M  V30 45 1 22 42
M  V30 46 1 24 43
M  V30 47 1 24 44
M  V30 48 1 25 45
M  V30 49 1 25 46
M  V30 END BOND
M  V30 END CTAB
M  END
>  <Dataset>  (93) 
ChEMBL_Kinases

>  <Ligand_Instance>  (93) 
nan

>  <PDB_ID>  (93) 
nan

>  <Standardized_SMILES>  (93) 
CC[C@@H](C)Nc1nccc(-c2nn3c(c2-c2ccc(F)cc2)OCC3)n1

>  <Name>  (93) 
nan

>  <Pocket>  (93) 
nan

>  <ATP_Site>  (93) 
nan

>  <Peripheral>  (93) 
nan

>  <Num_H_Atoms_ProtBoundConf>  (93) 
nan

>  <Num_Resolved_Atoms>  (93) 
nan

>  <Num_Not_Resolved_Atoms>  (93) 
nan

$$$$
CHEMBL4754015
     RDKit          3D

  0  0  0  0  0  0  0  0  0  0999 V3000
M  V30 BEGIN CTAB
M  V30 COUNTS 32 35 0 0 0
M  V30 BEGIN ATOM
M  V30 1 C -1.292083 -5.705252 4.404674 0
M  V30 2 C -1.328598 -4.686274 3.744011 0
M  V30 3 C -1.395126 -3.482992 2.970773 0
M  V30 4 N -0.328743 -2.993119 2.360836 0
M  V30 5 C -0.283532 -1.876921 1.614728 0
M  V30 6 N 0.935133 -1.469543 1.017930 0
M  V30 7 C 1.159150 -0.329325 0.207890 0
M  V30 8 C 0.215648 0.605441 -0.151745 0
M  V30 9 C 0.432661 1.715280 -0.939913 0
M  V30 10 C 1.712277 1.913469 -1.415801 0
M  V30 11 C 2.701141 1.009673 -1.088773 0
M  V30 12 C 2.417115 -0.080253 -0.295601 0
M  V30 13 C 3.999809 1.433506 -1.718146 0
M  V30 14 C 3.614843 2.669878 -2.426873 0
M  V30 15 O 4.345156 3.433683 -3.126190 0
M  V30 16 N 2.232383 2.951413 -2.238550 0
M  V30 17 N -1.460914 -1.277598 1.538474 0
M  V30 18 C -2.609354 -1.665828 2.103729 0
M  V30 19 N -3.863620 -1.126896 2.087941 0
M  V30 20 C -4.625757 -1.967700 2.846497 0
M  V30 21 N -3.842309 -2.985660 3.304336 0
M  V30 22 C -2.590314 -2.812467 2.852511 0
M  V30 23 H -1.244256 -6.604496 4.977138 0
M  V30 24 H 1.771618 -2.086306 1.197584 0
M  V30 25 H -0.794745 0.494679 0.193958 0
M  V30 26 H -0.349016 2.408482 -1.184455 0
M  V30 27 H 3.239709 -0.767917 -0.065739 0
M  V30 28 H 4.353427 0.681836 -2.464129 0
M  V30 29 H 4.772500 1.597266 -0.933942 0
M  V30 30 H 1.682453 3.772036 -2.629448 0
M  V30 31 H -4.179842 -0.252596 1.598434 0
M  V30 32 H -5.698927 -1.859796 3.065237 0
M  V30 END ATOM
M  V30 BEGIN BOND
M  V30 1 3 1 2
M  V30 2 1 2 3
M  V30 3 2 3 4
M  V30 4 1 4 5
M  V30 5 1 5 6
M  V30 6 1 6 7
M  V30 7 2 7 8
M  V30 8 1 8 9
M  V30 9 2 9 10
M  V30 10 1 10 11
M  V30 11 2 11 12
M  V30 12 1 11 13
M  V30 13 1 13 14
M  V30 14 2 14 15
M  V30 15 1 14 16
M  V30 16 2 5 17
M  V30 17 1 17 18
M  V30 18 1 18 19
M  V30 19 1 19 20
M  V30 20 2 20 21
M  V30 21 1 21 22
M  V30 22 1 22 3
M  V30 23 1 12 7
M  V30 24 2 22 18
M  V30 25 1 16 10
M  V30 26 1 1 23
M  V30 27 1 6 24
M  V30 28 1 8 25
M  V30 29 1 9 26
M  V30 30 1 12 27
M  V30 31 1 13 28
M  V30 32 1 13 29
M  V30 33 1 16 30
M  V30 34 1 19 31
M  V30 35 1 20 32
M  V30 END BOND
M  V30 END CTAB
M  END
>  <Dataset>  (94) 
ChEMBL_Kinases

>  <Ligand_Instance>  (94) 
nan

>  <PDB_ID>  (94) 
nan

>  <Standardized_SMILES>  (94) 
C#Cc1nc(Nc2ccc3c(c2)CC(=O)N3)nc2[nH]cnc12

>  <Name>  (94) 
nan

>  <Pocket>  (94) 
nan

>  <ATP_Site>  (94) 
nan

>  <Peripheral>  (94) 
nan

>  <Num_H_Atoms_ProtBoundConf>  (94) 
nan

>  <Num_Resolved_Atoms>  (94) 
nan

>  <Num_Not_Resolved_Atoms>  (94) 
nan

$$$$
CHEMBL440560
     RDKit          3D

  0  0  0  0  0  0  0  0  0  0999 V3000
M  V30 BEGIN CTAB
M  V30 COUNTS 63 68 0 0 0
M  V30 BEGIN ATOM
M  V30 1 O 3.288281 -2.156558 7.058264 0
M  V30 2 C 3.026161 -1.938361 5.845577 0
M  V30 3 C 3.830275 -2.542116 4.879656 0
M  V30 4 N 3.586310 -2.336362 3.570936 0
M  V30 5 C 2.572483 -1.552177 3.155726 0
M  V30 6 C 2.303890 -1.326660 1.732878 0
M  V30 7 C 2.410739 -0.025195 1.286674 0
M  V30 8 C 2.168861 0.239276 -0.043183 0
M  V30 9 C 1.822053 -0.711321 -0.980581 0
M  V30 10 C 1.561811 -0.417611 -2.414038 0
M  V30 11 N 0.156553 -0.140129 -2.554343 0
M  V30 12 C -0.211291 0.984931 -1.755347 0
M  V30 13 C -1.570376 1.512136 -2.135567 0
M  V30 14 C -2.453443 0.413876 -2.767261 0
M  V30 15 N -2.870553 -0.417883 -1.727134 0
M  V30 16 C -3.679666 0.008374 -0.725713 0
M  V30 17 O -4.176184 1.176705 -0.563932 0
M  V30 18 N -3.904048 -0.987520 0.107663 0
M  V30 19 C -3.269322 -2.108357 -0.285973 0
M  V30 20 C -3.169067 -3.392992 0.202647 0
M  V30 21 C -2.430387 -4.344270 -0.433001 0
M  V30 22 C -1.788356 -3.957358 -1.589433 0
M  V30 23 C -1.884686 -2.677927 -2.081365 0
M  V30 24 C -2.629988 -1.709536 -1.444188 0
M  V30 25 C -1.772211 -0.011771 -3.959438 0
M  V30 26 C -0.256732 0.013845 -3.931896 0
M  V30 27 C 1.720686 -2.019587 -0.503598 0
M  V30 28 C 1.954600 -2.329004 0.821696 0
M  V30 29 C 1.771694 -0.950735 4.104869 0
M  V30 30 C 0.659356 -0.090713 3.775700 0
M  V30 31 C 0.861220 1.192540 4.289658 0
M  V30 32 C -0.083432 2.207071 4.100031 0
M  V30 33 C -1.233423 1.927485 3.391151 0
M  V30 34 C -1.429467 0.660040 2.885336 0
M  V30 35 C -0.501756 -0.336187 3.071575 0
M  V30 36 N 2.010308 -1.152630 5.432199 0
M  V30 37 H 4.642345 -3.170406 5.225358 0
M  V30 38 H 2.678436 0.771876 1.964713 0
M  V30 39 H 2.261922 1.266189 -0.356791 0
M  V30 40 H 2.218569 0.419953 -2.727469 0
M  V30 41 H 1.811581 -1.332690 -2.991999 0
M  V30 42 H 0.493094 1.848244 -1.864198 0
M  V30 43 H -0.164751 0.685635 -0.685418 0
M  V30 44 H -2.043161 1.848192 -1.192395 0
M  V30 45 H -1.504923 2.402397 -2.807847 0
M  V30 46 H -3.368467 1.018629 -3.071723 0
M  V30 47 H -4.493399 -0.938519 0.967398 0
M  V30 48 H -3.683299 -3.675395 1.115232 0
M  V30 49 H -2.301164 -5.371257 -0.116068 0
M  V30 50 H -1.188562 -4.684213 -2.128445 0
M  V30 51 H -1.368420 -2.444772 -2.971857 0
M  V30 52 H -2.188525 -0.880235 -4.537075 0
M  V30 53 H -1.988695 0.805211 -4.731698 0
M  V30 54 H 0.221347 -0.753868 -4.546735 0
M  V30 55 H 0.187199 0.974003 -4.266190 0
M  V30 56 H 1.454157 -2.847045 -1.154477 0
M  V30 57 H 1.881745 -3.342015 1.217560 0
M  V30 58 H 1.729332 1.542994 4.868562 0
M  V30 59 H 0.044659 3.209053 4.485371 0
M  V30 60 H -1.959440 2.708571 3.245820 0
M  V30 61 H -2.313401 0.391779 2.323429 0
M  V30 62 H -0.546094 -1.361160 2.723966 0
M  V30 63 H 1.441555 -0.727037 6.217025 0
M  V30 END ATOM
M  V30 BEGIN BOND
M  V30 1 2 1 2
M  V30 2 1 2 3
M  V30 3 2 3 4
M  V30 4 1 4 5
M  V30 5 1 5 6
M  V30 6 2 6 7
M  V30 7 1 7 8
M  V30 8 2 8 9
M  V30 9 1 9 10
M  V30 10 1 10 11
M  V30 11 1 11 12
M  V30 12 1 12 13
M  V30 13 1 13 14
M  V30 14 1 14 15
M  V30 15 1 15 16
M  V30 16 2 16 17
M  V30 17 1 16 18
M  V30 18 1 18 19
M  V30 19 2 19 20
M  V30 20 1 20 21
M  V30 21 2 21 22
M  V30 22 1 22 23
M  V30 23 2 23 24
M  V30 24 1 14 25
M  V30 25 1 25 26
M  V30 26 1 9 27
M  V30 27 2 27 28
M  V30 28 2 5 29
M  V30 29 1 29 30
M  V30 30 2 30 31
M  V30 31 1 31 32
M  V30 32 2 32 33
M  V30 33 1 33 34
M  V30 34 2 34 35
M  V30 35 1 29 36
M  V30 36 1 36 2
M  V30 37 1 28 6
M  V30 38 1 35 30
M  V30 39 1 26 11
M  V30 40 1 24 15
M  V30 41 1 24 19
M  V30 42 1 3 37
M  V30 43 1 7 38
M  V30 44 1 8 39
M  V30 45 1 10 40
M  V30 46 1 10 41
M  V30 47 1 12 42
M  V30 48 1 12 43
M  V30 49 1 13 44
M  V30 50 1 13 45
M  V30 51 1 14 46
M  V30 52 1 18 47
M  V30 53 1 20 48
M  V30 54 1 21 49
M  V30 55 1 22 50
M  V30 56 1 23 51
M  V30 57 1 25 52
M  V30 58 1 25 53
M  V30 59 1 26 54
M  V30 60 1 26 55
M  V30 61 1 27 56
M  V30 62 1 28 57
M  V30 63 1 31 58
M  V30 64 1 32 59
M  V30 65 1 33 60
M  V30 66 1 34 61
M  V30 67 1 35 62
M  V30 68 1 36 63
M  V30 END BOND
M  V30 END CTAB
M  END
>  <Dataset>  (95) 
ChEMBL_Kinases

>  <Ligand_Instance>  (95) 
nan

>  <PDB_ID>  (95) 
nan

>  <Standardized_SMILES>  (95) 
O=c1cnc(-c2ccc(CN3CCC(n4c(=O)[nH]c5ccccc54)CC3)cc2)c(-c2ccccc2)[nH]1

>  <Name>  (95) 
nan

>  <Pocket>  (95) 
nan

>  <ATP_Site>  (95) 
nan

>  <Peripheral>  (95) 
nan

>  <Num_H_Atoms_ProtBoundConf>  (95) 
nan

>  <Num_Resolved_Atoms>  (95) 
nan

>  <Num_Not_Resolved_Atoms>  (95) 
nan

$$$$
CHEMBL440406
     RDKit          3D

  0  0  0  0  0  0  0  0  0  0999 V3000
M  V30 BEGIN CTAB
M  V30 COUNTS 48 51 0 0 0
M  V30 BEGIN ATOM
M  V30 1 C 3.712978 -6.696373 -1.874378 0
M  V30 2 N 3.790029 -5.339067 -1.360903 0
M  V30 3 C 2.807701 -4.353316 -1.671438 0
M  V30 4 O 1.921891 -4.831771 -2.417532 0
M  V30 5 C 2.993942 -3.032142 -1.098409 0
M  V30 6 C 4.014794 -2.600518 -0.281337 0
M  V30 7 C 4.009979 -1.299258 0.160154 0
M  V30 8 C 2.993727 -0.449474 -0.215797 0
M  V30 9 C 3.150680 0.928066 0.354715 0
M  V30 10 C 1.942067 -0.856429 -1.044195 0
M  V30 11 N 1.016078 0.139837 -1.329164 0
M  V30 12 C 0.082355 0.975808 -0.711625 0
M  V30 13 N -0.529724 1.907649 -1.502588 0
M  V30 14 C -1.442005 2.750061 -1.005035 0
M  V30 15 N -1.787678 2.707553 0.292588 0
M  V30 16 C -1.234863 1.822052 1.139068 0
M  V30 17 C -0.299527 0.966614 0.603781 0
M  V30 18 C 0.101115 0.176823 1.637345 0
M  V30 19 N -0.576529 0.560491 2.733824 0
M  V30 20 N -1.392136 1.558710 2.448578 0
M  V30 21 C -2.280472 2.233001 3.376300 0
M  V30 22 C -3.626860 1.609408 3.449541 0
M  V30 23 C -4.603437 2.074467 2.565412 0
M  V30 24 C -5.859457 1.508209 2.617958 0
M  V30 25 C -6.195710 0.504652 3.502851 0
M  V30 26 C -5.209138 0.064655 4.365917 0
M  V30 27 C -3.917739 0.603303 4.355907 0
M  V30 28 C 1.973387 -2.184235 -1.477838 0
M  V30 29 H 4.652733 -6.925111 -2.422088 0
M  V30 30 H 2.860032 -6.841549 -2.546077 0
M  V30 31 H 3.629761 -7.437277 -1.030433 0
M  V30 32 H 4.637828 -5.226778 -0.764533 0
M  V30 33 H 4.764212 -3.337731 -0.041878 0
M  V30 34 H 4.840029 -1.029854 0.796393 0
M  V30 35 H 2.470774 1.652901 -0.123626 0
M  V30 36 H 4.193006 1.250015 0.233610 0
M  V30 37 H 2.926311 0.850477 1.438143 0
M  V30 38 H 1.167001 0.179283 -2.360283 0
M  V30 39 H -1.900802 3.475070 -1.678570 0
M  V30 40 H 0.815584 -0.609858 1.603608 0
M  V30 41 H -1.775779 2.207707 4.380297 0
M  V30 42 H -2.418993 3.297721 3.047636 0
M  V30 43 H -4.350936 2.858046 1.870694 0
M  V30 44 H -6.654307 1.839801 1.947367 0
M  V30 45 H -7.164914 0.071343 3.540722 0
M  V30 46 H -5.462448 -0.724650 5.067355 0
M  V30 47 H -3.164661 0.246481 5.035285 0
M  V30 48 H 1.124147 -2.412026 -2.112591 0
M  V30 END ATOM
M  V30 BEGIN BOND
M  V30 1 1 1 2
M  V30 2 1 2 3
M  V30 3 2 3 4
M  V30 4 1 3 5
M  V30 5 2 5 6
M  V30 6 1 6 7
M  V30 7 2 7 8
M  V30 8 1 8 9
M  V30 9 1 8 10
M  V30 10 1 10 11
M  V30 11 1 11 12
M  V30 12 2 12 13
M  V30 13 1 13 14
M  V30 14 2 14 15
M  V30 15 1 15 16
M  V30 16 2 16 17
M  V30 17 1 17 18
M  V30 18 2 18 19
M  V30 19 1 19 20
M  V30 20 1 20 21
M  V30 21 1 21 22
M  V30 22 2 22 23
M  V30 23 1 23 24
M  V30 24 2 24 25
M  V30 25 1 25 26
M  V30 26 2 26 27
M  V30 27 2 10 28
M  V30 28 1 28 5
M  V30 29 1 17 12
M  V30 30 1 27 22
M  V30 31 1 20 16
M  V30 32 1 1 29
M  V30 33 1 1 30
M  V30 34 1 1 31
M  V30 35 1 2 32
M  V30 36 1 6 33
M  V30 37 1 7 34
M  V30 38 1 9 35
M  V30 39 1 9 36
M  V30 40 1 9 37
M  V30 41 1 11 38
M  V30 42 1 14 39
M  V30 43 1 18 40
M  V30 44 1 21 41
M  V30 45 1 21 42
M  V30 46 1 23 43
M  V30 47 1 24 44
M  V30 48 1 25 45
M  V30 49 1 26 46
M  V30 50 1 27 47
M  V30 51 1 28 48
M  V30 END BOND
M  V30 END CTAB
M  END
>  <Dataset>  (96) 
ChEMBL_Kinases

>  <Ligand_Instance>  (96) 
nan

>  <PDB_ID>  (96) 
nan

>  <Standardized_SMILES>  (96) 
CNC(=O)c1ccc(C)c(Nc2ncnc3c2cnn3Cc2ccccc2)c1

>  <Name>  (96) 
nan

>  <Pocket>  (96) 
nan

>  <ATP_Site>  (96) 
nan

>  <Peripheral>  (96) 
nan

>  <Num_H_Atoms_ProtBoundConf>  (96) 
nan

>  <Num_Resolved_Atoms>  (96) 
nan

>  <Num_Not_Resolved_Atoms>  (96) 
nan

$$$$
CHEMBL440404
     RDKit          3D

  0  0  0  0  0  0  0  0  0  0999 V3000
M  V30 BEGIN CTAB
M  V30 COUNTS 45 49 0 0 0
M  V30 BEGIN ATOM
M  V30 1 C 0.645968 -7.536710 2.201258 0
M  V30 2 C 0.360369 -7.751757 0.858586 0
M  V30 3 C 0.441621 -6.681829 -0.009352 0
M  V30 4 C 0.794168 -5.419099 0.412357 0
M  V30 5 O 0.808466 -4.508513 -0.635357 0
M  V30 6 C 1.135755 -3.172774 -0.446946 0
M  V30 7 C 2.449146 -2.770903 -0.559386 0
M  V30 8 C 2.772800 -1.444812 -0.372159 0
M  V30 9 C 1.857469 -0.463127 -0.072785 0
M  V30 10 C 2.225075 0.929788 0.120017 0
M  V30 11 C 3.529470 1.349645 0.011915 0
M  V30 12 C 3.869340 2.671047 0.196034 0
M  V30 13 N 2.897743 3.545687 0.484529 0
M  V30 14 C 1.613345 3.183080 0.599875 0
M  V30 15 N 0.663433 4.184444 0.907595 0
M  V30 16 C -0.736170 4.110665 1.089607 0
M  V30 17 C -1.557746 5.174492 1.390709 0
M  V30 18 C -2.908629 5.078144 1.561977 0
M  V30 19 C -3.564001 3.869449 1.441189 0
M  V30 20 N -4.855798 3.665982 1.585438 0
M  V30 21 C -5.407201 2.597915 1.474851 0
M  V30 22 S -3.913534 1.455276 1.066297 0
M  V30 23 C -2.791464 2.813005 1.148214 0
M  V30 24 C -1.399202 2.910421 0.971369 0
M  V30 25 N 1.342072 1.886494 0.410548 0
M  V30 26 C 0.559706 -0.906091 0.030282 0
M  V30 27 C 0.177895 -2.230667 -0.148583 0
M  V30 28 C 1.075143 -5.220591 1.749458 0
M  V30 29 C 0.999769 -6.273507 2.629434 0
M  V30 30 H 0.610879 -8.313964 2.966653 0
M  V30 31 H 0.089827 -8.754972 0.577332 0
M  V30 32 H 0.196773 -6.971744 -1.029668 0
M  V30 33 H 3.176396 -3.528497 -0.793320 0
M  V30 34 H 3.815838 -1.232119 -0.480099 0
M  V30 35 H 4.342871 0.698287 -0.215442 0
M  V30 36 H 4.893146 3.016618 0.113991 0
M  V30 37 H 1.017838 5.178759 1.032413 0
M  V30 38 H -1.051409 6.150370 1.491405 0
M  V30 39 H -3.408141 6.019324 1.796693 0
M  V30 40 H -6.486849 2.385331 1.587946 0
M  V30 41 H -0.956810 1.978083 0.746155 0
M  V30 42 H -0.241797 -0.248043 0.257119 0
M  V30 43 H -0.832134 -2.569151 -0.067269 0
M  V30 44 H 1.341826 -4.189888 1.974870 0
M  V30 45 H 1.235569 -6.036550 3.664395 0
M  V30 END ATOM
M  V30 BEGIN BOND
M  V30 1 2 1 2
M  V30 2 1 2 3
M  V30 3 2 3 4
M  V30 4 1 4 5
M  V30 5 1 5 6
M  V30 6 2 6 7
M  V30 7 1 7 8
M  V30 8 2 8 9
M  V30 9 1 9 10
M  V30 10 2 10 11
M  V30 11 1 11 12
M  V30 12 2 12 13
M  V30 13 1 13 14
M  V30 14 1 14 15
M  V30 15 1 15 16
M  V30 16 2 16 17
M  V30 17 1 17 18
M  V30 18 2 18 19
M  V30 19 1 19 20
M  V30 20 2 20 21
M  V30 21 1 21 22
M  V30 22 1 22 23
M  V30 23 2 23 24
M  V30 24 2 14 25
M  V30 25 1 9 26
M  V30 26 2 26 27
M  V30 27 1 4 28
M  V30 28 2 28 29
M  V30 29 1 29 1
M  V30 30 1 27 6
M  V30 31 1 25 10
M  V30 32 1 24 16
M  V30 33 1 23 19
M  V30 34 1 1 30
M  V30 35 1 2 31
M  V30 36 1 3 32
M  V30 37 1 7 33
M  V30 38 1 8 34
M  V30 39 1 11 35
M  V30 40 1 12 36
M  V30 41 1 15 37
M  V30 42 1 17 38
M  V30 43 1 18 39
M  V30 44 1 21 40
M  V30 45 1 24 41
M  V30 46 1 26 42
M  V30 47 1 27 43
M  V30 48 1 28 44
M  V30 49 1 29 45
M  V30 END BOND
M  V30 END CTAB
M  END
>  <Dataset>  (97) 
ChEMBL_Kinases

>  <Ligand_Instance>  (97) 
nan

>  <PDB_ID>  (97) 
nan

>  <Standardized_SMILES>  (97) 
c1ccc(Oc2ccc(-c3ccnc(Nc4ccc5ncsc5c4)n3)cc2)cc1

>  <Name>  (97) 
nan

>  <Pocket>  (97) 
nan

>  <ATP_Site>  (97) 
nan

>  <Peripheral>  (97) 
nan

>  <Num_H_Atoms_ProtBoundConf>  (97) 
nan

>  <Num_Resolved_Atoms>  (97) 
nan

>  <Num_Not_Resolved_Atoms>  (97) 
nan

$$$$
CHEMBL4754058
     RDKit          3D

  0  0  0  0  0  0  0  0  0  0999 V3000
M  V30 BEGIN CTAB
M  V30 COUNTS 47 50 0 0 0
M  V30 BEGIN ATOM
M  V30 1 C 4.294703 -3.699240 1.675508 0
M  V30 2 S 5.867997 -3.096993 2.223137 0
M  V30 3 O 6.364847 -3.929885 3.385446 0
M  V30 4 O 6.907274 -3.146496 1.168387 0
M  V30 5 N 5.662034 -1.448967 2.755554 0
M  V30 6 C 5.217795 -0.522246 1.770028 0
M  V30 7 C 5.676005 -0.390695 0.470331 0
M  V30 8 C 5.119343 0.574381 -0.347083 0
M  V30 9 C 4.110329 1.429712 0.075722 0
M  V30 10 C 3.658245 1.296165 1.366058 0
M  V30 11 C 2.571903 2.195027 1.867723 0
M  V30 12 C 1.260770 1.516001 1.575230 0
M  V30 13 O 2.045987 0.653526 1.104058 0
M  V30 14 N 0.022640 2.103907 1.925016 0
M  V30 15 C -1.165599 1.343457 1.586255 0
M  V30 16 C -1.851083 0.428801 2.269363 0
M  V30 17 C -2.946418 -0.156047 1.742693 0
M  V30 18 C -3.328519 0.232646 0.464914 0
M  V30 19 C -4.374188 -0.066948 -0.515396 0
M  V30 20 C -4.439018 0.549841 -1.749258 0
M  V30 21 N -5.508390 0.048533 -2.391629 0
M  V30 22 C -6.167069 -0.869475 -1.662434 0
M  V30 23 N -7.249999 -1.613165 -1.877084 0
M  V30 24 C -7.678318 -2.466982 -0.928561 0
M  V30 25 C -6.975455 -2.549011 0.253455 0
M  V30 26 C -5.854016 -1.778579 0.475184 0
M  V30 27 C -5.425684 -0.910087 -0.500405 0
M  V30 28 S -2.052195 1.453188 0.083558 0
M  V30 29 C 4.215130 0.324041 2.197989 0
M  V30 30 H 4.215398 -4.789207 1.958734 0
M  V30 31 H 4.175996 -3.574828 0.574153 0
M  V30 32 H 3.448615 -3.165382 2.128697 0
M  V30 33 H 5.846133 -1.131989 3.733267 0
M  V30 34 H 6.452399 -1.071517 0.193431 0
M  V30 35 H 5.504117 0.654184 -1.373138 0
M  V30 36 H 3.694933 2.183784 -0.606407 0
M  V30 37 H 2.639803 3.152666 1.327319 0
M  V30 38 H 2.721113 2.323973 2.943915 0
M  V30 39 H 0.100116 3.011954 2.384081 0
M  V30 40 H -1.480330 0.181951 3.268730 0
M  V30 41 H -3.536192 -0.898900 2.249060 0
M  V30 42 H -3.831350 1.298012 -2.239642 0
M  V30 43 H -5.844841 0.306933 -3.361981 0
M  V30 44 H -8.561917 -3.060967 -1.127390 0
M  V30 45 H -7.343553 -3.234451 0.979333 0
M  V30 46 H -5.387959 -1.925775 1.430318 0
M  V30 47 H 3.798555 0.290877 3.195360 0
M  V30 END ATOM
M  V30 BEGIN BOND
M  V30 1 1 1 2
M  V30 2 2 2 3
M  V30 3 2 2 4
M  V30 4 1 2 5
M  V30 5 1 5 6
M  V30 6 2 6 7
M  V30 7 1 7 8
M  V30 8 2 8 9
M  V30 9 1 9 10
M  V30 10 1 10 11
M  V30 11 1 11 12
M  V30 12 2 12 13
M  V30 13 1 12 14
M  V30 14 1 14 15
M  V30 15 2 15 16
M  V30 16 1 16 17
M  V30 17 2 17 18
M  V30 18 1 18 19
M  V30 19 2 19 20
M  V30 20 1 20 21
M  V30 21 1 21 22
M  V30 22 2 22 23
M  V30 23 1 23 24
M  V30 24 2 24 25
M  V30 25 1 25 26
M  V30 26 2 26 27
M  V30 27 1 18 28
M  V30 28 2 10 29
M  V30 29 1 29 6
M  V30 30 1 28 15
M  V30 31 1 27 19
M  V30 32 1 27 22
M  V30 33 1 1 30
M  V30 34 1 1 31
M  V30 35 1 1 32
M  V30 36 1 5 33
M  V30 37 1 7 34
M  V30 38 1 8 35
M  V30 39 1 9 36
M  V30 40 1 11 37
M  V30 41 1 11 38
M  V30 42 1 14 39
M  V30 43 1 16 40
M  V30 44 1 17 41
M  V30 45 1 20 42
M  V30 46 1 21 43
M  V30 47 1 24 44
M  V30 48 1 25 45
M  V30 49 1 26 46
M  V30 50 1 29 47
M  V30 END BOND
M  V30 END CTAB
M  END
>  <Dataset>  (98) 
ChEMBL_Kinases

>  <Ligand_Instance>  (98) 
nan

>  <PDB_ID>  (98) 
nan

>  <Standardized_SMILES>  (98) 
CS(=O)(=O)Nc1cccc(CC(=O)Nc2ccc(-c3c[nH]c4ncccc34)s2)c1

>  <Name>  (98) 
nan

>  <Pocket>  (98) 
nan

>  <ATP_Site>  (98) 
nan

>  <Peripheral>  (98) 
nan

>  <Num_H_Atoms_ProtBoundConf>  (98) 
nan

>  <Num_Resolved_Atoms>  (98) 
nan

>  <Num_Not_Resolved_Atoms>  (98) 
nan

$$$$
CHEMBL4754153
     RDKit          3D

  0  0  0  0  0  0  0  0  0  0999 V3000
M  V30 BEGIN CTAB
M  V30 COUNTS 43 45 0 0 0
M  V30 BEGIN ATOM
M  V30 1 C -1.984146 -6.909571 1.407373 0
M  V30 2 C -1.824677 -5.400937 1.461543 0
M  V30 3 C -0.893398 -4.988672 0.360871 0
M  V30 4 N -0.649301 -3.567181 0.293945 0
M  V30 5 C 0.384084 -3.075266 1.002662 0
M  V30 6 O 1.144154 -3.775956 1.714605 0
M  V30 7 C 0.582860 -1.714127 0.911713 0
M  V30 8 C 1.627030 -1.170624 1.619151 0
M  V30 9 C 1.837980 0.190788 1.537206 0
M  V30 10 C 1.066228 1.054518 0.787018 0
M  V30 11 C 1.307652 2.491724 0.714505 0
M  V30 12 O 0.579808 3.257129 0.017388 0
M  V30 13 N 2.360463 3.110704 1.412784 0
M  V30 14 C 2.626337 4.528626 1.362521 0
M  V30 15 C 2.422792 5.154790 2.727536 0
M  V30 16 C 3.992704 4.875814 0.874461 0
M  V30 17 C 0.015047 0.484758 0.078923 0
M  V30 18 C -0.201412 -0.870528 0.155498 0
M  V30 19 N -1.204286 -1.451031 -0.513776 0
M  V30 20 C -2.135887 -0.951405 -1.321827 0
M  V30 21 S -2.455057 0.555520 -1.838237 0
M  V30 22 N -2.948398 -1.920191 -1.774614 0
M  V30 23 N -2.516635 -3.072060 -1.235021 0
M  V30 24 C -1.436137 -2.773100 -0.455386 0
M  V30 25 H -1.259718 -7.403117 2.086675 0
M  V30 26 H -1.769116 -7.259447 0.375058 0
M  V30 27 H -3.008417 -7.214033 1.640369 0
M  V30 28 H -2.793627 -4.902618 1.381556 0
M  V30 29 H -1.369643 -5.154974 2.435506 0
M  V30 30 H 0.054362 -5.538652 0.506957 0
M  V30 31 H -1.281755 -5.280144 -0.636189 0
M  V30 32 H 2.266456 -1.792874 2.224075 0
M  V30 33 H 2.664215 0.572084 2.105705 0
M  V30 34 H 3.019721 2.572918 2.016202 0
M  V30 35 H 1.859659 4.970731 0.693387 0
M  V30 36 H 2.465585 4.359298 3.524981 0
M  V30 37 H 3.234319 5.858690 2.964765 0
M  V30 38 H 1.429417 5.652927 2.806367 0
M  V30 39 H 4.651397 5.011542 1.767875 0
M  V30 40 H 4.421315 4.048653 0.261208 0
M  V30 41 H 4.039679 5.840717 0.335430 0
M  V30 42 H -0.570416 1.172690 -0.496030 0
M  V30 43 H -3.776266 -1.957492 -2.405947 0
M  V30 END ATOM
M  V30 BEGIN BOND
M  V30 1 1 1 2
M  V30 2 1 2 3
M  V30 3 1 3 4
M  V30 4 1 4 5
M  V30 5 2 5 6
M  V30 6 1 5 7
M  V30 7 2 7 8
M  V30 8 1 8 9
M  V30 9 2 9 10
M  V30 10 1 10 11
M  V30 11 2 11 12
M  V30 12 1 11 13
M  V30 13 1 13 14
M  V30 14 1 14 15
M  V30 15 1 14 16
M  V30 16 1 10 17
M  V30 17 2 17 18
M  V30 18 1 18 19
M  V30 19 1 19 20
M  V30 20 2 20 21
M  V30 21 1 20 22
M  V30 22 1 22 23
M  V30 23 2 23 24
M  V30 24 1 24 4
M  V30 25 1 18 7
M  V30 26 1 24 19
M  V30 27 1 1 25
M  V30 28 1 1 26
M  V30 29 1 1 27
M  V30 30 1 2 28
M  V30 31 1 2 29
M  V30 32 1 3 30
M  V30 33 1 3 31
M  V30 34 1 8 32
M  V30 35 1 9 33
M  V30 36 1 13 34
M  V30 37 1 14 35
M  V30 38 1 15 36
M  V30 39 1 15 37
M  V30 40 1 15 38
M  V30 41 1 16 39
M  V30 42 1 16 40
M  V30 43 1 16 41
M  V30 44 1 17 42
M  V30 45 1 22 43
M  V30 END BOND
M  V30 END CTAB
M  END
>  <Dataset>  (99) 
ChEMBL_Kinases

>  <Ligand_Instance>  (99) 
nan

>  <PDB_ID>  (99) 
nan

>  <Standardized_SMILES>  (99) 
CCCn1c(=O)c2ccc(C(=O)NC(C)C)cc2n2c(=S)[nH]nc12

>  <Name>  (99) 
nan

>  <Pocket>  (99) 
nan

>  <ATP_Site>  (99) 
nan

>  <Peripheral>  (99) 
nan

>  <Num_H_Atoms_ProtBoundConf>  (99) 
nan

>  <Num_Resolved_Atoms>  (99) 
nan

>  <Num_Not_Resolved_Atoms>  (99) 
nan

$$$$
CHEMBL4754192
     RDKit          3D

  0  0  0  0  0  0  0  0  0  0999 V3000
M  V30 BEGIN CTAB
M  V30 COUNTS 82 88 0 0 0
M  V30 BEGIN ATOM
M  V30 1 O 0.112370 1.453958 4.071291 0
M  V30 2 C -0.140156 0.373239 3.494267 0
M  V30 3 N -1.433285 -0.211948 3.497009 0
M  V30 4 C -2.527316 0.446892 4.186768 0
M  V30 5 C -3.754720 -0.411053 4.010272 0
M  V30 6 C -4.156080 -0.620459 2.586385 0
M  V30 7 N -4.458064 0.581391 1.877222 0
M  V30 8 C -4.867633 0.854750 0.544625 0
M  V30 9 C -6.187535 0.910610 0.179826 0
M  V30 10 C -6.536832 1.179878 -1.124748 0
M  V30 11 N -5.594010 1.387701 -2.040981 0
M  V30 12 C -4.285267 1.344837 -1.740536 0
M  V30 13 C -3.416761 1.574373 -2.773796 0
M  V30 14 C -2.062812 1.528098 -2.462366 0
M  V30 15 C -1.613961 1.264679 -1.179011 0
M  V30 16 C -2.546626 1.037884 -0.161966 0
M  V30 17 C -3.904446 1.075871 -0.434442 0
M  V30 18 C -8.028316 1.194127 -1.309168 0
M  V30 19 C -8.529725 -0.152360 -0.813252 0
M  V30 20 C -8.329186 -0.281168 0.668020 0
M  V30 21 C -7.277053 0.678404 1.189639 0
M  V30 22 C 0.929208 -0.390268 2.745035 0
M  V30 23 S 0.699508 -1.936228 1.883644 0
M  V30 24 C 2.489716 -2.006032 1.344326 0
M  V30 25 C 2.863980 -3.206988 0.519252 0
M  V30 26 C 2.000856 -4.194739 0.182820 0
M  V30 27 C 2.380416 -5.276412 -0.583400 0
M  V30 28 N 3.689970 -5.270910 -0.973742 0
M  V30 29 C 4.518654 -4.288593 -0.630505 0
M  V30 30 N 5.858406 -4.453477 -1.141220 0
M  V30 31 C 5.802327 -3.794710 -2.394036 0
M  V30 32 O 4.747058 -3.227489 -2.842172 0
M  V30 33 C 6.773752 -3.538556 -3.503775 0
M  V30 34 C 6.175955 -2.758482 -4.647977 0
M  V30 35 C 7.294892 -1.762333 -4.522111 0
M  V30 36 C 7.775098 -2.459319 -3.273568 0
M  V30 37 C 4.183273 -3.196509 0.129398 0
M  V30 38 N 2.869521 -1.038185 1.818589 0
M  V30 39 C 2.247437 -0.137689 2.530468 0
M  V30 40 O 2.776030 1.041521 3.090507 0
M  V30 41 C 4.132488 1.409373 2.936499 0
M  V30 42 C 4.499769 1.583837 1.474732 0
M  V30 43 C 3.759058 2.607402 0.707217 0
M  V30 44 C 5.226616 2.849695 1.076390 0
M  V30 45 H -1.579446 -1.134730 2.987861 0
M  V30 46 H -2.314819 0.444811 5.296223 0
M  V30 47 H -2.679273 1.488731 3.918476 0
M  V30 48 H -3.613915 -1.410711 4.475849 0
M  V30 49 H -4.619077 0.026660 4.577907 0
M  V30 50 H -5.056787 -1.301797 2.623515 0
M  V30 51 H -3.389904 -1.208372 2.065904 0
M  V30 52 H -4.416189 1.540785 2.283349 0
M  V30 53 H -3.744970 1.782232 -3.783360 0
M  V30 54 H -1.296135 1.695267 -3.206221 0
M  V30 55 H -0.534844 1.237283 -0.972775 0
M  V30 56 H -2.215609 0.833664 0.829731 0
M  V30 57 H -8.279023 1.291455 -2.369086 0
M  V30 58 H -8.488380 1.994829 -0.698859 0
M  V30 59 H -9.597888 -0.243051 -1.066521 0
M  V30 60 H -7.920927 -0.951545 -1.316029 0
M  V30 61 H -9.281591 -0.067540 1.207032 0
M  V30 62 H -8.012884 -1.316540 0.894534 0
M  V30 63 H -7.724130 1.682489 1.385779 0
M  V30 64 H -6.842443 0.336990 2.135009 0
M  V30 65 H 0.977091 -4.147031 0.518859 0
M  V30 66 H 1.642476 -6.030165 -0.815402 0
M  V30 67 H 6.829456 -4.816817 -1.033037 0
M  V30 68 H 7.227251 -4.470815 -3.883662 0
M  V30 69 H 6.133059 -3.314627 -5.609921 0
M  V30 70 H 5.203352 -2.264910 -4.442647 0
M  V30 71 H 8.030209 -1.811533 -5.365084 0
M  V30 72 H 6.951275 -0.705498 -4.363161 0
M  V30 73 H 8.819990 -2.836086 -3.315730 0
M  V30 74 H 7.610833 -1.810857 -2.385320 0
M  V30 75 H 4.878263 -2.427036 0.385510 0
M  V30 76 H 4.812027 0.717560 3.461789 0
M  V30 77 H 4.243277 2.403579 3.416223 0
M  V30 78 H 4.907929 0.678857 0.945932 0
M  V30 79 H 3.487459 2.389878 -0.327954 0
M  V30 80 H 3.036386 3.240367 1.278290 0
M  V30 81 H 5.428931 3.630208 1.826539 0
M  V30 82 H 5.926015 2.830242 0.222754 0
M  V30 END ATOM
M  V30 BEGIN BOND
M  V30 1 2 1 2
M  V30 2 1 2 3
M  V30 3 1 3 4
M  V30 4 1 4 5
M  V30 5 1 5 6
M  V30 6 1 6 7
M  V30 7 1 7 8
M  V30 8 2 8 9
M  V30 9 1 9 10
M  V30 10 2 10 11
M  V30 11 1 11 12
M  V30 12 2 12 13
M  V30 13 1 13 14
M  V30 14 2 14 15
M  V30 15 1 15 16
M  V30 16 2 16 17
M  V30 17 1 10 18
M  V30 18 1 18 19
M  V30 19 1 19 20
M  V30 20 1 20 21
M  V30 21 1 2 22
M  V30 22 1 22 23
M  V30 23 1 23 24
M  V30 24 1 24 25
M  V30 25 2 25 26
M  V30 26 1 26 27
M  V30 27 2 27 28
M  V30 28 1 28 29
M  V30 29 1 29 30
M  V30 30 1 30 31
M  V30 31 2 31 32
M  V30 32 1 31 33
M  V30 33 1 33 34
M  V30 34 1 34 35
M  V30 35 1 35 36
M  V30 36 2 29 37
M  V30 37 2 24 38
M  V30 38 1 38 39
M  V30 39 1 39 40
M  V30 40 1 40 41
M  V30 41 1 41 42
M  V30 42 1 42 43
M  V30 43 1 43 44
M  V30 44 1 17 8
M  V30 45 2 39 22
M  V30 46 1 44 42
M  V30 47 1 21 9
M  V30 48 1 37 25
M  V30 49 1 17 12
M  V30 50 1 36 33
M  V30 51 1 3 45
M  V30 52 1 4 46
M  V30 53 1 4 47
M  V30 54 1 5 48
M  V30 55 1 5 49
M  V30 56 1 6 50
M  V30 57 1 6 51
M  V30 58 1 7 52
M  V30 59 1 13 53
M  V30 60 1 14 54
M  V30 61 1 15 55
M  V30 62 1 16 56
M  V30 63 1 18 57
M  V30 64 1 18 58
M  V30 65 1 19 59
M  V30 66 1 19 60
M  V30 67 1 20 61
M  V30 68 1 20 62
M  V30 69 1 21 63
M  V30 70 1 21 64
M  V30 71 1 26 65
M  V30 72 1 27 66
M  V30 73 1 30 67
M  V30 74 1 33 68
M  V30 75 1 34 69
M  V30 76 1 34 70
M  V30 77 1 35 71
M  V30 78 1 35 72
M  V30 79 1 36 73
M  V30 80 1 36 74
M  V30 81 1 37 75
M  V30 82 1 41 76
M  V30 83 1 41 77
M  V30 84 1 42 78
M  V30 85 1 43 79
M  V30 86 1 43 80
M  V30 87 1 44 81
M  V30 88 1 44 82
M  V30 END BOND
M  V30 END CTAB
M  END
>  <Dataset>  (100) 
ChEMBL_Kinases

>  <Ligand_Instance>  (100) 
nan

>  <PDB_ID>  (100) 
nan

>  <Standardized_SMILES>  (100) 
O=C(NCCCNc1c2c(nc3ccccc13)CCCC2)c1sc(-c2ccnc(NC(=O)C3CCC3)c2)nc1OCC1CC1

>  <Name>  (100) 
nan

>  <Pocket>  (100) 
nan

>  <ATP_Site>  (100) 
nan

>  <Peripheral>  (100) 
nan

>  <Num_H_Atoms_ProtBoundConf>  (100) 
nan

>  <Num_Resolved_Atoms>  (100) 
nan

>  <Num_Not_Resolved_Atoms>  (100) 
nan

$$$$
CHEMBL439321
     RDKit          3D

  0  0  0  0  0  0  0  0  0  0999 V3000
M  V30 BEGIN CTAB
M  V30 COUNTS 43 47 0 0 0
M  V30 BEGIN ATOM
M  V30 1 C 0.217253 -2.723889 3.054479 0
M  V30 2 C 0.654542 -3.217401 1.671350 0
M  V30 3 C 1.824077 -2.514013 1.253705 0
M  V30 4 N 3.116684 -2.887439 1.494566 0
M  V30 5 N 3.945844 -2.031729 0.980502 0
M  V30 6 C 3.203552 -1.077999 0.390896 0
M  V30 7 C 3.623463 0.042507 -0.288969 0
M  V30 8 C 2.700171 0.915270 -0.831159 0
M  V30 9 C 1.352288 0.636382 -0.674461 0
M  V30 10 C 0.346820 1.533763 -1.233186 0
M  V30 11 O 0.436884 1.632901 -2.556127 0
M  V30 12 C -0.494427 2.453491 -2.992408 0
M  V30 13 N -1.227783 2.919480 -1.957730 0
M  V30 14 C -0.700891 2.341796 -0.843171 0
M  V30 15 C -0.958863 2.365274 0.598798 0
M  V30 16 C -0.048855 2.828267 1.526867 0
M  V30 17 C -0.397264 2.805542 2.872257 0
M  V30 18 F 0.546545 3.273876 3.705490 0
M  V30 19 C -1.630885 2.327249 3.256919 0
M  V30 20 C -2.555852 1.859047 2.339942 0
M  V30 21 C -2.207373 1.882658 1.004789 0
M  V30 22 F -3.140841 1.416388 0.147591 0
M  V30 23 C 1.006166 -0.518969 0.027490 0
M  V30 24 N 1.898843 -1.376190 0.559869 0
M  V30 25 C -0.466215 -3.591421 0.845180 0
M  V30 26 C 0.327403 -4.783715 0.363168 0
M  V30 27 C 0.935572 -4.716294 1.775093 0
M  V30 28 H 1.041737 -2.870018 3.761868 0
M  V30 29 H -0.050087 -1.655652 2.999462 0
M  V30 30 H -0.684460 -3.303614 3.399331 0
M  V30 31 H 4.668737 0.309729 -0.441482 0
M  V30 32 H 2.995375 1.803092 -1.370552 0
M  V30 33 H -0.722051 2.773724 -4.014746 0
M  V30 34 H 0.902010 3.191884 1.175497 0
M  V30 35 H -1.823912 2.343277 4.316447 0
M  V30 36 H -3.522908 1.487525 2.679358 0
M  V30 37 H -0.043706 -0.743855 0.154267 0
M  V30 38 H -0.954835 -2.962866 0.120160 0
M  V30 39 H -1.278899 -4.027084 1.493397 0
M  V30 40 H 1.136586 -4.611103 -0.342645 0
M  V30 41 H -0.244573 -5.703153 0.189758 0
M  V30 42 H 1.997466 -4.977910 1.815167 0
M  V30 43 H 0.251628 -5.228187 2.461766 0
M  V30 END ATOM
M  V30 BEGIN BOND
M  V30 1 1 1 2
M  V30 2 1 2 3
M  V30 3 2 3 4
M  V30 4 1 4 5
M  V30 5 2 5 6
M  V30 6 1 6 7
M  V30 7 2 7 8
M  V30 8 1 8 9
M  V30 9 1 9 10
M  V30 10 1 10 11
M  V30 11 1 11 12
M  V30 12 2 12 13
M  V30 13 1 13 14
M  V30 14 1 14 15
M  V30 15 2 15 16
M  V30 16 1 16 17
M  V30 17 1 17 18
M  V30 18 2 17 19
M  V30 19 1 19 20
M  V30 20 2 20 21
M  V30 21 1 21 22
M  V30 22 2 9 23
M  V30 23 1 23 24
M  V30 24 1 2 25
M  V30 25 1 25 26
M  V30 26 1 26 27
M  V30 27 1 27 2
M  V30 28 1 24 3
M  V30 29 1 24 6
M  V30 30 2 14 10
M  V30 31 1 21 15
M  V30 32 1 1 28
M  V30 33 1 1 29
M  V30 34 1 1 30
M  V30 35 1 7 31
M  V30 36 1 8 32
M  V30 37 1 12 33
M  V30 38 1 16 34
M  V30 39 1 19 35
M  V30 40 1 20 36
M  V30 41 1 23 37
M  V30 42 1 25 38
M  V30 43 1 25 39
M  V30 44 1 26 40
M  V30 45 1 26 41
M  V30 46 1 27 42
M  V30 47 1 27 43
M  V30 END BOND
M  V30 END CTAB
M  END
>  <Dataset>  (101) 
ChEMBL_Kinases

>  <Ligand_Instance>  (101) 
nan

>  <PDB_ID>  (101) 
nan

>  <Standardized_SMILES>  (101) 
CC1(c2nnc3ccc(-c4ocnc4-c4cc(F)ccc4F)cn23)CCC1

>  <Name>  (101) 
nan

>  <Pocket>  (101) 
nan

>  <ATP_Site>  (101) 
nan

>  <Peripheral>  (101) 
nan

>  <Num_H_Atoms_ProtBoundConf>  (101) 
nan

>  <Num_Resolved_Atoms>  (101) 
nan

>  <Num_Not_Resolved_Atoms>  (101) 
nan

$$$$
CHEMBL4754232
     RDKit          3D

  0  0  0  0  0  0  0  0  0  0999 V3000
M  V30 BEGIN CTAB
M  V30 COUNTS 40 42 0 0 0
M  V30 BEGIN ATOM
M  V30 1 C 0.380766 -3.931372 -1.220084 0
M  V30 2 C 0.701927 -3.666597 0.240500 0
M  V30 3 C -0.030687 -2.442363 0.703669 0
M  V30 4 N 2.134476 -3.595416 0.403457 0
M  V30 5 C 2.915571 -4.641065 0.776511 0
M  V30 6 N 4.208456 -4.263349 0.841430 0
M  V30 7 N 4.264508 -2.988221 0.514366 0
M  V30 8 C 3.003826 -2.588702 0.249842 0
M  V30 9 C 2.618771 -1.243456 -0.151514 0
M  V30 10 C 2.654399 -0.876267 -1.492314 0
M  V30 11 C 2.307628 0.377506 -1.972442 0
M  V30 12 C 1.893229 1.340990 -1.047364 0
M  V30 13 C 1.866373 0.952557 0.276220 0
M  V30 14 N 1.441748 1.930937 1.248856 0
M  V30 15 C 0.015487 1.870940 1.449543 0
M  V30 16 O -0.776091 1.072477 0.859789 0
M  V30 17 N -0.640379 2.738694 2.362257 0
M  V30 18 C -2.046199 2.720517 2.597615 0
M  V30 19 C -2.664278 3.576536 3.492831 0
M  V30 20 N -4.012440 3.508465 3.672133 0
M  V30 21 C -4.737911 2.609901 2.978786 0
M  V30 22 C -4.114835 1.753840 2.082639 0
M  V30 23 N -2.787468 1.817143 1.902693 0
M  V30 24 N 2.211611 -0.281831 0.715463 0
M  V30 25 H -0.618033 -4.416537 -1.324540 0
M  V30 26 H 0.374410 -3.019930 -1.836969 0
M  V30 27 H 1.193594 -4.601572 -1.611360 0
M  V30 28 H 0.303320 -4.517853 0.847584 0
M  V30 29 H 0.299075 -2.085430 1.679430 0
M  V30 30 H -1.102137 -2.754364 0.860060 0
M  V30 31 H -0.092159 -1.657810 -0.083809 0
M  V30 32 H 2.625514 -5.664302 1.007889 0
M  V30 33 H 2.982668 -1.645454 -2.208461 0
M  V30 34 H 2.373135 0.552389 -3.035640 0
M  V30 35 H 1.622768 2.309361 -1.395247 0
M  V30 36 H 2.005008 2.630314 1.788751 0
M  V30 37 H -0.079467 3.452617 2.915899 0
M  V30 38 H -2.031339 4.290242 4.033379 0
M  V30 39 H -5.820018 2.530452 3.099965 0
M  V30 40 H -4.641348 0.997565 1.484013 0
M  V30 END ATOM
M  V30 BEGIN BOND
M  V30 1 1 1 2
M  V30 2 1 2 3
M  V30 3 1 2 4
M  V30 4 1 4 5
M  V30 5 2 5 6
M  V30 6 1 6 7
M  V30 7 2 7 8
M  V30 8 1 8 9
M  V30 9 2 9 10
M  V30 10 1 10 11
M  V30 11 2 11 12
M  V30 12 1 12 13
M  V30 13 1 13 14
M  V30 14 1 14 15
M  V30 15 2 15 16
M  V30 16 1 15 17
M  V30 17 1 17 18
M  V30 18 2 18 19
M  V30 19 1 19 20
M  V30 20 2 20 21
M  V30 21 1 21 22
M  V30 22 2 22 23
M  V30 23 2 13 24
M  V30 24 1 8 4
M  V30 25 1 24 9
M  V30 26 1 23 18
M  V30 27 1 1 25
M  V30 28 1 1 26
M  V30 29 1 1 27
M  V30 30 1 2 28
M  V30 31 1 3 29
M  V30 32 1 3 30
M  V30 33 1 3 31
M  V30 34 1 5 32
M  V30 35 1 10 33
M  V30 36 1 11 34
M  V30 37 1 12 35
M  V30 38 1 14 36
M  V30 39 1 17 37
M  V30 40 1 19 38
M  V30 41 1 21 39
M  V30 42 1 22 40
M  V30 END BOND
M  V30 END CTAB
M  END
>  <Dataset>  (102) 
ChEMBL_Kinases

>  <Ligand_Instance>  (102) 
nan

>  <PDB_ID>  (102) 
nan

>  <Standardized_SMILES>  (102) 
CC(C)n1cnnc1-c1cccc(NC(=O)Nc2cnccn2)n1

>  <Name>  (102) 
nan

>  <Pocket>  (102) 
nan

>  <ATP_Site>  (102) 
nan

>  <Peripheral>  (102) 
nan

>  <Num_H_Atoms_ProtBoundConf>  (102) 
nan

>  <Num_Resolved_Atoms>  (102) 
nan

>  <Num_Not_Resolved_Atoms>  (102) 
nan

$$$$
CHEMBL440024
     RDKit          3D

  0  0  0  0  0  0  0  0  0  0999 V3000
M  V30 BEGIN CTAB
M  V30 COUNTS 47 50 0 0 0
M  V30 BEGIN ATOM
M  V30 1 C -2.603173 -3.555142 2.211796 0
M  V30 2 N -3.000421 -2.331779 2.825397 0
M  V30 3 C -3.316271 -1.253224 1.957157 0
M  V30 4 C -3.011886 0.111677 2.477792 0
M  V30 5 C -1.642956 0.179508 3.111590 0
M  V30 6 C -0.624659 0.176466 2.001734 0
M  V30 7 C 0.110035 1.322410 1.678006 0
M  V30 8 C 0.983193 1.061667 0.625813 0
M  V30 9 C 1.933896 1.899821 -0.059247 0
M  V30 10 C 3.299189 1.665666 -0.067175 0
M  V30 11 C 4.176083 2.511587 -0.748364 0
M  V30 12 N 3.719925 3.572821 -1.412582 0
M  V30 13 C 2.406155 3.870117 -1.453754 0
M  V30 14 C 1.533819 3.020792 -0.770911 0
M  V30 15 C 0.737764 -0.274985 0.341735 0
M  V30 16 C 1.369494 -1.122225 -0.690056 0
M  V30 17 C 2.061026 -2.210697 -0.225457 0
M  V30 18 C 2.675686 -3.044422 -1.141915 0
M  V30 19 C 2.612114 -2.811396 -2.505674 0
M  V30 20 F 3.238294 -3.666545 -3.367627 0
M  V30 21 C 1.910864 -1.709886 -2.956684 0
M  V30 22 F 1.824206 -1.444751 -4.295339 0
M  V30 23 C 1.293091 -0.868944 -2.064068 0
M  V30 24 N -0.209259 -0.781760 1.158290 0
M  V30 25 C -1.333143 -0.973163 4.012462 0
M  V30 26 C -2.405604 -2.018148 4.072492 0
M  V30 27 H -2.866952 -3.528790 1.134609 0
M  V30 28 H -3.264031 -4.362454 2.643173 0
M  V30 29 H -1.573953 -3.869397 2.406353 0
M  V30 30 H -2.934078 -1.355185 0.914689 0
M  V30 31 H -4.440757 -1.281072 1.818559 0
M  V30 32 H -3.821967 0.406441 3.176733 0
M  V30 33 H -2.969250 0.809965 1.604102 0
M  V30 34 H -1.546353 1.177127 3.606452 0
M  V30 35 H 0.093357 2.334129 2.112191 0
M  V30 36 H 3.667900 0.811694 0.466709 0
M  V30 37 H 5.239658 2.327530 -0.752904 0
M  V30 38 H 1.978974 4.725632 -1.982384 0
M  V30 39 H 0.467921 3.249536 -0.795528 0
M  V30 40 H 2.142188 -2.440847 0.843488 0
M  V30 41 H 3.216783 -3.901451 -0.730866 0
M  V30 42 H 0.727215 0.011366 -2.350578 0
M  V30 43 H -0.591970 -1.743215 1.179695 0
M  V30 44 H -1.222069 -0.565169 5.039180 0
M  V30 45 H -0.321628 -1.422217 3.790822 0
M  V30 46 H -1.938446 -2.946395 4.482073 0
M  V30 47 H -3.189917 -1.706963 4.799615 0
M  V30 END ATOM
M  V30 BEGIN BOND
M  V30 1 1 1 2
M  V30 2 1 2 3
M  V30 3 1 3 4
M  V30 4 1 4 5
M  V30 5 1 5 6
M  V30 6 2 6 7
M  V30 7 1 7 8
M  V30 8 1 8 9
M  V30 9 2 9 10
M  V30 10 1 10 11
M  V30 11 2 11 12
M  V30 12 1 12 13
M  V30 13 2 13 14
M  V30 14 2 8 15
M  V30 15 1 15 16
M  V30 16 2 16 17
M  V30 17 1 17 18
M  V30 18 2 18 19
M  V30 19 1 19 20
M  V30 20 1 19 21
M  V30 21 1 21 22
M  V30 22 2 21 23
M  V30 23 1 15 24
M  V30 24 1 5 25
M  V30 25 1 25 26
M  V30 26 1 26 2
M  V30 27 1 24 6
M  V30 28 1 14 9
M  V30 29 1 23 16
M  V30 30 1 1 27
M  V30 31 1 1 28
M  V30 32 1 1 29
M  V30 33 1 3 30
M  V30 34 1 3 31
M  V30 35 1 4 32
M  V30 36 1 4 33
M  V30 37 1 5 34
M  V30 38 1 7 35
M  V30 39 1 10 36
M  V30 40 1 11 37
M  V30 41 1 13 38
M  V30 42 1 14 39
M  V30 43 1 17 40
M  V30 44 1 18 41
M  V30 45 1 23 42
M  V30 46 1 24 43
M  V30 47 1 25 44
M  V30 48 1 25 45
M  V30 49 1 26 46
M  V30 50 1 26 47
M  V30 END BOND
M  V30 END CTAB
M  END
>  <Dataset>  (103) 
ChEMBL_Kinases

>  <Ligand_Instance>  (103) 
nan

>  <PDB_ID>  (103) 
nan

>  <Standardized_SMILES>  (103) 
CN1CCC(c2cc(-c3ccncc3)c(-c3ccc(F)c(F)c3)[nH]2)CC1

>  <Name>  (103) 
nan

>  <Pocket>  (103) 
nan

>  <ATP_Site>  (103) 
nan

>  <Peripheral>  (103) 
nan

>  <Num_H_Atoms_ProtBoundConf>  (103) 
nan

>  <Num_Resolved_Atoms>  (103) 
nan

>  <Num_Not_Resolved_Atoms>  (103) 
nan

$$$$
CHEMBL4754265
     RDKit          3D

  0  0  0  0  0  0  0  0  0  0999 V3000
M  V30 BEGIN CTAB
M  V30 COUNTS 54 58 0 0 0
M  V30 BEGIN ATOM
M  V30 1 C 5.500682 2.028960 3.798208 0
M  V30 2 C 5.012021 0.623903 3.673227 0
M  V30 3 C 5.691516 -0.406766 4.320807 0
M  V30 4 C 5.324015 -1.734295 4.269840 0
M  V30 5 C 4.207189 -2.052134 3.524870 0
M  V30 6 C 3.529269 -1.038139 2.881055 0
M  V30 7 C 3.897407 0.290147 2.932380 0
M  V30 8 C 3.149991 1.330165 2.235163 0
M  V30 9 C 2.028998 1.062866 1.480731 0
M  V30 10 C 1.294541 2.016190 0.806792 0
M  V30 11 C 1.689302 3.344185 0.876032 0
M  V30 12 C 2.812658 3.598552 1.634190 0
M  V30 13 N 3.492181 2.629915 2.271510 0
M  V30 14 C 0.825139 4.125944 0.137238 0
M  V30 15 N -0.074513 3.268708 -0.365889 0
M  V30 16 N 0.197131 2.019202 0.026140 0
M  V30 17 C -0.562280 0.851404 -0.327758 0
M  V30 18 C -1.532027 0.449099 0.594394 0
M  V30 19 C -2.302556 -0.663496 0.326459 0
M  V30 20 C -2.122134 -1.375939 -0.838636 0
M  V30 21 N -2.898108 -2.525454 -1.143709 0
M  V30 22 C -3.933870 -3.116722 -0.320754 0
M  V30 23 C -5.233905 -2.960647 -1.099204 0
M  V30 24 N -5.162235 -3.587611 -2.388638 0
M  V30 25 C -6.264737 -4.417161 -2.737142 0
M  V30 26 C -3.876945 -4.156359 -2.683870 0
M  V30 27 C -2.728449 -3.263072 -2.368653 0
M  V30 28 C -1.167650 -0.983907 -1.751198 0
M  V30 29 C -0.379749 0.126634 -1.511479 0
M  V30 30 H 5.789714 2.473372 2.843976 0
M  V30 31 H 4.728123 2.684838 4.294800 0
M  V30 32 H 6.354303 2.029730 4.537586 0
M  V30 33 H 6.575344 -0.138353 4.907753 0
M  V30 34 H 5.897097 -2.487463 4.797499 0
M  V30 35 H 3.906776 -3.081067 3.474270 0
M  V30 36 H 2.673345 -1.372939 2.324573 0
M  V30 37 H 1.649144 0.079862 1.367150 0
M  V30 38 H 3.161733 4.613716 1.720736 0
M  V30 39 H 0.878901 5.200048 0.004435 0
M  V30 40 H -1.676552 1.009420 1.514532 0
M  V30 41 H -3.027400 -0.933825 1.053820 0
M  V30 42 H -3.673880 -4.185723 -0.181288 0
M  V30 43 H -4.046736 -2.645502 0.657213 0
M  V30 44 H -5.998918 -3.508403 -0.508021 0
M  V30 45 H -5.496131 -1.903775 -1.109645 0
M  V30 46 H -7.192858 -3.816754 -2.505010 0
M  V30 47 H -6.260275 -5.325674 -2.125967 0
M  V30 48 H -6.236367 -4.648290 -3.802879 0
M  V30 49 H -3.819543 -4.484563 -3.740901 0
M  V30 50 H -3.780365 -5.083852 -2.073953 0
M  V30 51 H -1.834176 -3.925702 -2.194255 0
M  V30 52 H -2.540696 -2.584625 -3.226279 0
M  V30 53 H -0.937489 -1.456221 -2.685667 0
M  V30 54 H 0.384986 0.484122 -2.187885 0
M  V30 END ATOM
M  V30 BEGIN BOND
M  V30 1 1 1 2
M  V30 2 2 2 3
M  V30 3 1 3 4
M  V30 4 2 4 5
M  V30 5 1 5 6
M  V30 6 2 6 7
M  V30 7 1 7 8
M  V30 8 2 8 9
M  V30 9 1 9 10
M  V30 10 2 10 11
M  V30 11 1 11 12
M  V30 12 2 12 13
M  V30 13 1 11 14
M  V30 14 2 14 15
M  V30 15 1 15 16
M  V30 16 1 16 17
M  V30 17 2 17 18
M  V30 18 1 18 19
M  V30 19 2 19 20
M  V30 20 1 20 21
M  V30 21 1 21 22
M  V30 22 1 22 23
M  V30 23 1 23 24
M  V30 24 1 24 25
M  V30 25 1 24 26
M  V30 26 1 26 27
M  V30 27 1 20 28
M  V30 28 2 28 29
M  V30 29 1 7 2
M  V30 30 1 13 8
M  V30 31 1 29 17
M  V30 32 1 16 10
M  V30 33 1 27 21
M  V30 34 1 1 30
M  V30 35 1 1 31
M  V30 36 1 1 32
M  V30 37 1 3 33
M  V30 38 1 4 34
M  V30 39 1 5 35
M  V30 40 1 6 36
M  V30 41 1 9 37
M  V30 42 1 12 38
M  V30 43 1 14 39
M  V30 44 1 18 40
M  V30 45 1 19 41
M  V30 46 1 22 42
M  V30 47 1 22 43
M  V30 48 1 23 44
M  V30 49 1 23 45
M  V30 50 1 25 46
M  V30 51 1 25 47
M  V30 52 1 25 48
M  V30 53 1 26 49
M  V30 54 1 26 50
M  V30 55 1 27 51
M  V30 56 1 27 52
M  V30 57 1 28 53
M  V30 58 1 29 54
M  V30 END BOND
M  V30 END CTAB
M  END
>  <Dataset>  (104) 
ChEMBL_Kinases

>  <Ligand_Instance>  (104) 
nan

>  <PDB_ID>  (104) 
nan

>  <Standardized_SMILES>  (104) 
Cc1ccccc1-c1cc2c(cn1)cnn2-c1ccc(N2CCN(C)CC2)cc1

>  <Name>  (104) 
nan

>  <Pocket>  (104) 
nan

>  <ATP_Site>  (104) 
nan

>  <Peripheral>  (104) 
nan

>  <Num_H_Atoms_ProtBoundConf>  (104) 
nan

>  <Num_Resolved_Atoms>  (104) 
nan

>  <Num_Not_Resolved_Atoms>  (104) 
nan

$$$$
CHEMBL4754326
     RDKit          3D

  0  0  0  0  0  0  0  0  0  0999 V3000
M  V30 BEGIN CTAB
M  V30 COUNTS 58 61 0 0 0
M  V30 BEGIN ATOM
M  V30 1 C 3.759385 -3.461881 2.395364 0
M  V30 2 O 4.915815 -2.848651 2.876491 0
M  V30 3 C 5.177922 -1.487720 2.859778 0
M  V30 4 C 6.384130 -1.064815 3.383887 0
M  V30 5 C 6.669301 0.279611 3.379614 0
M  V30 6 C 5.756446 1.163865 2.859043 0
M  V30 7 C 4.541935 0.809711 2.324057 0
M  V30 8 C 3.597635 1.771626 1.780190 0
M  V30 9 C 3.916864 3.103728 1.792954 0
M  V30 10 C 2.997625 3.983484 1.269624 0
M  V30 11 N 1.848626 3.512477 0.777540 0
M  V30 12 C 1.494606 2.213936 0.744906 0
M  V30 13 N 0.247517 1.828931 0.198328 0
M  V30 14 C -0.282996 0.520277 0.081657 0
M  V30 15 C 0.321971 -0.631834 0.480947 0
M  V30 16 C -0.207481 -1.898474 0.360448 0
M  V30 17 C -1.462287 -2.015538 -0.215354 0
M  V30 18 C -2.120258 -0.878409 -0.637501 0
M  V30 19 C -1.528913 0.358555 -0.485400 0
M  V30 20 N -3.423006 -1.031743 -1.222863 0
M  V30 21 C -4.360254 0.080039 -1.096894 0
M  V30 22 C -5.628694 -0.417156 -0.384839 0
M  V30 23 C -4.767803 0.676728 -2.402779 0
M  V30 24 C -3.659412 -2.291664 -1.880224 0 CFG=2
M  V30 25 C -5.040601 -2.545960 -2.353046 0
M  V30 26 C -3.308412 -3.410050 -0.965387 0
M  V30 27 O -4.026602 -4.424115 -0.665698 0
M  V30 28 N -2.022274 -3.334986 -0.357473 0
M  V30 29 C -1.291683 -4.511154 0.105251 0
M  V30 30 N 2.420463 1.395486 1.265031 0
M  V30 31 C 4.312914 -0.547749 2.356034 0
M  V30 32 H 3.811843 -3.696026 1.306439 0
M  V30 33 H 3.658776 -4.437145 2.939813 0
M  V30 34 H 2.846553 -2.885076 2.613485 0
M  V30 35 H 7.074332 -1.792819 3.783909 0
M  V30 36 H 7.615682 0.581849 3.793748 0
M  V30 37 H 6.075801 2.192113 2.903342 0
M  V30 38 H 4.805617 3.548038 2.165195 0
M  V30 39 H 3.080121 5.075036 1.196085 0
M  V30 40 H -0.345813 2.624374 -0.160721 0
M  V30 41 H 1.280325 -0.601650 0.926677 0
M  V30 42 H 0.297524 -2.777187 0.685355 0
M  V30 43 H -2.075463 1.225051 -0.833024 0
M  V30 44 H -3.994056 0.868674 -0.456303 0
M  V30 45 H -5.534269 -1.483733 -0.077236 0
M  V30 46 H -5.816283 0.119196 0.573023 0
M  V30 47 H -6.545792 -0.208590 -0.985034 0
M  V30 48 H -5.874708 0.693311 -2.518925 0
M  V30 49 H -4.325306 0.196277 -3.299229 0
M  V30 50 H -4.461417 1.745133 -2.473024 0
M  V30 51 H -2.958601 -2.362457 -2.745639 0
M  V30 52 H -5.605306 -3.257444 -1.678082 0
M  V30 53 H -5.643700 -1.686596 -2.635437 0
M  V30 54 H -4.961356 -3.155147 -3.303894 0
M  V30 55 H -0.251790 -4.529521 -0.294173 0
M  V30 56 H -1.247635 -4.575344 1.211443 0
M  V30 57 H -1.787056 -5.396268 -0.340404 0
M  V30 58 H 3.394108 -0.958459 1.966189 0
M  V30 END ATOM
M  V30 BEGIN BOND
M  V30 1 1 1 2
M  V30 2 1 2 3
M  V30 3 2 3 4
M  V30 4 1 4 5
M  V30 5 2 5 6
M  V30 6 1 6 7
M  V30 7 1 7 8
M  V30 8 2 8 9
M  V30 9 1 9 10
M  V30 10 2 10 11
M  V30 11 1 11 12
M  V30 12 1 12 13
M  V30 13 1 13 14
M  V30 14 2 14 15
M  V30 15 1 15 16
M  V30 16 2 16 17
M  V30 17 1 17 18
M  V30 18 2 18 19
M  V30 19 1 18 20
M  V30 20 1 20 21
M  V30 21 1 21 22
M  V30 22 1 21 23
M  V30 23 1 20 24
M  V30 24 1 24 25
M  V30 25 1 24 26
M  V30 26 2 26 27
M  V30 27 1 26 28
M  V30 28 1 28 29
M  V30 29 2 12 30
M  V30 30 2 7 31
M  V30 31 1 31 3
M  V30 32 1 30 8
M  V30 33 1 19 14
M  V30 34 1 28 17
M  V30 35 1 1 32
M  V30 36 1 1 33
M  V30 37 1 1 34
M  V30 38 1 4 35
M  V30 39 1 5 36
M  V30 40 1 6 37
M  V30 41 1 9 38
M  V30 42 1 10 39
M  V30 43 1 13 40
M  V30 44 1 15 41
M  V30 45 1 16 42
M  V30 46 1 19 43
M  V30 47 1 21 44
M  V30 48 1 22 45
M  V30 49 1 22 46
M  V30 50 1 22 47
M  V30 51 1 23 48
M  V30 52 1 23 49
M  V30 53 1 23 50
M  V30 54 1 24 51 CFG=3
M  V30 55 1 25 52
M  V30 56 1 25 53
M  V30 57 1 25 54
M  V30 58 1 29 55
M  V30 59 1 29 56
M  V30 60 1 29 57
M  V30 61 1 31 58
M  V30 END BOND
M  V30 END CTAB
M  END
>  <Dataset>  (105) 
ChEMBL_Kinases

>  <Ligand_Instance>  (105) 
nan

>  <PDB_ID>  (105) 
nan

>  <Standardized_SMILES>  (105) 
COc1cccc(-c2ccnc(Nc3ccc4c(c3)N(C(C)C)[C@H](C)C(=O)N4C)n2)c1

>  <Name>  (105) 
nan

>  <Pocket>  (105) 
nan

>  <ATP_Site>  (105) 
nan

>  <Peripheral>  (105) 
nan

>  <Num_H_Atoms_ProtBoundConf>  (105) 
nan

>  <Num_Resolved_Atoms>  (105) 
nan

>  <Num_Not_Resolved_Atoms>  (105) 
nan

$$$$
CHEMBL439540
     RDKit          3D

  0  0  0  0  0  0  0  0  0  0999 V3000
M  V30 BEGIN CTAB
M  V30 COUNTS 39 42 0 0 0
M  V30 BEGIN ATOM
M  V30 1 C 1.114617 -4.092877 2.740853 0
M  V30 2 C 0.365691 -3.016061 2.018840 0
M  V30 3 C -1.103408 -3.400885 1.990888 0
M  V30 4 C 0.921915 -2.910851 0.641631 0
M  V30 5 N 1.080975 -3.870148 -0.283246 0
M  V30 6 N 1.611970 -3.359912 -1.382509 0
M  V30 7 C 1.821324 -2.041986 -1.217743 0
M  V30 8 C 2.332189 -1.011736 -1.987222 0
M  V30 9 C 2.410527 0.276326 -1.500526 0
M  V30 10 C 1.966227 0.532814 -0.214281 0
M  V30 11 C 1.989743 1.847439 0.427127 0
M  V30 12 O 2.864164 2.758694 0.784078 0
M  V30 13 C 2.252349 3.769252 1.341897 0
M  V30 14 N 0.915291 3.535968 1.364557 0
M  V30 15 C 0.721635 2.313201 0.785229 0
M  V30 16 C -0.648982 1.823375 0.686804 0
M  V30 17 C -1.310909 1.557354 -0.511315 0
M  V30 18 C -2.603611 1.097278 -0.535509 0
M  V30 19 C -3.281874 0.886706 0.649527 0
M  V30 20 F -4.564230 0.431670 0.680248 0
M  V30 21 C -2.645896 1.143699 1.848755 0
M  V30 22 Br -3.544908 0.867980 3.523785 0
M  V30 23 C -1.345972 1.606205 1.874916 0
M  V30 24 C 1.459196 -0.541681 0.521411 0
M  V30 25 N 1.387703 -1.806400 0.029404 0
M  V30 26 H 0.560573 -5.055384 2.596776 0
M  V30 27 H 2.157872 -4.152588 2.369764 0
M  V30 28 H 1.119648 -3.882364 3.833518 0
M  V30 29 H 0.415267 -2.019772 2.480832 0
M  V30 30 H -1.763939 -2.510256 2.080519 0
M  V30 31 H -1.339466 -4.000833 1.100489 0
M  V30 32 H -1.291903 -4.026824 2.882071 0
M  V30 33 H 2.675742 -1.227008 -2.993364 0
M  V30 34 H 2.804404 1.112285 -2.072109 0
M  V30 35 H 2.717546 4.645242 1.723772 0
M  V30 36 H -0.763262 1.729531 -1.412796 0
M  V30 37 H -3.098120 0.896553 -1.497060 0
M  V30 38 H -0.882429 1.795407 2.844838 0
M  V30 39 H 1.109308 -0.340218 1.531265 0
M  V30 END ATOM
M  V30 BEGIN BOND
M  V30 1 1 1 2
M  V30 2 1 2 3
M  V30 3 1 2 4
M  V30 4 2 4 5
M  V30 5 1 5 6
M  V30 6 2 6 7
M  V30 7 1 7 8
M  V30 8 2 8 9
M  V30 9 1 9 10
M  V30 10 1 10 11
M  V30 11 1 11 12
M  V30 12 1 12 13
M  V30 13 2 13 14
M  V30 14 1 14 15
M  V30 15 1 15 16
M  V30 16 2 16 17
M  V30 17 1 17 18
M  V30 18 2 18 19
M  V30 19 1 19 20
M  V30 20 1 19 21
M  V30 21 1 21 22
M  V30 22 2 21 23
M  V30 23 2 10 24
M  V30 24 1 24 25
M  V30 25 1 25 4
M  V30 26 1 25 7
M  V30 27 2 15 11
M  V30 28 1 23 16
M  V30 29 1 1 26
M  V30 30 1 1 27
M  V30 31 1 1 28
M  V30 32 1 2 29
M  V30 33 1 3 30
M  V30 34 1 3 31
M  V30 35 1 3 32
M  V30 36 1 8 33
M  V30 37 1 9 34
M  V30 38 1 13 35
M  V30 39 1 17 36
M  V30 40 1 18 37
M  V30 41 1 23 38
M  V30 42 1 24 39
M  V30 END BOND
M  V30 END CTAB
M  END
>  <Dataset>  (106) 
ChEMBL_Kinases

>  <Ligand_Instance>  (106) 
nan

>  <PDB_ID>  (106) 
nan

>  <Standardized_SMILES>  (106) 
CC(C)c1nnc2ccc(-c3ocnc3-c3ccc(F)c(Br)c3)cn12

>  <Name>  (106) 
nan

>  <Pocket>  (106) 
nan

>  <ATP_Site>  (106) 
nan

>  <Peripheral>  (106) 
nan

>  <Num_H_Atoms_ProtBoundConf>  (106) 
nan

>  <Num_Resolved_Atoms>  (106) 
nan

>  <Num_Not_Resolved_Atoms>  (106) 
nan

$$$$
CHEMBL4754339
     RDKit          3D

  0  0  0  0  0  0  0  0  0  0999 V3000
M  V30 BEGIN CTAB
M  V30 COUNTS 59 62 0 0 0
M  V30 BEGIN ATOM
M  V30 1 C 4.743554 -1.821984 7.491896 0
M  V30 2 C 5.035589 -2.436361 6.347677 0
M  V30 3 C 5.020106 -1.067927 5.903392 0
M  V30 4 O 4.773831 -0.142325 6.714805 0
M  V30 5 N 5.284944 -0.740439 4.530699 0
M  V30 6 C 5.258239 0.655983 4.128623 0
M  V30 7 C 6.655770 1.024018 3.661652 0
M  V30 8 C 4.254406 0.877303 3.056613 0
M  V30 9 C 4.358170 1.582460 1.896572 0
M  V30 10 C 3.290020 1.664737 1.027051 0
M  V30 11 C 2.081690 1.050469 1.277823 0
M  V30 12 C 0.938407 1.122963 0.374627 0
M  V30 13 C -0.323040 1.076965 0.982550 0
M  V30 14 C -1.440657 1.140589 0.177104 0
M  V30 15 C -1.411695 1.246739 -1.195886 0
M  V30 16 C -2.541559 1.312133 -2.151392 0 CFG=2
M  V30 17 C -3.671439 2.191940 -1.707224 0
M  V30 18 C -3.125792 -0.058966 -2.385424 0
M  V30 19 O -3.097201 -0.562901 -3.539363 0
M  V30 20 N -3.731811 -0.879572 -1.403698 0
M  V30 21 C -4.276769 -2.166369 -1.632435 0
M  V30 22 C -4.364778 -2.923395 -2.780259 0
M  V30 23 C -4.979914 -4.124786 -2.528235 0
M  V30 24 C -5.308598 -5.270633 -3.414525 0
M  V30 25 C -5.735079 -4.886689 -4.851975 0
M  V30 26 C -4.422077 -5.553452 -4.619695 0
M  V30 27 N -5.258256 -4.074956 -1.213470 0
M  V30 28 N -4.851218 -2.942876 -0.698205 0
M  V30 29 C -0.115271 1.286960 -1.728442 0
M  V30 30 C 1.053217 1.229183 -0.996153 0
M  V30 31 C 2.033920 0.348936 2.469498 0
M  V30 32 N 3.068724 0.257103 3.332861 0
M  V30 33 H 4.576185 -2.282694 8.454898 0
M  V30 34 H 4.563187 -2.206572 8.487618 0
M  V30 35 H 5.237238 -3.271082 5.712167 0
M  V30 36 H 5.495966 -1.463093 3.808680 0
M  V30 37 H 5.020980 1.300995 5.005226 0
M  V30 38 H 7.362541 1.015359 4.503426 0
M  V30 39 H 6.666588 2.075581 3.268190 0
M  V30 40 H 7.018424 0.341201 2.869741 0
M  V30 41 H 5.310540 2.037971 1.748695 0
M  V30 42 H 3.414361 2.239390 0.109566 0
M  V30 43 H -0.476671 0.994850 2.047410 0
M  V30 44 H -2.423593 1.114881 0.620627 0
M  V30 45 H -2.180500 1.662190 -3.154701 0
M  V30 46 H -4.537234 1.644588 -1.311078 0
M  V30 47 H -3.292407 2.807478 -0.847099 0
M  V30 48 H -3.964969 2.941847 -2.487395 0
M  V30 49 H -3.775895 -0.490171 -0.438273 0
M  V30 50 H -4.017072 -2.657258 -3.758112 0
M  V30 51 H -5.807484 -6.157300 -2.983799 0
M  V30 52 H -6.569550 -5.472201 -5.287883 0
M  V30 53 H -5.742160 -3.812429 -5.093679 0
M  V30 54 H -4.328813 -6.584689 -4.976633 0
M  V30 55 H -3.494510 -4.925218 -4.680609 0
M  V30 56 H -5.723974 -4.764418 -0.577820 0
M  V30 57 H 0.043758 1.370491 -2.807082 0
M  V30 58 H 2.018911 1.262855 -1.445455 0
M  V30 59 H 1.079589 -0.152341 2.695856 0
M  V30 END ATOM
M  V30 BEGIN BOND
M  V30 1 2 1 2
M  V30 2 1 2 3
M  V30 3 2 3 4
M  V30 4 1 3 5
M  V30 5 1 5 6
M  V30 6 1 6 7
M  V30 7 1 6 8
M  V30 8 2 8 9
M  V30 9 1 9 10
M  V30 10 2 10 11
M  V30 11 1 11 12
M  V30 12 2 12 13
M  V30 13 1 13 14
M  V30 14 2 14 15
M  V30 15 1 15 16
M  V30 16 1 16 17
M  V30 17 1 16 18
M  V30 18 2 18 19
M  V30 19 1 18 20
M  V30 20 1 20 21
M  V30 21 1 21 22
M  V30 22 2 22 23
M  V30 23 1 23 24
M  V30 24 1 24 25
M  V30 25 1 25 26
M  V30 26 1 23 27
M  V30 27 1 27 28
M  V30 28 1 15 29
M  V30 29 2 29 30
M  V30 30 1 11 31
M  V30 31 2 31 32
M  V30 32 1 32 8
M  V30 33 1 30 12
M  V30 34 2 28 21
M  V30 35 1 26 24
M  V30 36 1 1 33
M  V30 37 1 1 34
M  V30 38 1 2 35
M  V30 39 1 5 36
M  V30 40 1 6 37
M  V30 41 1 7 38
M  V30 42 1 7 39
M  V30 43 1 7 40
M  V30 44 1 9 41
M  V30 45 1 10 42
M  V30 46 1 13 43
M  V30 47 1 14 44
M  V30 48 1 16 45 CFG=3
M  V30 49 1 17 46
M  V30 50 1 17 47
M  V30 51 1 17 48
M  V30 52 1 20 49
M  V30 53 1 22 50
M  V30 54 1 24 51
M  V30 55 1 25 52
M  V30 56 1 25 53
M  V30 57 1 26 54
M  V30 58 1 26 55
M  V30 59 1 27 56
M  V30 60 1 29 57
M  V30 61 1 30 58
M  V30 62 1 31 59
M  V30 END BOND
M  V30 END CTAB
M  END
>  <Dataset>  (107) 
ChEMBL_Kinases

>  <Ligand_Instance>  (107) 
nan

>  <PDB_ID>  (107) 
nan

>  <Standardized_SMILES>  (107) 
C=CC(=O)NC(C)c1ccc(-c2ccc([C@H](C)C(=O)Nc3cc(C4CC4)[nH]n3)cc2)cn1

>  <Name>  (107) 
nan

>  <Pocket>  (107) 
nan

>  <ATP_Site>  (107) 
nan

>  <Peripheral>  (107) 
nan

>  <Num_H_Atoms_ProtBoundConf>  (107) 
nan

>  <Num_Resolved_Atoms>  (107) 
nan

>  <Num_Not_Resolved_Atoms>  (107) 
nan

$$$$
CHEMBL4754359
     RDKit          3D

  0  0  0  0  0  0  0  0  0  0999 V3000
M  V30 BEGIN CTAB
M  V30 COUNTS 45 48 0 0 0
M  V30 BEGIN ATOM
M  V30 1 C 1.810611 -2.709735 2.966036 0
M  V30 2 C 1.860278 -1.241445 2.580080 0
M  V30 3 C 0.853534 -0.550423 3.483377 0
M  V30 4 N 3.196437 -0.733223 2.781419 0
M  V30 5 C 4.159164 -1.203239 3.612292 0
M  V30 6 N 5.270516 -0.442097 3.502196 0
M  V30 7 N 5.018633 0.511376 2.603679 0
M  V30 8 C 3.758954 0.343263 2.158784 0
M  V30 9 C 3.099289 1.180784 1.166713 0
M  V30 10 C 3.844570 1.880485 0.239173 0
M  V30 11 C 3.290228 2.698934 -0.737184 0
M  V30 12 C 1.917236 2.823103 -0.787160 0
M  V30 13 C 1.175050 2.118588 0.146138 0
M  V30 14 N -0.261293 2.133592 0.236846 0
M  V30 15 C -0.987911 1.156746 -0.511565 0
M  V30 16 O -0.333943 0.321158 -1.221543 0
M  V30 17 N -2.405475 0.992886 -0.566209 0
M  V30 18 C -2.850311 -0.087254 -1.413374 0
M  V30 19 C -3.194385 -0.214970 -2.743525 0
M  V30 20 N -3.526629 -1.507721 -2.912775 0
M  V30 21 N -3.406490 -2.162552 -1.781359 0
M  V30 22 C -3.661184 -3.479631 -1.600155 0
M  V30 23 C -3.484716 -4.025182 -0.335236 0
M  V30 24 C -3.060512 -3.225410 0.692179 0
M  V30 25 C -2.821323 -1.892423 0.430370 0
M  V30 26 C -2.986641 -1.327679 -0.805798 0
M  V30 27 N 1.762058 1.328198 1.085087 0
M  V30 28 H 2.633096 -3.292423 2.508113 0
M  V30 29 H 1.995067 -2.730062 4.061612 0
M  V30 30 H 0.814618 -3.132497 2.758515 0
M  V30 31 H 1.538680 -1.208474 1.517050 0
M  V30 32 H 0.648278 -1.136548 4.410724 0
M  V30 33 H -0.100265 -0.521085 2.910828 0
M  V30 34 H 1.181277 0.446567 3.824624 0
M  V30 35 H 3.972563 -2.056923 4.226111 0
M  V30 36 H 4.927388 1.790367 0.268866 0
M  V30 37 H 3.870986 3.244778 -1.460717 0
M  V30 38 H 1.356676 3.421041 -1.488615 0
M  V30 39 H -0.935082 2.748778 0.770080 0
M  V30 40 H -2.939715 1.687080 0.023129 0
M  V30 41 H -3.143436 0.671643 -3.373995 0
M  V30 42 H -3.994207 -4.129558 -2.385690 0
M  V30 43 H -3.654771 -5.058702 -0.067256 0
M  V30 44 H -2.892579 -3.561816 1.721631 0
M  V30 45 H -2.485484 -1.241301 1.226649 0
M  V30 END ATOM
M  V30 BEGIN BOND
M  V30 1 1 1 2
M  V30 2 1 2 3
M  V30 3 1 2 4
M  V30 4 1 4 5
M  V30 5 2 5 6
M  V30 6 1 6 7
M  V30 7 2 7 8
M  V30 8 1 8 9
M  V30 9 2 9 10
M  V30 10 1 10 11
M  V30 11 2 11 12
M  V30 12 1 12 13
M  V30 13 1 13 14
M  V30 14 1 14 15
M  V30 15 2 15 16
M  V30 16 1 15 17
M  V30 17 1 17 18
M  V30 18 1 18 19
M  V30 19 2 19 20
M  V30 20 1 20 21
M  V30 21 1 21 22
M  V30 22 2 22 23
M  V30 23 1 23 24
M  V30 24 2 24 25
M  V30 25 1 25 26
M  V30 26 2 13 27
M  V30 27 1 8 4
M  V30 28 1 27 9
M  V30 29 2 26 18
M  V30 30 1 26 21
M  V30 31 1 1 28
M  V30 32 1 1 29
M  V30 33 1 1 30
M  V30 34 1 2 31
M  V30 35 1 3 32
M  V30 36 1 3 33
M  V30 37 1 3 34
M  V30 38 1 5 35
M  V30 39 1 10 36
M  V30 40 1 11 37
M  V30 41 1 12 38
M  V30 42 1 14 39
M  V30 43 1 17 40
M  V30 44 1 19 41
M  V30 45 1 22 42
M  V30 46 1 23 43
M  V30 47 1 24 44
M  V30 48 1 25 45
M  V30 END BOND
M  V30 END CTAB
M  END
>  <Dataset>  (108) 
ChEMBL_Kinases

>  <Ligand_Instance>  (108) 
nan

>  <PDB_ID>  (108) 
nan

>  <Standardized_SMILES>  (108) 
CC(C)n1cnnc1-c1cccc(NC(=O)Nc2cnn3ccccc23)n1

>  <Name>  (108) 
nan

>  <Pocket>  (108) 
nan

>  <ATP_Site>  (108) 
nan

>  <Peripheral>  (108) 
nan

>  <Num_H_Atoms_ProtBoundConf>  (108) 
nan

>  <Num_Resolved_Atoms>  (108) 
nan

>  <Num_Not_Resolved_Atoms>  (108) 
nan

$$$$
CHEMBL439512
     RDKit          3D

  0  0  0  0  0  0  0  0  0  0999 V3000
M  V30 BEGIN CTAB
M  V30 COUNTS 56 60 0 0 0
M  V30 BEGIN ATOM
M  V30 1 C 2.742696 -2.952793 3.180865 0
M  V30 2 O 3.714631 -2.040895 2.652690 0
M  V30 3 C 3.283933 -0.853315 2.093786 0
M  V30 4 C 1.949109 -0.495420 2.016229 0
M  V30 5 C 1.487020 0.702744 1.453834 0
M  V30 6 C 2.463901 1.534760 0.964632 0
M  V30 7 C 3.800696 1.231045 1.015033 0
M  V30 8 C 4.206003 0.038356 1.579825 0
M  V30 9 O 5.567361 -0.317909 1.657056 0
M  V30 10 C 6.558146 0.573988 1.146287 0
M  V30 11 O 2.247649 2.763546 0.366531 0
M  V30 12 C 1.031960 3.256787 -0.082170 0
M  V30 13 N 1.156477 4.220416 -1.028839 0
M  V30 14 C 0.058736 4.814751 -1.579744 0
M  V30 15 N -1.183236 4.479304 -1.215607 0
M  V30 16 C -1.412853 3.519542 -0.269221 0
M  V30 17 N -2.657297 3.038385 0.229973 0
M  V30 18 C -2.894437 1.685260 -0.195100 0
M  V30 19 C -2.138218 1.093838 -1.180704 0
M  V30 20 N -2.465337 -0.210025 -1.436490 0
M  V30 21 C -3.442419 -0.853711 -0.776540 0
M  V30 22 N -3.653971 -2.216723 -1.148554 0
M  V30 23 C -2.782846 -3.104611 -0.426012 0
M  V30 24 O -1.929254 -2.668235 0.427162 0
M  V30 25 C -2.797482 -4.563308 -0.603918 0
M  V30 26 C -3.794289 -5.151340 -1.334992 0
M  V30 27 C -3.734709 -6.537566 -1.473314 0
M  V30 28 C -2.756153 -7.383605 -0.937766 0
M  V30 29 C -1.796760 -6.710117 -0.220637 0
M  V30 30 C -1.808873 -5.346987 -0.054059 0
M  V30 31 N -4.166863 -0.227028 0.193391 0
M  V30 32 C -3.915203 1.067608 0.515584 0
M  V30 33 C -0.274899 2.920432 0.283602 0
M  V30 34 N -0.577941 1.902864 1.248189 0
M  V30 35 C 0.027424 0.631031 1.600734 0
M  V30 36 H 2.126535 -3.296528 2.340431 0
M  V30 37 H 3.280376 -3.802055 3.654975 0
M  V30 38 H 2.152926 -2.419976 3.947492 0
M  V30 39 H 1.290717 -1.264712 2.447156 0
M  V30 40 H 4.540753 1.906100 0.623979 0
M  V30 41 H 7.566454 0.288316 1.527690 0
M  V30 42 H 6.369891 1.634108 1.486329 0
M  V30 43 H 6.561241 0.523222 0.042183 0
M  V30 44 H 0.134085 5.587502 -2.339099 0
M  V30 45 H -3.277241 3.610332 0.811875 0
M  V30 46 H -1.366590 1.621038 -1.690934 0
M  V30 47 H -4.329592 -2.621391 -1.832506 0
M  V30 48 H -4.610474 -4.626022 -1.800082 0
M  V30 49 H -4.533199 -7.012719 -2.055720 0
M  V30 50 H -2.807650 -8.439574 -1.105923 0
M  V30 51 H -0.987860 -7.296151 0.232197 0
M  V30 52 H -1.016208 -4.863735 0.527648 0
M  V30 53 H -4.504694 1.542297 1.283943 0
M  V30 54 H -1.451114 2.159336 1.812164 0
M  V30 55 H -0.263085 0.313897 2.622838 0
M  V30 56 H -0.364471 -0.190219 0.924470 0
M  V30 END ATOM
M  V30 BEGIN BOND
M  V30 1 1 1 2
M  V30 2 1 2 3
M  V30 3 2 3 4
M  V30 4 1 4 5
M  V30 5 2 5 6
M  V30 6 1 6 7
M  V30 7 2 7 8
M  V30 8 1 8 9
M  V30 9 1 9 10
M  V30 10 1 6 11
M  V30 11 1 11 12
M  V30 12 2 12 13
M  V30 13 1 13 14
M  V30 14 2 14 15
M  V30 15 1 15 16
M  V30 16 1 16 17
M  V30 17 1 17 18
M  V30 18 2 18 19
M  V30 19 1 19 20
M  V30 20 2 20 21
M  V30 21 1 21 22
M  V30 22 1 22 23
M  V30 23 2 23 24
M  V30 24 1 23 25
M  V30 25 2 25 26
M  V30 26 1 26 27
M  V30 27 2 27 28
M  V30 28 1 28 29
M  V30 29 2 29 30
M  V30 30 1 21 31
M  V30 31 2 31 32
M  V30 32 2 16 33
M  V30 33 1 33 34
M  V30 34 1 34 35
M  V30 35 1 8 3
M  V30 36 1 33 12
M  V30 37 1 35 5
M  V30 38 1 32 18
M  V30 39 1 30 25
M  V30 40 1 1 36
M  V30 41 1 1 37
M  V30 42 1 1 38
M  V30 43 1 4 39
M  V30 44 1 7 40
M  V30 45 1 10 41
M  V30 46 1 10 42
M  V30 47 1 10 43
M  V30 48 1 14 44
M  V30 49 1 17 45
M  V30 50 1 19 46
M  V30 51 1 22 47
M  V30 52 1 26 48
M  V30 53 1 27 49
M  V30 54 1 28 50
M  V30 55 1 29 51
M  V30 56 1 30 52
M  V30 57 1 32 53
M  V30 58 1 34 54
M  V30 59 1 35 55
M  V30 60 1 35 56
M  V30 END BOND
M  V30 END CTAB
M  END
>  <Dataset>  (109) 
ChEMBL_Kinases

>  <Ligand_Instance>  (109) 
nan

>  <PDB_ID>  (109) 
nan

>  <Standardized_SMILES>  (109) 
COc1cc2c(cc1OC)Oc1ncnc(Nc3cnc(NC(=O)c4ccccc4)nc3)c1NC2

>  <Name>  (109) 
nan

>  <Pocket>  (109) 
nan

>  <ATP_Site>  (109) 
nan

>  <Peripheral>  (109) 
nan

>  <Num_H_Atoms_ProtBoundConf>  (109) 
nan

>  <Num_Resolved_Atoms>  (109) 
nan

>  <Num_Not_Resolved_Atoms>  (109) 
nan

$$$$
CHEMBL439340
     RDKit          3D

  0  0  0  0  0  0  0  0  0  0999 V3000
M  V30 BEGIN CTAB
M  V30 COUNTS 61 65 0 0 0
M  V30 BEGIN ATOM
M  V30 1 N 2.479796 -5.188489 4.104003 0
M  V30 2 C 2.286641 -4.286205 2.994708 0
M  V30 3 C 3.289051 -4.285927 2.021852 0
M  V30 4 C 3.225915 -3.473608 0.912846 0
M  V30 5 C 2.136872 -2.637828 0.762859 0
M  V30 6 C 2.130680 -1.795023 -0.424244 0
M  V30 7 C 2.782508 -2.282330 -1.558419 0
M  V30 8 N 2.865440 -1.651520 -2.750470 0
M  V30 9 C 2.282495 -0.441114 -2.910945 0
M  V30 10 C 1.606916 0.115639 -1.818371 0
M  V30 11 O 0.947011 1.308655 -1.742772 0
M  V30 12 C 0.782775 2.293829 -2.710910 0
M  V30 13 C -0.081260 3.431638 -2.228317 0 CFG=1
M  V30 14 N -0.079411 4.452831 -3.310159 0
M  V30 15 C -1.532783 3.078513 -2.049216 0
M  V30 16 C -1.820993 1.968225 -1.138046 0
M  V30 17 C -2.095777 1.824759 0.201085 0
M  V30 18 N -2.255906 0.545987 0.576846 0
M  V30 19 C -2.087160 -0.203368 -0.533002 0
M  V30 20 C -2.176986 -1.588890 -0.634382 0
M  V30 21 C -1.995523 -2.179689 -1.854716 0
M  V30 22 C -1.729038 -1.404615 -2.955224 0
M  V30 23 C -1.650872 -0.044100 -2.798438 0
M  V30 24 C -1.819058 0.647899 -1.601584 0
M  V30 25 C 1.543391 -0.556369 -0.615878 0
M  V30 26 C 1.144439 -2.625442 1.709535 0
M  V30 27 C 1.193831 -3.430443 2.824040 0
M  V30 28 C 0.219892 -3.528737 3.894267 0
M  V30 29 O 0.309260 -4.459036 4.719209 0
M  V30 30 C -0.932871 -2.729513 4.266435 0
M  V30 31 C -2.058659 -3.236172 4.856579 0
M  V30 32 C -3.100550 -2.372994 5.229152 0
M  V30 33 C -3.033272 -0.998014 5.018638 0
M  V30 34 C -1.901093 -0.508740 4.428383 0
M  V30 35 Cl -1.870470 1.242934 4.212410 0
M  V30 36 C -0.875600 -1.354578 4.060358 0
M  V30 37 H 2.457405 -6.189110 3.843992 0
M  V30 38 H 2.617281 -4.722460 5.022420 0
M  V30 39 H 4.152630 -4.958996 2.154358 0
M  V30 40 H 4.066820 -3.554543 0.219241 0
M  V30 41 H 3.312968 -3.239269 -1.636380 0
M  V30 42 H 2.252679 0.195374 -3.784747 0
M  V30 43 H 0.496152 1.885316 -3.691954 0
M  V30 44 H 1.806710 2.747428 -2.873949 0
M  V30 45 H 0.321613 3.880315 -1.348390 0
M  V30 46 H -0.653640 5.242029 -2.943637 0
M  V30 47 H 0.885199 4.748370 -3.495243 0
M  V30 48 H -2.025704 3.993031 -1.610605 0
M  V30 49 H -2.052249 2.913779 -3.017696 0
M  V30 50 H -2.159334 2.721959 0.822840 0
M  V30 51 H -2.467653 0.191963 1.515640 0
M  V30 52 H -2.383493 -2.214286 0.211984 0
M  V30 53 H -2.042017 -3.242092 -2.053552 0
M  V30 54 H -1.574599 -1.819458 -3.957093 0
M  V30 55 H -1.448371 0.555055 -3.671066 0
M  V30 56 H 1.041019 -0.212121 0.302263 0
M  V30 57 H 0.300175 -1.991486 1.601748 0
M  V30 58 H -2.147303 -4.297241 5.036749 0
M  V30 59 H -3.986160 -2.768183 5.692381 0
M  V30 60 H -3.865229 -0.366880 5.323664 0
M  V30 61 H -0.062344 -0.807275 3.614347 0
M  V30 END ATOM
M  V30 BEGIN BOND
M  V30 1 1 1 2
M  V30 2 2 2 3
M  V30 3 1 3 4
M  V30 4 2 4 5
M  V30 5 1 5 6
M  V30 6 2 6 7
M  V30 7 1 7 8
M  V30 8 2 8 9
M  V30 9 1 9 10
M  V30 10 1 10 11
M  V30 11 1 11 12
M  V30 12 1 12 13
M  V30 13 1 13 14
M  V30 14 1 13 15
M  V30 15 1 15 16
M  V30 16 2 16 17
M  V30 17 1 17 18
M  V30 18 1 18 19
M  V30 19 2 19 20
M  V30 20 1 20 21
M  V30 21 2 21 22
M  V30 22 1 22 23
M  V30 23 2 23 24
M  V30 24 2 10 25
M  V30 25 1 5 26
M  V30 26 2 26 27
M  V30 27 1 27 28
M  V30 28 2 28 29
M  V30 29 1 28 30
M  V30 30 2 30 31
M  V30 31 1 31 32
M  V30 32 2 32 33
M  V30 33 1 33 34
M  V30 34 1 34 35
M  V30 35 2 34 36
M  V30 36 1 27 2
M  V30 37 1 36 30
M  V30 38 1 25 6
M  V30 39 1 24 16
M  V30 40 1 24 19
M  V30 41 1 1 37
M  V30 42 1 1 38
M  V30 43 1 3 39
M  V30 44 1 4 40
M  V30 45 1 7 41
M  V30 46 1 9 42
M  V30 47 1 12 43
M  V30 48 1 12 44
M  V30 49 1 13 45 CFG=1
M  V30 50 1 14 46
M  V30 51 1 14 47
M  V30 52 1 15 48
M  V30 53 1 15 49
M  V30 54 1 17 50
M  V30 55 1 18 51
M  V30 56 1 20 52
M  V30 57 1 21 53
M  V30 58 1 22 54
M  V30 59 1 23 55
M  V30 60 1 25 56
M  V30 61 1 26 57
M  V30 62 1 31 58
M  V30 63 1 32 59
M  V30 64 1 33 60
M  V30 65 1 36 61
M  V30 END BOND
M  V30 END CTAB
M  END
>  <Dataset>  (110) 
ChEMBL_Kinases

>  <Ligand_Instance>  (110) 
nan

>  <PDB_ID>  (110) 
nan

>  <Standardized_SMILES>  (110) 
Nc1ccc(-c2cncc(OC[C@@H](N)Cc3c[nH]c4ccccc34)c2)cc1C(=O)c1cccc(Cl)c1

>  <Name>  (110) 
nan

>  <Pocket>  (110) 
nan

>  <ATP_Site>  (110) 
nan

>  <Peripheral>  (110) 
nan

>  <Num_H_Atoms_ProtBoundConf>  (110) 
nan

>  <Num_Resolved_Atoms>  (110) 
nan

>  <Num_Not_Resolved_Atoms>  (110) 
nan

$$$$
CHEMBL4754398
     RDKit          3D

  0  0  0  0  0  0  0  0  0  0999 V3000
M  V30 BEGIN CTAB
M  V30 COUNTS 46 49 0 0 0
M  V30 BEGIN ATOM
M  V30 1 C 5.013661 -2.159109 3.225920 0
M  V30 2 S 6.098283 -0.836558 3.659887 0
M  V30 3 O 6.636040 -1.138697 5.030964 0
M  V30 4 O 7.283184 -0.789738 2.743934 0
M  V30 5 N 5.269479 0.683895 3.699368 0
M  V30 6 C 4.671781 1.157093 2.487609 0
M  V30 7 C 5.333771 1.105878 1.281582 0
M  V30 8 C 4.791210 1.551630 0.090494 0
M  V30 9 C 3.496087 2.068467 0.201367 0
M  V30 10 C 2.769992 2.151508 1.379510 0
M  V30 11 C 1.402465 2.729888 1.320957 0
M  V30 12 C 0.377512 1.680026 1.082872 0
M  V30 13 O 0.740886 0.460879 0.960896 0
M  V30 14 N -0.985105 1.980555 0.986701 0
M  V30 15 C -1.884178 0.828323 0.749583 0
M  V30 16 C -2.419452 0.148562 1.791896 0
M  V30 17 N -3.206020 -0.861210 1.490173 0
M  V30 18 C -3.506218 -1.251963 0.452026 0
M  V30 19 C -4.363065 -2.353996 -0.076240 0
M  V30 20 C -5.031317 -3.201646 0.780271 0
M  V30 21 N -5.670186 -4.027603 -0.054634 0
M  V30 22 C -5.441773 -3.747480 -1.348115 0
M  V30 23 N -5.830469 -4.256688 -2.531919 0
M  V30 24 C -5.438283 -3.765741 -3.703881 0
M  V30 25 C -4.587301 -2.676723 -3.792037 0
M  V30 26 C -4.167998 -2.128321 -2.598260 0
M  V30 27 C -4.592819 -2.660751 -1.400212 0
M  V30 28 S -2.543947 -0.025141 -0.629047 0
M  V30 29 C 3.395507 1.677276 2.538486 0
M  V30 30 H 5.376870 -3.096220 3.709223 0
M  V30 31 H 4.968418 -2.270794 2.120971 0
M  V30 32 H 4.000377 -1.993749 3.651956 0
M  V30 33 H 5.217115 1.234725 4.606630 0
M  V30 34 H 6.336692 0.702826 1.211390 0
M  V30 35 H 5.287861 1.522522 -0.865476 0
M  V30 36 H 3.055936 2.424529 -0.730853 0
M  V30 37 H 1.366834 3.448075 0.480787 0
M  V30 38 H 1.229809 3.221323 2.306178 0
M  V30 39 H -1.343335 2.942862 1.075030 0
M  V30 40 H -2.266633 0.351313 2.866071 0
M  V30 41 H -5.002704 -3.154253 1.859305 0
M  V30 42 H -6.285690 -4.812415 0.289868 0
M  V30 43 H -5.753544 -4.178523 -4.661249 0
M  V30 44 H -4.213399 -2.206275 -4.704156 0
M  V30 45 H -3.503501 -1.277124 -2.602395 0
M  V30 46 H 2.805465 1.752093 3.454471 0
M  V30 END ATOM
M  V30 BEGIN BOND
M  V30 1 1 1 2
M  V30 2 2 2 3
M  V30 3 2 2 4
M  V30 4 1 2 5
M  V30 5 1 5 6
M  V30 6 2 6 7
M  V30 7 1 7 8
M  V30 8 2 8 9
M  V30 9 1 9 10
M  V30 10 1 10 11
M  V30 11 1 11 12
M  V30 12 2 12 13
M  V30 13 1 12 14
M  V30 14 1 14 15
M  V30 15 2 15 16
M  V30 16 1 16 17
M  V30 17 2 17 18
M  V30 18 1 18 19
M  V30 19 2 19 20
M  V30 20 1 20 21
M  V30 21 1 21 22
M  V30 22 2 22 23
M  V30 23 1 23 24
M  V30 24 2 24 25
M  V30 25 1 25 26
M  V30 26 2 26 27
M  V30 27 1 18 28
M  V30 28 2 10 29
M  V30 29 1 29 6
M  V30 30 1 28 15
M  V30 31 1 27 19
M  V30 32 1 27 22
M  V30 33 1 1 30
M  V30 34 1 1 31
M  V30 35 1 1 32
M  V30 36 1 5 33
M  V30 37 1 7 34
M  V30 38 1 8 35
M  V30 39 1 9 36
M  V30 40 1 11 37
M  V30 41 1 11 38
M  V30 42 1 14 39
M  V30 43 1 16 40
M  V30 44 1 20 41
M  V30 45 1 21 42
M  V30 46 1 24 43
M  V30 47 1 25 44
M  V30 48 1 26 45
M  V30 49 1 29 46
M  V30 END BOND
M  V30 END CTAB
M  END
>  <Dataset>  (111) 
ChEMBL_Kinases

>  <Ligand_Instance>  (111) 
nan

>  <PDB_ID>  (111) 
nan

>  <Standardized_SMILES>  (111) 
CS(=O)(=O)Nc1cccc(CC(=O)Nc2cnc(-c3c[nH]c4ncccc34)s2)c1

>  <Name>  (111) 
nan

>  <Pocket>  (111) 
nan

>  <ATP_Site>  (111) 
nan

>  <Peripheral>  (111) 
nan

>  <Num_H_Atoms_ProtBoundConf>  (111) 
nan

>  <Num_Resolved_Atoms>  (111) 
nan

>  <Num_Not_Resolved_Atoms>  (111) 
nan

$$$$
CHEMBL4754469
     RDKit          3D

  0  0  0  0  0  0  0  0  0  0999 V3000
M  V30 BEGIN CTAB
M  V30 COUNTS 21 22 0 0 0
M  V30 BEGIN ATOM
M  V30 1 C 0.065968 -1.609937 4.999795 0
M  V30 2 C 0.039311 -0.902321 3.692759 0
M  V30 3 O -1.018864 -0.492204 3.130800 0
M  V30 4 N 1.225246 -0.643442 2.990311 0
M  V30 5 C 1.088121 0.070296 1.692615 0
M  V30 6 N 0.945116 -0.391834 0.668940 0
M  V30 7 C 0.814381 0.148777 -0.529991 0
M  V30 8 C 0.640684 -0.443597 -1.764930 0
M  V30 9 C 0.528200 0.350060 -2.886288 0
M  V30 10 F 0.354894 -0.239338 -4.118893 0
M  V30 11 C 0.572842 1.728899 -2.903939 0
M  V30 12 C 0.745942 2.318996 -1.673135 0
M  V30 13 C 0.860443 1.524116 -0.535264 0
M  V30 14 S 1.089841 1.931974 1.197929 0
M  V30 15 H 0.555851 -0.994162 5.800984 0
M  V30 16 H -1.007277 -1.722384 5.326331 0
M  V30 17 H 0.506714 -2.619918 4.936088 0
M  V30 18 H 2.165160 -0.918143 3.323337 0
M  V30 19 H 0.582818 -1.526607 -1.934418 0
M  V30 20 H 0.486302 2.358897 -3.771957 0
M  V30 21 H 0.806147 3.357036 -1.472517 0
M  V30 END ATOM
M  V30 BEGIN BOND
M  V30 1 1 1 2
M  V30 2 2 2 3
M  V30 3 1 2 4
M  V30 4 1 4 5
M  V30 5 2 5 6
M  V30 6 1 6 7
M  V30 7 2 7 8
M  V30 8 1 8 9
M  V30 9 1 9 10
M  V30 10 2 9 11
M  V30 11 1 11 12
M  V30 12 2 12 13
M  V30 13 1 13 14
M  V30 14 1 14 5
M  V30 15 1 13 7
M  V30 16 1 1 15
M  V30 17 1 1 16
M  V30 18 1 1 17
M  V30 19 1 4 18
M  V30 20 1 8 19
M  V30 21 1 11 20
M  V30 22 1 12 21
M  V30 END BOND
M  V30 END CTAB
M  END
>  <Dataset>  (112) 
ChEMBL_Kinases

>  <Ligand_Instance>  (112) 
nan

>  <PDB_ID>  (112) 
nan

>  <Standardized_SMILES>  (112) 
CC(=O)Nc1nc2cc(F)ccc2s1

>  <Name>  (112) 
nan

>  <Pocket>  (112) 
nan

>  <ATP_Site>  (112) 
nan

>  <Peripheral>  (112) 
nan

>  <Num_H_Atoms_ProtBoundConf>  (112) 
nan

>  <Num_Resolved_Atoms>  (112) 
nan

>  <Num_Not_Resolved_Atoms>  (112) 
nan

$$$$
CHEMBL4754471
     RDKit          3D

  0  0  0  0  0  0  0  0  0  0999 V3000
M  V30 BEGIN CTAB
M  V30 COUNTS 76 81 0 0 0
M  V30 BEGIN ATOM
M  V30 1 C 1.054288 3.008697 3.191511 0
M  V30 2 C 1.895361 3.769059 2.224508 0
M  V30 3 C 3.065581 2.935035 1.668033 0 CFG=2
M  V30 4 C 3.783506 3.886120 0.726274 0
M  V30 5 N 4.733191 4.767148 1.083013 0
M  V30 6 N 4.989841 5.509525 0.008314 0
M  V30 7 C 4.205997 5.098658 -1.030196 0
M  V30 8 C 4.277281 5.743841 -2.357859 0
M  V30 9 N 3.468590 4.084553 -0.553734 0
M  V30 10 C 2.587251 3.186229 -1.198826 0
M  V30 11 C 2.252309 3.439823 -2.504105 0
M  V30 12 N 1.406773 2.567319 -3.069029 0
M  V30 13 C 0.907648 1.508238 -2.420280 0
M  V30 14 N 0.029913 0.650557 -3.144528 0
M  V30 15 C -0.684200 -0.483848 -2.703009 0
M  V30 16 C -0.704346 -0.955582 -1.407513 0
M  V30 17 C -1.398478 -2.049280 -0.938203 0
M  V30 18 C -2.159193 -2.763931 -1.836339 0
M  V30 19 C -2.968667 -3.938247 -1.534307 0
M  V30 20 O -3.603298 -4.593484 -2.433499 0
M  V30 21 N -3.142432 -4.482257 -0.208735 0
M  V30 22 C -3.962103 -5.654181 0.026215 0
M  V30 23 C -5.161771 -5.301625 0.895382 0
M  V30 24 C -4.689377 -4.554768 2.091946 0
M  V30 25 N -3.382133 -4.889170 2.537063 0
M  V30 26 C -3.351646 -4.797892 3.990079 0
M  V30 27 C -2.862519 -6.155508 2.163524 0
M  V30 28 C -3.140727 -6.653317 0.799771 0
M  V30 29 C -2.177457 -2.339804 -3.145878 0
M  V30 30 C -1.473177 -1.245583 -3.574500 0
M  V30 31 O -1.528892 -0.863436 -4.906693 0
M  V30 32 C -2.314342 -1.608336 -5.814457 0
M  V30 33 N 1.241093 1.272997 -1.151386 0
M  V30 34 C 2.076626 2.081498 -0.497801 0
M  V30 35 N 2.487088 1.875349 0.884982 0
M  V30 36 C 2.243285 0.474470 1.224813 0
M  V30 37 C 2.860091 0.171691 2.522384 0
M  V30 38 C 2.554888 0.093734 3.811712 0
M  V30 39 C 3.460808 -0.226306 4.783960 0
M  V30 40 C 4.761572 -0.471223 4.313499 0
M  V30 41 S 4.583632 -0.220657 2.484621 0
M  V30 42 H 0.200859 3.673677 3.494321 0
M  V30 43 H 1.624217 2.793991 4.131357 0
M  V30 44 H 0.577365 2.125691 2.749942 0
M  V30 45 H 2.283123 4.685444 2.709165 0
M  V30 46 H 1.225286 4.093919 1.395528 0
M  V30 47 H 3.682903 2.611227 2.491831 0
M  V30 48 H 5.087169 6.544419 -2.316151 0
M  V30 49 H 4.675395 5.058568 -3.161083 0
M  V30 50 H 3.383971 6.282946 -2.673426 0
M  V30 51 H 2.545356 4.213751 -3.148125 0
M  V30 52 H -0.131980 0.868849 -4.165577 0
M  V30 53 H -0.145250 -0.468697 -0.628105 0
M  V30 54 H -1.393464 -2.388053 0.071119 0
M  V30 55 H -2.624387 -3.943169 0.515045 0
M  V30 56 H -4.316948 -6.059915 -0.962008 0
M  V30 57 H -5.908476 -4.743453 0.277400 0
M  V30 58 H -5.631633 -6.257433 1.206285 0
M  V30 59 H -5.416733 -4.573444 2.940751 0
M  V30 60 H -4.668344 -3.467322 1.792485 0
M  V30 61 H -4.340300 -4.484786 4.396955 0
M  V30 62 H -3.154276 -5.786834 4.459233 0
M  V30 63 H -2.524269 -4.143750 4.325863 0
M  V30 64 H -1.738640 -6.079780 2.276027 0
M  V30 65 H -3.148471 -6.907639 2.933941 0
M  V30 66 H -2.197081 -6.850053 0.214278 0
M  V30 67 H -3.712187 -7.632124 0.826149 0
M  V30 68 H -2.760451 -2.869487 -3.898566 0
M  V30 69 H -2.324435 -1.100466 -6.799455 0
M  V30 70 H -1.894355 -2.647641 -5.943832 0
M  V30 71 H -3.364910 -1.732259 -5.497888 0
M  V30 72 H 2.636134 -0.232929 0.469922 0
M  V30 73 H 1.153685 0.290223 1.354717 0
M  V30 74 H 1.502760 0.304803 4.027979 0
M  V30 75 H 3.219212 -0.291173 5.833869 0
M  V30 76 H 5.609902 -0.743030 4.986779 0
M  V30 END ATOM
M  V30 BEGIN BOND
M  V30 1 1 1 2
M  V30 2 1 2 3
M  V30 3 1 3 4
M  V30 4 2 4 5
M  V30 5 1 5 6
M  V30 6 2 6 7
M  V30 7 1 7 8
M  V30 8 1 7 9
M  V30 9 1 9 10
M  V30 10 2 10 11
M  V30 11 1 11 12
M  V30 12 2 12 13
M  V30 13 1 13 14
M  V30 14 1 14 15
M  V30 15 2 15 16
M  V30 16 1 16 17
M  V30 17 2 17 18
M  V30 18 1 18 19
M  V30 19 2 19 20
M  V30 20 1 19 21
M  V30 21 1 21 22
M  V30 22 1 22 23
M  V30 23 1 23 24
M  V30 24 1 24 25
M  V30 25 1 25 26
M  V30 26 1 25 27
M  V30 27 1 27 28
M  V30 28 1 18 29
M  V30 29 2 29 30
M  V30 30 1 30 31
M  V30 31 1 31 32
M  V30 32 1 13 33
M  V30 33 2 33 34
M  V30 34 1 34 35
M  V30 35 1 35 36
M  V30 36 1 36 37
M  V30 37 2 37 38
M  V30 38 1 38 39
M  V30 39 2 39 40
M  V30 40 1 40 41
M  V30 41 1 35 3
M  V30 42 1 41 37
M  V30 43 1 9 4
M  V30 44 1 34 10
M  V30 45 1 30 15
M  V30 46 1 28 22
M  V30 47 1 1 42
M  V30 48 1 1 43
M  V30 49 1 1 44
M  V30 50 1 2 45
M  V30 51 1 2 46
M  V30 52 1 3 47 CFG=1
M  V30 53 1 8 48
M  V30 54 1 8 49
M  V30 55 1 8 50
M  V30 56 1 11 51
M  V30 57 1 14 52
M  V30 58 1 16 53
M  V30 59 1 17 54
M  V30 60 1 21 55
M  V30 61 1 22 56
M  V30 62 1 23 57
M  V30 63 1 23 58
M  V30 64 1 24 59
M  V30 65 1 24 60
M  V30 66 1 26 61
M  V30 67 1 26 62
M  V30 68 1 26 63
M  V30 69 1 27 64
M  V30 70 1 27 65
M  V30 71 1 28 66
M  V30 72 1 28 67
M  V30 73 1 29 68
M  V30 74 1 32 69
M  V30 75 1 32 70
M  V30 76 1 32 71
M  V30 77 1 36 72
M  V30 78 1 36 73
M  V30 79 1 38 74
M  V30 80 1 39 75
M  V30 81 1 40 76
M  V30 END BOND
M  V30 END CTAB
M  END
>  <Dataset>  (113) 
ChEMBL_Kinases

>  <Ligand_Instance>  (113) 
nan

>  <PDB_ID>  (113) 
nan

>  <Standardized_SMILES>  (113) 
CC[C@@H]1c2nnc(C)n2-c2cnc(Nc3ccc(C(=O)NC4CCN(C)CC4)cc3OC)nc2N1Cc1cccs1

>  <Name>  (113) 
nan

>  <Pocket>  (113) 
nan

>  <ATP_Site>  (113) 
nan

>  <Peripheral>  (113) 
nan

>  <Num_H_Atoms_ProtBoundConf>  (113) 
nan

>  <Num_Resolved_Atoms>  (113) 
nan

>  <Num_Not_Resolved_Atoms>  (113) 
nan

$$$$
CHEMBL4754212
     RDKit          3D

  0  0  0  0  0  0  0  0  0  0999 V3000
M  V30 BEGIN CTAB
M  V30 COUNTS 34 36 0 0 0
M  V30 BEGIN ATOM
M  V30 1 C 0.534077 -4.547996 3.812195 0
M  V30 2 C 1.862807 -3.844761 3.725542 0
M  V30 3 O 2.116892 -3.245008 2.486324 0
M  V30 4 C 1.356525 -2.262497 1.899209 0
M  V30 5 O 0.343380 -1.860103 2.519364 0
M  V30 6 C 1.704748 -1.695212 0.594745 0
M  V30 7 C 2.829226 -2.170670 -0.049135 0
M  V30 8 N 3.104957 -1.616590 -1.244373 0
M  V30 9 C 2.308100 -0.657435 -1.750511 0
M  V30 10 N 2.676735 -0.129420 -3.019415 0
M  V30 11 N 1.212709 -0.197300 -1.118601 0
M  V30 12 N 0.317626 0.722822 -1.443899 0
M  V30 13 C -0.606610 0.827861 -0.472699 0
M  V30 14 C -1.801372 1.636425 -0.257859 0
M  V30 15 C -1.666026 2.995587 -0.505560 0
M  V30 16 C -2.749350 3.838811 -0.327728 0
M  V30 17 C -3.932967 3.260410 0.097463 0
M  V30 18 C -4.130838 1.919250 0.360145 0
M  V30 19 C -3.012990 1.126380 0.164758 0
M  V30 20 N -0.235345 -0.068315 0.458080 0
M  V30 21 C 0.883561 -0.711516 0.080499 0
M  V30 22 H -0.275519 -3.885401 4.190310 0
M  V30 23 H 0.228153 -4.983752 2.849052 0
M  V30 24 H 0.625759 -5.361861 4.561198 0
M  V30 25 H 1.939449 -3.112540 4.574317 0
M  V30 26 H 2.653767 -4.598607 3.913717 0
M  V30 27 H 3.425809 -2.936190 0.403140 0
M  V30 28 H 2.297092 0.032075 -3.976469 0
M  V30 29 H 2.368100 0.060780 -3.986571 0
M  V30 30 H -0.766534 3.507500 -0.839832 0
M  V30 31 H -2.696107 4.901145 -0.506405 0
M  V30 32 H -4.785591 3.940558 0.234894 0
M  V30 33 H -5.065024 1.528511 0.685609 0
M  V30 34 H -3.066805 0.043574 0.346739 0
M  V30 END ATOM
M  V30 BEGIN BOND
M  V30 1 1 1 2
M  V30 2 1 2 3
M  V30 3 1 3 4
M  V30 4 2 4 5
M  V30 5 1 4 6
M  V30 6 2 6 7
M  V30 7 1 7 8
M  V30 8 2 8 9
M  V30 9 1 9 10
M  V30 10 1 9 11
M  V30 11 1 11 12
M  V30 12 2 12 13
M  V30 13 1 13 14
M  V30 14 2 14 15
M  V30 15 1 15 16
M  V30 16 2 16 17
M  V30 17 1 17 18
M  V30 18 2 18 19
M  V30 19 1 13 20
M  V30 20 2 20 21
M  V30 21 1 21 6
M  V30 22 1 21 11
M  V30 23 1 19 14
M  V30 24 1 1 22
M  V30 25 1 1 23
M  V30 26 1 1 24
M  V30 27 1 2 25
M  V30 28 1 2 26
M  V30 29 1 7 27
M  V30 30 1 10 28
M  V30 31 1 10 29
M  V30 32 1 15 30
M  V30 33 1 16 31
M  V30 34 1 17 32
M  V30 35 1 18 33
M  V30 36 1 19 34
M  V30 END BOND
M  V30 END CTAB
M  END
>  <Dataset>  (114) 
ChEMBL_Kinases

>  <Ligand_Instance>  (114) 
nan

>  <PDB_ID>  (114) 
nan

>  <Standardized_SMILES>  (114) 
CCOC(=O)c1cnc(N)n2nc(-c3ccccc3)nc12

>  <Name>  (114) 
nan

>  <Pocket>  (114) 
nan

>  <ATP_Site>  (114) 
nan

>  <Peripheral>  (114) 
nan

>  <Num_H_Atoms_ProtBoundConf>  (114) 
nan

>  <Num_Resolved_Atoms>  (114) 
nan

>  <Num_Not_Resolved_Atoms>  (114) 
nan

$$$$
CHEMBL433565
     RDKit          3D

  0  0  0  0  0  0  0  0  0  0999 V3000
M  V30 BEGIN CTAB
M  V30 COUNTS 43 45 0 0 0
M  V30 BEGIN ATOM
M  V30 1 C -0.105008 -3.610453 2.757496 0
M  V30 2 C 0.996953 -3.848447 1.798106 0
M  V30 3 C 1.979913 -4.813064 1.995727 0
M  V30 4 C 3.006032 -5.045014 1.116834 0
M  V30 5 C 3.096136 -4.291611 -0.043782 0
M  V30 6 C 2.134941 -3.325540 -0.268970 0
M  V30 7 O 2.267531 -2.591340 -1.452535 0
M  V30 8 C 1.101552 -3.106060 0.635911 0
M  V30 9 C 0.122678 -2.065232 0.326780 0
M  V30 10 C 0.370713 -0.778848 0.773688 0
M  V30 11 C -0.508276 0.249793 0.518449 0
M  V30 12 C -0.312748 1.657628 0.964382 0
M  V30 13 C 0.445063 2.466253 -0.075483 0
M  V30 14 C 1.163913 3.575121 0.635931 0
M  V30 15 C 0.518531 3.969281 1.945419 0
M  V30 16 N 0.488797 2.902338 2.911949 0
M  V30 17 C 0.585148 1.644757 2.193419 0
M  V30 18 C -1.687478 0.035851 -0.202954 0
M  V30 19 C -2.622234 1.094994 -0.482648 0
M  V30 20 N -3.362195 1.950238 -0.690916 0
M  V30 21 C -1.887788 -1.277476 -0.629131 0
M  V30 22 N -3.088598 -1.544671 -1.375484 0
M  V30 23 N -1.014579 -2.268334 -0.368195 0
M  V30 24 H 0.009500 -4.354975 3.589001 0
M  V30 25 H -0.133281 -2.588538 3.171471 0
M  V30 26 H -1.093989 -3.845141 2.309157 0
M  V30 27 H 1.909883 -5.397403 2.896078 0
M  V30 28 H 3.765609 -5.785023 1.261989 0
M  V30 29 H 3.900207 -4.463322 -0.746546 0
M  V30 30 H 3.118829 -2.041282 -1.524621 0
M  V30 31 H 1.240934 -0.478915 1.339836 0
M  V30 32 H -1.269954 2.092725 1.251657 0
M  V30 33 H 1.148316 1.762216 -0.571049 0
M  V30 34 H -0.221466 2.902025 -0.846708 0
M  V30 35 H 1.176797 4.507655 0.016126 0
M  V30 36 H 2.198607 3.230684 0.871397 0
M  V30 37 H 1.116413 4.831965 2.326651 0
M  V30 38 H -0.529827 4.300837 1.785633 0
M  V30 39 H 1.323141 3.034124 3.525711 0
M  V30 40 H 0.285213 0.771382 2.794504 0
M  V30 41 H 1.661567 1.504575 1.917341 0
M  V30 42 H -3.941854 -2.118631 -1.134438 0
M  V30 43 H -3.378675 -1.224504 -2.328392 0
M  V30 END ATOM
M  V30 BEGIN BOND
M  V30 1 1 1 2
M  V30 2 2 2 3
M  V30 3 1 3 4
M  V30 4 2 4 5
M  V30 5 1 5 6
M  V30 6 1 6 7
M  V30 7 2 6 8
M  V30 8 1 8 9
M  V30 9 2 9 10
M  V30 10 1 10 11
M  V30 11 1 11 12
M  V30 12 1 12 13
M  V30 13 1 13 14
M  V30 14 1 14 15
M  V30 15 1 15 16
M  V30 16 1 16 17
M  V30 17 2 11 18
M  V30 18 1 18 19
M  V30 19 3 19 20
M  V30 20 1 18 21
M  V30 21 1 21 22
M  V30 22 2 21 23
M  V30 23 1 8 2
M  V30 24 1 23 9
M  V30 25 1 17 12
M  V30 26 1 1 24
M  V30 27 1 1 25
M  V30 28 1 1 26
M  V30 29 1 3 27
M  V30 30 1 4 28
M  V30 31 1 5 29
M  V30 32 1 7 30
M  V30 33 1 10 31
M  V30 34 1 12 32
M  V30 35 1 13 33
M  V30 36 1 13 34
M  V30 37 1 14 35
M  V30 38 1 14 36
M  V30 39 1 15 37
M  V30 40 1 15 38
M  V30 41 1 16 39
M  V30 42 1 17 40
M  V30 43 1 17 41
M  V30 44 1 22 42
M  V30 45 1 22 43
M  V30 END BOND
M  V30 END CTAB
M  END
>  <Dataset>  (115) 
ChEMBL_Kinases

>  <Ligand_Instance>  (115) 
nan

>  <PDB_ID>  (115) 
nan

>  <Standardized_SMILES>  (115) 
Cc1cccc(O)c1-c1cc(C2CCCNC2)c(C#N)c(N)n1

>  <Name>  (115) 
nan

>  <Pocket>  (115) 
nan

>  <ATP_Site>  (115) 
nan

>  <Peripheral>  (115) 
nan

>  <Num_H_Atoms_ProtBoundConf>  (115) 
nan

>  <Num_Resolved_Atoms>  (115) 
nan

>  <Num_Not_Resolved_Atoms>  (115) 
nan

$$$$
CHEMBL433207
     RDKit          3D

  0  0  0  0  0  0  0  0  0  0999 V3000
M  V30 BEGIN CTAB
M  V30 COUNTS 75 76 0 0 0
M  V30 BEGIN ATOM
M  V30 1 C 4.903425 0.393845 3.481827 0
M  V30 2 C 4.210000 -0.841948 3.946728 0
M  V30 3 C 3.057337 -1.334397 3.144115 0
M  V30 4 C 3.283813 -1.796224 1.749964 0
M  V30 5 C 3.844285 -0.751264 0.866541 0
M  V30 6 C 3.975841 -1.280962 -0.562656 0
M  V30 7 C 4.531826 -0.269412 -1.490446 0
M  V30 8 C 3.734195 0.979397 -1.629102 0
M  V30 9 C 2.332845 0.743398 -2.145846 0
M  V30 10 C 1.542717 1.986846 -2.291163 0
M  V30 11 C 1.315915 2.791994 -1.057773 0
M  V30 12 C 0.587484 2.102394 0.035223 0
M  V30 13 O -0.711178 1.674826 -0.344928 0
M  V30 14 C -1.545361 1.001786 0.570278 0
M  V30 15 C -1.111193 0.743986 1.865112 0
M  V30 16 C -1.954031 0.080408 2.742322 0
M  V30 17 C -3.206974 -0.317770 2.332624 0
M  V30 18 C -3.581892 -0.033129 1.033783 0
M  V30 19 C -2.790415 0.622656 0.114994 0
M  V30 20 C -3.489599 0.756405 -1.151170 0
M  V30 21 O -3.037632 1.308439 -2.193159 0
M  V30 22 O -4.708462 0.165170 -0.956450 0
M  V30 23 C -4.848070 -0.347017 0.361324 0 CFG=2
M  V30 24 C -6.006801 0.330062 1.032647 0
M  V30 25 O -5.726749 1.703165 1.061742 0
M  V30 26 C -5.098761 -1.841263 0.271254 0
M  V30 27 O -3.978417 -2.390491 -0.379132 0
M  V30 28 C -3.790792 -3.725340 -0.668579 0
M  V30 29 O -4.905481 -3.962075 -0.135245 0
M  V30 30 C -2.493995 -3.953003 -1.362149 0
M  V30 31 C -2.533986 -3.154092 -2.639705 0
M  V30 32 C -2.232909 -5.411220 -1.598439 0
M  V30 33 C -1.376563 -3.408626 -0.476655 0
M  V30 34 H 4.305838 1.005878 2.783611 0
M  V30 35 H 5.088662 1.044063 4.410974 0
M  V30 36 H 5.937732 0.224506 3.087637 0
M  V30 37 H 4.967278 -1.679210 3.975918 0
M  V30 38 H 3.844884 -0.673289 5.008129 0
M  V30 39 H 2.507966 -2.112295 3.755979 0
M  V30 40 H 2.300582 -0.473497 3.168703 0
M  V30 41 H 2.262707 -2.156029 1.386254 0
M  V30 42 H 3.925132 -2.718760 1.798513 0
M  V30 43 H 3.188771 0.125199 0.854145 0
M  V30 44 H 4.889524 -0.561806 1.216269 0
M  V30 45 H 2.981501 -1.658328 -0.871662 0
M  V30 46 H 4.654933 -2.155963 -0.518656 0
M  V30 47 H 5.584008 -0.010654 -1.259201 0
M  V30 48 H 4.582865 -0.749290 -2.505367 0
M  V30 49 H 4.217218 1.686092 -2.332448 0
M  V30 50 H 3.633764 1.522145 -0.672536 0
M  V30 51 H 1.832848 -0.049029 -1.554529 0
M  V30 52 H 2.460121 0.301471 -3.156162 0
M  V30 53 H 0.539341 1.771869 -2.715698 0
M  V30 54 H 2.039390 2.618061 -3.070072 0
M  V30 55 H 0.770636 3.728844 -1.288133 0
M  V30 56 H 2.315930 3.119949 -0.704850 0
M  V30 57 H 1.150890 1.333196 0.557658 0
M  V30 58 H 0.380450 2.886171 0.824924 0
M  V30 59 H -0.121148 1.067189 2.163799 0
M  V30 60 H -1.601452 -0.115117 3.753740 0
M  V30 61 H -3.877977 -0.837908 3.007198 0
M  V30 62 H -6.916103 0.118022 0.424721 0
M  V30 63 H -6.138885 -0.029814 2.065892 0
M  V30 64 H -6.172968 2.060627 1.874705 0
M  V30 65 H -5.996203 -2.055180 -0.342346 0
M  V30 66 H -5.250711 -2.281495 1.277398 0
M  V30 67 H -3.524238 -3.281034 -3.119991 0
M  V30 68 H -1.683892 -3.371316 -3.319474 0
M  V30 69 H -2.450114 -2.080118 -2.319209 0
M  V30 70 H -1.561231 -5.481081 -2.477500 0
M  V30 71 H -3.156410 -6.007814 -1.756351 0
M  V30 72 H -1.653413 -5.798789 -0.731550 0
M  V30 73 H -0.734368 -4.252397 -0.092333 0
M  V30 74 H -1.799629 -2.950447 0.439847 0
M  V30 75 H -0.758534 -2.720282 -1.054982 0
M  V30 END ATOM
M  V30 BEGIN BOND
M  V30 1 1 1 2
M  V30 2 1 2 3
M  V30 3 1 3 4
M  V30 4 1 4 5
M  V30 5 1 5 6
M  V30 6 1 6 7
M  V30 7 1 7 8
M  V30 8 1 8 9
M  V30 9 1 9 10
M  V30 10 1 10 11
M  V30 11 1 11 12
M  V30 12 1 12 13
M  V30 13 1 13 14
M  V30 14 2 14 15
M  V30 15 1 15 16
M  V30 16 2 16 17
M  V30 17 1 17 18
M  V30 18 2 18 19
M  V30 19 1 19 20
M  V30 20 2 20 21
M  V30 21 1 20 22
M  V30 22 1 22 23
M  V30 23 1 23 24 CFG=1
M  V30 24 1 24 25
M  V30 25 1 23 26
M  V30 26 1 26 27
M  V30 27 1 27 28
M  V30 28 2 28 29
M  V30 29 1 28 30
M  V30 30 1 30 31
M  V30 31 1 30 32
M  V30 32 1 30 33
M  V30 33 1 19 14
M  V30 34 1 23 18
M  V30 35 1 1 34
M  V30 36 1 1 35
M  V30 37 1 1 36
M  V30 38 1 2 37
M  V30 39 1 2 38
M  V30 40 1 3 39
M  V30 41 1 3 40
M  V30 42 1 4 41
M  V30 43 1 4 42
M  V30 44 1 5 43
M  V30 45 1 5 44
M  V30 46 1 6 45
M  V30 47 1 6 46
M  V30 48 1 7 47
M  V30 49 1 7 48
M  V30 50 1 8 49
M  V30 51 1 8 50
M  V30 52 1 9 51
M  V30 53 1 9 52
M  V30 54 1 10 53
M  V30 55 1 10 54
M  V30 56 1 11 55
M  V30 57 1 11 56
M  V30 58 1 12 57
M  V30 59 1 12 58
M  V30 60 1 15 59
M  V30 61 1 16 60
M  V30 62 1 17 61
M  V30 63 1 24 62
M  V30 64 1 24 63
M  V30 65 1 25 64
M  V30 66 1 26 65
M  V30 67 1 26 66
M  V30 68 1 31 67
M  V30 69 1 31 68
M  V30 70 1 31 69
M  V30 71 1 32 70
M  V30 72 1 32 71
M  V30 73 1 32 72
M  V30 74 1 33 73
M  V30 75 1 33 74
M  V30 76 1 33 75
M  V30 END BOND
M  V30 END CTAB
M  END
>  <Dataset>  (116) 
ChEMBL_Kinases

>  <Ligand_Instance>  (116) 
nan

>  <PDB_ID>  (116) 
nan

>  <Standardized_SMILES>  (116) 
CCCCCCCCCCCCOc1cccc2c1C(=O)O[C@@]2(CO)COC(=O)C(C)(C)C

>  <Name>  (116) 
nan

>  <Pocket>  (116) 
nan

>  <ATP_Site>  (116) 
nan

>  <Peripheral>  (116) 
nan

>  <Num_H_Atoms_ProtBoundConf>  (116) 
nan

>  <Num_Resolved_Atoms>  (116) 
nan

>  <Num_Not_Resolved_Atoms>  (116) 
nan

$$$$
CHEMBL4754906
     RDKit          3D

  0  0  0  0  0  0  0  0  0  0999 V3000
M  V30 BEGIN CTAB
M  V30 COUNTS 32 34 0 0 0
M  V30 BEGIN ATOM
M  V30 1 N 1.941223 -3.804003 2.175594 0
M  V30 2 C 0.694628 -3.232285 2.614812 0
M  V30 3 C -0.415492 -3.451304 1.656139 0
M  V30 4 C -0.270689 -2.886237 0.295706 0
M  V30 5 N -0.131538 -1.472659 0.193302 0
M  V30 6 C 1.002461 -0.750991 0.181232 0
M  V30 7 O 2.076781 -1.362580 0.260288 0
M  V30 8 C 1.067958 0.622708 0.086604 0
M  V30 9 C 2.312044 1.256105 0.084817 0
M  V30 10 C 2.253062 2.630008 -0.014111 0
M  V30 11 F 3.454139 3.268743 -0.017771 0
M  V30 12 C 1.083645 3.360479 -0.105939 0
M  V30 13 C -0.126836 2.683713 -0.099939 0
M  V30 14 C -0.122764 1.311823 -0.003045 0
M  V30 15 N -1.271694 0.636320 0.004986 0
M  V30 16 C -2.516757 1.062713 -0.068132 0
M  V30 17 S -3.221833 2.488734 -0.193200 0
M  V30 18 N -3.295585 -0.032402 -0.017690 0
M  V30 19 N -2.543620 -1.111094 0.084465 0
M  V30 20 C -1.260162 -0.705854 0.100173 0
M  V30 21 H 2.762790 -3.154575 2.292007 0
M  V30 22 H 2.142390 -4.732971 2.622713 0
M  V30 23 H 0.900599 -2.169944 2.839621 0
M  V30 24 H 0.429480 -3.752208 3.560050 0
M  V30 25 H -1.420054 -3.173844 2.087786 0
M  V30 26 H -0.507778 -4.570911 1.527563 0
M  V30 27 H 0.656118 -3.328436 -0.175542 0
M  V30 28 H -1.115764 -3.231618 -0.327800 0
M  V30 29 H 3.237744 0.707053 0.155454 0
M  V30 30 H 1.196548 4.447733 -0.178712 0
M  V30 31 H -0.956308 3.323588 -0.173651 0
M  V30 32 H -4.336848 -0.220104 -0.040404 0
M  V30 END ATOM
M  V30 BEGIN BOND
M  V30 1 1 1 2
M  V30 2 1 2 3
M  V30 3 1 3 4
M  V30 4 1 4 5
M  V30 5 1 5 6
M  V30 6 2 6 7
M  V30 7 1 6 8
M  V30 8 2 8 9
M  V30 9 1 9 10
M  V30 10 1 10 11
M  V30 11 2 10 12
M  V30 12 1 12 13
M  V30 13 2 13 14
M  V30 14 1 14 15
M  V30 15 1 15 16
M  V30 16 2 16 17
M  V30 17 1 16 18
M  V30 18 1 18 19
M  V30 19 2 19 20
M  V30 20 1 20 5
M  V30 21 1 14 8
M  V30 22 1 20 15
M  V30 23 1 1 21
M  V30 24 1 1 22
M  V30 25 1 2 23
M  V30 26 1 2 24
M  V30 27 1 3 25
M  V30 28 1 3 26
M  V30 29 1 4 27
M  V30 30 1 4 28
M  V30 31 1 9 29
M  V30 32 1 12 30
M  V30 33 1 13 31
M  V30 34 1 18 32
M  V30 END BOND
M  V30 END CTAB
M  END
>  <Dataset>  (117) 
ChEMBL_Kinases

>  <Ligand_Instance>  (117) 
nan

>  <PDB_ID>  (117) 
nan

>  <Standardized_SMILES>  (117) 
NCCCn1c(=O)c2cc(F)ccc2n2c(=S)[nH]nc12

>  <Name>  (117) 
nan

>  <Pocket>  (117) 
nan

>  <ATP_Site>  (117) 
nan

>  <Peripheral>  (117) 
nan

>  <Num_H_Atoms_ProtBoundConf>  (117) 
nan

>  <Num_Resolved_Atoms>  (117) 
nan

>  <Num_Not_Resolved_Atoms>  (117) 
nan

$$$$
CHEMBL432839
     RDKit          3D

  0  0  0  0  0  0  0  0  0  0999 V3000
M  V30 BEGIN CTAB
M  V30 COUNTS 52 56 0 0 0
M  V30 BEGIN ATOM
M  V30 1 C 1.908839 -4.752756 1.594124 0
M  V30 2 C 0.476988 -4.635787 1.094736 0 CFG=1
M  V30 3 N -0.199247 -3.714874 2.001095 0
M  V30 4 C 0.064605 -2.369123 2.352335 0
M  V30 5 N 0.833033 -2.179092 3.442417 0
M  V30 6 C 1.141886 -0.940057 3.863314 0
M  V30 7 C 0.676118 0.165276 3.184260 0
M  V30 8 C -0.113178 -0.030113 2.064247 0
M  V30 9 C -0.736808 0.938253 1.170258 0
M  V30 10 C 0.009965 1.871542 0.445649 0
M  V30 11 C 1.459930 2.026190 0.466684 0
M  V30 12 C 1.806617 3.285062 0.946121 0
M  V30 13 C 3.149674 3.651168 1.052290 0
M  V30 14 C 4.128524 2.751294 0.676823 0
M  V30 15 C 3.768039 1.490918 0.197232 0
M  V30 16 C 2.440091 1.139777 0.096405 0
M  V30 17 N -0.833692 2.612797 -0.281837 0
M  V30 18 C -2.086388 2.164800 -0.028681 0
M  V30 19 N -3.289403 2.559537 -0.497773 0
M  V30 20 C -4.411645 1.942780 -0.087280 0
M  V30 21 N -5.713269 2.268295 -0.508220 0
M  V30 22 C -4.351767 0.897198 0.819381 0
M  V30 23 C -3.120886 0.480517 1.310368 0
M  V30 24 N -2.039236 1.144028 0.855325 0
M  V30 25 N -0.398714 -1.287629 1.676777 0
M  V30 26 C 0.448981 -4.158399 -0.310336 0
M  V30 27 C 1.426203 -4.107980 -1.280380 0
M  V30 28 C 1.127134 -3.608778 -2.530782 0
M  V30 29 C -0.134816 -3.151064 -2.849822 0
M  V30 30 C -1.126834 -3.193509 -1.890691 0
M  V30 31 C -0.835667 -3.697939 -0.618116 0
M  V30 32 H 2.457227 -3.804713 1.457193 0
M  V30 33 H 2.388032 -5.481152 0.876039 0
M  V30 34 H 1.963048 -5.192315 2.589555 0
M  V30 35 H 0.026037 -5.645196 1.197909 0
M  V30 36 H -1.045959 -3.940124 2.566079 0
M  V30 37 H 1.745887 -0.695749 4.719492 0
M  V30 38 H 0.830750 1.217653 3.389385 0
M  V30 39 H 1.163695 4.091799 1.276400 0
M  V30 40 H 3.513489 4.604956 1.412737 0
M  V30 41 H 5.191461 2.944075 0.723293 0
M  V30 42 H 4.461037 0.724730 -0.118610 0
M  V30 43 H 2.037317 0.208998 -0.254349 0
M  V30 44 H -6.187760 2.546990 -1.399943 0
M  V30 45 H -6.553879 2.292752 0.077548 0
M  V30 46 H -5.231350 0.356982 1.190061 0
M  V30 47 H -3.068421 -0.329949 2.013948 0
M  V30 48 H 2.362437 -4.493741 -0.905513 0
M  V30 49 H 1.951646 -3.606378 -3.229601 0
M  V30 50 H -0.304299 -2.768731 -3.858125 0
M  V30 51 H -2.094581 -2.823421 -2.191334 0
M  V30 52 H -1.716545 -3.666341 0.025607 0
M  V30 END ATOM
M  V30 BEGIN BOND
M  V30 1 1 1 2
M  V30 2 1 2 3
M  V30 3 1 3 4
M  V30 4 2 4 5
M  V30 5 1 5 6
M  V30 6 2 6 7
M  V30 7 1 7 8
M  V30 8 1 8 9
M  V30 9 2 9 10
M  V30 10 1 10 11
M  V30 11 2 11 12
M  V30 12 1 12 13
M  V30 13 2 13 14
M  V30 14 1 14 15
M  V30 15 2 15 16
M  V30 16 1 10 17
M  V30 17 2 17 18
M  V30 18 1 18 19
M  V30 19 2 19 20
M  V30 20 1 20 21
M  V30 21 1 20 22
M  V30 22 2 22 23
M  V30 23 1 23 24
M  V30 24 2 8 25
M  V30 25 1 2 26
M  V30 26 2 26 27
M  V30 27 1 27 28
M  V30 28 2 28 29
M  V30 29 1 29 30
M  V30 30 2 30 31
M  V30 31 1 25 4
M  V30 32 1 31 26
M  V30 33 1 24 9
M  V30 34 1 16 11
M  V30 35 1 24 18
M  V30 36 1 1 32
M  V30 37 1 1 33
M  V30 38 1 1 34
M  V30 39 1 2 35 CFG=3
M  V30 40 1 3 36
M  V30 41 1 6 37
M  V30 42 1 7 38
M  V30 43 1 12 39
M  V30 44 1 13 40
M  V30 45 1 14 41
M  V30 46 1 15 42
M  V30 47 1 16 43
M  V30 48 1 21 44
M  V30 49 1 21 45
M  V30 50 1 22 46
M  V30 51 1 23 47
M  V30 52 1 27 48
M  V30 53 1 28 49
M  V30 54 1 29 50
M  V30 55 1 30 51
M  V30 56 1 31 52
M  V30 END BOND
M  V30 END CTAB
M  END
>  <Dataset>  (118) 
ChEMBL_Kinases

>  <Ligand_Instance>  (118) 
nan

>  <PDB_ID>  (118) 
nan

>  <Standardized_SMILES>  (118) 
C[C@@H](Nc1nccc(-c2c(-c3ccccc3)nc3nc(N)ccn23)n1)c1ccccc1

>  <Name>  (118) 
nan

>  <Pocket>  (118) 
nan

>  <ATP_Site>  (118) 
nan

>  <Peripheral>  (118) 
nan

>  <Num_H_Atoms_ProtBoundConf>  (118) 
nan

>  <Num_Resolved_Atoms>  (118) 
nan

>  <Num_Not_Resolved_Atoms>  (118) 
nan

$$$$
CHEMBL432798
     RDKit          3D

  0  0  0  0  0  0  0  0  0  0999 V3000
M  V30 BEGIN CTAB
M  V30 COUNTS 42 44 0 0 0
M  V30 BEGIN ATOM
M  V30 1 C 4.651475 -4.274673 1.452373 0
M  V30 2 S 3.003507 -4.379172 0.707343 0
M  V30 3 C 2.316758 -2.763805 0.393866 0
M  V30 4 N 2.494335 -2.080715 -0.758570 0
M  V30 5 C 1.845881 -0.893529 -0.676316 0
M  V30 6 C 1.759787 0.164064 -1.673511 0
M  V30 7 C 2.234010 1.452829 -1.675713 0
M  V30 8 C 2.025361 2.289213 -2.749058 0
M  V30 9 C 1.328432 1.849826 -3.859141 0
M  V30 10 F 1.161111 2.727800 -4.878165 0
M  V30 11 C 0.844273 0.563469 -3.879538 0
M  V30 12 C 1.053650 -0.285060 -2.795428 0
M  V30 13 C 1.241830 -0.817842 0.555220 0
M  V30 14 C 0.422210 0.192785 1.209715 0
M  V30 15 C 0.711715 1.478602 1.613832 0
M  V30 16 C -0.266736 2.237780 2.219950 0
M  V30 17 N -1.504442 1.752930 2.428622 0
M  V30 18 C -1.833138 0.504095 2.051444 0
M  V30 19 N -3.165473 0.037626 2.298453 0
M  V30 20 C -3.324539 -0.599755 3.558638 0
M  V30 21 C -4.667963 -1.122614 3.918966 0
M  V30 22 O -2.334604 -0.703668 4.328131 0
M  V30 23 C -0.871237 -0.292756 1.435928 0
M  V30 24 N 1.548626 -1.983565 1.193160 0
M  V30 25 C 1.165006 -2.424047 2.520803 0
M  V30 26 H 5.435275 -4.554487 0.688117 0
M  V30 27 H 4.756342 -5.005616 2.281653 0
M  V30 28 H 4.802901 -3.249330 1.850099 0
M  V30 29 H 2.761945 1.683543 -0.762354 0
M  V30 30 H 2.458888 3.276615 -2.605198 0
M  V30 31 H 0.312885 0.300437 -4.780537 0
M  V30 32 H 0.603470 -1.269403 -2.976347 0
M  V30 33 H 1.735255 1.742891 1.390416 0
M  V30 34 H 0.091091 3.226837 2.487119 0
M  V30 35 H -3.938487 0.158158 1.615315 0
M  V30 36 H -4.685256 -1.529961 4.950850 0
M  V30 37 H -5.404519 -0.287675 3.868186 0
M  V30 38 H -5.011699 -1.908492 3.242727 0
M  V30 39 H -1.249966 -1.289620 1.171786 0
M  V30 40 H 0.838887 -1.597721 3.174649 0
M  V30 41 H 2.081643 -2.858756 3.017188 0
M  V30 42 H 0.436404 -3.259784 2.477039 0
M  V30 END ATOM
M  V30 BEGIN BOND
M  V30 1 1 1 2
M  V30 2 1 2 3
M  V30 3 2 3 4
M  V30 4 1 4 5
M  V30 5 1 5 6
M  V30 6 2 6 7
M  V30 7 1 7 8
M  V30 8 2 8 9
M  V30 9 1 9 10
M  V30 10 1 9 11
M  V30 11 2 11 12
M  V30 12 2 5 13
M  V30 13 1 13 14
M  V30 14 2 14 15
M  V30 15 1 15 16
M  V30 16 2 16 17
M  V30 17 1 17 18
M  V30 18 1 18 19
M  V30 19 1 19 20
M  V30 20 1 20 21
M  V30 21 2 20 22
M  V30 22 2 18 23
M  V30 23 1 13 24
M  V30 24 1 24 25
M  V30 25 1 24 3
M  V30 26 1 12 6
M  V30 27 1 23 14
M  V30 28 1 1 26
M  V30 29 1 1 27
M  V30 30 1 1 28
M  V30 31 1 7 29
M  V30 32 1 8 30
M  V30 33 1 11 31
M  V30 34 1 12 32
M  V30 35 1 15 33
M  V30 36 1 16 34
M  V30 37 1 19 35
M  V30 38 1 21 36
M  V30 39 1 21 37
M  V30 40 1 21 38
M  V30 41 1 23 39
M  V30 42 1 25 40
M  V30 43 1 25 41
M  V30 44 1 25 42
M  V30 END BOND
M  V30 END CTAB
M  END
>  <Dataset>  (119) 
ChEMBL_Kinases

>  <Ligand_Instance>  (119) 
nan

>  <PDB_ID>  (119) 
nan

>  <Standardized_SMILES>  (119) 
CSc1nc(-c2ccc(F)cc2)c(-c2ccnc(NC(C)=O)c2)n1C

>  <Name>  (119) 
nan

>  <Pocket>  (119) 
nan

>  <ATP_Site>  (119) 
nan

>  <Peripheral>  (119) 
nan

>  <Num_H_Atoms_ProtBoundConf>  (119) 
nan

>  <Num_Resolved_Atoms>  (119) 
nan

>  <Num_Not_Resolved_Atoms>  (119) 
nan

$$$$
CHEMBL4754908
     RDKit          3D

  0  0  0  0  0  0  0  0  0  0999 V3000
M  V30 BEGIN CTAB
M  V30 COUNTS 44 47 0 0 0
M  V30 BEGIN ATOM
M  V30 1 O -0.363564 -3.010371 0.677681 0
M  V30 2 C 0.365308 -3.971761 1.034036 0
M  V30 3 N 1.753512 -3.847612 0.750944 0
M  V30 4 C 2.410864 -2.760355 0.110959 0
M  V30 5 C 3.754593 -2.629852 -0.168192 0
M  V30 6 N 3.942183 -1.464222 -0.771585 0
M  V30 7 N 2.808366 -0.800979 -0.916463 0
M  V30 8 C 2.594172 0.496738 -1.520565 0
M  V30 9 C 2.917278 0.667108 -2.842241 0
M  V30 10 S 2.475954 2.448207 -3.150260 0
M  V30 11 C 1.922867 2.728375 -1.487869 0
M  V30 12 C 1.416285 4.033861 -1.065979 0
M  V30 13 O 1.379772 4.967517 -1.916668 0
M  V30 14 N 1.001252 4.140585 0.290125 0
M  V30 15 C 0.472429 5.321218 0.921687 0
M  V30 16 C 1.228701 5.560916 2.232272 0
M  V30 17 O 0.364135 4.617873 2.817719 0
M  V30 18 C -0.621689 5.099277 1.941960 0
M  V30 19 C 2.082035 1.582268 -0.848164 0
M  V30 20 C 1.865182 -1.592287 -0.376332 0
M  V30 21 N -0.150361 -5.126574 1.684581 0
M  V30 22 C -1.578008 -5.021394 1.861163 0
M  V30 23 C -2.474715 -5.476415 0.916911 0
M  V30 24 C -3.815726 -5.320575 1.198290 0
M  V30 25 C -4.222600 -4.733720 2.376266 0
M  V30 26 F -5.569148 -4.652422 2.506560 0
M  V30 27 C -3.320081 -4.291586 3.294573 0
M  V30 28 C -1.959244 -4.424013 3.061109 0
M  V30 29 Cl -0.797073 -3.857560 4.237787 0
M  V30 30 H 2.343790 -4.660147 1.056250 0
M  V30 31 H 4.532561 -3.361471 0.067244 0
M  V30 32 H 3.321447 -0.024014 -3.546597 0
M  V30 33 H 1.062017 3.322519 0.933727 0
M  V30 34 H 0.377872 6.228355 0.303980 0
M  V30 35 H 1.034550 6.553034 2.673077 0
M  V30 36 H 2.292448 5.235799 2.187960 0
M  V30 37 H -1.015481 6.094709 2.248536 0
M  V30 38 H -1.395025 4.364396 1.646410 0
M  V30 39 H 1.798123 1.544500 0.195703 0
M  V30 40 H 0.833414 -1.296707 -0.356673 0
M  V30 41 H 0.512154 -5.901359 1.959763 0
M  V30 42 H -2.015839 -5.918013 0.034400 0
M  V30 43 H -4.487060 -5.693941 0.425126 0
M  V30 44 H -3.679765 -3.840723 4.198376 0
M  V30 END ATOM
M  V30 BEGIN BOND
M  V30 1 2 1 2
M  V30 2 1 2 3
M  V30 3 1 3 4
M  V30 4 1 4 5
M  V30 5 2 5 6
M  V30 6 1 6 7
M  V30 7 1 7 8
M  V30 8 2 8 9
M  V30 9 1 9 10
M  V30 10 1 10 11
M  V30 11 1 11 12
M  V30 12 2 12 13
M  V30 13 1 12 14
M  V30 14 1 14 15
M  V30 15 1 15 16
M  V30 16 1 16 17
M  V30 17 1 17 18
M  V30 18 2 11 19
M  V30 19 1 7 20
M  V30 20 1 2 21
M  V30 21 1 21 22
M  V30 22 2 22 23
M  V30 23 1 23 24
M  V30 24 2 24 25
M  V30 25 1 25 26
M  V30 26 1 25 27
M  V30 27 2 27 28
M  V30 28 1 28 29
M  V30 29 2 20 4
M  V30 30 1 28 22
M  V30 31 1 19 8
M  V30 32 1 18 15
M  V30 33 1 3 30
M  V30 34 1 5 31
M  V30 35 1 9 32
M  V30 36 1 14 33
M  V30 37 1 15 34
M  V30 38 1 16 35
M  V30 39 1 16 36
M  V30 40 1 18 37
M  V30 41 1 18 38
M  V30 42 1 19 39
M  V30 43 1 20 40
M  V30 44 1 21 41
M  V30 45 1 23 42
M  V30 46 1 24 43
M  V30 47 1 27 44
M  V30 END BOND
M  V30 END CTAB
M  END
>  <Dataset>  (120) 
ChEMBL_Kinases

>  <Ligand_Instance>  (120) 
nan

>  <PDB_ID>  (120) 
nan

>  <Standardized_SMILES>  (120) 
O=C(Nc1cnn(-c2csc(C(=O)NC3COC3)c2)c1)Nc1ccc(F)cc1Cl

>  <Name>  (120) 
nan

>  <Pocket>  (120) 
nan

>  <ATP_Site>  (120) 
nan

>  <Peripheral>  (120) 
nan

>  <Num_H_Atoms_ProtBoundConf>  (120) 
nan

>  <Num_Resolved_Atoms>  (120) 
nan

>  <Num_Not_Resolved_Atoms>  (120) 
nan

$$$$
CHEMBL431933
     RDKit          3D

  0  0  0  0  0  0  0  0  0  0999 V3000
M  V30 BEGIN CTAB
M  V30 COUNTS 37 40 0 0 0
M  V30 BEGIN ATOM
M  V30 1 C -1.484477 -3.930804 2.410071 0
M  V30 2 N -0.679275 -2.781352 2.048574 0
M  V30 3 C -0.888639 -1.548731 2.550912 0
M  V30 4 C 0.031601 -0.673297 2.014229 0
M  V30 5 C 0.384192 0.748649 2.141124 0
M  V30 6 C 0.412670 1.566569 1.071513 0
M  V30 7 C 0.127848 1.286521 -0.322359 0
M  V30 8 C -1.021881 0.505497 -0.448078 0
M  V30 9 C -1.488171 0.108657 -1.698123 0
M  V30 10 C -0.838926 0.468669 -2.844671 0
M  V30 11 C 0.306859 1.246509 -2.720671 0
M  V30 12 C 0.779258 1.646929 -1.467690 0
M  V30 13 Cl 2.207639 2.613287 -1.211685 0
M  V30 14 C 0.809578 2.894336 1.580792 0
M  V30 15 O 0.971158 3.989399 0.937477 0
M  V30 16 N 1.022053 2.867042 2.984575 0
M  V30 17 C 0.752115 1.514896 3.321882 0
M  V30 18 O 0.813913 1.019569 4.478789 0
M  V30 19 C 0.807341 -1.466596 1.158134 0
M  V30 20 C 1.907915 -1.255770 0.320451 0
M  V30 21 C 2.465436 -2.283129 -0.398057 0
M  V30 22 C 1.978352 -3.569090 -0.337783 0
M  V30 23 C 0.886540 -3.817556 0.485549 0
M  V30 24 C 0.350818 -2.764742 1.194210 0
M  V30 25 H -2.076836 -3.760774 3.308811 0
M  V30 26 H -2.126725 -4.128361 1.512078 0
M  V30 27 H -0.794161 -4.785972 2.575409 0
M  V30 28 H -1.607133 -1.139778 3.259038 0
M  V30 29 H -1.637199 0.150662 0.348171 0
M  V30 30 H -2.379334 -0.499055 -1.822299 0
M  V30 31 H -1.212647 0.151638 -3.808648 0
M  V30 32 H 0.868857 1.565298 -3.584226 0
M  V30 33 H 1.300756 3.633803 3.610389 0
M  V30 34 H 2.360914 -0.288115 0.227848 0
M  V30 35 H 3.333021 -2.056261 -1.039033 0
M  V30 36 H 2.448232 -4.344107 -0.921429 0
M  V30 37 H 0.505987 -4.840865 0.527697 0
M  V30 END ATOM
M  V30 BEGIN BOND
M  V30 1 1 1 2
M  V30 2 1 2 3
M  V30 3 2 3 4
M  V30 4 1 4 5
M  V30 5 2 5 6
M  V30 6 1 6 7
M  V30 7 2 7 8
M  V30 8 1 8 9
M  V30 9 2 9 10
M  V30 10 1 10 11
M  V30 11 2 11 12
M  V30 12 1 12 13
M  V30 13 1 6 14
M  V30 14 2 14 15
M  V30 15 1 14 16
M  V30 16 1 16 17
M  V30 17 2 17 18
M  V30 18 1 4 19
M  V30 19 2 19 20
M  V30 20 1 20 21
M  V30 21 2 21 22
M  V30 22 1 22 23
M  V30 23 2 23 24
M  V30 24 1 24 2
M  V30 25 1 17 5
M  V30 26 1 24 19
M  V30 27 1 12 7
M  V30 28 1 1 25
M  V30 29 1 1 26
M  V30 30 1 1 27
M  V30 31 1 3 28
M  V30 32 1 8 29
M  V30 33 1 9 30
M  V30 34 1 10 31
M  V30 35 1 11 32
M  V30 36 1 16 33
M  V30 37 1 20 34
M  V30 38 1 21 35
M  V30 39 1 22 36
M  V30 40 1 23 37
M  V30 END BOND
M  V30 END CTAB
M  END
>  <Dataset>  (121) 
ChEMBL_Kinases

>  <Ligand_Instance>  (121) 
nan

>  <PDB_ID>  (121) 
nan

>  <Standardized_SMILES>  (121) 
Cn1cc(C2=C(c3ccccc3Cl)C(=O)NC2=O)c2ccccc21

>  <Name>  (121) 
nan

>  <Pocket>  (121) 
nan

>  <ATP_Site>  (121) 
nan

>  <Peripheral>  (121) 
nan

>  <Num_H_Atoms_ProtBoundConf>  (121) 
nan

>  <Num_Resolved_Atoms>  (121) 
nan

>  <Num_Not_Resolved_Atoms>  (121) 
nan

$$$$
CHEMBL431865
     RDKit          3D

  0  0  0  0  0  0  0  0  0  0999 V3000
M  V30 BEGIN CTAB
M  V30 COUNTS 37 40 0 0 0
M  V30 BEGIN ATOM
M  V30 1 O 0.352429 -2.766242 4.703451 0
M  V30 2 C 0.678612 -1.936321 3.810614 0
M  V30 3 N 1.143966 -0.712140 4.177295 0
M  V30 4 C 1.487690 0.161825 3.212471 0
M  V30 5 N 1.413224 -0.065046 1.888579 0
M  V30 6 N 1.777348 0.864763 1.028924 0
M  V30 7 C 1.689507 0.603165 -0.287073 0
M  V30 8 S 2.183195 1.863690 -1.458373 0
M  V30 9 C 0.726820 2.841243 -1.812602 0
M  V30 10 C -0.224566 2.658973 -2.794595 0
M  V30 11 C -1.270371 3.531396 -2.893094 0
M  V30 12 C -1.386844 4.590878 -2.024117 0
M  V30 13 F -2.434364 5.468545 -2.119305 0
M  V30 14 C -0.456960 4.808270 -1.028434 0
M  V30 15 Cl -0.657073 6.175034 0.049839 0
M  V30 16 C 0.613525 3.913369 -0.929341 0
M  V30 17 C 1.220462 -0.632686 -0.736915 0
M  V30 18 C 0.837156 -1.611345 0.173525 0
M  V30 19 C 0.954646 -1.272117 1.498022 0
M  V30 20 C 0.590909 -2.198795 2.444262 0
M  V30 21 C 0.083492 -3.531315 2.139238 0
M  V30 22 C 1.124255 -4.460423 2.044644 0
M  V30 23 Cl 2.824207 -4.094820 2.260488 0
M  V30 24 C 0.834471 -5.796269 1.757400 0
M  V30 25 C -0.471471 -6.198214 1.567775 0
M  V30 26 C -1.495491 -5.256685 1.666229 0
M  V30 27 C -1.222278 -3.934179 1.949447 0
M  V30 28 Cl -2.406564 -2.670337 2.097718 0
M  V30 29 H 1.848271 1.112609 3.587142 0
M  V30 30 H -0.020673 1.804882 -3.400835 0
M  V30 31 H -1.992938 3.349869 -3.678307 0
M  V30 32 H 1.286747 4.173325 -0.114702 0
M  V30 33 H 1.146589 -0.851097 -1.778635 0
M  V30 34 H 0.464193 -2.592058 -0.103243 0
M  V30 35 H 1.605803 -6.541828 1.676088 0
M  V30 36 H -0.708507 -7.231446 1.344501 0
M  V30 37 H -2.541770 -5.524898 1.524889 0
M  V30 END ATOM
M  V30 BEGIN BOND
M  V30 1 2 1 2
M  V30 2 1 2 3
M  V30 3 2 3 4
M  V30 4 1 4 5
M  V30 5 1 5 6
M  V30 6 2 6 7
M  V30 7 1 7 8
M  V30 8 1 8 9
M  V30 9 2 9 10
M  V30 10 1 10 11
M  V30 11 2 11 12
M  V30 12 1 12 13
M  V30 13 1 12 14
M  V30 14 1 14 15
M  V30 15 2 14 16
M  V30 16 1 7 17
M  V30 17 2 17 18
M  V30 18 1 18 19
M  V30 19 2 19 20
M  V30 20 1 20 21
M  V30 21 2 21 22
M  V30 22 1 22 23
M  V30 23 1 22 24
M  V30 24 2 24 25
M  V30 25 1 25 26
M  V30 26 2 26 27
M  V30 27 1 27 28
M  V30 28 1 20 2
M  V30 29 1 27 21
M  V30 30 1 19 5
M  V30 31 1 16 9
M  V30 32 1 4 29
M  V30 33 1 10 30
M  V30 34 1 11 31
M  V30 35 1 16 32
M  V30 36 1 17 33
M  V30 37 1 18 34
M  V30 38 1 24 35
M  V30 39 1 25 36
M  V30 40 1 26 37
M  V30 END BOND
M  V30 END CTAB
M  END
>  <Dataset>  (122) 
ChEMBL_Kinases

>  <Ligand_Instance>  (122) 
nan

>  <PDB_ID>  (122) 
nan

>  <Standardized_SMILES>  (122) 
O=c1ncn2nc(Sc3ccc(F)c(Cl)c3)ccc2c1-c1c(Cl)cccc1Cl

>  <Name>  (122) 
nan

>  <Pocket>  (122) 
nan

>  <ATP_Site>  (122) 
nan

>  <Peripheral>  (122) 
nan

>  <Num_H_Atoms_ProtBoundConf>  (122) 
nan

>  <Num_Resolved_Atoms>  (122) 
nan

>  <Num_Not_Resolved_Atoms>  (122) 
nan

$$$$
CHEMBL431583
     RDKit          3D

  0  0  0  0  0  0  0  0  0  0999 V3000
M  V30 BEGIN CTAB
M  V30 COUNTS 44 47 0 0 0
M  V30 BEGIN ATOM
M  V30 1 C 1.575453 -5.151329 6.092826 0
M  V30 2 O 1.474705 -4.175889 5.041628 0
M  V30 3 C 0.272279 -3.961885 4.390127 0
M  V30 4 O -0.637895 -4.703821 4.838692 0
M  V30 5 C 0.277956 -2.959694 3.348082 0
M  V30 6 C 1.356323 -2.218572 2.962154 0
M  V30 7 C 1.196532 -1.303510 1.947595 0
M  V30 8 C -0.031265 -1.109944 1.302173 0
M  V30 9 C 0.081815 -0.083403 0.270563 0
M  V30 10 N 0.357664 1.194768 0.638955 0
M  V30 11 C 0.424029 1.999580 -0.462334 0
M  V30 12 C 0.696659 3.434929 -0.493154 0
M  V30 13 C 0.736932 4.130018 -1.695533 0
M  V30 14 C 0.994474 5.484385 -1.728410 0
M  V30 15 C 1.207832 6.105046 -0.514446 0
M  V30 16 C 1.179134 5.461771 0.707878 0
M  V30 17 C 0.915771 4.089024 0.712609 0
M  V30 18 N 0.185047 1.208637 -1.537226 0
M  V30 19 C -0.026373 -0.063954 -1.118066 0
M  V30 20 C -0.326405 -1.288914 -1.847683 0
M  V30 21 C -1.514217 -1.976478 -1.816549 0
M  V30 22 C -1.789818 -3.136300 -2.500618 0
M  V30 23 N -0.825486 -3.666707 -3.277721 0
M  V30 24 C 0.361548 -3.016676 -3.334702 0
M  V30 25 C 0.663207 -1.836270 -2.647658 0
M  V30 26 C -1.104711 -1.871034 1.710970 0
M  V30 27 C -0.940968 -2.786642 2.727463 0
M  V30 28 H 2.557664 -5.122257 6.567376 0
M  V30 29 H 0.752988 -4.866422 6.808323 0
M  V30 30 H 1.333824 -6.167982 5.729916 0
M  V30 31 H 2.290377 -2.388224 3.479626 0
M  V30 32 H 2.128928 -0.763505 1.719451 0
M  V30 33 H 0.512749 1.592341 1.597982 0
M  V30 34 H 0.557019 3.542241 -2.582258 0
M  V30 35 H 1.025255 6.019425 -2.670370 0
M  V30 36 H 1.413120 7.167516 -0.502210 0
M  V30 37 H 1.357384 6.024316 1.617470 0
M  V30 38 H 0.897307 3.598275 1.674647 0
M  V30 39 H -2.304286 -1.574954 -1.207265 0
M  V30 40 H -2.753327 -3.625991 -2.427922 0
M  V30 41 H 1.067069 -3.520730 -3.983049 0
M  V30 42 H 1.648389 -1.413898 -2.778958 0
M  V30 43 H -1.991261 -1.643236 1.156489 0
M  V30 44 H -1.855532 -3.324869 2.960723 0
M  V30 END ATOM
M  V30 BEGIN BOND
M  V30 1 1 1 2
M  V30 2 1 2 3
M  V30 3 2 3 4
M  V30 4 1 3 5
M  V30 5 2 5 6
M  V30 6 1 6 7
M  V30 7 2 7 8
M  V30 8 1 8 9
M  V30 9 1 9 10
M  V30 10 1 10 11
M  V30 11 1 11 12
M  V30 12 2 12 13
M  V30 13 1 13 14
M  V30 14 2 14 15
M  V30 15 1 15 16
M  V30 16 2 16 17
M  V30 17 2 11 18
M  V30 18 1 18 19
M  V30 19 1 19 20
M  V30 20 2 20 21
M  V30 21 1 21 22
M  V30 22 2 22 23
M  V30 23 1 23 24
M  V30 24 2 24 25
M  V30 25 1 8 26
M  V30 26 2 26 27
M  V30 27 1 27 5
M  V30 28 2 19 9
M  V30 29 1 25 20
M  V30 30 1 17 12
M  V30 31 1 1 28
M  V30 32 1 1 29
M  V30 33 1 1 30
M  V30 34 1 6 31
M  V30 35 1 7 32
M  V30 36 1 10 33
M  V30 37 1 13 34
M  V30 38 1 14 35
M  V30 39 1 15 36
M  V30 40 1 16 37
M  V30 41 1 17 38
M  V30 42 1 21 39
M  V30 43 1 22 40
M  V30 44 1 24 41
M  V30 45 1 25 42
M  V30 46 1 26 43
M  V30 47 1 27 44
M  V30 END BOND
M  V30 END CTAB
M  END
>  <Dataset>  (123) 
ChEMBL_Kinases

>  <Ligand_Instance>  (123) 
nan

>  <PDB_ID>  (123) 
nan

>  <Standardized_SMILES>  (123) 
COC(=O)c1ccc(-c2[nH]c(-c3ccccc3)nc2-c2ccncc2)cc1

>  <Name>  (123) 
nan

>  <Pocket>  (123) 
nan

>  <ATP_Site>  (123) 
nan

>  <Peripheral>  (123) 
nan

>  <Num_H_Atoms_ProtBoundConf>  (123) 
nan

>  <Num_Resolved_Atoms>  (123) 
nan

>  <Num_Not_Resolved_Atoms>  (123) 
nan

$$$$
CHEMBL430853
     RDKit          3D

  0  0  0  0  0  0  0  0  0  0999 V3000
M  V30 BEGIN CTAB
M  V30 COUNTS 22 23 0 0 0
M  V30 BEGIN ATOM
M  V30 1 C -1.332552 -2.364992 2.500395 0
M  V30 2 C -0.455788 -1.352585 1.884184 0
M  V30 3 C 0.904644 -1.441771 2.090377 0
M  V30 4 C 1.794354 -0.514666 1.535262 0
M  V30 5 O 3.156419 -0.599980 1.738917 0
M  V30 6 C 1.280611 0.515550 0.759658 0
M  V30 7 C -0.080569 0.601855 0.555404 0
M  V30 8 C -0.965371 -0.326829 1.112144 0
M  V30 9 C -0.719292 1.640387 -0.239228 0
M  V30 10 O -1.927549 1.771401 -0.458629 0
M  V30 11 C 0.169103 2.646519 -0.849815 0
M  V30 12 C 1.476070 2.551862 -0.645442 0
M  V30 13 C 2.150101 1.526436 0.143745 0
M  V30 14 O 3.375171 1.482766 0.303764 0
M  V30 15 H -1.230140 -3.359816 2.002214 0
M  V30 16 H -2.408487 -2.083277 2.425303 0
M  V30 17 H -1.147541 -2.504914 3.593267 0
M  V30 18 H 1.286796 -2.236236 2.687014 0
M  V30 19 H 3.729818 -0.914806 0.959582 0
M  V30 20 H -2.035775 -0.302840 0.982248 0
M  V30 21 H -0.228097 3.441029 -1.448077 0
M  V30 22 H 2.094602 3.317324 -1.116030 0
M  V30 END ATOM
M  V30 BEGIN BOND
M  V30 1 1 1 2
M  V30 2 2 2 3
M  V30 3 1 3 4
M  V30 4 1 4 5
M  V30 5 2 4 6
M  V30 6 1 6 7
M  V30 7 2 7 8
M  V30 8 1 7 9
M  V30 9 2 9 10
M  V30 10 1 9 11
M  V30 11 2 11 12
M  V30 12 1 12 13
M  V30 13 2 13 14
M  V30 14 1 8 2
M  V30 15 1 13 6
M  V30 16 1 1 15
M  V30 17 1 1 16
M  V30 18 1 1 17
M  V30 19 1 3 18
M  V30 20 1 5 19
M  V30 21 1 8 20
M  V30 22 1 11 21
M  V30 23 1 12 22
M  V30 END BOND
M  V30 END CTAB
M  END
>  <Dataset>  (124) 
ChEMBL_Kinases

>  <Ligand_Instance>  (124) 
nan

>  <PDB_ID>  (124) 
nan

>  <Standardized_SMILES>  (124) 
Cc1cc(O)c2c(c1)C(=O)C=CC2=O

>  <Name>  (124) 
RAMENTACEONE

>  <Pocket>  (124) 
nan

>  <ATP_Site>  (124) 
nan

>  <Peripheral>  (124) 
nan

>  <Num_H_Atoms_ProtBoundConf>  (124) 
nan

>  <Num_Resolved_Atoms>  (124) 
nan

>  <Num_Not_Resolved_Atoms>  (124) 
nan

$$$$
CHEMBL430419
     RDKit          3D

  0  0  0  0  0  0  0  0  0  0999 V3000
M  V30 BEGIN CTAB
M  V30 COUNTS 38 41 0 0 0
M  V30 BEGIN ATOM
M  V30 1 Cl -0.451079 -5.333710 5.125953 0
M  V30 2 C -0.177757 -4.125561 3.885046 0
M  V30 3 C -0.320044 -4.464851 2.559617 0
M  V30 4 C -0.119236 -3.555136 1.517071 0
M  V30 5 C 0.234655 -2.272315 1.846650 0
M  V30 6 C 0.487422 -1.181253 0.884793 0
M  V30 7 N 1.408462 -1.040877 -0.092771 0
M  V30 8 C 1.195806 0.159174 -0.678024 0
M  V30 9 C 2.001450 0.687718 -1.797926 0
M  V30 10 C 3.058983 -0.025444 -2.346136 0
M  V30 11 C 3.800947 0.497201 -3.399804 0
M  V30 12 C 3.461340 1.742905 -3.888332 0
M  V30 13 C 2.407801 2.453791 -3.342260 0
M  V30 14 C 1.656207 1.949878 -2.291842 0
M  V30 15 N 0.142118 0.766459 -0.065028 0
M  V30 16 C -0.314290 -0.044942 0.907672 0
M  V30 17 C -1.445225 0.321030 1.755720 0
M  V30 18 C -2.509051 -0.576914 1.608185 0
M  V30 19 C -3.677944 -0.406919 2.325848 0
M  V30 20 N -3.789812 0.639670 3.178495 0
M  V30 21 C -2.775370 1.509773 3.329846 0
M  V30 22 C -1.593091 1.376149 2.632941 0
M  V30 23 C 0.387123 -1.895422 3.179310 0
M  V30 24 C 0.182217 -2.818947 4.205897 0
M  V30 25 H -0.599496 -5.473764 2.261330 0
M  V30 26 H -0.221856 -3.785402 0.483091 0
M  V30 27 H 3.232364 -0.987537 -1.882601 0
M  V30 28 H 4.614329 -0.109652 -3.782626 0
M  V30 29 H 4.041242 2.159550 -4.717190 0
M  V30 30 H 2.162543 3.429822 -3.745103 0
M  V30 31 H 0.838516 2.530023 -1.886921 0
M  V30 32 H -0.228901 1.709818 -0.329247 0
M  V30 33 H -2.515267 -1.450788 0.946963 0
M  V30 34 H -4.527147 -1.094890 2.229258 0
M  V30 35 H -2.814554 2.360017 3.997408 0
M  V30 36 H -0.713359 2.003484 2.667070 0
M  V30 37 H 0.663715 -0.908824 3.551441 0
M  V30 38 H 0.290957 -2.564445 5.248384 0
M  V30 END ATOM
M  V30 BEGIN BOND
M  V30 1 1 1 2
M  V30 2 2 2 3
M  V30 3 1 3 4
M  V30 4 2 4 5
M  V30 5 1 5 6
M  V30 6 1 6 7
M  V30 7 2 7 8
M  V30 8 1 8 9
M  V30 9 2 9 10
M  V30 10 1 10 11
M  V30 11 2 11 12
M  V30 12 1 12 13
M  V30 13 2 13 14
M  V30 14 1 8 15
M  V30 15 1 15 16
M  V30 16 1 16 17
M  V30 17 2 17 18
M  V30 18 1 18 19
M  V30 19 2 19 20
M  V30 20 1 20 21
M  V30 21 2 21 22
M  V30 22 1 5 23
M  V30 23 2 23 24
M  V30 24 1 24 2
M  V30 25 2 16 6
M  V30 26 1 22 17
M  V30 27 1 14 9
M  V30 28 1 3 25
M  V30 29 1 4 26
M  V30 30 1 10 27
M  V30 31 1 11 28
M  V30 32 1 12 29
M  V30 33 1 13 30
M  V30 34 1 14 31
M  V30 35 1 15 32
M  V30 36 1 18 33
M  V30 37 1 19 34
M  V30 38 1 21 35
M  V30 39 1 22 36
M  V30 40 1 23 37
M  V30 41 1 24 38
M  V30 END BOND
M  V30 END CTAB
M  END
>  <Dataset>  (125) 
ChEMBL_Kinases

>  <Ligand_Instance>  (125) 
nan

>  <PDB_ID>  (125) 
nan

>  <Standardized_SMILES>  (125) 
Clc1ccc(-c2nc(-c3ccccc3)[nH]c2-c2ccncc2)cc1

>  <Name>  (125) 
nan

>  <Pocket>  (125) 
nan

>  <ATP_Site>  (125) 
nan

>  <Peripheral>  (125) 
nan

>  <Num_H_Atoms_ProtBoundConf>  (125) 
nan

>  <Num_Resolved_Atoms>  (125) 
nan

>  <Num_Not_Resolved_Atoms>  (125) 
nan

$$$$
CHEMBL437118
     RDKit          3D

  0  0  0  0  0  0  0  0  0  0999 V3000
M  V30 BEGIN CTAB
M  V30 COUNTS 38 41 0 0 0
M  V30 BEGIN ATOM
M  V30 1 N -0.665873 -6.256340 5.389577 0
M  V30 2 C -0.288734 -5.463086 4.621305 0
M  V30 3 C 0.189698 -4.482732 3.687290 0
M  V30 4 C 1.046725 -4.796822 2.637184 0
M  V30 5 C 1.490970 -3.812164 1.752592 0
M  V30 6 C 1.061164 -2.503103 1.938034 0
M  V30 7 C 1.560693 -1.521809 0.985047 0
M  V30 8 C 1.243064 -0.181614 1.008953 0
M  V30 9 C 1.723068 0.734010 0.100103 0
M  V30 10 C 1.369041 2.153952 0.133438 0
M  V30 11 C 1.919218 3.415618 0.334749 0
M  V30 12 N 0.960450 4.329328 0.211239 0
M  V30 13 N -0.191313 3.725066 -0.061412 0
M  V30 14 C 0.009555 2.380687 -0.119757 0
M  V30 15 C -1.164560 1.545826 -0.415016 0
M  V30 16 C -1.714261 1.802797 -1.676601 0
M  V30 17 C -2.823994 1.138660 -2.174149 0
M  V30 18 C -3.403915 0.176001 -1.368296 0
M  V30 19 C -2.834606 -0.050123 -0.130791 0
M  V30 20 N -1.757162 0.608544 0.328358 0
M  V30 21 C 2.574995 0.318559 -0.906751 0
M  V30 22 C 2.872331 -1.022631 -0.903185 0
M  V30 23 N 2.392074 -1.915273 -0.001232 0
M  V30 24 C 0.221399 -2.181486 2.962205 0
M  V30 25 C -0.200755 -3.166289 3.817116 0
M  V30 26 H 1.360181 -5.839251 2.527631 0
M  V30 27 H 2.167261 -4.142641 0.947882 0
M  V30 28 H 0.586510 0.181326 1.777231 0
M  V30 29 H 2.998068 3.359003 0.544346 0
M  V30 30 H 1.262662 5.321256 0.343021 0
M  V30 31 H -1.298410 2.553729 -2.363593 0
M  V30 32 H -3.226103 1.358239 -3.150300 0
M  V30 33 H -4.274524 -0.393512 -1.675534 0
M  V30 34 H -3.217181 -0.781240 0.567477 0
M  V30 35 H 2.977090 1.004823 -1.642731 0
M  V30 36 H 3.545478 -1.366383 -1.695041 0
M  V30 37 H -0.118605 -1.177336 3.117301 0
M  V30 38 H -0.876981 -2.874722 4.634489 0
M  V30 END ATOM
M  V30 BEGIN BOND
M  V30 1 3 1 2
M  V30 2 1 2 3
M  V30 3 2 3 4
M  V30 4 1 4 5
M  V30 5 2 5 6
M  V30 6 1 6 7
M  V30 7 2 7 8
M  V30 8 1 8 9
M  V30 9 1 9 10
M  V30 10 2 10 11
M  V30 11 1 11 12
M  V30 12 1 12 13
M  V30 13 2 13 14
M  V30 14 1 14 15
M  V30 15 2 15 16
M  V30 16 1 16 17
M  V30 17 2 17 18
M  V30 18 1 18 19
M  V30 19 2 19 20
M  V30 20 2 9 21
M  V30 21 1 21 22
M  V30 22 2 22 23
M  V30 23 1 6 24
M  V30 24 2 24 25
M  V30 25 1 25 3
M  V30 26 1 23 7
M  V30 27 1 14 10
M  V30 28 1 20 15
M  V30 29 1 4 26
M  V30 30 1 5 27
M  V30 31 1 8 28
M  V30 32 1 11 29
M  V30 33 1 12 30
M  V30 34 1 16 31
M  V30 35 1 17 32
M  V30 36 1 18 33
M  V30 37 1 19 34
M  V30 38 1 21 35
M  V30 39 1 22 36
M  V30 40 1 24 37
M  V30 41 1 25 38
M  V30 END BOND
M  V30 END CTAB
M  END
>  <Dataset>  (126) 
ChEMBL_Kinases

>  <Ligand_Instance>  (126) 
nan

>  <PDB_ID>  (126) 
nan

>  <Standardized_SMILES>  (126) 
N#Cc1ccc(-c2cc(-c3c[nH]nc3-c3ccccn3)ccn2)cc1

>  <Name>  (126) 
nan

>  <Pocket>  (126) 
nan

>  <ATP_Site>  (126) 
nan

>  <Peripheral>  (126) 
nan

>  <Num_H_Atoms_ProtBoundConf>  (126) 
nan

>  <Num_Resolved_Atoms>  (126) 
nan

>  <Num_Not_Resolved_Atoms>  (126) 
nan

$$$$
CHEMBL4303250
     RDKit          3D

  0  0  0  0  0  0  0  0  0  0999 V3000
M  V30 BEGIN CTAB
M  V30 COUNTS 63 68 0 0 0
M  V30 BEGIN ATOM
M  V30 1 C 0.170916 -3.219104 4.903027 0
M  V30 2 C -0.044472 -2.131306 3.967838 0
M  V30 3 N 0.535099 -0.892990 3.933785 0
M  V30 4 C 0.239671 0.006564 2.988670 0
M  V30 5 N 0.831586 1.294602 2.894880 0
M  V30 6 C 1.755656 1.428708 1.808743 0
M  V30 7 C 2.173654 0.476142 0.921028 0
M  V30 8 N 3.025165 1.058923 0.055327 0
M  V30 9 N 3.159964 2.335453 0.360443 0
M  V30 10 C 3.980296 3.302772 -0.346655 0
M  V30 11 C 3.491755 4.712251 -0.143548 0
M  V30 12 C 2.230228 5.001415 -0.916908 0
M  V30 13 N 1.930872 3.943935 -1.867188 0
M  V30 14 C 3.090961 3.642195 -2.671674 0
M  V30 15 C 4.092581 2.932003 -1.797140 0
M  V30 16 C 2.395068 2.600630 1.434238 0
M  V30 17 N -0.646691 -0.181133 1.966762 0
M  V30 18 C -1.262820 -1.400854 1.942018 0
M  V30 19 C -0.960314 -2.342277 2.923814 0
M  V30 20 N -1.554760 -3.661253 3.004656 0
M  V30 21 C -1.710633 -4.168899 4.328495 0
M  V30 22 C -1.968663 -4.397935 1.833192 0
M  V30 23 O -1.922158 -5.663650 2.038068 0
M  V30 24 C -2.419649 -3.935667 0.489273 0
M  V30 25 C -2.762788 -5.039013 -0.255235 0
M  V30 26 C -3.204945 -4.691035 -1.502462 0
M  V30 27 C -3.627541 -5.614534 -2.462728 0
M  V30 28 C -4.093697 -5.404746 -3.735540 0
M  V30 29 C -4.149005 -4.078735 -4.107395 0
M  V30 30 C -3.768591 -3.053466 -3.270849 0
M  V30 31 C -3.316484 -3.391053 -2.016749 0
M  V30 32 C -2.942929 -2.341234 -1.184585 0
M  V30 33 C -2.488377 -2.622241 0.086836 0
M  V30 34 N -2.141384 -1.444330 0.814203 0
M  V30 35 C -2.723703 -0.211941 0.362392 0
M  V30 36 H 0.731879 -4.121721 4.599963 0
M  V30 37 H 1.141938 -2.772435 5.356653 0
M  V30 38 H -0.282780 -3.187566 5.916611 0
M  V30 39 H 0.649094 2.096194 3.527381 0
M  V30 40 H 1.862275 -0.559491 0.932087 0
M  V30 41 H 4.996324 3.253118 0.090089 0
M  V30 42 H 4.286085 5.428269 -0.428398 0
M  V30 43 H 3.297554 4.892629 0.926572 0
M  V30 44 H 2.380437 5.928178 -1.507275 0
M  V30 45 H 1.369429 5.181619 -0.242512 0
M  V30 46 H 1.680883 3.102171 -1.324872 0
M  V30 47 H 3.547534 4.559469 -3.116287 0
M  V30 48 H 2.807367 2.943875 -3.492085 0
M  V30 49 H 3.968282 1.835074 -1.913248 0
M  V30 50 H 5.108173 3.162641 -2.202336 0
M  V30 51 H 2.239097 3.521544 1.978418 0
M  V30 52 H -2.255432 -3.570984 5.072756 0
M  V30 53 H -1.252083 -5.127989 4.600625 0
M  V30 54 H -2.694535 -4.750565 4.124266 0
M  V30 55 H -2.712068 -6.066712 0.046438 0
M  V30 56 H -3.575470 -6.671945 -2.147200 0
M  V30 57 H -4.380051 -6.220203 -4.359409 0
M  V30 58 H -4.504089 -3.808397 -5.091593 0
M  V30 59 H -3.814741 -2.015406 -3.565212 0
M  V30 60 H -2.980432 -1.307564 -1.454498 0
M  V30 61 H -2.136616 0.298338 -0.425430 0
M  V30 62 H -2.717889 0.487513 1.240162 0
M  V30 63 H -3.809498 -0.290415 0.099596 0
M  V30 END ATOM
M  V30 BEGIN BOND
M  V30 1 1 1 2
M  V30 2 2 2 3
M  V30 3 1 3 4
M  V30 4 1 4 5
M  V30 5 1 5 6
M  V30 6 1 6 7
M  V30 7 2 7 8
M  V30 8 1 8 9
M  V30 9 1 9 10
M  V30 10 1 10 11
M  V30 11 1 11 12
M  V30 12 1 12 13
M  V30 13 1 13 14
M  V30 14 1 14 15
M  V30 15 1 9 16
M  V30 16 2 4 17
M  V30 17 1 17 18
M  V30 18 2 18 19
M  V30 19 1 19 20
M  V30 20 1 20 21
M  V30 21 1 20 22
M  V30 22 2 22 23
M  V30 23 1 22 24
M  V30 24 2 24 25
M  V30 25 1 25 26
M  V30 26 2 26 27
M  V30 27 1 27 28
M  V30 28 2 28 29
M  V30 29 1 29 30
M  V30 30 2 30 31
M  V30 31 1 31 32
M  V30 32 2 32 33
M  V30 33 1 33 34
M  V30 34 1 34 35
M  V30 35 1 19 2
M  V30 36 1 33 24
M  V30 37 2 16 6
M  V30 38 1 34 18
M  V30 39 1 15 10
M  V30 40 1 31 26
M  V30 41 1 1 36
M  V30 42 1 1 37
M  V30 43 1 1 38
M  V30 44 1 5 39
M  V30 45 1 7 40
M  V30 46 1 10 41
M  V30 47 1 11 42
M  V30 48 1 11 43
M  V30 49 1 12 44
M  V30 50 1 12 45
M  V30 51 1 13 46
M  V30 52 1 14 47
M  V30 53 1 14 48
M  V30 54 1 15 49
M  V30 55 1 15 50
M  V30 56 1 16 51
M  V30 57 1 21 52
M  V30 58 1 21 53
M  V30 59 1 21 54
M  V30 60 1 25 55
M  V30 61 1 27 56
M  V30 62 1 28 57
M  V30 63 1 29 58
M  V30 64 1 30 59
M  V30 65 1 32 60
M  V30 66 1 35 61
M  V30 67 1 35 62
M  V30 68 1 35 63
M  V30 END BOND
M  V30 END CTAB
M  END
>  <Dataset>  (127) 
ChEMBL_Kinases

>  <Ligand_Instance>  (127) 
nan

>  <PDB_ID>  (127) 
nan

>  <Standardized_SMILES>  (127) 
Cc1nc(Nc2cnn(C3CCNCC3)c2)nc2c1N(C)C(=O)c1cc3ccccc3cc1N2C

>  <Name>  (127) 
nan

>  <Pocket>  (127) 
nan

>  <ATP_Site>  (127) 
nan

>  <Peripheral>  (127) 
nan

>  <Num_H_Atoms_ProtBoundConf>  (127) 
nan

>  <Num_Resolved_Atoms>  (127) 
nan

>  <Num_Not_Resolved_Atoms>  (127) 
nan

$$$$
CHEMBL4303241
     RDKit          3D

  0  0  0  0  0  0  0  0  0  0999 V3000
M  V30 BEGIN CTAB
M  V30 COUNTS 66 70 0 0 0
M  V30 BEGIN ATOM
M  V30 1 C 6.701585 3.278171 6.509826 0
M  V30 2 O 5.606367 2.957058 5.687750 0
M  V30 3 C 5.536588 1.747106 5.012624 0
M  V30 4 C 6.560027 0.836413 5.146555 0
M  V30 5 C 6.548818 -0.382517 4.501707 0
M  V30 6 S 7.825410 -1.570901 4.639784 0
M  V30 7 C 7.524237 -2.678107 5.978152 0
M  V30 8 O 7.879738 -2.341584 3.352232 0
M  V30 9 O 9.130543 -0.859249 4.890898 0
M  V30 10 C 5.452740 -0.652079 3.706477 0
M  V30 11 C 4.444386 0.266851 3.585752 0
M  V30 12 C 4.440091 1.486694 4.221393 0
M  V30 13 N 3.394597 2.439581 4.094454 0
M  V30 14 C 2.208816 2.313983 3.322932 0
M  V30 15 N 1.229930 3.254993 3.217983 0
M  V30 16 C 0.274727 2.778021 2.403713 0
M  V30 17 C -0.922752 3.286474 1.946011 0
M  V30 18 C -1.737857 2.552915 1.082800 0
M  V30 19 C -1.339886 1.294714 0.678566 0
M  V30 20 C -2.057733 0.395504 -0.217313 0
M  V30 21 C -1.985194 -0.993099 -0.104847 0
M  V30 22 C -2.686389 -1.817429 -0.994081 0
M  V30 23 C -3.471739 -1.262035 -2.010806 0
M  V30 24 N -4.066920 -2.294434 -2.765943 0
M  V30 25 C -5.310258 -2.916835 -2.578904 0
M  V30 26 O -5.957762 -2.459842 -1.578306 0
M  V30 27 C -5.864987 -4.018457 -3.446755 0 CFG=2
M  V30 28 C -4.906965 -5.158892 -3.473845 0
M  V30 29 C -6.042578 -3.447052 -4.804232 0
M  V30 30 C -7.358037 -3.056176 -5.085740 0
M  V30 31 C -7.723529 -2.503955 -6.317033 0
M  V30 32 C -6.768380 -2.332412 -7.296002 0
M  V30 33 F -7.106002 -1.797844 -8.498956 0
M  V30 34 C -5.465313 -2.717124 -7.024330 0
M  V30 35 C -5.130038 -3.256296 -5.810455 0
M  V30 36 C -3.530793 0.104503 -2.104969 0
M  V30 37 C -2.847990 0.897803 -1.239146 0
M  V30 38 C -0.133281 0.793273 1.145796 0
M  V30 39 N 0.617520 1.548905 1.981621 0
M  V30 40 N 1.781209 1.303832 2.552074 0
M  V30 41 H 7.608173 3.441346 5.893498 0
M  V30 42 H 6.480977 4.194708 7.099782 0
M  V30 43 H 6.912241 2.404960 7.158138 0
M  V30 44 H 7.432829 1.015757 5.759666 0
M  V30 45 H 8.091084 -3.634608 5.817329 0
M  V30 46 H 7.896705 -2.253940 6.952224 0
M  V30 47 H 6.446143 -2.832374 6.094994 0
M  V30 48 H 5.436255 -1.620288 3.189912 0
M  V30 49 H 3.644303 -0.036201 2.949218 0
M  V30 50 H 3.517470 3.340873 4.636031 0
M  V30 51 H -1.234293 4.263204 2.258790 0
M  V30 52 H -2.670153 2.895062 0.698569 0
M  V30 53 H -1.368842 -1.390277 0.694246 0
M  V30 54 H -2.527915 -2.885533 -0.776031 0
M  V30 55 H -3.452395 -2.591988 -3.547710 0
M  V30 56 H -6.884199 -4.302904 -3.042798 0
M  V30 57 H -5.174158 -5.958195 -2.780031 0
M  V30 58 H -4.848821 -5.592925 -4.507150 0
M  V30 59 H -3.886637 -4.735390 -3.251821 0
M  V30 60 H -8.188583 -3.145717 -4.389080 0
M  V30 61 H -8.742192 -2.202903 -6.527383 0
M  V30 62 H -4.675795 -2.604264 -7.758794 0
M  V30 63 H -4.142536 -3.563976 -5.581356 0
M  V30 64 H -4.169749 0.409990 -2.930116 0
M  V30 65 H -2.947367 1.977355 -1.381589 0
M  V30 66 H 0.261291 -0.186552 0.881262 0
M  V30 END ATOM
M  V30 BEGIN BOND
M  V30 1 1 1 2
M  V30 2 1 2 3
M  V30 3 2 3 4
M  V30 4 1 4 5
M  V30 5 1 5 6
M  V30 6 1 6 7
M  V30 7 2 6 8
M  V30 8 2 6 9
M  V30 9 2 5 10
M  V30 10 1 10 11
M  V30 11 2 11 12
M  V30 12 1 12 13
M  V30 13 1 13 14
M  V30 14 1 14 15
M  V30 15 2 15 16
M  V30 16 1 16 17
M  V30 17 2 17 18
M  V30 18 1 18 19
M  V30 19 1 19 20
M  V30 20 2 20 21
M  V30 21 1 21 22
M  V30 22 2 22 23
M  V30 23 1 23 24
M  V30 24 1 24 25
M  V30 25 2 25 26
M  V30 26 1 25 27
M  V30 27 1 27 28
M  V30 28 1 27 29
M  V30 29 2 29 30
M  V30 30 1 30 31
M  V30 31 2 31 32
M  V30 32 1 32 33
M  V30 33 1 32 34
M  V30 34 2 34 35
M  V30 35 1 23 36
M  V30 36 2 36 37
M  V30 37 2 19 38
M  V30 38 1 38 39
M  V30 39 1 39 40
M  V30 40 1 12 3
M  V30 41 2 40 14
M  V30 42 1 39 16
M  V30 43 1 37 20
M  V30 44 1 35 29
M  V30 45 1 1 41
M  V30 46 1 1 42
M  V30 47 1 1 43
M  V30 48 1 4 44
M  V30 49 1 7 45
M  V30 50 1 7 46
M  V30 51 1 7 47
M  V30 52 1 10 48
M  V30 53 1 11 49
M  V30 54 1 13 50
M  V30 55 1 17 51
M  V30 56 1 18 52
M  V30 57 1 21 53
M  V30 58 1 22 54
M  V30 59 1 24 55
M  V30 60 1 27 56 CFG=1
M  V30 61 1 28 57
M  V30 62 1 28 58
M  V30 63 1 28 59
M  V30 64 1 30 60
M  V30 65 1 31 61
M  V30 66 1 34 62
M  V30 67 1 35 63
M  V30 68 1 36 64
M  V30 69 1 37 65
M  V30 70 1 38 66
M  V30 END BOND
M  V30 END CTAB
M  END
>  <Dataset>  (128) 
ChEMBL_Kinases

>  <Ligand_Instance>  (128) 
nan

>  <PDB_ID>  (128) 
nan

>  <Standardized_SMILES>  (128) 
COc1cc(S(C)(=O)=O)ccc1Nc1nc2ccc(-c3ccc(NC(=O)[C@H](C)c4ccc(F)cc4)cc3)cn2n1

>  <Name>  (128) 
BAY-1161909

>  <Pocket>  (128) 
nan

>  <ATP_Site>  (128) 
nan

>  <Peripheral>  (128) 
nan

>  <Num_H_Atoms_ProtBoundConf>  (128) 
nan

>  <Num_Resolved_Atoms>  (128) 
nan

>  <Num_Not_Resolved_Atoms>  (128) 
nan

$$$$
CHEMBL4303194
     RDKit          3D

  0  0  0  0  0  0  0  0  0  0999 V3000
M  V30 BEGIN CTAB
M  V30 COUNTS 45 48 0 0 0
M  V30 BEGIN ATOM
M  V30 1 C 2.943594 -3.193003 1.703030 0
M  V30 2 C 2.167648 -2.958844 0.460435 0
M  V30 3 C 1.162465 -3.844254 0.126928 0
M  V30 4 C 0.449329 -3.600396 -1.045321 0
M  V30 5 C 0.771497 -2.492103 -1.823259 0
M  V30 6 C 1.800969 -1.626393 -1.437562 0
M  V30 7 C 1.978747 -0.532507 -2.381774 0
M  V30 8 N 2.293210 -0.489305 -3.682081 0
M  V30 9 N 2.334873 0.770432 -4.110168 0
M  V30 10 C 2.043335 1.574052 -3.076895 0
M  V30 11 C 1.812901 0.786885 -1.969621 0
M  V30 12 C 1.466750 1.306987 -0.651643 0
M  V30 13 C 2.409611 2.147492 -0.054652 0
M  V30 14 C 2.173455 2.691376 1.195995 0
M  V30 15 C 1.001041 2.404897 1.861667 0
M  V30 16 F 0.757625 2.930435 3.085185 0
M  V30 17 C 0.061604 1.576139 1.282970 0
M  V30 18 C -1.188753 1.269675 1.993316 0
M  V30 19 C -2.123019 1.996719 2.703549 0
M  V30 20 N -3.070614 1.132272 3.122561 0
M  V30 21 N -2.787970 -0.095320 2.718296 0
M  V30 22 C -3.603156 -1.285947 2.995052 0
M  V30 23 C -3.113020 -1.903659 4.311579 0
M  V30 24 O -3.254896 -0.964701 5.354092 0
M  V30 25 C -1.621856 -0.059628 2.009236 0
M  V30 26 C 0.304346 1.038271 0.036789 0
M  V30 27 N 2.483804 -1.874156 -0.299718 0
M  V30 28 H 3.726908 -2.428962 1.838250 0
M  V30 29 H 3.427019 -4.192473 1.690769 0
M  V30 30 H 2.230377 -3.219662 2.553591 0
M  V30 31 H 0.919953 -4.700299 0.735957 0
M  V30 32 H -0.348900 -4.274429 -1.341499 0
M  V30 33 H 0.165373 -2.377502 -2.719809 0
M  V30 34 H 2.562111 1.059627 -5.103011 0
M  V30 35 H 2.017438 2.636362 -3.188107 0
M  V30 36 H 3.350135 2.391665 -0.562553 0
M  V30 37 H 2.878638 3.346948 1.692697 0
M  V30 38 H -1.946629 3.052535 2.794019 0
M  V30 39 H -4.628231 -0.941031 3.188795 0
M  V30 40 H -3.512013 -2.040442 2.211963 0
M  V30 41 H -3.670123 -2.828672 4.526297 0
M  V30 42 H -2.039133 -2.185529 4.155858 0
M  V30 43 H -2.335878 -0.794692 5.697624 0
M  V30 44 H -1.206300 -0.953710 1.585955 0
M  V30 45 H -0.415428 0.371843 -0.464638 0
M  V30 END ATOM
M  V30 BEGIN BOND
M  V30 1 1 1 2
M  V30 2 2 2 3
M  V30 3 1 3 4
M  V30 4 2 4 5
M  V30 5 1 5 6
M  V30 6 1 6 7
M  V30 7 2 7 8
M  V30 8 1 8 9
M  V30 9 1 9 10
M  V30 10 2 10 11
M  V30 11 1 11 12
M  V30 12 2 12 13
M  V30 13 1 13 14
M  V30 14 2 14 15
M  V30 15 1 15 16
M  V30 16 1 15 17
M  V30 17 1 17 18
M  V30 18 1 18 19
M  V30 19 2 19 20
M  V30 20 1 20 21
M  V30 21 1 21 22
M  V30 22 1 22 23
M  V30 23 1 23 24
M  V30 24 1 21 25
M  V30 25 2 17 26
M  V30 26 2 6 27
M  V30 27 1 27 2
M  V30 28 1 11 7
M  V30 29 1 26 12
M  V30 30 2 25 18
M  V30 31 1 1 28
M  V30 32 1 1 29
M  V30 33 1 1 30
M  V30 34 1 3 31
M  V30 35 1 4 32
M  V30 36 1 5 33
M  V30 37 1 9 34
M  V30 38 1 10 35
M  V30 39 1 13 36
M  V30 40 1 14 37
M  V30 41 1 19 38
M  V30 42 1 22 39
M  V30 43 1 22 40
M  V30 44 1 23 41
M  V30 45 1 23 42
M  V30 46 1 24 43
M  V30 47 1 25 44
M  V30 48 1 26 45
M  V30 END BOND
M  V30 END CTAB
M  END
>  <Dataset>  (129) 
ChEMBL_Kinases

>  <Ligand_Instance>  (129) 
nan

>  <PDB_ID>  (129) 
nan

>  <Standardized_SMILES>  (129) 
Cc1cccc(-c2n[nH]cc2-c2ccc(F)c(-c3cnn(CCO)c3)c2)n1

>  <Name>  (129) 
nan

>  <Pocket>  (129) 
nan

>  <ATP_Site>  (129) 
nan

>  <Peripheral>  (129) 
nan

>  <Num_H_Atoms_ProtBoundConf>  (129) 
nan

>  <Num_Resolved_Atoms>  (129) 
nan

>  <Num_Not_Resolved_Atoms>  (129) 
nan

$$$$
CHEMBL4303171
     RDKit          3D

  0  0  0  0  0  0  0  0  0  0999 V3000
M  V30 BEGIN CTAB
M  V30 COUNTS 55 58 0 0 0
M  V30 BEGIN ATOM
M  V30 1 C 0.254748 -0.488878 3.064486 0
M  V30 2 N 1.456543 -0.584046 3.894710 0
M  V30 3 C 1.862191 -1.984801 3.825762 0
M  V30 4 C 2.507147 0.270846 3.362494 0
M  V30 5 C 3.022584 -0.159849 2.053096 0
M  V30 6 C 4.174609 -0.926740 1.865386 0
M  V30 7 C 4.576573 -1.310018 0.579838 0
M  V30 8 C 3.849888 -0.945552 -0.537158 0
M  V30 9 C 2.684358 -0.178123 -0.411257 0
M  V30 10 N 1.873850 0.224517 -1.522026 0
M  V30 11 C 0.500097 -0.079258 -1.180313 0
M  V30 12 C -0.371659 0.848236 -0.855448 0
M  V30 13 C -0.226007 2.292543 -0.768646 0
M  V30 14 O 0.854877 2.822762 -1.088309 0
M  V30 15 N -1.472603 2.786682 -0.295243 0
M  V30 16 C -2.349470 1.671779 -0.098116 0
M  V30 17 C -3.649644 1.706133 0.378622 0
M  V30 18 C -4.320690 0.494290 0.526705 0
M  V30 19 C -5.681121 0.583450 1.030946 0
M  V30 20 N -6.295703 -0.688069 1.333265 0
M  V30 21 O -6.307031 1.646987 1.208223 0
M  V30 22 C -3.688532 -0.666127 0.203281 0
M  V30 23 C -2.392764 -0.659745 -0.269719 0
M  V30 24 C -1.710706 0.497287 -0.427551 0
M  V30 25 C 0.341582 -1.480674 -1.407663 0
M  V30 26 C 0.844485 -2.606964 -0.800288 0
M  V30 27 C 0.647568 -3.898703 -1.221902 0
M  V30 28 C -0.111325 -4.147494 -2.345077 0
M  V30 29 C -0.641617 -3.056257 -2.995396 0
M  V30 30 C -0.432099 -1.761826 -2.555403 0
M  V30 31 C 2.345861 0.168631 0.902528 0
M  V30 32 H 0.331372 -1.084961 2.131811 0
M  V30 33 H -0.578302 -0.902127 3.657010 0
M  V30 34 H -0.010983 0.577609 2.879317 0
M  V30 35 H 2.918785 -2.143387 4.056697 0
M  V30 36 H 1.642708 -2.344848 2.792071 0
M  V30 37 H 1.184572 -2.558967 4.479694 0
M  V30 38 H 2.050944 1.284685 3.309375 0
M  V30 39 H 3.296249 0.306374 4.115354 0
M  V30 40 H 4.722385 -1.197487 2.751149 0
M  V30 41 H 5.472723 -1.901997 0.466287 0
M  V30 42 H 4.144043 -1.231382 -1.547799 0
M  V30 43 H 2.197313 0.658930 -2.414041 0
M  V30 44 H -1.614116 3.809275 -0.151005 0
M  V30 45 H -4.123708 2.635315 0.624962 0
M  V30 46 H -5.996299 -1.428021 2.032476 0
M  V30 47 H -7.145541 -0.796932 0.728096 0
M  V30 48 H -4.299922 -1.558667 0.353040 0
M  V30 49 H -2.063735 -1.653780 -0.443034 0
M  V30 50 H 1.427818 -2.386989 0.078291 0
M  V30 51 H 1.132190 -4.661674 -0.600680 0
M  V30 52 H -0.192110 -5.194717 -2.572930 0
M  V30 53 H -1.231054 -3.299636 -3.874231 0
M  V30 54 H -0.927935 -1.010169 -3.192170 0
M  V30 55 H 1.461695 0.751598 0.997682 0
M  V30 END ATOM
M  V30 BEGIN BOND
M  V30 1 1 1 2
M  V30 2 1 2 3
M  V30 3 1 2 4
M  V30 4 1 4 5
M  V30 5 2 5 6
M  V30 6 1 6 7
M  V30 7 2 7 8
M  V30 8 1 8 9
M  V30 9 1 9 10
M  V30 10 1 10 11
M  V30 11 2 11 12
M  V30 12 1 12 13
M  V30 13 2 13 14
M  V30 14 1 13 15
M  V30 15 1 15 16
M  V30 16 2 16 17
M  V30 17 1 17 18
M  V30 18 1 18 19
M  V30 19 1 19 20
M  V30 20 2 19 21
M  V30 21 2 18 22
M  V30 22 1 22 23
M  V30 23 2 23 24
M  V30 24 1 11 25
M  V30 25 2 25 26
M  V30 26 1 26 27
M  V30 27 2 27 28
M  V30 28 1 28 29
M  V30 29 2 29 30
M  V30 30 2 9 31
M  V30 31 1 31 5
M  V30 32 1 24 12
M  V30 33 1 30 25
M  V30 34 1 24 16
M  V30 35 1 1 32
M  V30 36 1 1 33
M  V30 37 1 1 34
M  V30 38 1 3 35
M  V30 39 1 3 36
M  V30 40 1 3 37
M  V30 41 1 4 38
M  V30 42 1 4 39
M  V30 43 1 6 40
M  V30 44 1 7 41
M  V30 45 1 8 42
M  V30 46 1 10 43
M  V30 47 1 15 44
M  V30 48 1 17 45
M  V30 49 1 20 46
M  V30 50 1 20 47
M  V30 51 1 22 48
M  V30 52 1 23 49
M  V30 53 1 26 50
M  V30 54 1 27 51
M  V30 55 1 28 52
M  V30 56 1 29 53
M  V30 57 1 30 54
M  V30 58 1 31 55
M  V30 END BOND
M  V30 END CTAB
M  END
>  <Dataset>  (130) 
ChEMBL_Kinases

>  <Ligand_Instance>  (130) 
nan

>  <PDB_ID>  (130) 
nan

>  <Standardized_SMILES>  (130) 
CN(C)Cc1cccc(N/C(=C2\C(=O)Nc3cc(C(N)=O)ccc32)c2ccccc2)c1

>  <Name>  (130) 
nan

>  <Pocket>  (130) 
nan

>  <ATP_Site>  (130) 
nan

>  <Peripheral>  (130) 
nan

>  <Num_H_Atoms_ProtBoundConf>  (130) 
nan

>  <Num_Resolved_Atoms>  (130) 
nan

>  <Num_Not_Resolved_Atoms>  (130) 
nan

$$$$
CHEMBL430021
     RDKit          3D

  0  0  0  0  0  0  0  0  0  0999 V3000
M  V30 BEGIN CTAB
M  V30 COUNTS 34 36 0 0 0
M  V30 BEGIN ATOM
M  V30 1 N 3.296335 -4.622439 0.652559 0
M  V30 2 C 2.416625 -3.831915 1.478991 0
M  V30 3 N 2.274841 -4.054954 2.803795 0
M  V30 4 C 1.419696 -3.257931 3.510783 0
M  V30 5 C 0.788343 -2.294961 2.759248 0
M  V30 6 C 0.908914 -2.044187 1.422319 0
M  V30 7 C 0.246744 -1.019417 0.649350 0
M  V30 8 C 0.548527 -0.928952 -0.715807 0
M  V30 9 C -0.153336 0.080603 -1.308833 0
M  V30 10 C -0.910847 0.640728 -0.313619 0
M  V30 11 N -0.638992 -0.044032 0.819463 0
M  V30 12 C -1.273206 0.279353 2.049280 0
M  V30 13 C -0.458845 1.292945 2.822323 0
M  V30 14 F -0.338735 2.459013 2.054376 0
M  V30 15 F -1.120426 1.672418 3.975900 0
M  V30 16 F 0.809175 0.863402 3.114671 0
M  V30 17 C -1.812506 1.791236 -0.583366 0
M  V30 18 C -2.317282 1.733496 -2.005239 0
M  V30 19 N -1.154217 1.732002 -2.885185 0
M  V30 20 C -0.260970 0.629795 -2.653705 0
M  V30 21 O 0.441392 0.107507 -3.558748 0
M  V30 22 N 1.768505 -2.879964 0.830891 0
M  V30 23 H 3.078524 -5.190815 -0.199023 0
M  V30 24 H 4.304640 -4.599715 0.989191 0
M  V30 25 H 1.279592 -3.399536 4.552250 0
M  V30 26 H 0.145224 -1.698765 3.367981 0
M  V30 27 H 1.227114 -1.510478 -1.360589 0
M  V30 28 H -1.528792 -0.560799 2.701462 0
M  V30 29 H -2.281154 0.775768 1.826643 0
M  V30 30 H -2.701680 1.793485 0.109812 0
M  V30 31 H -1.253764 2.756102 -0.465211 0
M  V30 32 H -2.889599 0.792159 -2.120506 0
M  V30 33 H -2.982681 2.597109 -2.219540 0
M  V30 34 H -0.878767 2.398254 -3.643676 0
M  V30 END ATOM
M  V30 BEGIN BOND
M  V30 1 1 1 2
M  V30 2 2 2 3
M  V30 3 1 3 4
M  V30 4 2 4 5
M  V30 5 1 5 6
M  V30 6 1 6 7
M  V30 7 2 7 8
M  V30 8 1 8 9
M  V30 9 2 9 10
M  V30 10 1 10 11
M  V30 11 1 11 12
M  V30 12 1 12 13
M  V30 13 1 13 14
M  V30 14 1 13 15
M  V30 15 1 13 16
M  V30 16 1 10 17
M  V30 17 1 17 18
M  V30 18 1 18 19
M  V30 19 1 19 20
M  V30 20 2 20 21
M  V30 21 2 6 22
M  V30 22 1 22 2
M  V30 23 1 11 7
M  V30 24 1 20 9
M  V30 25 1 1 23
M  V30 26 1 1 24
M  V30 27 1 4 25
M  V30 28 1 5 26
M  V30 29 1 8 27
M  V30 30 1 12 28
M  V30 31 1 12 29
M  V30 32 1 17 30
M  V30 33 1 17 31
M  V30 34 1 18 32
M  V30 35 1 18 33
M  V30 36 1 19 34
M  V30 END BOND
M  V30 END CTAB
M  END
>  <Dataset>  (131) 
ChEMBL_Kinases

>  <Ligand_Instance>  (131) 
nan

>  <PDB_ID>  (131) 
nan

>  <Standardized_SMILES>  (131) 
Nc1nccc(-c2cc3c(n2CC(F)(F)F)CCNC3=O)n1

>  <Name>  (131) 
nan

>  <Pocket>  (131) 
nan

>  <ATP_Site>  (131) 
nan

>  <Peripheral>  (131) 
nan

>  <Num_H_Atoms_ProtBoundConf>  (131) 
nan

>  <Num_Resolved_Atoms>  (131) 
nan

>  <Num_Not_Resolved_Atoms>  (131) 
nan

$$$$
CHEMBL429863
     RDKit          3D

  0  0  0  0  0  0  0  0  0  0999 V3000
M  V30 BEGIN CTAB
M  V30 COUNTS 64 68 0 0 0
M  V30 BEGIN ATOM
M  V30 1 C 5.553457 -2.463236 6.166987 0
M  V30 2 N 4.854695 -1.671450 5.186858 0
M  V30 3 C 5.504185 -1.511748 3.938586 0
M  V30 4 O 6.622700 -2.059393 3.773428 0
M  V30 5 C 4.941465 -0.743339 2.833427 0
M  V30 6 C 5.711782 -0.691493 1.665227 0
M  V30 7 C 5.215791 0.030901 0.575314 0
M  V30 8 C 4.001701 0.679649 0.637106 0
M  V30 9 C 3.488343 1.444198 -0.526702 0
M  V30 10 C 3.255944 0.624222 1.780357 0
M  V30 11 N 1.976051 1.269859 1.940199 0
M  V30 12 C 0.799292 1.009012 1.151308 0
M  V30 13 N 0.386259 1.573319 0.000121 0
M  V30 14 C -0.753439 1.205853 -0.610268 0
M  V30 15 O -0.797769 2.005043 -1.718524 0
M  V30 16 C -1.738409 2.070253 -2.714536 0
M  V30 17 C -1.966896 0.814610 -3.508707 0
M  V30 18 N -2.447737 -0.258711 -2.711360 0
M  V30 19 C -3.800395 -0.100477 -2.249777 0
M  V30 20 C -4.703825 -0.891415 -3.192003 0
M  V30 21 C -3.731701 -1.387529 -4.255890 0
M  V30 22 C -2.466862 -1.506933 -3.434756 0
M  V30 23 N -1.491838 0.244928 -0.041874 0
M  V30 24 C -1.121585 -0.329209 1.081281 0
M  V30 25 C 0.041783 0.025713 1.731079 0
M  V30 26 C 0.064871 -0.791238 2.842778 0
M  V30 27 N -1.025098 -1.570676 2.829846 0
M  V30 28 N -1.763901 -1.302832 1.759372 0
M  V30 29 C -2.983493 -1.975585 1.478255 0
M  V30 30 C -3.011197 -3.316753 1.115906 0
M  V30 31 C -4.238834 -3.875989 0.865717 0
M  V30 32 C -5.390572 -3.120470 0.974702 0
M  V30 33 C -5.347608 -1.780959 1.337672 0
M  V30 34 C -4.119622 -1.206567 1.592023 0
M  V30 35 C 3.728366 -0.091718 2.886516 0
M  V30 36 H 6.319377 -3.118738 5.727310 0
M  V30 37 H 5.959150 -1.820372 6.961352 0
M  V30 38 H 4.805366 -3.136533 6.638801 0
M  V30 39 H 3.933444 -1.235325 5.360092 0
M  V30 40 H 6.681492 -1.167192 1.514601 0
M  V30 41 H 5.760980 0.111201 -0.356666 0
M  V30 42 H 2.830220 0.803517 -1.123573 0
M  V30 43 H 3.045572 2.413351 -0.237089 0
M  V30 44 H 4.363932 1.707354 -1.168445 0
M  V30 45 H 1.920460 1.992062 2.707084 0
M  V30 46 H -2.729790 2.327178 -2.223134 0
M  V30 47 H -1.574843 2.943610 -3.414382 0
M  V30 48 H -1.038475 0.553384 -4.080999 0
M  V30 49 H -2.785823 1.036495 -4.261430 0
M  V30 50 H -3.865788 -0.612912 -1.244779 0
M  V30 51 H -4.154348 0.927469 -2.155642 0
M  V30 52 H -5.121570 -1.795632 -2.684852 0
M  V30 53 H -5.526711 -0.305820 -3.606214 0
M  V30 54 H -4.049550 -2.357706 -4.690124 0
M  V30 55 H -3.645854 -0.637215 -5.049764 0
M  V30 56 H -2.623928 -2.352851 -2.714236 0
M  V30 57 H -1.562717 -1.641476 -4.041361 0
M  V30 58 H 0.860970 -0.763739 3.573854 0
M  V30 59 H -2.066927 -3.871003 1.044221 0
M  V30 60 H -4.264623 -4.916056 0.584308 0
M  V30 61 H -6.355952 -3.534594 0.784775 0
M  V30 62 H -6.235816 -1.154667 1.433295 0
M  V30 63 H -4.087741 -0.169142 1.873218 0
M  V30 64 H 3.174057 -0.159864 3.803827 0
M  V30 END ATOM
M  V30 BEGIN BOND
M  V30 1 1 1 2
M  V30 2 1 2 3
M  V30 3 2 3 4
M  V30 4 1 3 5
M  V30 5 2 5 6
M  V30 6 1 6 7
M  V30 7 2 7 8
M  V30 8 1 8 9
M  V30 9 1 8 10
M  V30 10 1 10 11
M  V30 11 1 11 12
M  V30 12 2 12 13
M  V30 13 1 13 14
M  V30 14 1 14 15
M  V30 15 1 15 16
M  V30 16 1 16 17
M  V30 17 1 17 18
M  V30 18 1 18 19
M  V30 19 1 19 20
M  V30 20 1 20 21
M  V30 21 1 21 22
M  V30 22 2 14 23
M  V30 23 1 23 24
M  V30 24 2 24 25
M  V30 25 1 25 26
M  V30 26 2 26 27
M  V30 27 1 27 28
M  V30 28 1 28 29
M  V30 29 2 29 30
M  V30 30 1 30 31
M  V30 31 2 31 32
M  V30 32 1 32 33
M  V30 33 2 33 34
M  V30 34 2 10 35
M  V30 35 1 35 5
M  V30 36 1 25 12
M  V30 37 1 34 29
M  V30 38 1 22 18
M  V30 39 1 28 24
M  V30 40 1 1 36
M  V30 41 1 1 37
M  V30 42 1 1 38
M  V30 43 1 2 39
M  V30 44 1 6 40
M  V30 45 1 7 41
M  V30 46 1 9 42
M  V30 47 1 9 43
M  V30 48 1 9 44
M  V30 49 1 11 45
M  V30 50 1 16 46
M  V30 51 1 16 47
M  V30 52 1 17 48
M  V30 53 1 17 49
M  V30 54 1 19 50
M  V30 55 1 19 51
M  V30 56 1 20 52
M  V30 57 1 20 53
M  V30 58 1 21 54
M  V30 59 1 21 55
M  V30 60 1 22 56
M  V30 61 1 22 57
M  V30 62 1 26 58
M  V30 63 1 30 59
M  V30 64 1 31 60
M  V30 65 1 32 61
M  V30 66 1 33 62
M  V30 67 1 34 63
M  V30 68 1 35 64
M  V30 END BOND
M  V30 END CTAB
M  END
>  <Dataset>  (132) 
ChEMBL_Kinases

>  <Ligand_Instance>  (132) 
nan

>  <PDB_ID>  (132) 
nan

>  <Standardized_SMILES>  (132) 
CNC(=O)c1ccc(C)c(Nc2nc(OCCN3CCCC3)nc3c2cnn3-c2ccccc2)c1

>  <Name>  (132) 
nan

>  <Pocket>  (132) 
nan

>  <ATP_Site>  (132) 
nan

>  <Peripheral>  (132) 
nan

>  <Num_H_Atoms_ProtBoundConf>  (132) 
nan

>  <Num_Resolved_Atoms>  (132) 
nan

>  <Num_Not_Resolved_Atoms>  (132) 
nan

$$$$
CHEMBL4754915
     RDKit          3D

  0  0  0  0  0  0  0  0  0  0999 V3000
M  V30 BEGIN CTAB
M  V30 COUNTS 77 81 0 0 0
M  V30 BEGIN ATOM
M  V30 1 C 6.777487 -5.350266 2.140527 0
M  V30 2 N 8.047014 -4.749380 1.794964 0
M  V30 3 C 8.541738 -5.230279 0.523729 0
M  V30 4 C 8.742743 -4.064769 -0.423117 0
M  V30 5 N 7.450113 -3.409632 -0.556426 0
M  V30 6 C 7.452823 -2.384574 -1.595826 0
M  V30 7 C 6.018722 -1.834110 -1.642165 0
M  V30 8 C 5.868259 -0.747161 -2.652642 0
M  V30 9 C 4.436791 -0.220759 -2.723670 0
M  V30 10 C 3.956356 0.328675 -1.401164 0
M  V30 11 O 2.686612 0.804481 -1.399824 0
M  V30 12 C 1.893181 1.703687 -1.938715 0
M  V30 13 C 2.119864 2.668260 -2.893024 0
M  V30 14 C 1.072768 3.487542 -3.270767 0
M  V30 15 C -0.181653 3.357034 -2.713144 0
M  V30 16 C -0.472278 2.412337 -1.753106 0
M  V30 17 N -1.773629 2.302111 -1.203932 0
M  V30 18 C -2.004061 1.360484 -0.155248 0
M  V30 19 O -1.540333 0.318537 0.323948 0
M  V30 20 S -3.487453 2.009104 0.675815 0
M  V30 21 C -4.128527 2.733555 -0.875640 0
M  V30 22 C -5.408919 2.819406 -1.012415 0
M  V30 23 C -6.434120 2.402728 -0.062248 0
M  V30 24 C -7.559606 1.783959 -0.563172 0
M  V30 25 C -8.613000 1.339146 0.199873 0
M  V30 26 C -8.587380 1.503149 1.582747 0
M  V30 27 O -9.587724 1.092899 2.439624 0
M  V30 28 C -9.601782 -0.141742 3.070723 0
M  V30 29 C -10.662181 -0.516712 3.863556 0
M  V30 30 C -10.593434 -1.760224 4.453252 0
M  V30 31 C -9.482919 -2.534388 4.213212 0
M  V30 32 N -9.471618 -3.792458 4.846865 0
M  V30 33 C -8.396405 -2.197285 3.424394 0
M  V30 34 C -8.502456 -0.942039 2.849827 0
M  V30 35 C -7.447437 2.131022 2.095078 0
M  V30 36 C -6.388765 2.576801 1.318807 0
M  V30 37 C -2.925537 3.036067 -1.583885 0
M  V30 38 O -3.066894 3.930644 -2.462899 0
M  V30 39 C 0.598131 1.626016 -1.414555 0
M  V30 40 C 7.120890 -2.759441 0.712989 0
M  V30 41 C 7.967569 -3.303588 1.820381 0
M  V30 42 H 6.647802 -6.300627 1.547248 0
M  V30 43 H 6.818772 -5.701049 3.209058 0
M  V30 44 H 5.930432 -4.653529 1.954104 0
M  V30 45 H 7.748556 -5.882726 0.067731 0
M  V30 46 H 9.503492 -5.742936 0.675291 0
M  V30 47 H 8.980646 -4.460838 -1.433509 0
M  V30 48 H 9.555576 -3.393903 -0.123463 0
M  V30 49 H 7.778845 -2.787406 -2.564027 0
M  V30 50 H 8.111015 -1.555117 -1.319153 0
M  V30 51 H 5.729247 -1.555264 -0.618800 0
M  V30 52 H 5.365326 -2.706484 -1.929382 0
M  V30 53 H 6.502983 0.112387 -2.346562 0
M  V30 54 H 6.206330 -1.092658 -3.634096 0
M  V30 55 H 3.757728 -0.986213 -3.131358 0
M  V30 56 H 4.487894 0.642729 -3.447390 0
M  V30 57 H 4.001790 -0.542899 -0.673648 0
M  V30 58 H 4.731181 1.034080 -0.990306 0
M  V30 59 H 3.141558 2.673732 -3.258340 0
M  V30 60 H 1.301652 4.231060 -4.026848 0
M  V30 61 H -0.892774 4.065376 -3.106270 0
M  V30 62 H -5.705352 3.265473 -1.975579 0
M  V30 63 H -7.663243 1.617443 -1.630164 0
M  V30 64 H -9.487688 0.855887 -0.211867 0
M  V30 65 H -11.517005 0.122117 4.025120 0
M  V30 66 H -11.400984 -2.103935 5.085443 0
M  V30 67 H -9.658521 -4.587699 5.466295 0
M  V30 68 H -8.854345 -4.615839 4.579953 0
M  V30 69 H -7.551579 -2.818229 3.259194 0
M  V30 70 H -7.675427 -0.632260 2.222938 0
M  V30 71 H -7.299527 2.320610 3.146351 0
M  V30 72 H -5.529211 3.054057 1.712530 0
M  V30 73 H 0.381171 0.867035 -0.646633 0
M  V30 74 H 6.057456 -2.889472 0.950650 0
M  V30 75 H 7.325936 -1.665134 0.659594 0
M  V30 76 H 7.571019 -2.962084 2.780595 0
M  V30 77 H 9.028038 -2.927511 1.778246 0
M  V30 END ATOM
M  V30 BEGIN BOND
M  V30 1 1 1 2
M  V30 2 1 2 3
M  V30 3 1 3 4
M  V30 4 1 4 5
M  V30 5 1 5 6
M  V30 6 1 6 7
M  V30 7 1 7 8
M  V30 8 1 8 9
M  V30 9 1 9 10
M  V30 10 1 10 11
M  V30 11 1 11 12
M  V30 12 2 12 13
M  V30 13 1 13 14
M  V30 14 2 14 15
M  V30 15 1 15 16
M  V30 16 1 16 17
M  V30 17 1 17 18
M  V30 18 2 18 19
M  V30 19 1 18 20
M  V30 20 1 20 21
M  V30 21 2 21 22
M  V30 22 1 22 23
M  V30 23 2 23 24
M  V30 24 1 24 25
M  V30 25 2 25 26
M  V30 26 1 26 27
M  V30 27 1 27 28
M  V30 28 2 28 29
M  V30 29 1 29 30
M  V30 30 2 30 31
M  V30 31 1 31 32
M  V30 32 1 31 33
M  V30 33 2 33 34
M  V30 34 1 26 35
M  V30 35 2 35 36
M  V30 36 1 21 37
M  V30 37 2 37 38
M  V30 38 2 16 39
M  V30 39 1 5 40
M  V30 40 1 40 41
M  V30 41 1 41 2
M  V30 42 1 39 12
M  V30 43 1 37 17
M  V30 44 1 36 23
M  V30 45 1 34 28
M  V30 46 1 1 42
M  V30 47 1 1 43
M  V30 48 1 1 44
M  V30 49 1 3 45
M  V30 50 1 3 46
M  V30 51 1 4 47
M  V30 52 1 4 48
M  V30 53 1 6 49
M  V30 54 1 6 50
M  V30 55 1 7 51
M  V30 56 1 7 52
M  V30 57 1 8 53
M  V30 58 1 8 54
M  V30 59 1 9 55
M  V30 60 1 9 56
M  V30 61 1 10 57
M  V30 62 1 10 58
M  V30 63 1 13 59
M  V30 64 1 14 60
M  V30 65 1 15 61
M  V30 66 1 22 62
M  V30 67 1 24 63
M  V30 68 1 25 64
M  V30 69 1 29 65
M  V30 70 1 30 66
M  V30 71 1 32 67
M  V30 72 1 32 68
M  V30 73 1 33 69
M  V30 74 1 34 70
M  V30 75 1 35 71
M  V30 76 1 36 72
M  V30 77 1 39 73
M  V30 78 1 40 74
M  V30 79 1 40 75
M  V30 80 1 41 76
M  V30 81 1 41 77
M  V30 END BOND
M  V30 END CTAB
M  END
>  <Dataset>  (133) 
ChEMBL_Kinases

>  <Ligand_Instance>  (133) 
nan

>  <PDB_ID>  (133) 
nan

>  <Standardized_SMILES>  (133) 
CN1CCN(CCCCCOc2cccc(N3C(=O)S/C(=C\c4ccc(Oc5ccc(N)cc5)cc4)C3=O)c2)CC1

>  <Name>  (133) 
nan

>  <Pocket>  (133) 
nan

>  <ATP_Site>  (133) 
nan

>  <Peripheral>  (133) 
nan

>  <Num_H_Atoms_ProtBoundConf>  (133) 
nan

>  <Num_Resolved_Atoms>  (133) 
nan

>  <Num_Not_Resolved_Atoms>  (133) 
nan

$$$$
CHEMBL429819
     RDKit          3D

  0  0  0  0  0  0  0  0  0  0999 V3000
M  V30 BEGIN CTAB
M  V30 COUNTS 51 54 0 0 0
M  V30 BEGIN ATOM
M  V30 1 C 2.503199 0.370674 7.417954 0
M  V30 2 O 3.868746 0.290841 7.066235 0
M  V30 3 C 4.299202 0.176351 5.755031 0
M  V30 4 O 3.339029 0.151266 4.931064 0
M  V30 5 C 5.052307 0.052990 4.484777 0
M  V30 6 C 4.080859 -0.003382 3.349276 0
M  V30 7 C 3.672962 -1.292020 2.991808 0
M  V30 8 C 2.776923 -1.511882 1.959915 0
M  V30 9 C 2.311303 -0.386438 1.306616 0
M  V30 10 C 2.686535 0.907156 1.625374 0
M  V30 11 C 3.590716 1.093144 2.670097 0
M  V30 12 N 2.307704 2.154548 1.064660 0
M  V30 13 C 1.483288 2.352697 -0.079969 0
M  V30 14 O 1.608393 3.435971 -0.683269 0
M  V30 15 C 0.501858 1.404044 -0.615645 0
M  V30 16 C -0.460881 2.070575 -1.348193 0
M  V30 17 C -1.471534 1.328775 -1.931221 0
M  V30 18 C -1.542803 -0.048700 -1.801584 0
M  V30 19 C -2.611161 -0.839261 -2.416025 0
M  V30 20 C -3.243928 -0.530064 -3.600716 0
M  V30 21 C -4.227156 -1.373037 -4.047657 0
M  V30 22 C -4.608310 -2.513363 -3.364499 0
M  V30 23 N -5.637829 -3.377195 -3.851873 0
M  V30 24 C -3.980190 -2.841283 -2.166041 0
M  V30 25 O -4.353592 -3.969382 -1.485028 0
M  V30 26 C -3.784511 -4.392580 -0.267300 0
M  V30 27 C -2.990903 -1.981185 -1.728803 0
M  V30 28 C -0.554464 -0.671691 -1.057492 0
M  V30 29 C 0.472377 0.031025 -0.458555 0
M  V30 30 N 1.395953 -0.784884 0.268067 0
M  V30 31 H 2.193030 -0.488348 8.066333 0
M  V30 32 H 1.821505 0.513546 6.552643 0
M  V30 33 H 2.325798 1.287530 8.056851 0
M  V30 34 H 5.663300 0.973555 4.312504 0
M  V30 35 H 5.664573 -0.855453 4.522554 0
M  V30 36 H 4.037482 -2.161752 3.502631 0
M  V30 37 H 2.446094 -2.490299 1.664897 0
M  V30 38 H 3.937795 2.065070 2.985876 0
M  V30 39 H 2.665357 3.024678 1.533048 0
M  V30 40 H -0.399119 3.155922 -1.446421 0
M  V30 41 H -2.237551 1.843314 -2.511550 0
M  V30 42 H -2.907772 0.367109 -4.090948 0
M  V30 43 H -4.712363 -1.110582 -4.980821 0
M  V30 44 H -6.582723 -3.221332 -3.422775 0
M  V30 45 H -5.552663 -4.131121 -4.574382 0
M  V30 46 H -3.675654 -3.468942 0.370233 0
M  V30 47 H -4.447996 -5.063791 0.300206 0
M  V30 48 H -2.794542 -4.867851 -0.381206 0
M  V30 49 H -2.509224 -2.254582 -0.786247 0
M  V30 50 H -0.532551 -1.754913 -0.903446 0
M  V30 51 H 1.360838 -1.792175 -0.032323 0
M  V30 END ATOM
M  V30 BEGIN BOND
M  V30 1 1 1 2
M  V30 2 1 2 3
M  V30 3 2 3 4
M  V30 4 1 3 5
M  V30 5 1 5 6
M  V30 6 2 6 7
M  V30 7 1 7 8
M  V30 8 2 8 9
M  V30 9 1 9 10
M  V30 10 2 10 11
M  V30 11 1 10 12
M  V30 12 1 12 13
M  V30 13 2 13 14
M  V30 14 1 13 15
M  V30 15 2 15 16
M  V30 16 1 16 17
M  V30 17 2 17 18
M  V30 18 1 18 19
M  V30 19 2 19 20
M  V30 20 1 20 21
M  V30 21 2 21 22
M  V30 22 1 22 23
M  V30 23 1 22 24
M  V30 24 1 24 25
M  V30 25 1 25 26
M  V30 26 2 24 27
M  V30 27 1 18 28
M  V30 28 2 28 29
M  V30 29 1 29 30
M  V30 30 1 11 6
M  V30 31 1 29 15
M  V30 32 1 30 9
M  V30 33 1 27 19
M  V30 34 1 1 31
M  V30 35 1 1 32
M  V30 36 1 1 33
M  V30 37 1 5 34
M  V30 38 1 5 35
M  V30 39 1 7 36
M  V30 40 1 8 37
M  V30 41 1 11 38
M  V30 42 1 12 39
M  V30 43 1 16 40
M  V30 44 1 17 41
M  V30 45 1 20 42
M  V30 46 1 21 43
M  V30 47 1 23 44
M  V30 48 1 23 45
M  V30 49 1 26 46
M  V30 50 1 26 47
M  V30 51 1 26 48
M  V30 52 1 27 49
M  V30 53 1 28 50
M  V30 54 1 30 51
M  V30 END BOND
M  V30 END CTAB
M  END
>  <Dataset>  (134) 
ChEMBL_Kinases

>  <Ligand_Instance>  (134) 
nan

>  <PDB_ID>  (134) 
nan

>  <Standardized_SMILES>  (134) 
COC(=O)Cc1ccc2c(c1)NC(=O)c1ccc(-c3ccc(N)c(OC)c3)cc1N2

>  <Name>  (134) 
nan

>  <Pocket>  (134) 
nan

>  <ATP_Site>  (134) 
nan

>  <Peripheral>  (134) 
nan

>  <Num_H_Atoms_ProtBoundConf>  (134) 
nan

>  <Num_Resolved_Atoms>  (134) 
nan

>  <Num_Not_Resolved_Atoms>  (134) 
nan

$$$$
CHEMBL4754958
     RDKit          3D

  0  0  0  0  0  0  0  0  0  0999 V3000
M  V30 BEGIN CTAB
M  V30 COUNTS 35 37 0 0 0
M  V30 BEGIN ATOM
M  V30 1 C 2.244752 -3.186504 4.870244 0
M  V30 2 C 1.456083 -2.916068 3.996679 0
M  V30 3 C 0.552415 -2.636692 2.997388 0
M  V30 4 N -0.161061 -2.542216 2.054778 0
M  V30 5 C -0.750091 -2.650136 0.988807 0
M  V30 6 N -1.418702 -2.763107 -0.206706 0
M  V30 7 C -0.578586 -2.023569 -1.104903 0
M  V30 8 C -0.279959 -2.385244 -2.393640 0
M  V30 9 C 0.530105 -1.660208 -3.269405 0
M  V30 10 C 1.103984 -0.456691 -2.812980 0
M  V30 11 C 0.884163 0.019531 -1.530754 0
M  V30 12 C 1.375601 1.240228 -0.812623 0
M  V30 13 S 0.289066 2.632817 -0.998448 0
M  V30 14 N 0.948432 3.968316 -0.091243 0
M  V30 15 O -1.060836 2.204876 -0.502796 0
M  V30 16 O 0.259238 3.056328 -2.459587 0
M  V30 17 C 0.069533 -0.791402 -0.788494 0
M  V30 18 N -1.438231 -1.615586 1.530135 0
M  V30 19 C -1.280800 -0.991408 2.727025 0
M  V30 20 N -1.913468 0.073607 3.382097 0
M  V30 21 C -1.282984 0.209129 4.571832 0
M  V30 22 N -0.334070 -0.696144 4.644682 0
M  V30 23 C -0.229394 -1.505120 3.544183 0
M  V30 24 H 2.903505 -3.393186 5.590791 0
M  V30 25 H -2.305427 -3.223530 -0.419191 0
M  V30 26 H -0.704485 -3.284505 -2.781830 0
M  V30 27 H 0.774938 -1.964712 -4.300980 0
M  V30 28 H 1.737034 0.183207 -3.406478 0
M  V30 29 H 1.521956 1.054767 0.253380 0
M  V30 30 H 2.408911 1.469665 -1.202161 0
M  V30 31 H 0.839475 4.844096 -0.633275 0
M  V30 32 H 1.943015 3.766686 0.047278 0
M  V30 33 H -0.105082 -0.435099 0.216184 0
M  V30 34 H -2.695526 0.638679 2.966642 0
M  V30 35 H -1.409341 0.887742 5.362658 0
M  V30 END ATOM
M  V30 BEGIN BOND
M  V30 1 3 1 2
M  V30 2 1 2 3
M  V30 3 2 3 4
M  V30 4 1 4 5
M  V30 5 1 5 6
M  V30 6 1 6 7
M  V30 7 2 7 8
M  V30 8 1 8 9
M  V30 9 2 9 10
M  V30 10 1 10 11
M  V30 11 1 11 12
M  V30 12 1 12 13
M  V30 13 1 13 14
M  V30 14 2 13 15
M  V30 15 2 13 16
M  V30 16 2 11 17
M  V30 17 2 5 18
M  V30 18 1 18 19
M  V30 19 1 19 20
M  V30 20 1 20 21
M  V30 21 2 21 22
M  V30 22 1 22 23
M  V30 23 1 23 3
M  V30 24 1 17 7
M  V30 25 2 23 19
M  V30 26 1 1 24
M  V30 27 1 6 25
M  V30 28 1 8 26
M  V30 29 1 9 27
M  V30 30 1 10 28
M  V30 31 1 12 29
M  V30 32 1 12 30
M  V30 33 1 14 31
M  V30 34 1 14 32
M  V30 35 1 17 33
M  V30 36 1 20 34
M  V30 37 1 21 35
M  V30 END BOND
M  V30 END CTAB
M  END
>  <Dataset>  (135) 
ChEMBL_Kinases

>  <Ligand_Instance>  (135) 
nan

>  <PDB_ID>  (135) 
nan

>  <Standardized_SMILES>  (135) 
C#Cc1nc(Nc2cccc(CS(N)(=O)=O)c2)nc2[nH]cnc12

>  <Name>  (135) 
nan

>  <Pocket>  (135) 
nan

>  <ATP_Site>  (135) 
nan

>  <Peripheral>  (135) 
nan

>  <Num_H_Atoms_ProtBoundConf>  (135) 
nan

>  <Num_Resolved_Atoms>  (135) 
nan

>  <Num_Not_Resolved_Atoms>  (135) 
nan

$$$$
CHEMBL4754960
     RDKit          3D

  0  0  0  0  0  0  0  0  0  0999 V3000
M  V30 BEGIN CTAB
M  V30 COUNTS 40 42 0 0 0
M  V30 BEGIN ATOM
M  V30 1 N 5.373605 -5.109734 3.266668 0
M  V30 2 C 4.338633 -4.889576 2.785934 0
M  V30 3 C 3.062948 -4.606901 2.181931 0
M  V30 4 C 1.871842 -5.137370 2.689824 0
M  V30 5 N 0.668135 -4.877831 2.129503 0
M  V30 6 C 0.609278 -4.089724 1.055638 0
M  V30 7 N -0.628200 -3.767314 0.404570 0
M  V30 8 C -1.421342 -2.612518 0.757868 0
M  V30 9 C -1.043302 -1.532866 0.006855 0
M  V30 10 C -1.682495 -0.347330 0.201698 0
M  V30 11 N -1.639831 0.974897 -0.286327 0
M  V30 12 C -1.597702 2.280472 -0.768209 0
M  V30 13 C -0.218504 2.905573 -0.584694 0 CFG=1
M  V30 14 C 0.112955 3.243092 0.815338 0
M  V30 15 N 1.512398 3.344229 1.110516 0
M  V30 16 C 2.361789 2.585888 0.241136 0
M  V30 17 C 1.501174 1.489743 -0.356963 0
M  V30 18 O 0.678548 2.130621 -1.276613 0
M  V30 19 C -2.703262 -0.288624 1.168533 0
M  V30 20 Cl -3.731234 1.060808 1.682723 0
M  V30 21 C -3.051388 -1.412410 1.906532 0
M  V30 22 N -2.385183 -2.543057 1.665652 0
M  V30 23 C 1.767290 -3.557641 0.539959 0
M  V30 24 N 2.949699 -3.826782 1.109625 0
M  V30 25 H 1.910252 -5.773909 3.555390 0
M  V30 26 H -0.635527 -4.572309 -0.254819 0
M  V30 27 H -0.290094 -1.428657 -0.758343 0
M  V30 28 H -0.876557 0.728868 -0.998116 0
M  V30 29 H -2.367070 2.945226 -0.248337 0
M  V30 30 H -1.931571 2.349270 -1.834340 0
M  V30 31 H -0.300292 3.857511 -1.194599 0
M  V30 32 H -0.327333 2.523548 1.542958 0
M  V30 33 H -0.323374 4.231364 1.063280 0
M  V30 34 H 1.719511 3.303658 2.111029 0
M  V30 35 H 3.167288 2.117974 0.829984 0
M  V30 36 H 2.755866 3.180007 -0.605461 0
M  V30 37 H 0.947334 1.054899 0.494035 0
M  V30 38 H 2.095412 0.681975 -0.797405 0
M  V30 39 H -3.799718 -1.545734 2.677819 0
M  V30 40 H 1.753499 -2.917777 -0.324944 0
M  V30 END ATOM
M  V30 BEGIN BOND
M  V30 1 3 1 2
M  V30 2 1 2 3
M  V30 3 2 3 4
M  V30 4 1 4 5
M  V30 5 2 5 6
M  V30 6 1 6 7
M  V30 7 1 7 8
M  V30 8 2 8 9
M  V30 9 1 9 10
M  V30 10 1 10 11
M  V30 11 1 11 12
M  V30 12 1 12 13
M  V30 13 1 13 14
M  V30 14 1 14 15
M  V30 15 1 15 16
M  V30 16 1 16 17
M  V30 17 1 17 18
M  V30 18 2 10 19
M  V30 19 1 19 20
M  V30 20 1 19 21
M  V30 21 2 21 22
M  V30 22 1 6 23
M  V30 23 2 23 24
M  V30 24 1 24 3
M  V30 25 1 22 8
M  V30 26 1 18 13
M  V30 27 1 4 25
M  V30 28 1 7 26
M  V30 29 1 9 27
M  V30 30 1 11 28
M  V30 31 1 12 29
M  V30 32 1 12 30
M  V30 33 1 13 31 CFG=3
M  V30 34 1 14 32
M  V30 35 1 14 33
M  V30 36 1 15 34
M  V30 37 1 16 35
M  V30 38 1 16 36
M  V30 39 1 17 37
M  V30 40 1 17 38
M  V30 41 1 21 39
M  V30 42 1 23 40
M  V30 END BOND
M  V30 END CTAB
M  END
>  <Dataset>  (136) 
ChEMBL_Kinases

>  <Ligand_Instance>  (136) 
nan

>  <PDB_ID>  (136) 
nan

>  <Standardized_SMILES>  (136) 
N#Cc1cnc(Nc2cc(NC[C@H]3CNCCO3)c(Cl)cn2)cn1

>  <Name>  (136) 
nan

>  <Pocket>  (136) 
nan

>  <ATP_Site>  (136) 
nan

>  <Peripheral>  (136) 
nan

>  <Num_H_Atoms_ProtBoundConf>  (136) 
nan

>  <Num_Resolved_Atoms>  (136) 
nan

>  <Num_Not_Resolved_Atoms>  (136) 
nan

$$$$
CHEMBL4755070
     RDKit          3D

  0  0  0  0  0  0  0  0  0  0999 V3000
M  V30 BEGIN CTAB
M  V30 COUNTS 47 50 0 0 0
M  V30 BEGIN ATOM
M  V30 1 N -0.238718 -4.394942 3.668889 0
M  V30 2 C 0.206940 -3.413660 2.737779 0
M  V30 3 N 1.529358 -3.161094 2.515008 0
M  V30 4 C 1.943894 -2.234407 1.635923 0
M  V30 5 C 1.046897 -1.479901 0.902979 0
M  V30 6 C 1.374470 -0.449093 -0.076796 0
M  V30 7 C 0.562948 -0.185672 -1.184108 0
M  V30 8 N 1.203418 0.807316 -1.815675 0
M  V30 9 N 2.311136 1.150860 -1.185654 0
M  V30 10 C 3.154015 2.210103 -1.705107 0
M  V30 11 C 4.591318 1.991799 -1.360551 0
M  V30 12 C 5.284036 3.350335 -1.530323 0
M  V30 13 N 4.978585 4.198499 -0.420038 0
M  V30 14 C 3.634728 3.831232 0.048981 0
M  V30 15 C 2.757311 3.560846 -1.147745 0
M  V30 16 C 2.465019 0.395207 -0.091030 0
M  V30 17 C -0.295035 -1.771074 1.162326 0
M  V30 18 C -0.760166 -2.700079 2.042938 0
M  V30 19 C -2.171521 -2.908521 2.222727 0
M  V30 20 C -3.357567 -3.073967 2.372134 0
M  V30 21 C -4.788274 -3.257264 2.570379 0
M  V30 22 C -5.427371 -2.584525 3.591678 0
M  V30 23 C -6.785828 -2.688244 3.866234 0
M  V30 24 C -7.493864 -3.536055 3.027867 0
M  V30 25 C -6.896678 -4.223806 2.000553 0
M  V30 26 C -5.545398 -4.072470 1.787002 0
M  V30 27 H -0.110015 -5.427727 3.734230 0
M  V30 28 H -0.821926 -4.206396 4.513246 0
M  V30 29 H 2.992314 -2.026262 1.452134 0
M  V30 30 H -0.361685 -0.692955 -1.433343 0
M  V30 31 H 3.096337 2.276426 -2.818840 0
M  V30 32 H 4.771198 1.542625 -0.380586 0
M  V30 33 H 5.101068 1.340439 -2.122834 0
M  V30 34 H 4.840931 3.810871 -2.452518 0
M  V30 35 H 6.363144 3.232160 -1.716781 0
M  V30 36 H 4.906911 5.225927 -0.675878 0
M  V30 37 H 3.732481 2.931427 0.694039 0
M  V30 38 H 3.182038 4.633804 0.662918 0
M  V30 39 H 1.689006 3.590007 -0.851369 0
M  V30 40 H 2.916971 4.335836 -1.917104 0
M  V30 41 H 3.262789 0.446343 0.608595 0
M  V30 42 H -1.028693 -1.202336 0.609276 0
M  V30 43 H -4.845994 -1.928835 4.229946 0
M  V30 44 H -7.231365 -2.131844 4.686173 0
M  V30 45 H -8.562550 -3.600685 3.265468 0
M  V30 46 H -7.528292 -4.850426 1.413161 0
M  V30 47 H -5.058232 -4.604095 0.985294 0
M  V30 END ATOM
M  V30 BEGIN BOND
M  V30 1 1 1 2
M  V30 2 2 2 3
M  V30 3 1 3 4
M  V30 4 2 4 5
M  V30 5 1 5 6
M  V30 6 1 6 7
M  V30 7 2 7 8
M  V30 8 1 8 9
M  V30 9 1 9 10
M  V30 10 1 10 11
M  V30 11 1 11 12
M  V30 12 1 12 13
M  V30 13 1 13 14
M  V30 14 1 14 15
M  V30 15 1 9 16
M  V30 16 1 5 17
M  V30 17 2 17 18
M  V30 18 1 18 19
M  V30 19 3 19 20
M  V30 20 1 20 21
M  V30 21 2 21 22
M  V30 22 1 22 23
M  V30 23 2 23 24
M  V30 24 1 24 25
M  V30 25 2 25 26
M  V30 26 1 18 2
M  V30 27 1 26 21
M  V30 28 2 16 6
M  V30 29 1 15 10
M  V30 30 1 1 27
M  V30 31 1 1 28
M  V30 32 1 4 29
M  V30 33 1 7 30
M  V30 34 1 10 31
M  V30 35 1 11 32
M  V30 36 1 11 33
M  V30 37 1 12 34
M  V30 38 1 12 35
M  V30 39 1 13 36
M  V30 40 1 14 37
M  V30 41 1 14 38
M  V30 42 1 15 39
M  V30 43 1 15 40
M  V30 44 1 16 41
M  V30 45 1 17 42
M  V30 46 1 22 43
M  V30 47 1 23 44
M  V30 48 1 24 45
M  V30 49 1 25 46
M  V30 50 1 26 47
M  V30 END BOND
M  V30 END CTAB
M  END
>  <Dataset>  (137) 
ChEMBL_Kinases

>  <Ligand_Instance>  (137) 
nan

>  <PDB_ID>  (137) 
nan

>  <Standardized_SMILES>  (137) 
Nc1ncc(-c2cnn(C3CCNCC3)c2)cc1C#Cc1ccccc1

>  <Name>  (137) 
nan

>  <Pocket>  (137) 
nan

>  <ATP_Site>  (137) 
nan

>  <Peripheral>  (137) 
nan

>  <Num_H_Atoms_ProtBoundConf>  (137) 
nan

>  <Num_Resolved_Atoms>  (137) 
nan

>  <Num_Not_Resolved_Atoms>  (137) 
nan

$$$$
CHEMBL4303279
     RDKit          3D

  0  0  0  0  0  0  0  0  0  0999 V3000
M  V30 BEGIN CTAB
M  V30 COUNTS 71 75 0 0 0
M  V30 BEGIN ATOM
M  V30 1 C 3.038750 -6.177183 0.529805 0
M  V30 2 N 2.245233 -6.815787 -0.507502 0
M  V30 3 C 0.845925 -6.680204 -0.107787 0
M  V30 4 C 2.391171 -6.187190 -1.796304 0
M  V30 5 C 1.775547 -4.791149 -1.834245 0
M  V30 6 C 2.000191 -4.253637 -3.219455 0
M  V30 7 C 1.400404 -2.886700 -3.271107 0
M  V30 8 O 0.986161 -2.806481 -2.070838 0
M  V30 9 N 1.286320 -1.913385 -4.301588 0
M  V30 10 C 0.599746 -0.829831 -3.656378 0
M  V30 11 C 1.466746 0.074504 -3.085837 0
M  V30 12 C 0.919585 1.169950 -2.404542 0
M  V30 13 C -0.468206 1.249994 -2.361972 0
M  V30 14 C -1.064915 2.348240 -1.620548 0
M  V30 15 O -0.253905 3.162572 -1.079692 0
M  V30 16 N -2.415211 2.610116 -1.427020 0
M  V30 17 C -3.143998 3.591201 -0.736005 0
M  V30 18 C -3.679368 4.811007 -0.982068 0
M  V30 19 C -4.365724 5.533132 -0.024015 0
M  V30 20 C -4.510039 4.976340 1.247572 0
M  V30 21 C -3.999217 3.730072 1.605028 0
M  V30 22 N -4.159148 3.185293 2.919704 0
M  V30 23 C -3.610442 1.900542 3.197165 0
M  V30 24 N -4.496667 1.018427 3.692683 0
M  V30 25 C -4.179079 -0.246803 4.010313 0
M  V30 26 C -2.874727 -0.719940 3.836432 0
M  V30 27 Cl -2.316013 -2.337569 4.202323 0
M  V30 28 C -1.959028 0.179328 3.328559 0
M  V30 29 C -0.550972 -0.123771 3.058379 0
M  V30 30 C -0.249925 -1.231007 2.293828 0
M  V30 31 N 1.084307 -1.332062 2.163749 0
M  V30 32 C 1.635278 -0.298707 2.838896 0
M  V30 33 C 2.944282 0.116311 3.057691 0
M  V30 34 C 3.175176 1.253442 3.816622 0
M  V30 35 C 2.139753 1.993894 4.366762 0
M  V30 36 C 0.825012 1.617217 4.173635 0
M  V30 37 C 0.631926 0.488296 3.418919 0
M  V30 38 N -2.370045 1.414767 3.043881 0
M  V30 39 C -3.319786 3.076954 0.564192 0
M  V30 40 C -1.348389 0.347254 -2.933419 0
M  V30 41 C -0.766158 -0.714248 -3.594284 0
M  V30 42 H 3.342555 -6.995932 1.224226 0
M  V30 43 H 3.919903 -5.691134 0.057896 0
M  V30 44 H 2.413248 -5.430421 1.051232 0
M  V30 45 H 0.136691 -6.811693 -0.932110 0
M  V30 46 H 0.635539 -7.387107 0.705477 0
M  V30 47 H 0.655887 -5.647195 0.292968 0
M  V30 48 H 1.928711 -6.845897 -2.555280 0
M  V30 49 H 3.485837 -6.100328 -1.993446 0
M  V30 50 H 0.693879 -4.932411 -1.609692 0
M  V30 51 H 2.179353 -4.166498 -1.022490 0
M  V30 52 H 3.101153 -4.162536 -3.355889 0
M  V30 53 H 1.595476 -4.955188 -3.942431 0
M  V30 54 H 1.722936 -2.284127 -5.170894 0
M  V30 55 H 2.543445 0.026879 -3.111341 0
M  V30 56 H 1.555516 1.886809 -1.953108 0
M  V30 57 H -3.106338 1.958620 -1.877108 0
M  V30 58 H -3.472709 5.083799 -2.008567 0
M  V30 59 H -4.753372 6.489729 -0.326840 0
M  V30 60 H -5.060757 5.562946 2.000285 0
M  V30 61 H -4.666529 3.764628 3.590233 0
M  V30 62 H -4.874676 -0.976840 4.410073 0
M  V30 63 H -0.873567 -1.982296 1.813746 0
M  V30 64 H 1.674830 -2.050943 1.647694 0
M  V30 65 H 3.719291 -0.492874 2.607787 0
M  V30 66 H 4.225691 1.463958 3.911259 0
M  V30 67 H 2.390198 2.855966 4.940308 0
M  V30 68 H -0.013045 2.158340 4.579341 0
M  V30 69 H -2.959810 2.108459 0.931694 0
M  V30 70 H -2.408729 0.383497 -2.919042 0
M  V30 71 H -1.383879 -1.462839 -4.067917 0
M  V30 END ATOM
M  V30 BEGIN BOND
M  V30 1 1 1 2
M  V30 2 1 2 3
M  V30 3 1 2 4
M  V30 4 1 4 5
M  V30 5 1 5 6
M  V30 6 1 6 7
M  V30 7 2 7 8
M  V30 8 1 7 9
M  V30 9 1 9 10
M  V30 10 2 10 11
M  V30 11 1 11 12
M  V30 12 2 12 13
M  V30 13 1 13 14
M  V30 14 2 14 15
M  V30 15 1 14 16
M  V30 16 1 16 17
M  V30 17 2 17 18
M  V30 18 1 18 19
M  V30 19 2 19 20
M  V30 20 1 20 21
M  V30 21 1 21 22
M  V30 22 1 22 23
M  V30 23 2 23 24
M  V30 24 1 24 25
M  V30 25 2 25 26
M  V30 26 1 26 27
M  V30 27 1 26 28
M  V30 28 1 28 29
M  V30 29 2 29 30
M  V30 30 1 30 31
M  V30 31 1 31 32
M  V30 32 2 32 33
M  V30 33 1 33 34
M  V30 34 2 34 35
M  V30 35 1 35 36
M  V30 36 2 36 37
M  V30 37 2 28 38
M  V30 38 2 21 39
M  V30 39 1 13 40
M  V30 40 2 40 41
M  V30 41 1 41 10
M  V30 42 1 39 17
M  V30 43 1 38 23
M  V30 44 1 37 29
M  V30 45 1 37 32
M  V30 46 1 1 42
M  V30 47 1 1 43
M  V30 48 1 1 44
M  V30 49 1 3 45
M  V30 50 1 3 46
M  V30 51 1 3 47
M  V30 52 1 4 48
M  V30 53 1 4 49
M  V30 54 1 5 50
M  V30 55 1 5 51
M  V30 56 1 6 52
M  V30 57 1 6 53
M  V30 58 1 9 54
M  V30 59 1 11 55
M  V30 60 1 12 56
M  V30 61 1 16 57
M  V30 62 1 18 58
M  V30 63 1 19 59
M  V30 64 1 20 60
M  V30 65 1 22 61
M  V30 66 1 25 62
M  V30 67 1 30 63
M  V30 68 1 31 64
M  V30 69 1 33 65
M  V30 70 1 34 66
M  V30 71 1 35 67
M  V30 72 1 36 68
M  V30 73 1 39 69
M  V30 74 1 40 70
M  V30 75 1 41 71
M  V30 END BOND
M  V30 END CTAB
M  END
>  <Dataset>  (138) 
ChEMBL_Kinases

>  <Ligand_Instance>  (138) 
nan

>  <PDB_ID>  (138) 
nan

>  <Standardized_SMILES>  (138) 
CN(C)CCCC(=O)Nc1ccc(C(=O)Nc2cccc(Nc3ncc(Cl)c(-c4c[nH]c5ccccc45)n3)c2)cc1

>  <Name>  (138) 
nan

>  <Pocket>  (138) 
nan

>  <ATP_Site>  (138) 
nan

>  <Peripheral>  (138) 
nan

>  <Num_H_Atoms_ProtBoundConf>  (138) 
nan

>  <Num_Resolved_Atoms>  (138) 
nan

>  <Num_Not_Resolved_Atoms>  (138) 
nan

$$$$
CHEMBL437109
     RDKit          3D

  0  0  0  0  0  0  0  0  0  0999 V3000
M  V30 BEGIN CTAB
M  V30 COUNTS 42 45 0 0 0
M  V30 BEGIN ATOM
M  V30 1 N -0.266848 -7.719449 0.124299 0
M  V30 2 C -0.199298 -6.473775 -0.557297 0
M  V30 3 O -1.229145 -5.889467 -0.983031 0
M  V30 4 N 1.115797 -5.952154 -0.714222 0
M  V30 5 C 1.253340 -4.706698 -1.388966 0
M  V30 6 C 1.429345 -4.607299 -2.752385 0
M  V30 7 C 1.555582 -3.359603 -3.332902 0
M  V30 8 C 1.516960 -2.175307 -2.625596 0
M  V30 9 C 1.337302 -2.336495 -1.254094 0
M  V30 10 C 1.206027 -3.557162 -0.625667 0
M  V30 11 C 1.324439 -0.993689 -0.687146 0
M  V30 12 C 1.159412 -0.543889 0.540474 0
M  V30 13 C 1.153605 0.800585 1.091300 0
M  V30 14 C 0.145887 1.230588 1.964275 0
M  V30 15 C 0.438474 2.528769 2.331372 0
M  V30 16 C -0.418831 3.285079 3.243335 0
M  V30 17 C 0.097211 4.241540 4.091410 0
M  V30 18 C -0.663253 4.995409 4.981084 0
M  V30 19 C -2.013921 4.727769 4.972448 0
M  V30 20 C -2.616806 3.774509 4.143938 0
M  V30 21 F -3.950745 3.542816 4.167075 0
M  V30 22 C -1.781435 3.076465 3.295256 0
M  V30 23 C 1.604658 2.901313 1.701285 0
M  V30 24 N 1.992488 1.840421 0.975229 0
M  V30 25 C 1.502201 -0.042939 -1.773258 0
M  V30 26 O 1.553537 1.193565 -1.770586 0
M  V30 27 N 1.619495 -0.791406 -2.962325 0
M  V30 28 H -0.396915 -8.708948 0.421601 0
M  V30 29 H 0.068999 -7.628465 1.129396 0
M  V30 30 H 1.967372 -6.452664 -0.352890 0
M  V30 31 H 1.459090 -5.534784 -3.304670 0
M  V30 32 H 1.692901 -3.285539 -4.400150 0
M  V30 33 H 1.067874 -3.598504 0.457572 0
M  V30 34 H 0.997431 -1.346174 1.282241 0
M  V30 35 H -0.716693 0.638313 2.292871 0
M  V30 36 H 1.173761 4.467906 4.110673 0
M  V30 37 H -0.227626 5.739150 5.633958 0
M  V30 38 H -2.629929 5.302484 5.657912 0
M  V30 39 H -2.156828 2.321479 2.618952 0
M  V30 40 H 2.075149 3.860579 1.799537 0
M  V30 41 H 2.869144 1.893044 0.417112 0
M  V30 42 H 1.755687 -0.449921 -3.927705 0
M  V30 END ATOM
M  V30 BEGIN BOND
M  V30 1 1 1 2
M  V30 2 2 2 3
M  V30 3 1 2 4
M  V30 4 1 4 5
M  V30 5 2 5 6
M  V30 6 1 6 7
M  V30 7 2 7 8
M  V30 8 1 8 9
M  V30 9 2 9 10
M  V30 10 1 9 11
M  V30 11 2 11 12
M  V30 12 1 12 13
M  V30 13 2 13 14
M  V30 14 1 14 15
M  V30 15 1 15 16
M  V30 16 2 16 17
M  V30 17 1 17 18
M  V30 18 2 18 19
M  V30 19 1 19 20
M  V30 20 1 20 21
M  V30 21 2 20 22
M  V30 22 2 15 23
M  V30 23 1 23 24
M  V30 24 1 11 25
M  V30 25 2 25 26
M  V30 26 1 25 27
M  V30 27 1 10 5
M  V30 28 1 24 13
M  V30 29 1 27 8
M  V30 30 1 22 16
M  V30 31 1 1 28
M  V30 32 1 1 29
M  V30 33 1 4 30
M  V30 34 1 6 31
M  V30 35 1 7 32
M  V30 36 1 10 33
M  V30 37 1 12 34
M  V30 38 1 14 35
M  V30 39 1 17 36
M  V30 40 1 18 37
M  V30 41 1 19 38
M  V30 42 1 22 39
M  V30 43 1 23 40
M  V30 44 1 24 41
M  V30 45 1 27 42
M  V30 END BOND
M  V30 END CTAB
M  END
>  <Dataset>  (139) 
ChEMBL_Kinases

>  <Ligand_Instance>  (139) 
nan

>  <PDB_ID>  (139) 
nan

>  <Standardized_SMILES>  (139) 
NC(=O)Nc1ccc2c(c1)/C(=C/c1cc(-c3cccc(F)c3)c[nH]1)C(=O)N2

>  <Name>  (139) 
nan

>  <Pocket>  (139) 
nan

>  <ATP_Site>  (139) 
nan

>  <Peripheral>  (139) 
nan

>  <Num_H_Atoms_ProtBoundConf>  (139) 
nan

>  <Num_Resolved_Atoms>  (139) 
nan

>  <Num_Not_Resolved_Atoms>  (139) 
nan

$$$$
CHEMBL436944
     RDKit          3D

  0  0  0  0  0  0  0  0  0  0999 V3000
M  V30 BEGIN CTAB
M  V30 COUNTS 52 56 0 0 0
M  V30 BEGIN ATOM
M  V30 1 O 1.059275 -5.475867 -1.680928 0
M  V30 2 C 0.033609 -4.890902 -1.201863 0
M  V30 3 C 0.545610 -3.666868 -0.539971 0
M  V30 4 C 0.353596 -2.429159 -1.164185 0
M  V30 5 C 0.885226 -1.384684 -0.441015 0
M  V30 6 C 1.539520 -1.453652 0.754084 0
M  V30 7 C 2.103147 -0.379688 1.546793 0
M  V30 8 C 1.991171 0.920530 1.132901 0
M  V30 9 C 2.491285 2.005035 1.845999 0
M  V30 10 C 2.403673 3.409925 1.465197 0
M  V30 11 C 3.327948 4.394916 1.059245 0
M  V30 12 N 2.558284 5.466261 0.853707 0
M  V30 13 N 1.272672 5.272582 1.081688 0
M  V30 14 C 1.116748 3.963686 1.478369 0
M  V30 15 C -0.239214 3.561073 1.785906 0
M  V30 16 C -0.386979 3.235861 3.143209 0
M  V30 17 C -1.666688 2.839435 3.537922 0
M  V30 18 C -2.642676 2.804723 2.576143 0
M  V30 19 C -2.499877 3.125666 1.233894 0
M  V30 20 N -1.264091 3.492567 0.928859 0
M  V30 21 C 3.138667 1.763498 3.041510 0
M  V30 22 C 3.239628 0.448499 3.439552 0
M  V30 23 N 2.735063 -0.585092 2.708899 0
M  V30 24 C 1.655257 -2.719902 1.248563 0
M  V30 25 C 1.192501 -3.901684 0.679574 0
M  V30 26 N -1.376657 -5.057273 -1.121434 0
M  V30 27 C -2.314244 -4.161102 -0.469980 0
M  V30 28 C -3.221095 -3.647291 -1.586858 0
M  V30 29 O -3.028090 -4.276874 -2.789754 0
M  V30 30 C -2.992862 -5.645219 -2.759396 0
M  V30 31 C -2.044964 -6.203674 -1.716774 0
M  V30 32 H -0.146561 -2.318231 -2.092130 0
M  V30 33 H 0.788669 -0.364231 -0.852339 0
M  V30 34 H 1.502538 1.223536 0.214470 0
M  V30 35 H 4.314214 3.989336 1.044154 0
M  V30 36 H 3.114640 6.317742 0.536887 0
M  V30 37 H 0.388916 3.267767 3.883146 0
M  V30 38 H -1.846469 2.574168 4.576228 0
M  V30 39 H -3.605967 2.489722 2.961179 0
M  V30 40 H -3.330064 3.062673 0.569721 0
M  V30 41 H 3.549366 2.559672 3.644930 0
M  V30 42 H 3.743341 0.225688 4.378669 0
M  V30 43 H 2.170090 -2.883090 2.213230 0
M  V30 44 H 1.293060 -4.876492 1.075210 0
M  V30 45 H -1.799171 -3.324768 0.039802 0
M  V30 46 H -2.905811 -4.784015 0.221435 0
M  V30 47 H -4.259023 -3.616147 -1.246674 0
M  V30 48 H -2.910329 -2.575211 -1.749664 0
M  V30 49 H -2.589523 -5.990215 -3.744192 0
M  V30 50 H -4.010833 -6.092901 -2.699834 0
M  V30 51 H -2.718164 -6.661961 -0.940740 0
M  V30 52 H -1.344019 -6.944914 -2.119655 0
M  V30 END ATOM
M  V30 BEGIN BOND
M  V30 1 2 1 2
M  V30 2 1 2 3
M  V30 3 2 3 4
M  V30 4 1 4 5
M  V30 5 2 5 6
M  V30 6 1 6 7
M  V30 7 2 7 8
M  V30 8 1 8 9
M  V30 9 1 9 10
M  V30 10 2 10 11
M  V30 11 1 11 12
M  V30 12 1 12 13
M  V30 13 2 13 14
M  V30 14 1 14 15
M  V30 15 2 15 16
M  V30 16 1 16 17
M  V30 17 2 17 18
M  V30 18 1 18 19
M  V30 19 2 19 20
M  V30 20 2 9 21
M  V30 21 1 21 22
M  V30 22 2 22 23
M  V30 23 1 6 24
M  V30 24 2 24 25
M  V30 25 1 2 26
M  V30 26 1 26 27
M  V30 27 1 27 28
M  V30 28 1 28 29
M  V30 29 1 29 30
M  V30 30 1 30 31
M  V30 31 1 25 3
M  V30 32 1 31 26
M  V30 33 1 23 7
M  V30 34 1 14 10
M  V30 35 1 20 15
M  V30 36 1 4 32
M  V30 37 1 5 33
M  V30 38 1 8 34
M  V30 39 1 11 35
M  V30 40 1 12 36
M  V30 41 1 16 37
M  V30 42 1 17 38
M  V30 43 1 18 39
M  V30 44 1 19 40
M  V30 45 1 21 41
M  V30 46 1 22 42
M  V30 47 1 24 43
M  V30 48 1 25 44
M  V30 49 1 27 45
M  V30 50 1 27 46
M  V30 51 1 28 47
M  V30 52 1 28 48
M  V30 53 1 30 49
M  V30 54 1 30 50
M  V30 55 1 31 51
M  V30 56 1 31 52
M  V30 END BOND
M  V30 END CTAB
M  END
>  <Dataset>  (140) 
ChEMBL_Kinases

>  <Ligand_Instance>  (140) 
nan

>  <PDB_ID>  (140) 
nan

>  <Standardized_SMILES>  (140) 
O=C(c1ccc(-c2cc(-c3c[nH]nc3-c3ccccn3)ccn2)cc1)N1CCOCC1

>  <Name>  (140) 
nan

>  <Pocket>  (140) 
nan

>  <ATP_Site>  (140) 
nan

>  <Peripheral>  (140) 
nan

>  <Num_H_Atoms_ProtBoundConf>  (140) 
nan

>  <Num_Resolved_Atoms>  (140) 
nan

>  <Num_Not_Resolved_Atoms>  (140) 
nan

$$$$
CHEMBL436941
     RDKit          3D

  0  0  0  0  0  0  0  0  0  0999 V3000
M  V30 BEGIN CTAB
M  V30 COUNTS 41 43 0 0 0
M  V30 BEGIN ATOM
M  V30 1 C -2.169727 -5.468307 -0.081806 0
M  V30 2 N -1.828503 -4.046011 -0.014434 0
M  V30 3 C -1.150976 -3.408846 -1.103745 0
M  V30 4 O -0.949567 -4.265291 -2.013035 0
M  V30 5 C -0.834720 -1.952843 -0.967050 0
M  V30 6 C -0.095929 -1.457185 -2.161546 0
M  V30 7 C 0.271600 -0.005765 -2.109625 0
M  V30 8 C 1.122606 0.324086 -0.951566 0
M  V30 9 N 2.466742 0.215303 -1.075564 0
M  V30 10 N 3.055434 0.483152 0.083538 0
M  V30 11 C 4.473206 0.492944 0.454712 0
M  V30 12 C 2.148845 0.781678 1.028100 0
M  V30 13 C 0.941611 0.677959 0.361949 0
M  V30 14 C -0.256783 0.928963 0.987234 0
M  V30 15 O -1.359569 0.845942 0.400891 0
M  V30 16 C -0.276734 1.292585 2.316294 0
M  V30 17 C -1.482675 1.546278 2.934309 0
M  V30 18 C -1.468950 1.918638 4.281248 0
M  V30 19 Cl -2.961424 2.256700 5.128067 0
M  V30 20 C -0.226585 2.006520 4.905573 0
M  V30 21 C 0.983103 1.746379 4.267035 0
M  V30 22 C 0.951026 1.380233 2.936410 0
M  V30 23 N 2.122995 1.137025 2.326191 0
M  V30 24 O 3.331947 1.235412 2.973463 0
M  V30 25 H -3.033280 -5.699459 0.566718 0
M  V30 26 H -2.346425 -5.733113 -1.141742 0
M  V30 27 H -1.322983 -6.076744 0.344348 0
M  V30 28 H -2.104184 -3.533806 0.861897 0
M  V30 29 H -0.267025 -1.776534 -0.044110 0
M  V30 30 H -1.856084 -1.462720 -0.942391 0
M  V30 31 H 0.827953 -2.108245 -2.251192 0
M  V30 32 H -0.725087 -1.632905 -3.085450 0
M  V30 33 H 0.793595 0.240913 -3.082421 0
M  V30 34 H -0.688499 0.556958 -2.049208 0
M  V30 35 H 4.889536 1.513204 0.521903 0
M  V30 36 H 5.092651 -0.089865 -0.276178 0
M  V30 37 H 4.578407 -0.089334 1.408860 0
M  V30 38 H -2.429346 1.461155 2.390939 0
M  V30 39 H -0.241412 2.301402 5.961178 0
M  V30 40 H 1.895884 1.852416 4.870273 0
M  V30 41 H 3.682162 0.515075 3.595015 0
M  V30 END ATOM
M  V30 BEGIN BOND
M  V30 1 1 1 2
M  V30 2 1 2 3
M  V30 3 2 3 4
M  V30 4 1 3 5
M  V30 5 1 5 6
M  V30 6 1 6 7
M  V30 7 1 7 8
M  V30 8 2 8 9
M  V30 9 1 9 10
M  V30 10 1 10 11
M  V30 11 1 10 12
M  V30 12 2 12 13
M  V30 13 1 13 14
M  V30 14 2 14 15
M  V30 15 1 14 16
M  V30 16 2 16 17
M  V30 17 1 17 18
M  V30 18 1 18 19
M  V30 19 2 18 20
M  V30 20 1 20 21
M  V30 21 2 21 22
M  V30 22 1 22 23
M  V30 23 1 23 24
M  V30 24 1 13 8
M  V30 25 1 22 16
M  V30 26 1 23 12
M  V30 27 1 1 25
M  V30 28 1 1 26
M  V30 29 1 1 27
M  V30 30 1 2 28
M  V30 31 1 5 29
M  V30 32 1 5 30
M  V30 33 1 6 31
M  V30 34 1 6 32
M  V30 35 1 7 33
M  V30 36 1 7 34
M  V30 37 1 11 35
M  V30 38 1 11 36
M  V30 39 1 11 37
M  V30 40 1 17 38
M  V30 41 1 20 39
M  V30 42 1 21 40
M  V30 43 1 24 41
M  V30 END BOND
M  V30 END CTAB
M  END
>  <Dataset>  (141) 
ChEMBL_Kinases

>  <Ligand_Instance>  (141) 
nan

>  <PDB_ID>  (141) 
nan

>  <Standardized_SMILES>  (141) 
CNC(=O)CCCc1nn(C)c2c1c(=O)c1cc(Cl)ccc1n2O

>  <Name>  (141) 
nan

>  <Pocket>  (141) 
nan

>  <ATP_Site>  (141) 
nan

>  <Peripheral>  (141) 
nan

>  <Num_H_Atoms_ProtBoundConf>  (141) 
nan

>  <Num_Resolved_Atoms>  (141) 
nan

>  <Num_Not_Resolved_Atoms>  (141) 
nan

$$$$
CHEMBL436817
     RDKit          3D

  0  0  0  0  0  0  0  0  0  0999 V3000
M  V30 BEGIN CTAB
M  V30 COUNTS 42 45 0 0 0
M  V30 BEGIN ATOM
M  V30 1 N 2.318382 -4.432444 3.786129 0
M  V30 2 C 2.547439 -3.644408 2.960808 0
M  V30 3 C 2.824969 -2.679895 1.919602 0
M  V30 4 C 4.075297 -2.675391 1.294673 0
M  V30 5 N 4.285610 -1.758547 0.331513 0
M  V30 6 C 3.349858 -0.867939 -0.038121 0
M  V30 7 C 3.601131 0.055923 -1.028207 0
M  V30 8 Cl 5.150073 0.115923 -1.853581 0
M  V30 9 C 2.663558 0.973265 -1.421823 0
M  V30 10 C 1.406723 1.014925 -0.836715 0
M  V30 11 N 0.414543 1.945573 -1.231136 0
M  V30 12 C -0.929495 2.189471 -0.757713 0
M  V30 13 C -0.949865 2.696631 0.631448 0
M  V30 14 C -0.816156 4.063699 0.804125 0
M  V30 15 N -0.863342 4.372443 2.116175 0
M  V30 16 C -1.026742 3.212167 2.788671 0
M  V30 17 N -1.073430 2.241326 1.868740 0
M  V30 18 C 1.205087 0.071297 0.146862 0
M  V30 19 C 2.116334 -0.869641 0.575838 0
M  V30 20 C 1.839515 -1.784545 1.570199 0
M  V30 21 N 0.555713 -1.767235 2.191258 0
M  V30 22 C -0.436359 -2.590860 1.570335 0
M  V30 23 C -0.136573 -3.338248 0.447435 0
M  V30 24 C -1.056699 -4.151778 -0.193755 0
M  V30 25 C -2.326285 -4.208692 0.323250 0
M  V30 26 F -3.290838 -4.989659 -0.254400 0
M  V30 27 C -2.676774 -3.480544 1.444478 0
M  V30 28 Cl -4.319833 -3.590677 2.065599 0
M  V30 29 C -1.733522 -2.687860 2.047466 0
M  V30 30 H 4.824871 -3.391687 1.593472 0
M  V30 31 H 2.877404 1.693471 -2.202557 0
M  V30 32 H 0.717259 2.573881 -2.012919 0
M  V30 33 H -1.480574 1.195090 -0.786440 0
M  V30 34 H -1.469325 2.850901 -1.441982 0
M  V30 35 H -0.685959 4.917582 0.144035 0
M  V30 36 H -1.109307 3.039398 3.847811 0
M  V30 37 H -1.196839 1.227038 2.039059 0
M  V30 38 H 0.258452 0.011188 0.663076 0
M  V30 39 H 0.316194 -1.219781 3.022928 0
M  V30 40 H 0.852120 -3.305770 0.029223 0
M  V30 41 H -0.786936 -4.712188 -1.056692 0
M  V30 42 H -1.970788 -2.105949 2.923548 0
M  V30 END ATOM
M  V30 BEGIN BOND
M  V30 1 3 1 2
M  V30 2 1 2 3
M  V30 3 2 3 4
M  V30 4 1 4 5
M  V30 5 2 5 6
M  V30 6 1 6 7
M  V30 7 1 7 8
M  V30 8 2 7 9
M  V30 9 1 9 10
M  V30 10 1 10 11
M  V30 11 1 11 12
M  V30 12 1 12 13
M  V30 13 2 13 14
M  V30 14 1 14 15
M  V30 15 2 15 16
M  V30 16 1 16 17
M  V30 17 2 10 18
M  V30 18 1 18 19
M  V30 19 2 19 20
M  V30 20 1 20 21
M  V30 21 1 21 22
M  V30 22 2 22 23
M  V30 23 1 23 24
M  V30 24 2 24 25
M  V30 25 1 25 26
M  V30 26 1 25 27
M  V30 27 1 27 28
M  V30 28 2 27 29
M  V30 29 1 20 3
M  V30 30 1 29 22
M  V30 31 1 19 6
M  V30 32 1 17 13
M  V30 33 1 4 30
M  V30 34 1 9 31
M  V30 35 1 11 32
M  V30 36 1 12 33
M  V30 37 1 12 34
M  V30 38 1 14 35
M  V30 39 1 16 36
M  V30 40 1 17 37
M  V30 41 1 18 38
M  V30 42 1 21 39
M  V30 43 1 23 40
M  V30 44 1 24 41
M  V30 45 1 29 42
M  V30 END BOND
M  V30 END CTAB
M  END
>  <Dataset>  (142) 
ChEMBL_Kinases

>  <Ligand_Instance>  (142) 
nan

>  <PDB_ID>  (142) 
nan

>  <Standardized_SMILES>  (142) 
N#Cc1cnc2c(Cl)cc(NCc3cnc[nH]3)cc2c1Nc1ccc(F)c(Cl)c1

>  <Name>  (142) 
nan

>  <Pocket>  (142) 
nan

>  <ATP_Site>  (142) 
nan

>  <Peripheral>  (142) 
nan

>  <Num_H_Atoms_ProtBoundConf>  (142) 
nan

>  <Num_Resolved_Atoms>  (142) 
nan

>  <Num_Not_Resolved_Atoms>  (142) 
nan

$$$$
CHEMBL436764
     RDKit          3D

  0  0  0  0  0  0  0  0  0  0999 V3000
M  V30 BEGIN CTAB
M  V30 COUNTS 49 51 0 0 0
M  V30 BEGIN ATOM
M  V30 1 C 0.803880 -5.709772 1.447375 0
M  V30 2 C 1.371705 -5.000757 0.230950 0
M  V30 3 N 2.404399 -4.094069 0.735176 0
M  V30 4 C 2.965492 -3.402087 -0.412956 0
M  V30 5 C 1.711913 -3.092271 1.540015 0
M  V30 6 C 2.721611 -2.109395 2.102994 0
M  V30 7 C 1.996872 -1.073488 2.936886 0
M  V30 8 C 0.996418 -0.306923 2.147130 0
M  V30 9 C 1.327672 0.875634 1.477252 0
M  V30 10 C 0.193541 1.351501 0.835676 0
M  V30 11 C 0.027171 2.545377 0.011754 0
M  V30 12 C 0.729730 2.752418 -1.158928 0
M  V30 13 C 0.509204 3.924570 -1.889272 0
M  V30 14 N -0.372594 4.885518 -1.503222 0
M  V30 15 C -1.039224 4.643372 -0.351724 0
M  V30 16 C -0.871828 3.511286 0.417663 0
M  V30 17 C -0.799487 0.438704 1.136281 0
M  V30 18 C -2.209939 0.450571 0.716211 0
M  V30 19 C -3.143585 0.512558 1.724635 0
M  V30 20 C -4.501427 0.531015 1.475137 0
M  V30 21 C -4.855647 0.482253 0.129339 0
M  V30 22 F -6.174926 0.498161 -0.159893 0
M  V30 23 C -3.934887 0.420271 -0.885753 0
M  V30 24 C -2.602419 0.403110 -0.618628 0
M  V30 25 N -0.306610 -0.554259 1.925111 0
M  V30 26 H -0.226550 -5.325844 1.587037 0
M  V30 27 H 0.822293 -6.806745 1.221026 0
M  V30 28 H 1.438001 -5.583264 2.352632 0
M  V30 29 H 0.620977 -4.368959 -0.279600 0
M  V30 30 H 1.791292 -5.719928 -0.500827 0
M  V30 31 H 2.257718 -2.599243 -0.681703 0
M  V30 32 H 3.056899 -4.102117 -1.268616 0
M  V30 33 H 3.934690 -2.938339 -0.167025 0
M  V30 34 H 1.181551 -3.557587 2.403904 0
M  V30 35 H 0.980536 -2.562847 0.906446 0
M  V30 36 H 3.295698 -1.652202 1.280186 0
M  V30 37 H 3.410074 -2.644268 2.788847 0
M  V30 38 H 2.795496 -0.382328 3.315435 0
M  V30 39 H 1.560448 -1.517422 3.849861 0
M  V30 40 H 2.275617 1.392161 1.420402 0
M  V30 41 H 1.440477 2.012052 -1.500618 0
M  V30 42 H 1.079657 4.069867 -2.819504 0
M  V30 43 H -1.733514 5.434508 -0.078628 0
M  V30 44 H -1.435893 3.369278 1.335989 0
M  V30 45 H -2.831242 0.549650 2.773092 0
M  V30 46 H -5.218184 0.580140 2.282725 0
M  V30 47 H -4.203547 0.382523 -1.926626 0
M  V30 48 H -1.815334 0.355267 -1.361807 0
M  V30 49 H -0.831296 -1.375099 2.303760 0
M  V30 END ATOM
M  V30 BEGIN BOND
M  V30 1 1 1 2
M  V30 2 1 2 3
M  V30 3 1 3 4
M  V30 4 1 3 5
M  V30 5 1 5 6
M  V30 6 1 6 7
M  V30 7 1 7 8
M  V30 8 2 8 9
M  V30 9 1 9 10
M  V30 10 1 10 11
M  V30 11 2 11 12
M  V30 12 1 12 13
M  V30 13 2 13 14
M  V30 14 1 14 15
M  V30 15 2 15 16
M  V30 16 2 10 17
M  V30 17 1 17 18
M  V30 18 2 18 19
M  V30 19 1 19 20
M  V30 20 2 20 21
M  V30 21 1 21 22
M  V30 22 1 21 23
M  V30 23 2 23 24
M  V30 24 1 17 25
M  V30 25 1 25 8
M  V30 26 1 16 11
M  V30 27 1 24 18
M  V30 28 1 1 26
M  V30 29 1 1 27
M  V30 30 1 1 28
M  V30 31 1 2 29
M  V30 32 1 2 30
M  V30 33 1 4 31
M  V30 34 1 4 32
M  V30 35 1 4 33
M  V30 36 1 5 34
M  V30 37 1 5 35
M  V30 38 1 6 36
M  V30 39 1 6 37
M  V30 40 1 7 38
M  V30 41 1 7 39
M  V30 42 1 9 40
M  V30 43 1 12 41
M  V30 44 1 13 42
M  V30 45 1 15 43
M  V30 46 1 16 44
M  V30 47 1 19 45
M  V30 48 1 20 46
M  V30 49 1 23 47
M  V30 50 1 24 48
M  V30 51 1 25 49
M  V30 END BOND
M  V30 END CTAB
M  END
>  <Dataset>  (143) 
ChEMBL_Kinases

>  <Ligand_Instance>  (143) 
nan

>  <PDB_ID>  (143) 
nan

>  <Standardized_SMILES>  (143) 
CCN(C)CCCc1cc(-c2ccncc2)c(-c2ccc(F)cc2)[nH]1

>  <Name>  (143) 
nan

>  <Pocket>  (143) 
nan

>  <ATP_Site>  (143) 
nan

>  <Peripheral>  (143) 
nan

>  <Num_H_Atoms_ProtBoundConf>  (143) 
nan

>  <Num_Resolved_Atoms>  (143) 
nan

>  <Num_Not_Resolved_Atoms>  (143) 
nan

$$$$
CHEMBL436640
     RDKit          3D

  0  0  0  0  0  0  0  0  0  0999 V3000
M  V30 BEGIN CTAB
M  V30 COUNTS 37 41 0 0 0
M  V30 BEGIN ATOM
M  V30 1 O -0.311766 -5.213278 2.715309 0
M  V30 2 C 0.314045 -4.141161 2.646548 0
M  V30 3 N 1.332323 -4.123454 3.517704 0
M  V30 4 C 2.108085 -3.002914 3.551147 0
M  V30 5 C 1.929206 -1.882217 2.758334 0
M  V30 6 C 0.870198 -1.943473 1.876720 0
M  V30 7 C 0.668731 -0.846989 1.078140 0
M  V30 8 N 1.311818 0.332721 0.963075 0
M  V30 9 C 0.698488 1.067418 0.014023 0
M  V30 10 C 1.004003 2.418642 -0.490827 0
M  V30 11 C 0.249695 3.033086 -1.493468 0
M  V30 12 C 0.638828 4.304472 -1.880493 0
M  V30 13 C 1.727484 4.899431 -1.277004 0
M  V30 14 C 2.477334 4.300072 -0.286808 0
M  V30 15 C 2.089081 3.033364 0.098315 0
M  V30 16 N -0.336793 0.326386 -0.460067 0
M  V30 17 C -0.375635 -0.852839 0.177649 0
M  V30 18 C -1.170351 -2.003542 0.144982 0
M  V30 19 C -2.202363 -1.964404 -0.770416 0
M  V30 20 C -3.004064 -3.063483 -0.838512 0
M  V30 21 C -2.836418 -4.202119 -0.045199 0
M  V30 22 F -3.716655 -5.223891 -0.225264 0
M  V30 23 C -1.783784 -4.169736 0.847327 0
M  V30 24 C -0.952355 -3.089161 0.951683 0
M  V30 25 C 0.085019 -3.071463 1.839372 0
M  V30 26 H 1.607329 -4.883438 4.188354 0
M  V30 27 H 2.943958 -2.955473 4.247515 0
M  V30 28 H 2.575529 -1.037992 2.837060 0
M  V30 29 H 2.152294 0.676463 1.494750 0
M  V30 30 H -0.572893 2.445670 -1.870979 0
M  V30 31 H 0.041856 4.759916 -2.656450 0
M  V30 32 H 1.997727 5.910716 -1.618837 0
M  V30 33 H 3.306913 4.871912 0.105622 0
M  V30 34 H 2.677583 2.565089 0.874240 0
M  V30 35 H -2.375465 -1.107999 -1.407773 0
M  V30 36 H -3.819507 -3.039632 -1.557777 0
M  V30 37 H -1.751830 -5.083122 1.394977 0
M  V30 END ATOM
M  V30 BEGIN BOND
M  V30 1 2 1 2
M  V30 2 1 2 3
M  V30 3 1 3 4
M  V30 4 2 4 5
M  V30 5 1 5 6
M  V30 6 2 6 7
M  V30 7 1 7 8
M  V30 8 1 8 9
M  V30 9 1 9 10
M  V30 10 2 10 11
M  V30 11 1 11 12
M  V30 12 2 12 13
M  V30 13 1 13 14
M  V30 14 2 14 15
M  V30 15 2 9 16
M  V30 16 1 16 17
M  V30 17 2 17 18
M  V30 18 1 18 19
M  V30 19 2 19 20
M  V30 20 1 20 21
M  V30 21 1 21 22
M  V30 22 2 21 23
M  V30 23 1 23 24
M  V30 24 2 24 25
M  V30 25 1 25 2
M  V30 26 1 25 6
M  V30 27 1 17 7
M  V30 28 1 24 18
M  V30 29 1 15 10
M  V30 30 1 3 26
M  V30 31 1 4 27
M  V30 32 1 5 28
M  V30 33 1 8 29
M  V30 34 1 11 30
M  V30 35 1 12 31
M  V30 36 1 13 32
M  V30 37 1 14 33
M  V30 38 1 15 34
M  V30 39 1 19 35
M  V30 40 1 20 36
M  V30 41 1 23 37
M  V30 END BOND
M  V30 END CTAB
M  END
>  <Dataset>  (144) 
ChEMBL_Kinases

>  <Ligand_Instance>  (144) 
nan

>  <PDB_ID>  (144) 
nan

>  <Standardized_SMILES>  (144) 
O=c1[nH]ccc2c3[nH]c(-c4ccccc4)nc3c3ccc(F)cc3c12

>  <Name>  (144) 
nan

>  <Pocket>  (144) 
nan

>  <ATP_Site>  (144) 
nan

>  <Peripheral>  (144) 
nan

>  <Num_H_Atoms_ProtBoundConf>  (144) 
nan

>  <Num_Resolved_Atoms>  (144) 
nan

>  <Num_Not_Resolved_Atoms>  (144) 
nan

$$$$
CHEMBL436102
     RDKit          3D

  0  0  0  0  0  0  0  0  0  0999 V3000
M  V30 BEGIN CTAB
M  V30 COUNTS 55 58 0 0 0
M  V30 BEGIN ATOM
M  V30 1 C -0.362284 -3.466398 3.306450 0
M  V30 2 C 1.077993 -3.038387 3.497002 0
M  V30 3 O 1.290325 -2.236347 4.565559 0
M  V30 4 C 0.717782 -1.007712 4.629432 0
M  V30 5 N 1.130721 -0.077763 3.602470 0
M  V30 6 O 2.265230 0.566070 3.790712 0
M  V30 7 C 2.453435 1.306777 2.742169 0
M  V30 8 O 3.486551 2.053732 2.637833 0
M  V30 9 C 1.418744 1.164877 1.815806 0
M  V30 10 C 1.442468 1.921406 0.571682 0
M  V30 11 C 2.427472 1.423437 -0.294448 0
M  V30 12 C 2.627872 2.008091 -1.550859 0
M  V30 13 C 1.864115 3.081284 -1.961570 0
M  V30 14 F 2.023121 3.669980 -3.151062 0
M  V30 15 C 0.890514 3.555709 -1.076713 0
M  V30 16 C 0.689334 2.994268 0.144032 0
M  V30 17 C 0.591194 0.259757 2.420654 0
M  V30 18 C -0.645234 -0.135677 1.771070 0
M  V30 19 C -1.585183 0.911583 1.803743 0
M  V30 20 C -2.858422 0.881268 1.275245 0
M  V30 21 N -3.219890 -0.267661 0.674507 0
M  V30 22 C -2.353834 -1.302762 0.616445 0
M  V30 23 N -2.630721 -2.566704 0.020593 0
M  V30 24 C -2.534768 -2.750952 -1.422043 0 CFG=1
M  V30 25 C -3.571536 -1.931108 -2.074113 0
M  V30 26 C -1.141052 -2.416383 -1.771907 0
M  V30 27 C -0.135976 -2.961183 -0.994941 0
M  V30 28 C 1.184828 -2.683759 -1.264328 0
M  V30 29 C 1.502451 -1.850415 -2.324881 0
M  V30 30 C 0.500459 -1.310348 -3.095200 0
M  V30 31 C -0.823874 -1.595352 -2.816460 0
M  V30 32 N -1.128691 -1.220252 1.145851 0
M  V30 33 H -0.608319 -4.326410 3.986559 0
M  V30 34 H -1.032367 -2.626773 3.567992 0
M  V30 35 H -0.478315 -3.792256 2.252702 0
M  V30 36 H 1.476653 -2.635815 2.537697 0
M  V30 37 H 1.702584 -3.968579 3.665329 0
M  V30 38 H -0.407437 -1.046949 4.667566 0
M  V30 39 H 0.987638 -0.566132 5.622035 0
M  V30 40 H 3.100953 0.574868 -0.087166 0
M  V30 41 H 3.375903 1.649481 -2.243956 0
M  V30 42 H 0.237251 4.405336 -1.317575 0
M  V30 43 H -0.026380 3.290997 0.881536 0
M  V30 44 H -1.394253 1.897119 2.271399 0
M  V30 45 H -3.566859 1.689159 1.304589 0
M  V30 46 H -2.873406 -3.180772 0.819729 0
M  V30 47 H -2.686960 -3.820121 -1.670747 0
M  V30 48 H -4.535648 -2.525372 -1.997482 0
M  V30 49 H -3.467889 -1.764029 -3.156173 0
M  V30 50 H -3.781032 -1.001704 -1.510060 0
M  V30 51 H -0.361346 -3.615341 -0.162920 0
M  V30 52 H 1.966965 -3.125149 -0.639480 0
M  V30 53 H 2.548364 -1.632300 -2.536813 0
M  V30 54 H 0.732140 -0.646609 -3.940248 0
M  V30 55 H -1.556302 -1.152659 -3.439994 0
M  V30 END ATOM
M  V30 BEGIN BOND
M  V30 1 1 1 2
M  V30 2 1 2 3
M  V30 3 1 3 4
M  V30 4 1 4 5
M  V30 5 1 5 6
M  V30 6 1 6 7
M  V30 7 2 7 8
M  V30 8 1 7 9
M  V30 9 1 9 10
M  V30 10 2 10 11
M  V30 11 1 11 12
M  V30 12 2 12 13
M  V30 13 1 13 14
M  V30 14 1 13 15
M  V30 15 2 15 16
M  V30 16 2 9 17
M  V30 17 1 17 18
M  V30 18 2 18 19
M  V30 19 1 19 20
M  V30 20 2 20 21
M  V30 21 1 21 22
M  V30 22 1 22 23
M  V30 23 1 23 24
M  V30 24 1 24 25
M  V30 25 1 24 26
M  V30 26 2 26 27
M  V30 27 1 27 28
M  V30 28 2 28 29
M  V30 29 1 29 30
M  V30 30 2 30 31
M  V30 31 2 22 32
M  V30 32 1 17 5
M  V30 33 1 32 18
M  V30 34 1 16 10
M  V30 35 1 31 26
M  V30 36 1 1 33
M  V30 37 1 1 34
M  V30 38 1 1 35
M  V30 39 1 2 36
M  V30 40 1 2 37
M  V30 41 1 4 38
M  V30 42 1 4 39
M  V30 43 1 11 40
M  V30 44 1 12 41
M  V30 45 1 15 42
M  V30 46 1 16 43
M  V30 47 1 19 44
M  V30 48 1 20 45
M  V30 49 1 23 46
M  V30 50 1 24 47 CFG=1
M  V30 51 1 25 48
M  V30 52 1 25 49
M  V30 53 1 25 50
M  V30 54 1 27 51
M  V30 55 1 28 52
M  V30 56 1 29 53
M  V30 57 1 30 54
M  V30 58 1 31 55
M  V30 END BOND
M  V30 END CTAB
M  END
>  <Dataset>  (145) 
ChEMBL_Kinases

>  <Ligand_Instance>  (145) 
nan

>  <PDB_ID>  (145) 
nan

>  <Standardized_SMILES>  (145) 
CCOCn1oc(=O)c(-c2ccc(F)cc2)c1-c1ccnc(N[C@@H](C)c2ccccc2)n1

>  <Name>  (145) 
nan

>  <Pocket>  (145) 
nan

>  <ATP_Site>  (145) 
nan

>  <Peripheral>  (145) 
nan

>  <Num_H_Atoms_ProtBoundConf>  (145) 
nan

>  <Num_Resolved_Atoms>  (145) 
nan

>  <Num_Not_Resolved_Atoms>  (145) 
nan

$$$$
CHEMBL4754535
     RDKit          3D

  0  0  0  0  0  0  0  0  0  0999 V3000
M  V30 BEGIN CTAB
M  V30 COUNTS 38 41 0 0 0
M  V30 BEGIN ATOM
M  V30 1 F -2.707132 -4.252768 2.939047 0
M  V30 2 C -1.550599 -4.772566 2.382987 0
M  V30 3 F -1.877775 -5.976785 1.807109 0
M  V30 4 F -0.574302 -4.926753 3.364979 0
M  V30 5 C -1.084138 -3.863553 1.309893 0
M  V30 6 C -0.955675 -4.279993 0.005433 0
M  V30 7 N -0.535944 -3.439082 -0.925571 0
M  V30 8 C -0.216610 -2.174407 -0.688370 0
M  V30 9 N 0.227489 -1.327907 -1.739136 0
M  V30 10 C 0.612490 0.037320 -1.694520 0
M  V30 11 C 1.020746 0.706969 -2.827438 0
M  V30 12 C 1.399261 2.028775 -2.814563 0
M  V30 13 C 1.388228 2.760041 -1.647225 0
M  V30 14 N 1.707710 4.042476 -1.383397 0
M  V30 15 C 1.515151 4.241517 -0.068004 0
M  V30 16 C 1.067272 3.076153 0.521535 0
M  V30 17 C 0.987714 2.136541 -0.485028 0
M  V30 18 C 0.621103 0.813088 -0.563064 0
M  V30 19 N -0.356894 -1.818837 0.586063 0
M  V30 20 C -0.763523 -2.560337 1.598712 0
M  V30 21 N -0.858980 -2.020620 2.916413 0
M  V30 22 C -0.566837 -0.695148 3.388882 0
M  V30 23 C 0.883205 -0.286574 3.152099 0
M  V30 24 C 0.344942 -0.444226 4.521407 0
M  V30 25 H -1.200822 -5.309033 -0.264697 0
M  V30 26 H 0.282290 -1.772571 -2.699765 0
M  V30 27 H 1.049612 0.173102 -3.789156 0
M  V30 28 H 1.708202 2.481557 -3.753751 0
M  V30 29 H 2.047593 4.762490 -2.080065 0
M  V30 30 H 1.677780 5.165191 0.477142 0
M  V30 31 H 0.823373 2.915701 1.561866 0
M  V30 32 H 0.321282 0.398252 0.385813 0
M  V30 33 H -1.186427 -2.646889 3.687208 0
M  V30 34 H -1.349352 0.069713 3.175934 0
M  V30 35 H 1.606975 -1.038960 2.813427 0
M  V30 36 H 1.009228 0.698996 2.675210 0
M  V30 37 H 0.193297 0.512389 5.086837 0
M  V30 38 H 0.764786 -1.234396 5.147939 0
M  V30 END ATOM
M  V30 BEGIN BOND
M  V30 1 1 1 2
M  V30 2 1 2 3
M  V30 3 1 2 4
M  V30 4 1 2 5
M  V30 5 2 5 6
M  V30 6 1 6 7
M  V30 7 2 7 8
M  V30 8 1 8 9
M  V30 9 1 9 10
M  V30 10 2 10 11
M  V30 11 1 11 12
M  V30 12 2 12 13
M  V30 13 1 13 14
M  V30 14 1 14 15
M  V30 15 2 15 16
M  V30 16 1 16 17
M  V30 17 2 17 18
M  V30 18 1 8 19
M  V30 19 2 19 20
M  V30 20 1 20 21
M  V30 21 1 21 22
M  V30 22 1 22 23
M  V30 23 1 23 24
M  V30 24 1 20 5
M  V30 25 1 24 22
M  V30 26 1 18 10
M  V30 27 1 17 13
M  V30 28 1 6 25
M  V30 29 1 9 26
M  V30 30 1 11 27
M  V30 31 1 12 28
M  V30 32 1 14 29
M  V30 33 1 15 30
M  V30 34 1 16 31
M  V30 35 1 18 32
M  V30 36 1 21 33
M  V30 37 1 22 34
M  V30 38 1 23 35
M  V30 39 1 23 36
M  V30 40 1 24 37
M  V30 41 1 24 38
M  V30 END BOND
M  V30 END CTAB
M  END
>  <Dataset>  (146) 
ChEMBL_Kinases

>  <Ligand_Instance>  (146) 
nan

>  <PDB_ID>  (146) 
nan

>  <Standardized_SMILES>  (146) 
FC(F)(F)c1cnc(Nc2ccc3[nH]ccc3c2)nc1NC1CC1

>  <Name>  (146) 
nan

>  <Pocket>  (146) 
nan

>  <ATP_Site>  (146) 
nan

>  <Peripheral>  (146) 
nan

>  <Num_H_Atoms_ProtBoundConf>  (146) 
nan

>  <Num_Resolved_Atoms>  (146) 
nan

>  <Num_Not_Resolved_Atoms>  (146) 
nan

$$$$
CHEMBL435750
     RDKit          3D

  0  0  0  0  0  0  0  0  0  0999 V3000
M  V30 BEGIN CTAB
M  V30 COUNTS 56 58 0 0 0
M  V30 BEGIN ATOM
M  V30 1 C 3.575724 -2.773559 2.843526 0
M  V30 2 C 4.162586 -1.633871 2.038230 0
M  V30 3 N 3.507483 -0.397099 2.509907 0
M  V30 4 C 3.932023 -0.108721 3.866830 0
M  V30 5 C 5.387625 0.269791 3.788672 0
M  V30 6 C 2.581646 0.317076 1.670035 0
M  V30 7 C 2.041601 -0.429697 0.646303 0
M  V30 8 C 1.115953 0.027171 -0.254776 0
M  V30 9 C 0.679443 1.360019 -0.130364 0
M  V30 10 C 1.228009 2.122459 0.910809 0
M  V30 11 C 2.170955 1.624868 1.812368 0
M  V30 12 Cl 2.860731 2.570844 3.078201 0
M  V30 13 N -0.248616 2.169059 -0.857523 0
M  V30 14 C -1.589714 2.121225 -1.181234 0
M  V30 15 O -1.251409 1.176988 -0.526229 0
M  V30 16 N -2.927129 2.244316 -1.606551 0
M  V30 17 C -3.970593 1.310183 -1.335537 0
M  V30 18 C -5.295507 1.658286 -1.280400 0
M  V30 19 N -6.324402 0.820701 -1.039433 0
M  V30 20 C -6.036942 -0.473303 -0.832897 0
M  V30 21 C -6.914222 -1.565088 -0.561857 0
M  V30 22 N -7.641212 -2.438154 -0.346302 0
M  V30 23 C -4.730829 -0.879507 -0.874984 0
M  V30 24 N -3.739141 0.007456 -1.121910 0
M  V30 25 O -4.022953 -2.072011 -0.721320 0
M  V30 26 C -3.203065 -2.517289 -1.765482 0
M  V30 27 C -2.396490 -3.741808 -1.495203 0
M  V30 28 C -1.542443 -3.572079 -0.238585 0
M  V30 29 C -0.825574 -2.270964 -0.248102 0
M  V30 30 C 0.146498 -2.008029 -1.339978 0
M  V30 31 O 0.531663 -0.649444 -1.297293 0
M  V30 32 H 2.567469 -2.516004 3.266428 0
M  V30 33 H 4.200957 -2.995755 3.755135 0
M  V30 34 H 3.518983 -3.699399 2.266348 0
M  V30 35 H 5.248678 -1.588413 2.338679 0
M  V30 36 H 4.107820 -1.768059 0.960706 0
M  V30 37 H 3.296238 0.572202 4.425753 0
M  V30 38 H 3.832084 -1.093372 4.433151 0
M  V30 39 H 5.581707 1.243092 4.282680 0
M  V30 40 H 5.754650 0.385559 2.737518 0
M  V30 41 H 5.994002 -0.557696 4.207229 0
M  V30 42 H 2.237953 -1.476795 0.380354 0
M  V30 43 H 0.982627 3.175369 1.127368 0
M  V30 44 H 0.195588 3.053858 -1.267672 0
M  V30 45 H -3.169435 3.090087 -2.174676 0
M  V30 46 H -5.456862 2.714863 -1.452284 0
M  V30 47 H -2.646922 -1.690910 -2.249780 0
M  V30 48 H -3.934184 -2.834410 -2.573690 0
M  V30 49 H -1.697399 -3.887848 -2.335099 0
M  V30 50 H -3.054965 -4.623196 -1.444645 0
M  V30 51 H -2.234056 -3.650065 0.616094 0
M  V30 52 H -0.806763 -4.390225 -0.144725 0
M  V30 53 H -1.569288 -1.447777 -0.237473 0
M  V30 54 H -0.270747 -2.217825 0.743853 0
M  V30 55 H 1.024970 -2.690069 -1.331792 0
M  V30 56 H -0.341294 -2.182896 -2.315539 0
M  V30 END ATOM
M  V30 BEGIN BOND
M  V30 1 1 1 2
M  V30 2 1 2 3
M  V30 3 1 3 4
M  V30 4 1 4 5
M  V30 5 1 3 6
M  V30 6 2 6 7
M  V30 7 1 7 8
M  V30 8 2 8 9
M  V30 9 1 9 10
M  V30 10 2 10 11
M  V30 11 1 11 12
M  V30 12 1 9 13
M  V30 13 1 13 14
M  V30 14 2 14 15
M  V30 15 1 14 16
M  V30 16 1 16 17
M  V30 17 1 17 18
M  V30 18 2 18 19
M  V30 19 1 19 20
M  V30 20 1 20 21
M  V30 21 3 21 22
M  V30 22 2 20 23
M  V30 23 1 23 24
M  V30 24 1 23 25
M  V30 25 1 25 26
M  V30 26 1 26 27
M  V30 27 1 27 28
M  V30 28 1 28 29
M  V30 29 1 29 30
M  V30 30 1 30 31
M  V30 31 1 11 6
M  V30 32 2 24 17
M  V30 33 1 31 8
M  V30 34 1 1 32
M  V30 35 1 1 33
M  V30 36 1 1 34
M  V30 37 1 2 35
M  V30 38 1 2 36
M  V30 39 1 4 37
M  V30 40 1 4 38
M  V30 41 1 5 39
M  V30 42 1 5 40
M  V30 43 1 5 41
M  V30 44 1 7 42
M  V30 45 1 10 43
M  V30 46 1 13 44
M  V30 47 1 16 45
M  V30 48 1 18 46
M  V30 49 1 26 47
M  V30 50 1 26 48
M  V30 51 1 27 49
M  V30 52 1 27 50
M  V30 53 1 28 51
M  V30 54 1 28 52
M  V30 55 1 29 53
M  V30 56 1 29 54
M  V30 57 1 30 55
M  V30 58 1 30 56
M  V30 END BOND
M  V30 END CTAB
M  END
>  <Dataset>  (147) 
ChEMBL_Kinases

>  <Ligand_Instance>  (147) 
nan

>  <PDB_ID>  (147) 
nan

>  <Standardized_SMILES>  (147) 
CCN(CC)c1cc2c(cc1Cl)NC(=O)Nc1cnc(C#N)c(n1)OCCCCCO2

>  <Name>  (147) 
nan

>  <Pocket>  (147) 
nan

>  <ATP_Site>  (147) 
nan

>  <Peripheral>  (147) 
nan

>  <Num_H_Atoms_ProtBoundConf>  (147) 
nan

>  <Num_Resolved_Atoms>  (147) 
nan

>  <Num_Not_Resolved_Atoms>  (147) 
nan

$$$$
CHEMBL4754560
     RDKit          3D

  0  0  0  0  0  0  0  0  0  0999 V3000
M  V30 BEGIN CTAB
M  V30 COUNTS 136 142 0 0 0
M  V30 BEGIN ATOM
M  V30 1 C -0.808086 -0.205038 6.047842 0
M  V30 2 C 0.606475 0.197123 6.317343 0
M  V30 3 N 1.321836 -0.666206 6.971071 0
M  V30 4 C 2.581909 -0.366462 7.244728 0
M  V30 5 S 2.781794 1.308479 6.504384 0
M  V30 6 C 1.097212 1.405746 5.896632 0
M  V30 7 C 0.610670 2.534683 5.183521 0
M  V30 8 C -0.618037 2.737205 4.660299 0
M  V30 9 C -1.083862 3.822427 3.961053 0
M  V30 10 C -0.204427 4.853333 3.749137 0
M  V30 11 C -0.397548 6.131805 2.974701 0
M  V30 12 N 0.130252 5.865167 1.631027 0
M  V30 13 C -0.636029 5.160713 0.634555 0
M  V30 14 O -1.766013 4.894760 1.084473 0
M  V30 15 C 0.182892 4.994528 -0.551512 0 CFG=2
M  V30 16 C 0.629318 6.292319 -1.156089 0
M  V30 17 C 1.062251 5.837050 -2.567556 0 CFG=1
M  V30 18 O 2.386712 6.074007 -2.816870 0
M  V30 19 C 0.857192 4.308972 -2.415387 0
M  V30 20 N -0.415093 4.297957 -1.668956 0
M  V30 21 C -1.720318 3.750413 -1.841378 0
M  V30 22 O -2.719086 4.041745 -1.148514 0
M  V30 23 C -2.163635 2.759236 -2.822973 0 CFG=1
M  V30 24 N -0.991155 2.014143 -3.346140 0
M  V30 25 C -0.229184 1.275679 -4.302961 0
M  V30 26 O -0.990645 1.185982 -5.291622 0
M  V30 27 C 1.125419 0.822617 -3.947821 0
M  V30 28 C 1.402436 -0.623159 -4.312719 0
M  V30 29 C 2.867241 -0.851193 -3.896612 0
M  V30 30 N 3.028750 -0.445366 -2.504111 0
M  V30 31 C 4.379662 -0.698232 -2.202734 0
M  V30 32 O 5.182790 -1.226340 -3.038185 0
M  V30 33 C 5.424617 -0.579119 -1.145246 0
M  V30 34 C 6.517984 -1.610334 -1.377664 0
M  V30 35 C 5.926477 -2.929718 -1.116326 0
M  V30 36 O 5.444363 -2.798833 0.028834 0
M  V30 37 N 5.416294 -4.219474 -0.993605 0
M  V30 38 C 4.933640 -4.816349 0.217308 0
M  V30 39 C 3.768814 -5.716795 0.067160 0
M  V30 40 N 2.930057 -5.469553 -1.085109 0
M  V30 41 C 1.736683 -4.798773 -0.787047 0 CFG=1
M  V30 42 C 1.835861 -3.405078 -0.226507 0
M  V30 43 C 0.556652 -3.129726 0.564145 0
M  V30 44 C -0.604130 -3.881794 -0.085483 0 CFG=1
M  V30 45 N -1.890974 -3.447747 0.399220 0
M  V30 46 C -3.041195 -4.157233 -0.107118 0
M  V30 47 N -2.804387 -5.096550 -1.031236 0
M  V30 48 C -3.834998 -5.771727 -1.569039 0
M  V30 49 N -5.095138 -5.490173 -1.165463 0
M  V30 50 N -5.308136 -4.568244 -0.257284 0
M  V30 51 C -6.490450 -4.186032 0.254613 0
M  V30 52 C -6.165099 -3.217799 1.167029 0
M  V30 53 C -4.778607 -2.960198 1.259003 0
M  V30 54 C -4.079287 -2.026383 2.164153 0
M  V30 55 C -3.666391 -0.723895 1.595411 0
M  V30 56 C -3.168931 -2.649170 3.181592 0
M  V30 57 C -4.312642 -3.860236 0.316914 0
M  V30 58 C -0.388723 -3.757416 -1.556148 0
M  V30 59 C 0.731297 -4.764148 -1.892118 0
M  V30 60 C 3.633103 -5.256163 -2.281551 0
M  V30 61 C 5.157357 -5.188436 -2.045247 0
M  V30 62 C -3.120184 1.707540 -2.253581 0
M  V30 63 C -3.487782 0.807311 -3.432338 0
M  V30 64 C -2.392173 0.797963 -1.278984 0
M  V30 65 C -4.329668 2.290622 -1.628675 0
M  V30 66 C 1.094597 4.729518 4.258309 0
M  V30 67 C 1.494127 3.606212 4.955021 0
M  V30 68 H -1.508606 0.506491 6.556280 0
M  V30 69 H -1.084474 -1.198535 6.472564 0
M  V30 70 H -0.977013 -0.316507 4.962512 0
M  V30 71 H 3.320726 -0.979085 7.784947 0
M  V30 72 H -1.363966 1.974110 4.779678 0
M  V30 73 H -2.074104 3.946961 3.571525 0
M  V30 74 H -1.452806 6.395615 2.985914 0
M  V30 75 H 0.182165 6.908322 3.482347 0
M  V30 76 H 1.111503 6.254142 1.516115 0
M  V30 77 H 1.135219 4.420041 -0.275741 0
M  V30 78 H 1.519989 6.707672 -0.652789 0
M  V30 79 H -0.140594 7.056723 -1.238298 0
M  V30 80 H 0.352672 6.164816 -3.324715 0
M  V30 81 H 2.443283 6.940987 -3.308706 0
M  V30 82 H 0.724042 3.854382 -3.414691 0
M  V30 83 H 1.664042 3.841813 -1.856321 0
M  V30 84 H -2.704724 3.242493 -3.654812 0
M  V30 85 H -0.448483 2.061651 -2.424019 0
M  V30 86 H 1.320973 0.996578 -2.887194 0
M  V30 87 H 1.834403 1.464987 -4.558806 0
M  V30 88 H 0.786067 -1.331292 -3.761967 0
M  V30 89 H 1.376867 -0.720694 -5.411356 0
M  V30 90 H 3.528584 -0.257491 -4.552630 0
M  V30 91 H 3.036748 -1.931095 -3.965407 0
M  V30 92 H 2.678373 -0.059019 -1.590630 0
M  V30 93 H 5.831555 0.454070 -1.160044 0
M  V30 94 H 4.923884 -0.719151 -0.168819 0
M  V30 95 H 6.943382 -1.525144 -2.399415 0
M  V30 96 H 7.349091 -1.440985 -0.678448 0
M  V30 97 H 5.812806 -5.440806 0.638689 0
M  V30 98 H 4.776421 -4.082386 1.009744 0
M  V30 99 H 4.029628 -6.784012 0.062230 0
M  V30 100 H 3.100402 -5.560307 0.955615 0
M  V30 101 H 1.283482 -5.405496 0.079192 0
M  V30 102 H 1.874425 -2.627973 -1.012507 0
M  V30 103 H 2.653901 -3.225628 0.466187 0
M  V30 104 H 0.279927 -2.038817 0.454873 0
M  V30 105 H 0.687564 -3.326667 1.617765 0
M  V30 106 H -0.583726 -4.979434 0.210706 0
M  V30 107 H -1.657380 -2.680138 1.014410 0
M  V30 108 H -3.529592 -6.518278 -2.317802 0
M  V30 109 H -7.464238 -4.549720 0.007820 0
M  V30 110 H -6.943545 -2.714866 1.751559 0
M  V30 111 H -4.957858 -1.701529 2.838548 0
M  V30 112 H -4.396531 -0.454779 0.799100 0
M  V30 113 H -3.835819 0.073199 2.385239 0
M  V30 114 H -2.651441 -0.576689 1.271979 0
M  V30 115 H -3.046396 -3.722504 2.899965 0
M  V30 116 H -3.565467 -2.700043 4.213345 0
M  V30 117 H -2.207254 -2.100975 3.287525 0
M  V30 118 H -1.212623 -3.935999 -2.216716 0
M  V30 119 H -0.022235 -2.714592 -1.749159 0
M  V30 120 H 0.256410 -5.738286 -2.015021 0
M  V30 121 H 1.180349 -4.465790 -2.860038 0
M  V30 122 H 3.298975 -4.378420 -2.867791 0
M  V30 123 H 3.490657 -6.142554 -2.931033 0
M  V30 124 H 5.594355 -4.846308 -2.998438 0
M  V30 125 H 5.570577 -6.180777 -1.819650 0
M  V30 126 H -3.555917 1.401890 -4.377509 0
M  V30 127 H -4.489791 0.375965 -3.286289 0
M  V30 128 H -2.771733 -0.007659 -3.570658 0
M  V30 129 H -3.003201 -0.099133 -1.110571 0
M  V30 130 H -1.498550 0.420815 -1.859401 0
M  V30 131 H -2.023649 1.325024 -0.403827 0
M  V30 132 H -5.207702 1.594325 -1.808049 0
M  V30 133 H -4.613167 3.216364 -2.182614 0
M  V30 134 H -4.224908 2.439036 -0.531178 0
M  V30 135 H 1.832369 5.521677 4.123460 0
M  V30 136 H 2.515345 3.599965 5.314746 0
M  V30 END ATOM
M  V30 BEGIN BOND
M  V30 1 1 1 2
M  V30 2 1 2 3
M  V30 3 2 3 4
M  V30 4 1 4 5
M  V30 5 1 5 6
M  V30 6 1 6 7
M  V30 7 2 7 8
M  V30 8 1 8 9
M  V30 9 2 9 10
M  V30 10 1 10 11
M  V30 11 1 11 12
M  V30 12 1 12 13
M  V30 13 2 13 14
M  V30 14 1 13 15
M  V30 15 1 15 16
M  V30 16 1 16 17
M  V30 17 1 17 18
M  V30 18 1 17 19
M  V30 19 1 19 20
M  V30 20 1 20 21
M  V30 21 2 21 22
M  V30 22 1 21 23
M  V30 23 1 23 24
M  V30 24 1 24 25
M  V30 25 2 25 26
M  V30 26 1 25 27
M  V30 27 1 27 28
M  V30 28 1 28 29
M  V30 29 1 29 30
M  V30 30 1 30 31
M  V30 31 2 31 32
M  V30 32 1 31 33
M  V30 33 1 33 34
M  V30 34 1 34 35
M  V30 35 2 35 36
M  V30 36 1 35 37
M  V30 37 1 37 38
M  V30 38 1 38 39
M  V30 39 1 39 40
M  V30 40 1 40 41
M  V30 41 1 41 42
M  V30 42 1 42 43
M  V30 43 1 43 44
M  V30 44 1 44 45
M  V30 45 1 45 46
M  V30 46 2 46 47
M  V30 47 1 47 48
M  V30 48 2 48 49
M  V30 49 1 49 50
M  V30 50 1 50 51
M  V30 51 2 51 52
M  V30 52 1 52 53
M  V30 53 1 53 54
M  V30 54 1 54 55
M  V30 55 1 54 56
M  V30 56 2 53 57
M  V30 57 1 44 58
M  V30 58 1 58 59
M  V30 59 1 40 60
M  V30 60 1 60 61
M  V30 61 1 23 62
M  V30 62 1 62 63
M  V30 63 1 62 64
M  V30 64 1 62 65
M  V30 65 1 10 66
M  V30 66 2 66 67
M  V30 67 2 6 2
M  V30 68 1 67 7
M  V30 69 1 20 15
M  V30 70 1 61 37
M  V30 71 1 59 41
M  V30 72 1 57 46
M  V30 73 1 57 50
M  V30 74 1 1 68
M  V30 75 1 1 69
M  V30 76 1 1 70
M  V30 77 1 4 71
M  V30 78 1 8 72
M  V30 79 1 9 73
M  V30 80 1 11 74
M  V30 81 1 11 75
M  V30 82 1 12 76
M  V30 83 1 15 77 CFG=1
M  V30 84 1 16 78
M  V30 85 1 16 79
M  V30 86 1 17 80 CFG=3
M  V30 87 1 18 81
M  V30 88 1 19 82
M  V30 89 1 19 83
M  V30 90 1 23 84 CFG=3
M  V30 91 1 24 85
M  V30 92 1 27 86
M  V30 93 1 27 87
M  V30 94 1 28 88
M  V30 95 1 28 89
M  V30 96 1 29 90
M  V30 97 1 29 91
M  V30 98 1 30 92
M  V30 99 1 33 93
M  V30 100 1 33 94
M  V30 101 1 34 95
M  V30 102 1 34 96
M  V30 103 1 38 97
M  V30 104 1 38 98
M  V30 105 1 39 99
M  V30 106 1 39 100
M  V30 107 1 41 101 CFG=1
M  V30 108 1 42 102
M  V30 109 1 42 103
M  V30 110 1 43 104
M  V30 111 1 43 105
M  V30 112 1 44 106 CFG=1
M  V30 113 1 45 107
M  V30 114 1 48 108
M  V30 115 1 51 109
M  V30 116 1 52 110
M  V30 117 1 54 111
M  V30 118 1 55 112
M  V30 119 1 55 113
M  V30 120 1 55 114
M  V30 121 1 56 115
M  V30 122 1 56 116
M  V30 123 1 56 117
M  V30 124 1 58 118
M  V30 125 1 58 119
M  V30 126 1 59 120
M  V30 127 1 59 121
M  V30 128 1 60 122
M  V30 129 1 60 123
M  V30 130 1 61 124
M  V30 131 1 61 125
M  V30 132 1 63 126
M  V30 133 1 63 127
M  V30 134 1 63 128
M  V30 135 1 64 129
M  V30 136 1 64 130
M  V30 137 1 64 131
M  V30 138 1 65 132
M  V30 139 1 65 133
M  V30 140 1 65 134
M  V30 141 1 66 135
M  V30 142 1 67 136
M  V30 END BOND
M  V30 END CTAB
M  END
>  <Dataset>  (148) 
ChEMBL_Kinases

>  <Ligand_Instance>  (148) 
nan

>  <PDB_ID>  (148) 
nan

>  <Standardized_SMILES>  (148) 
Cc1ncsc1-c1ccc(CNC(=O)[C@@H]2C[C@@H](O)CN2C(=O)[C@@H](NC(=O)CCCNC(=O)CCC(=O)N2CCN([C@H]3CC[C@@H](Nc4ncnn5ccc(C(C)C)c45)CC3)CC2)C(C)(C)C)cc1

>  <Name>  (148) 
nan

>  <Pocket>  (148) 
nan

>  <ATP_Site>  (148) 
nan

>  <Peripheral>  (148) 
nan

>  <Num_H_Atoms_ProtBoundConf>  (148) 
nan

>  <Num_Resolved_Atoms>  (148) 
nan

>  <Num_Not_Resolved_Atoms>  (148) 
nan

$$$$
CHEMBL435491
     RDKit          3D

  0  0  0  0  0  0  0  0  0  0999 V3000
M  V30 BEGIN CTAB
M  V30 COUNTS 45 48 0 0 0
M  V30 BEGIN ATOM
M  V30 1 C -2.359847 -4.701547 0.448245 0
M  V30 2 N -1.271207 -3.771776 0.189758 0
M  V30 3 C -0.086846 -4.120151 0.911014 0
M  V30 4 C 1.192276 -3.837800 0.175504 0
M  V30 5 C 1.114201 -2.674276 -0.746299 0
M  V30 6 C 0.980136 -1.374769 -0.030447 0
M  V30 7 N 1.774395 -0.313853 -0.252241 0
M  V30 8 C 1.403219 0.696157 0.542962 0
M  V30 9 C 1.974330 2.031559 0.639870 0
M  V30 10 C 1.762298 2.706945 -0.569663 0
M  V30 11 C 2.212525 4.015638 -0.761385 0
M  V30 12 C 2.877363 4.642949 0.269508 0
M  V30 13 F 3.332764 5.914597 0.127849 0
M  V30 14 C 3.086617 3.979718 1.459712 0
M  V30 15 C 2.642877 2.689807 1.647795 0
M  V30 16 C 0.338557 0.226530 1.278299 0
M  V30 17 C -0.486707 0.850064 2.303157 0
M  V30 18 C -1.847278 1.106881 2.087707 0
M  V30 19 C -2.607894 1.701746 3.099348 0
M  V30 20 N -2.077503 2.045873 4.297885 0
M  V30 21 C -0.775479 1.807532 4.521098 0
M  V30 22 C -0.019901 1.226109 3.540383 0
M  V30 23 O 0.128927 -1.023909 0.890745 0
M  V30 24 C -0.038072 -2.818010 -1.720856 0
M  V30 25 C -1.111658 -3.738232 -1.245487 0
M  V30 26 H -3.241801 -4.283765 -0.086672 0
M  V30 27 H -2.062010 -5.642863 -0.102322 0
M  V30 28 H -2.549132 -4.877709 1.514691 0
M  V30 29 H -0.119589 -5.218154 1.119365 0
M  V30 30 H -0.029103 -3.642821 1.906678 0
M  V30 31 H 1.417256 -4.732394 -0.457032 0
M  V30 32 H 1.991545 -3.667259 0.928598 0
M  V30 33 H 2.035229 -2.635395 -1.362365 0
M  V30 34 H 1.254492 2.340694 -1.473038 0
M  V30 35 H 2.081743 4.583361 -1.659735 0
M  V30 36 H 3.598512 4.415364 2.302844 0
M  V30 37 H 2.740594 2.068410 2.509798 0
M  V30 38 H -2.249776 0.823713 1.125450 0
M  V30 39 H -3.651968 1.884038 2.898244 0
M  V30 40 H -0.353935 2.084308 5.481165 0
M  V30 41 H 1.015732 1.062773 3.797357 0
M  V30 42 H 0.296358 -3.185415 -2.711876 0
M  V30 43 H -0.485873 -1.810379 -1.881847 0
M  V30 44 H -0.931453 -4.803369 -1.564308 0
M  V30 45 H -2.066078 -3.403924 -1.669315 0
M  V30 END ATOM
M  V30 BEGIN BOND
M  V30 1 1 1 2
M  V30 2 1 2 3
M  V30 3 1 3 4
M  V30 4 1 4 5
M  V30 5 1 5 6
M  V30 6 2 6 7
M  V30 7 1 7 8
M  V30 8 1 8 9
M  V30 9 2 9 10
M  V30 10 1 10 11
M  V30 11 2 11 12
M  V30 12 1 12 13
M  V30 13 1 12 14
M  V30 14 2 14 15
M  V30 15 2 8 16
M  V30 16 1 16 17
M  V30 17 2 17 18
M  V30 18 1 18 19
M  V30 19 2 19 20
M  V30 20 1 20 21
M  V30 21 2 21 22
M  V30 22 1 16 23
M  V30 23 1 5 24
M  V30 24 1 24 25
M  V30 25 1 25 2
M  V30 26 1 23 6
M  V30 27 1 15 9
M  V30 28 1 22 17
M  V30 29 1 1 26
M  V30 30 1 1 27
M  V30 31 1 1 28
M  V30 32 1 3 29
M  V30 33 1 3 30
M  V30 34 1 4 31
M  V30 35 1 4 32
M  V30 36 1 5 33
M  V30 37 1 10 34
M  V30 38 1 11 35
M  V30 39 1 14 36
M  V30 40 1 15 37
M  V30 41 1 18 38
M  V30 42 1 19 39
M  V30 43 1 21 40
M  V30 44 1 22 41
M  V30 45 1 24 42
M  V30 46 1 24 43
M  V30 47 1 25 44
M  V30 48 1 25 45
M  V30 END BOND
M  V30 END CTAB
M  END
>  <Dataset>  (149) 
ChEMBL_Kinases

>  <Ligand_Instance>  (149) 
nan

>  <PDB_ID>  (149) 
nan

>  <Standardized_SMILES>  (149) 
CN1CCC(c2nc(-c3ccc(F)cc3)c(-c3ccncc3)o2)CC1

>  <Name>  (149) 
nan

>  <Pocket>  (149) 
nan

>  <ATP_Site>  (149) 
nan

>  <Peripheral>  (149) 
nan

>  <Num_H_Atoms_ProtBoundConf>  (149) 
nan

>  <Num_Resolved_Atoms>  (149) 
nan

>  <Num_Not_Resolved_Atoms>  (149) 
nan

$$$$
CHEMBL4754873
     RDKit          3D

  0  0  0  0  0  0  0  0  0  0999 V3000
M  V30 BEGIN CTAB
M  V30 COUNTS 72 76 0 0 0
M  V30 BEGIN ATOM
M  V30 1 C 5.313941 -6.140254 3.507591 0
M  V30 2 N 4.303411 -6.979605 4.112210 0
M  V30 3 C 3.433323 -6.191121 4.953977 0
M  V30 4 C 3.600383 -7.724036 3.097387 0
M  V30 5 C 2.778354 -6.809523 2.264663 0
M  V30 6 C 2.995388 -6.720409 0.959362 0
M  V30 7 C 2.287178 -5.881415 0.001650 0
M  V30 8 O 2.556593 -5.855764 -1.239616 0
M  V30 9 N 1.243956 -5.045825 0.451708 0
M  V30 10 C 0.383041 -4.132115 -0.239898 0
M  V30 11 C -0.823253 -4.408415 -0.879269 0
M  V30 12 C -1.495820 -3.362995 -1.470931 0
M  V30 13 C -1.039110 -2.062704 -1.463439 0
M  V30 14 O -1.696631 -1.019913 -2.047666 0
M  V30 15 C -2.877055 -1.024516 -2.774000 0 CFG=2
M  V30 16 C -2.672857 -0.270919 -4.065704 0
M  V30 17 C -2.925519 1.229637 -3.887183 0
M  V30 18 C -2.395258 1.685767 -2.533751 0
M  V30 19 C -3.251676 1.032829 -1.498128 0 CFG=1
M  V30 20 N -4.281251 1.910184 -0.970240 0
M  V30 21 C -4.098045 3.107044 -0.198088 0
M  V30 22 N -5.210703 3.794957 0.195857 0
M  V30 23 C -5.058663 4.904863 0.929732 0
M  V30 24 C -3.781615 5.301971 1.253189 0
M  V30 25 Cl -3.668310 6.740168 2.203152 0
M  V30 26 C -2.642789 4.636354 0.874679 0
M  V30 27 C -1.285052 5.023661 1.196733 0
M  V30 28 C -0.710951 6.052976 1.893647 0
M  V30 29 N 0.629255 6.000619 1.925502 0
M  V30 30 C 0.962055 4.902837 1.230076 0
M  V30 31 C 2.253716 4.446843 0.995830 0
M  V30 32 C 2.409336 3.293416 0.254612 0
M  V30 33 C 1.299024 2.636711 -0.224506 0
M  V30 34 C 0.059422 3.154031 0.051087 0
M  V30 35 C -0.191727 4.295171 0.779072 0
M  V30 36 N -2.867742 3.532131 0.141494 0
M  V30 37 C -3.920390 -0.225171 -1.998710 0
M  V30 38 C 0.160834 -1.790583 -0.826821 0
M  V30 39 C 0.865656 -2.815813 -0.220704 0
M  V30 40 H 4.953971 -5.089035 3.374819 0
M  V30 41 H 6.185981 -6.139752 4.204918 0
M  V30 42 H 5.624485 -6.549748 2.541148 0
M  V30 43 H 4.027650 -5.868204 5.834466 0
M  V30 44 H 2.589013 -6.839399 5.294070 0
M  V30 45 H 3.068401 -5.276537 4.446017 0
M  V30 46 H 4.332291 -8.243834 2.470911 0
M  V30 47 H 2.957791 -8.459090 3.664171 0
M  V30 48 H 1.987016 -6.186092 2.652639 0
M  V30 49 H 3.782615 -7.334454 0.557627 0
M  V30 50 H 0.913808 -4.961480 1.440347 0
M  V30 51 H -1.105563 -5.434123 -0.842223 0
M  V30 52 H -2.428611 -3.601988 -1.958704 0
M  V30 53 H -3.246249 -2.044322 -2.996835 0
M  V30 54 H -3.366230 -0.600364 -4.871409 0
M  V30 55 H -1.600072 -0.365624 -4.344959 0
M  V30 56 H -4.009643 1.466250 -3.886021 0
M  V30 57 H -2.377552 1.806326 -4.668805 0
M  V30 58 H -1.313420 1.479157 -2.424192 0
M  V30 59 H -2.467820 2.801240 -2.511036 0
M  V30 60 H -2.583328 0.676861 -0.652343 0
M  V30 61 H -5.293366 1.643645 -1.179688 0
M  V30 62 H -5.941259 5.441736 1.239265 0
M  V30 63 H -1.249843 6.832871 2.371695 0
M  V30 64 H 1.269125 6.686944 2.400321 0
M  V30 65 H 3.124386 4.951457 1.364337 0
M  V30 66 H 3.415575 2.947227 0.071955 0
M  V30 67 H 1.446157 1.735208 -0.799882 0
M  V30 68 H -0.766404 2.590450 -0.351975 0
M  V30 69 H -4.226015 -0.884399 -1.153904 0
M  V30 70 H -4.816756 -0.025470 -2.610896 0
M  V30 71 H 0.555875 -0.766928 -0.799337 0
M  V30 72 H 1.799813 -2.527734 0.259585 0
M  V30 END ATOM
M  V30 BEGIN BOND
M  V30 1 1 1 2
M  V30 2 1 2 3
M  V30 3 1 2 4
M  V30 4 1 4 5
M  V30 5 2 5 6
M  V30 6 1 6 7
M  V30 7 2 7 8
M  V30 8 1 7 9
M  V30 9 1 9 10
M  V30 10 2 10 11
M  V30 11 1 11 12
M  V30 12 2 12 13
M  V30 13 1 13 14
M  V30 14 1 14 15
M  V30 15 1 15 16
M  V30 16 1 16 17
M  V30 17 1 17 18
M  V30 18 1 18 19
M  V30 19 1 19 20
M  V30 20 1 20 21
M  V30 21 2 21 22
M  V30 22 1 22 23
M  V30 23 2 23 24
M  V30 24 1 24 25
M  V30 25 1 24 26
M  V30 26 1 26 27
M  V30 27 2 27 28
M  V30 28 1 28 29
M  V30 29 1 29 30
M  V30 30 2 30 31
M  V30 31 1 31 32
M  V30 32 2 32 33
M  V30 33 1 33 34
M  V30 34 2 34 35
M  V30 35 2 26 36
M  V30 36 1 19 37
M  V30 37 1 13 38
M  V30 38 2 38 39
M  V30 39 1 39 10
M  V30 40 1 37 15
M  V30 41 1 36 21
M  V30 42 1 35 27
M  V30 43 1 35 30
M  V30 44 1 1 40
M  V30 45 1 1 41
M  V30 46 1 1 42
M  V30 47 1 3 43
M  V30 48 1 3 44
M  V30 49 1 3 45
M  V30 50 1 4 46
M  V30 51 1 4 47
M  V30 52 1 5 48
M  V30 53 1 6 49
M  V30 54 1 9 50
M  V30 55 1 11 51
M  V30 56 1 12 52
M  V30 57 1 15 53 CFG=3
M  V30 58 1 16 54
M  V30 59 1 16 55
M  V30 60 1 17 56
M  V30 61 1 17 57
M  V30 62 1 18 58
M  V30 63 1 18 59
M  V30 64 1 19 60 CFG=1
M  V30 65 1 20 61
M  V30 66 1 23 62
M  V30 67 1 28 63
M  V30 68 1 29 64
M  V30 69 1 31 65
M  V30 70 1 32 66
M  V30 71 1 33 67
M  V30 72 1 34 68
M  V30 73 1 37 69
M  V30 74 1 37 70
M  V30 75 1 38 71
M  V30 76 1 39 72
M  V30 END BOND
M  V30 END CTAB
M  END
>  <Dataset>  (150) 
ChEMBL_Kinases

>  <Ligand_Instance>  (150) 
nan

>  <PDB_ID>  (150) 
nan

>  <Standardized_SMILES>  (150) 
CN(C)C/C=C/C(=O)Nc1ccc(O[C@@H]2CCC[C@@H](Nc3ncc(Cl)c(-c4c[nH]c5ccccc45)n3)C2)cc1

>  <Name>  (150) 
nan

>  <Pocket>  (150) 
nan

>  <ATP_Site>  (150) 
nan

>  <Peripheral>  (150) 
nan

>  <Num_H_Atoms_ProtBoundConf>  (150) 
nan

>  <Num_Resolved_Atoms>  (150) 
nan

>  <Num_Not_Resolved_Atoms>  (150) 
nan

$$$$
CHEMBL435110
     RDKit          3D

  0  0  0  0  0  0  0  0  0  0999 V3000
M  V30 BEGIN CTAB
M  V30 COUNTS 46 49 0 0 0
M  V30 BEGIN ATOM
M  V30 1 C -2.374414 -4.362710 1.145732 0
M  V30 2 N -2.787537 -3.376068 0.149974 0
M  V30 3 C -1.672934 -3.184808 -0.730510 0
M  V30 4 C -1.925571 -2.108309 -1.736226 0
M  V30 5 C -2.243881 -0.827651 -1.001082 0
M  V30 6 C -0.991636 -0.269731 -0.393752 0
M  V30 7 C -0.307944 0.883839 -0.726476 0
M  V30 8 C 0.797571 1.014908 0.092827 0
M  V30 9 C 1.820505 2.053465 0.132254 0
M  V30 10 C 2.554126 2.183678 -1.037044 0
M  V30 11 C 3.547153 3.153503 -1.071612 0
M  V30 12 N 3.808057 3.949489 -0.024768 0
M  V30 13 C 3.087763 3.818072 1.116305 0
M  V30 14 C 2.081487 2.868589 1.216246 0
M  V30 15 C 0.732494 -0.110901 0.919705 0
M  V30 16 C 1.720040 -0.387282 1.959916 0
M  V30 17 C 1.119766 -0.426775 3.224086 0
M  V30 18 C 1.882480 -0.677081 4.372389 0
M  V30 19 C 3.235391 -0.878922 4.189221 0
M  V30 20 F 4.012814 -1.126636 5.291338 0
M  V30 21 C 3.829829 -0.840625 2.944808 0
M  V30 22 C 3.078431 -0.594043 1.813638 0
M  V30 23 O -0.324930 -0.809404 0.584591 0
M  V30 24 C -3.335310 -0.967515 -0.004738 0
M  V30 25 C -3.240589 -2.211361 0.837143 0
M  V30 26 H -1.311556 -4.665833 1.028616 0
M  V30 27 H -3.043588 -5.262761 1.113371 0
M  V30 28 H -2.455343 -3.979369 2.180775 0
M  V30 29 H -0.718529 -3.066882 -0.173853 0
M  V30 30 H -1.572355 -4.145759 -1.312374 0
M  V30 31 H -0.987682 -1.908564 -2.308322 0
M  V30 32 H -2.740319 -2.414357 -2.391373 0
M  V30 33 H -2.554096 -0.103435 -1.783115 0
M  V30 34 H -0.586880 1.582069 -1.505062 0
M  V30 35 H 2.453420 1.617034 -1.947002 0
M  V30 36 H 4.160530 3.308929 -1.958821 0
M  V30 37 H 3.299014 4.468618 1.975857 0
M  V30 38 H 1.482724 2.725132 2.098255 0
M  V30 39 H 0.072123 -0.278293 3.436334 0
M  V30 40 H 1.440285 -0.712819 5.362542 0
M  V30 41 H 4.905579 -0.999735 2.785913 0
M  V30 42 H 3.423696 -0.540131 0.799010 0
M  V30 43 H -3.257168 -0.101522 0.707278 0
M  V30 44 H -4.353957 -0.849497 -0.447830 0
M  V30 45 H -4.259443 -2.428962 1.222255 0
M  V30 46 H -2.611320 -2.056053 1.741488 0
M  V30 END ATOM
M  V30 BEGIN BOND
M  V30 1 1 1 2
M  V30 2 1 2 3
M  V30 3 1 3 4
M  V30 4 1 4 5
M  V30 5 1 5 6
M  V30 6 2 6 7
M  V30 7 1 7 8
M  V30 8 1 8 9
M  V30 9 2 9 10
M  V30 10 1 10 11
M  V30 11 2 11 12
M  V30 12 1 12 13
M  V30 13 2 13 14
M  V30 14 2 8 15
M  V30 15 1 15 16
M  V30 16 2 16 17
M  V30 17 1 17 18
M  V30 18 2 18 19
M  V30 19 1 19 20
M  V30 20 1 19 21
M  V30 21 2 21 22
M  V30 22 1 15 23
M  V30 23 1 5 24
M  V30 24 1 24 25
M  V30 25 1 25 2
M  V30 26 1 23 6
M  V30 27 1 14 9
M  V30 28 1 22 16
M  V30 29 1 1 26
M  V30 30 1 1 27
M  V30 31 1 1 28
M  V30 32 1 3 29
M  V30 33 1 3 30
M  V30 34 1 4 31
M  V30 35 1 4 32
M  V30 36 1 5 33
M  V30 37 1 7 34
M  V30 38 1 10 35
M  V30 39 1 11 36
M  V30 40 1 13 37
M  V30 41 1 14 38
M  V30 42 1 17 39
M  V30 43 1 18 40
M  V30 44 1 21 41
M  V30 45 1 22 42
M  V30 46 1 24 43
M  V30 47 1 24 44
M  V30 48 1 25 45
M  V30 49 1 25 46
M  V30 END BOND
M  V30 END CTAB
M  END
>  <Dataset>  (151) 
ChEMBL_Kinases

>  <Ligand_Instance>  (151) 
nan

>  <PDB_ID>  (151) 
nan

>  <Standardized_SMILES>  (151) 
CN1CCC(c2cc(-c3ccncc3)c(-c3ccc(F)cc3)o2)CC1

>  <Name>  (151) 
nan

>  <Pocket>  (151) 
nan

>  <ATP_Site>  (151) 
nan

>  <Peripheral>  (151) 
nan

>  <Num_H_Atoms_ProtBoundConf>  (151) 
nan

>  <Num_Resolved_Atoms>  (151) 
nan

>  <Num_Not_Resolved_Atoms>  (151) 
nan

$$$$
CHEMBL435104
     RDKit          3D

  0  0  0  0  0  0  0  0  0  0999 V3000
M  V30 BEGIN CTAB
M  V30 COUNTS 39 42 0 0 0
M  V30 BEGIN ATOM
M  V30 1 C -0.653346 -3.999409 1.415592 0
M  V30 2 C 0.659421 -3.336974 1.523316 0
M  V30 3 C 1.630649 -3.611842 2.468214 0
M  V30 4 C 2.839113 -2.953346 2.506678 0
M  V30 5 C 3.115229 -1.963665 1.562591 0
M  V30 6 C 2.173461 -1.651168 0.593217 0
M  V30 7 C 0.974232 -2.347231 0.603372 0
M  V30 8 N 0.009398 -2.033964 -0.378393 0
M  V30 9 C -1.130190 -1.230098 -0.625592 0
M  V30 10 C -1.365789 0.064215 -0.582779 0
M  V30 11 C -0.584651 1.248896 -0.265392 0
M  V30 12 C -0.512333 2.367742 -1.099140 0
M  V30 13 N 0.260772 3.306339 -0.523114 0
M  V30 14 C 0.711997 2.866234 0.664683 0
M  V30 15 C 1.512983 3.481227 1.593601 0
M  V30 16 C 1.799053 2.763215 2.753969 0
M  V30 17 C 1.275500 1.499368 2.907917 0
M  V30 18 C 0.471443 0.892360 1.964190 0
M  V30 19 C 0.189080 1.601912 0.818029 0
M  V30 20 C -2.785736 0.250885 -0.945523 0
M  V30 21 O -3.450636 1.328250 -1.034030 0
M  V30 22 N -3.369158 -1.017402 -1.204287 0
M  V30 23 C -2.335044 -1.968404 -1.007080 0
M  V30 24 O -2.591950 -3.186517 -1.174987 0
M  V30 25 H -0.773571 -4.797375 2.174404 0
M  V30 26 H -1.499767 -3.313425 1.564807 0
M  V30 27 H -0.721037 -4.505477 0.408629 0
M  V30 28 H 1.381264 -4.387206 3.186839 0
M  V30 29 H 3.585192 -3.183157 3.257839 0
M  V30 30 H 4.057955 -1.407783 1.547877 0
M  V30 31 H 2.322338 -0.892569 -0.173971 0
M  V30 32 H 0.360825 -2.674738 -1.138732 0
M  V30 33 H -1.005688 2.452644 -2.058847 0
M  V30 34 H 0.462898 4.236886 -0.963447 0
M  V30 35 H 1.917480 4.485863 1.451471 0
M  V30 36 H 2.436886 3.226856 3.513404 0
M  V30 37 H 1.539531 1.002875 3.830387 0
M  V30 38 H 0.065176 -0.086291 2.097390 0
M  V30 39 H -4.386019 -1.168529 -1.486989 0
M  V30 END ATOM
M  V30 BEGIN BOND
M  V30 1 1 1 2
M  V30 2 2 2 3
M  V30 3 1 3 4
M  V30 4 2 4 5
M  V30 5 1 5 6
M  V30 6 2 6 7
M  V30 7 1 7 8
M  V30 8 1 8 9
M  V30 9 2 9 10
M  V30 10 1 10 11
M  V30 11 2 11 12
M  V30 12 1 12 13
M  V30 13 1 13 14
M  V30 14 2 14 15
M  V30 15 1 15 16
M  V30 16 2 16 17
M  V30 17 1 17 18
M  V30 18 2 18 19
M  V30 19 1 10 20
M  V30 20 2 20 21
M  V30 21 1 20 22
M  V30 22 1 22 23
M  V30 23 2 23 24
M  V30 24 1 7 2
M  V30 25 1 23 9
M  V30 26 1 19 11
M  V30 27 1 19 14
M  V30 28 1 1 25
M  V30 29 1 1 26
M  V30 30 1 1 27
M  V30 31 1 3 28
M  V30 32 1 4 29
M  V30 33 1 5 30
M  V30 34 1 6 31
M  V30 35 1 8 32
M  V30 36 1 12 33
M  V30 37 1 13 34
M  V30 38 1 15 35
M  V30 39 1 16 36
M  V30 40 1 17 37
M  V30 41 1 18 38
M  V30 42 1 22 39
M  V30 END BOND
M  V30 END CTAB
M  END
>  <Dataset>  (152) 
ChEMBL_Kinases

>  <Ligand_Instance>  (152) 
nan

>  <PDB_ID>  (152) 
nan

>  <Standardized_SMILES>  (152) 
Cc1ccccc1NC1=C(c2c[nH]c3ccccc23)C(=O)NC1=O

>  <Name>  (152) 
nan

>  <Pocket>  (152) 
nan

>  <ATP_Site>  (152) 
nan

>  <Peripheral>  (152) 
nan

>  <Num_H_Atoms_ProtBoundConf>  (152) 
nan

>  <Num_Resolved_Atoms>  (152) 
nan

>  <Num_Not_Resolved_Atoms>  (152) 
nan

$$$$
CHEMBL434957
     RDKit          3D

  0  0  0  0  0  0  0  0  0  0999 V3000
M  V30 BEGIN CTAB
M  V30 COUNTS 61 65 0 0 0
M  V30 BEGIN ATOM
M  V30 1 C 3.340923 -1.354437 3.425914 0
M  V30 2 C 3.256047 0.056615 3.907638 0
M  V30 3 C 3.131943 0.138065 5.423433 0
M  V30 4 S 1.901708 0.957164 3.207995 0
M  V30 5 O 0.587642 0.327194 3.569809 0
M  V30 6 O 1.915753 2.339192 3.824189 0
M  V30 7 N 1.995524 1.079182 1.509825 0
M  V30 8 C 3.031668 1.707147 0.879019 0
M  V30 9 N 4.206058 2.370057 1.391627 0
M  V30 10 N 2.903025 1.685476 -0.468996 0
M  V30 11 C 1.757848 1.028624 -0.713616 0
M  V30 12 C 1.079863 0.678730 -1.861701 0
M  V30 13 C -0.107818 -0.016708 -1.772085 0
M  V30 14 C -0.647720 -0.379665 -0.538495 0
M  V30 15 C -1.891966 -1.103256 -0.589485 0
M  V30 16 C -3.106134 -0.701687 -0.061622 0
M  V30 17 C -3.266259 0.584293 0.649523 0
M  V30 18 C -3.656811 0.631085 1.968375 0
M  V30 19 C -3.760387 1.919717 2.488378 0
M  V30 20 C -3.504536 3.074954 1.782729 0
M  V30 21 F -3.630754 4.293814 2.369126 0
M  V30 22 C -3.116143 2.924562 0.457383 0
M  V30 23 C -2.988674 1.682876 -0.136771 0
M  V30 24 N -4.004145 -1.666557 -0.328315 0
M  V30 25 C -3.386437 -2.664639 -1.010205 0
M  V30 26 N -2.087777 -2.303791 -1.163230 0
M  V30 27 C -1.076984 -3.094973 -1.840490 0
M  V30 28 C -1.668786 -3.613305 -3.132342 0
M  V30 29 C -0.729226 -4.593996 -3.805920 0
M  V30 30 N -0.532199 -5.724333 -2.914316 0
M  V30 31 C 0.166317 -5.196444 -1.754287 0
M  V30 32 C -0.788930 -4.315090 -0.985052 0
M  V30 33 C 0.032020 -0.027968 0.590287 0
M  V30 34 C 1.212044 0.663052 0.499313 0
M  V30 35 H 4.200657 -1.551013 2.760586 0
M  V30 36 H 3.441162 -2.091747 4.275882 0
M  V30 37 H 2.353888 -1.620664 2.962735 0
M  V30 38 H 4.213422 0.559407 3.662421 0
M  V30 39 H 2.644040 1.073214 5.755092 0
M  V30 40 H 2.527112 -0.703380 5.812639 0
M  V30 41 H 4.126746 0.128556 5.911097 0
M  V30 42 H 5.011077 1.833838 1.791954 0
M  V30 43 H 4.370391 3.409631 1.416406 0
M  V30 44 H 1.519556 0.971753 -2.804805 0
M  V30 45 H -0.553140 -0.238354 -2.731343 0
M  V30 46 H -3.857470 -0.255183 2.524632 0
M  V30 47 H -4.061572 2.052203 3.517902 0
M  V30 48 H -2.901124 3.809408 -0.148130 0
M  V30 49 H -2.684398 1.622603 -1.167552 0
M  V30 50 H -3.857021 -3.574156 -1.360259 0
M  V30 51 H -0.172638 -2.499238 -2.018586 0
M  V30 52 H -2.578656 -4.174407 -2.866820 0
M  V30 53 H -1.944988 -2.795717 -3.814171 0
M  V30 54 H 0.240313 -4.114751 -4.065291 0
M  V30 55 H -1.207411 -4.968081 -4.713081 0
M  V30 56 H -1.472710 -6.041962 -2.614717 0
M  V30 57 H 1.053667 -4.596773 -2.032529 0
M  V30 58 H 0.473151 -6.079507 -1.137316 0
M  V30 59 H -1.749187 -4.845227 -0.890559 0
M  V30 60 H -0.340143 -4.045003 -0.003536 0
M  V30 61 H -0.389235 -0.311015 1.545145 0
M  V30 END ATOM
M  V30 BEGIN BOND
M  V30 1 1 1 2
M  V30 2 1 2 3
M  V30 3 1 2 4
M  V30 4 2 4 5
M  V30 5 2 4 6
M  V30 6 1 4 7
M  V30 7 1 7 8
M  V30 8 1 8 9
M  V30 9 2 8 10
M  V30 10 1 10 11
M  V30 11 2 11 12
M  V30 12 1 12 13
M  V30 13 2 13 14
M  V30 14 1 14 15
M  V30 15 2 15 16
M  V30 16 1 16 17
M  V30 17 2 17 18
M  V30 18 1 18 19
M  V30 19 2 19 20
M  V30 20 1 20 21
M  V30 21 1 20 22
M  V30 22 2 22 23
M  V30 23 1 16 24
M  V30 24 2 24 25
M  V30 25 1 25 26
M  V30 26 1 26 27
M  V30 27 1 27 28
M  V30 28 1 28 29
M  V30 29 1 29 30
M  V30 30 1 30 31
M  V30 31 1 31 32
M  V30 32 1 14 33
M  V30 33 2 33 34
M  V30 34 1 34 7
M  V30 35 1 34 11
M  V30 36 1 26 15
M  V30 37 1 32 27
M  V30 38 1 23 17
M  V30 39 1 1 35
M  V30 40 1 1 36
M  V30 41 1 1 37
M  V30 42 1 2 38
M  V30 43 1 3 39
M  V30 44 1 3 40
M  V30 45 1 3 41
M  V30 46 1 9 42
M  V30 47 1 9 43
M  V30 48 1 12 44
M  V30 49 1 13 45
M  V30 50 1 18 46
M  V30 51 1 19 47
M  V30 52 1 22 48
M  V30 53 1 23 49
M  V30 54 1 25 50
M  V30 55 1 27 51
M  V30 56 1 28 52
M  V30 57 1 28 53
M  V30 58 1 29 54
M  V30 59 1 29 55
M  V30 60 1 30 56
M  V30 61 1 31 57
M  V30 62 1 31 58
M  V30 63 1 32 59
M  V30 64 1 32 60
M  V30 65 1 33 61
M  V30 END BOND
M  V30 END CTAB
M  END
>  <Dataset>  (153) 
ChEMBL_Kinases

>  <Ligand_Instance>  (153) 
nan

>  <PDB_ID>  (153) 
nan

>  <Standardized_SMILES>  (153) 
CC(C)S(=O)(=O)n1c(N)nc2ccc(-c3c(-c4ccc(F)cc4)ncn3C3CCNCC3)cc21

>  <Name>  (153) 
nan

>  <Pocket>  (153) 
nan

>  <ATP_Site>  (153) 
nan

>  <Peripheral>  (153) 
nan

>  <Num_H_Atoms_ProtBoundConf>  (153) 
nan

>  <Num_Resolved_Atoms>  (153) 
nan

>  <Num_Not_Resolved_Atoms>  (153) 
nan

$$$$
CHEMBL4754593
     RDKit          3D

  0  0  0  0  0  0  0  0  0  0999 V3000
M  V30 BEGIN CTAB
M  V30 COUNTS 53 56 0 0 0
M  V30 BEGIN ATOM
M  V30 1 C -0.373866 0.344873 4.405973 0
M  V30 2 C 0.701345 -0.162163 3.532117 0
M  V30 3 C 1.654435 -1.075758 3.877817 0
M  V30 4 C 2.677761 -1.580620 3.112687 0
M  V30 5 C 2.751878 -1.089723 1.801880 0
M  V30 6 C 3.747963 -1.556395 0.855170 0
M  V30 7 O 4.264701 -2.672149 1.107261 0
M  V30 8 N 4.085325 -0.760077 -0.277763 0
M  V30 9 C 5.081245 -1.314304 -1.191400 0
M  V30 10 C 5.323619 -0.524869 -2.474836 0
M  V30 11 C 6.340910 -0.449468 -1.398040 0
M  V30 12 C 1.828386 -0.166187 1.375572 0
M  V30 13 C 0.816664 0.289860 2.227892 0
M  V30 14 N -0.100281 1.204321 1.648723 0
M  V30 15 C -0.098986 2.506344 1.368326 0
M  V30 16 C -1.291751 2.880087 0.760110 0
M  V30 17 N -2.303568 2.045281 0.492983 0
M  V30 18 C -2.386012 0.659339 0.757234 0
M  V30 19 N -3.686356 0.746126 0.162489 0
M  V30 20 C -4.262634 -0.568837 0.284217 0 CFG=2
M  V30 21 C -4.328926 -0.997830 1.719259 0
M  V30 22 C -3.718532 -1.563910 -0.650605 0
M  V30 23 C -2.499689 -1.645371 -1.352612 0
M  V30 24 C -2.216598 -2.733984 -2.139140 0
M  V30 25 C -3.055423 -3.809000 -2.316614 0
M  V30 26 C -4.278727 -3.777907 -1.644216 0
M  V30 27 C -4.538888 -2.678395 -0.862721 0
M  V30 28 C -1.214634 0.583228 1.292443 0
M  V30 29 O -1.433598 -0.686972 1.476936 0
M  V30 30 H -0.756144 1.336848 4.072624 0
M  V30 31 H -1.192487 -0.385800 4.550357 0
M  V30 32 H 0.066019 0.534753 5.406363 0
M  V30 33 H 1.600412 -1.463631 4.908065 0
M  V30 34 H 3.394749 -2.307489 3.463713 0
M  V30 35 H 3.688366 0.165322 -0.492907 0
M  V30 36 H 5.251451 -2.388088 -1.131244 0
M  V30 37 H 4.655330 0.367839 -2.632396 0
M  V30 38 H 5.517224 -1.124178 -3.385372 0
M  V30 39 H 6.356835 0.487103 -0.808462 0
M  V30 40 H 7.274672 -1.018424 -1.581791 0
M  V30 41 H 1.866969 0.230528 0.349059 0
M  V30 42 H 0.749084 3.012294 1.688243 0
M  V30 43 H -1.131234 3.993710 0.589717 0
M  V30 44 H -4.376797 1.328044 -0.312853 0
M  V30 45 H -5.366629 -0.476801 -0.031784 0
M  V30 46 H -3.805114 -1.962209 1.919859 0
M  V30 47 H -3.926950 -0.210319 2.388102 0
M  V30 48 H -5.400095 -1.116170 2.074129 0
M  V30 49 H -1.894808 -0.782895 -1.184999 0
M  V30 50 H -1.239156 -2.683664 -2.633779 0
M  V30 51 H -2.768014 -4.629234 -2.944342 0
M  V30 52 H -4.944651 -4.611134 -1.770497 0
M  V30 53 H -5.518732 -2.755925 -0.383346 0
M  V30 END ATOM
M  V30 BEGIN BOND
M  V30 1 1 1 2
M  V30 2 2 2 3
M  V30 3 1 3 4
M  V30 4 2 4 5
M  V30 5 1 5 6
M  V30 6 2 6 7
M  V30 7 1 6 8
M  V30 8 1 8 9
M  V30 9 1 9 10
M  V30 10 1 10 11
M  V30 11 1 5 12
M  V30 12 2 12 13
M  V30 13 1 13 14
M  V30 14 1 14 15
M  V30 15 2 15 16
M  V30 16 1 16 17
M  V30 17 2 17 18
M  V30 18 1 18 19
M  V30 19 1 19 20
M  V30 20 1 20 21
M  V30 21 1 20 22
M  V30 22 2 22 23
M  V30 23 1 23 24
M  V30 24 2 24 25
M  V30 25 1 25 26
M  V30 26 2 26 27
M  V30 27 1 18 28
M  V30 28 2 28 29
M  V30 29 1 13 2
M  V30 30 1 28 14
M  V30 31 1 11 9
M  V30 32 1 27 22
M  V30 33 1 1 30
M  V30 34 1 1 31
M  V30 35 1 1 32
M  V30 36 1 3 33
M  V30 37 1 4 34
M  V30 38 1 8 35
M  V30 39 1 9 36
M  V30 40 1 10 37
M  V30 41 1 10 38
M  V30 42 1 11 39
M  V30 43 1 11 40
M  V30 44 1 12 41
M  V30 45 1 15 42
M  V30 46 1 16 43
M  V30 47 1 19 44
M  V30 48 1 20 45 CFG=3
M  V30 49 1 21 46
M  V30 50 1 21 47
M  V30 51 1 21 48
M  V30 52 1 23 49
M  V30 53 1 24 50
M  V30 54 1 25 51
M  V30 55 1 26 52
M  V30 56 1 27 53
M  V30 END BOND
M  V30 END CTAB
M  END
>  <Dataset>  (154) 
ChEMBL_Kinases

>  <Ligand_Instance>  (154) 
nan

>  <PDB_ID>  (154) 
nan

>  <Standardized_SMILES>  (154) 
Cc1ccc(C(=O)NC2CC2)cc1-n1ccnc(N[C@H](C)c2ccccc2)c1=O

>  <Name>  (154) 
nan

>  <Pocket>  (154) 
nan

>  <ATP_Site>  (154) 
nan

>  <Peripheral>  (154) 
nan

>  <Num_H_Atoms_ProtBoundConf>  (154) 
nan

>  <Num_Resolved_Atoms>  (154) 
nan

>  <Num_Not_Resolved_Atoms>  (154) 
nan

$$$$
CHEMBL434737
     RDKit          3D

  0  0  0  0  0  0  0  0  0  0999 V3000
M  V30 BEGIN CTAB
M  V30 COUNTS 37 40 0 0 0
M  V30 BEGIN ATOM
M  V30 1 O 1.841657 -2.709457 2.752390 0
M  V30 2 C 1.157608 -2.524588 1.725851 0
M  V30 3 N 0.766255 -3.577649 0.964095 0
M  V30 4 C 0.027752 -3.407183 -0.148546 0
M  V30 5 C -0.316664 -4.547717 -0.851011 0
M  V30 6 C -1.076915 -4.348985 -1.992796 0
M  V30 7 C -1.476477 -3.098610 -2.420405 0
M  V30 8 C -1.106263 -1.976289 -1.680922 0
M  V30 9 C -0.340698 -2.129655 -0.524108 0
M  V30 10 C 0.026570 -1.016196 0.209639 0
M  V30 11 C -0.347879 0.318408 -0.165863 0
M  V30 12 C 0.561839 1.323967 -0.503865 0
M  V30 13 C 0.077012 2.571485 -0.848600 0
M  V30 14 N -1.224005 2.910567 -0.888249 0
M  V30 15 C -2.151969 1.963648 -0.566663 0
M  V30 16 C -1.671329 0.713807 -0.221056 0
M  V30 17 C 0.786901 -1.233378 1.348861 0
M  V30 18 C 1.233030 -0.146861 2.199685 0
M  V30 19 C 2.587028 0.019560 2.339997 0
M  V30 20 C 3.206705 0.990292 3.101699 0
M  V30 21 C 2.371660 1.868767 3.780138 0
M  V30 22 F 2.921113 2.842746 4.543745 0
M  V30 23 C 0.992158 1.744415 3.672437 0
M  V30 24 C 0.431516 0.742161 2.886607 0
M  V30 25 H 1.062027 -4.532118 1.276393 0
M  V30 26 H -0.005611 -5.534286 -0.520176 0
M  V30 27 H -1.353248 -5.217806 -2.549480 0
M  V30 28 H -2.072254 -2.962317 -3.318058 0
M  V30 29 H -1.414160 -0.984583 -2.006247 0
M  V30 30 H 1.618476 1.090212 -0.483955 0
M  V30 31 H 0.840901 3.309745 -1.101171 0
M  V30 32 H -3.212710 2.151820 -0.573024 0
M  V30 33 H -2.412681 -0.030897 0.032362 0
M  V30 34 H 3.284531 -0.647971 1.824974 0
M  V30 35 H 4.283385 1.070045 3.172322 0
M  V30 36 H 0.343161 2.432509 4.203878 0
M  V30 37 H -0.640775 0.605964 2.772092 0
M  V30 END ATOM
M  V30 BEGIN BOND
M  V30 1 2 1 2
M  V30 2 1 2 3
M  V30 3 1 3 4
M  V30 4 2 4 5
M  V30 5 1 5 6
M  V30 6 2 6 7
M  V30 7 1 7 8
M  V30 8 2 8 9
M  V30 9 1 9 10
M  V30 10 1 10 11
M  V30 11 2 11 12
M  V30 12 1 12 13
M  V30 13 2 13 14
M  V30 14 1 14 15
M  V30 15 2 15 16
M  V30 16 2 10 17
M  V30 17 1 17 18
M  V30 18 2 18 19
M  V30 19 1 19 20
M  V30 20 2 20 21
M  V30 21 1 21 22
M  V30 22 1 21 23
M  V30 23 2 23 24
M  V30 24 1 17 2
M  V30 25 1 24 18
M  V30 26 1 9 4
M  V30 27 1 16 11
M  V30 28 1 3 25
M  V30 29 1 5 26
M  V30 30 1 6 27
M  V30 31 1 7 28
M  V30 32 1 8 29
M  V30 33 1 12 30
M  V30 34 1 13 31
M  V30 35 1 15 32
M  V30 36 1 16 33
M  V30 37 1 19 34
M  V30 38 1 20 35
M  V30 39 1 23 36
M  V30 40 1 24 37
M  V30 END BOND
M  V30 END CTAB
M  END
>  <Dataset>  (155) 
ChEMBL_Kinases

>  <Ligand_Instance>  (155) 
nan

>  <PDB_ID>  (155) 
nan

>  <Standardized_SMILES>  (155) 
O=c1[nH]c2ccccc2c(-c2ccncc2)c1-c1ccc(F)cc1

>  <Name>  (155) 
nan

>  <Pocket>  (155) 
nan

>  <ATP_Site>  (155) 
nan

>  <Peripheral>  (155) 
nan

>  <Num_H_Atoms_ProtBoundConf>  (155) 
nan

>  <Num_Resolved_Atoms>  (155) 
nan

>  <Num_Not_Resolved_Atoms>  (155) 
nan

$$$$
CHEMBL434729
     RDKit          3D

  0  0  0  0  0  0  0  0  0  0999 V3000
M  V30 BEGIN CTAB
M  V30 COUNTS 50 54 0 0 0
M  V30 BEGIN ATOM
M  V30 1 C 4.435883 -3.650286 4.958945 0
M  V30 2 C 3.614417 -3.182904 3.819890 0
M  V30 3 C 3.908960 -1.933367 3.250048 0
M  V30 4 C 3.173226 -1.435120 2.191530 0
M  V30 5 C 2.141820 -2.131012 1.662344 0
M  V30 6 C 1.232951 -1.902682 0.625407 0
M  V30 7 C 1.271097 -0.688662 -0.184368 0
M  V30 8 C 1.681444 -0.812214 -1.492592 0
M  V30 9 C 1.750613 0.267566 -2.360484 0
M  V30 10 N 1.394829 1.474514 -1.866418 0
M  V30 11 C 0.990642 1.626099 -0.585833 0
M  V30 12 N 0.610638 2.905320 -0.080064 0
M  V30 13 C -0.634861 3.482791 0.309923 0
M  V30 14 C -0.733951 4.776776 0.774477 0
M  V30 15 C -2.003258 5.181367 1.148213 0
M  V30 16 C -3.132509 4.384660 1.081431 0
M  V30 17 C -2.960339 3.097565 0.605895 0
M  V30 18 C -4.083790 2.120743 0.481295 0
M  V30 19 F -3.931480 1.484953 -0.735553 0
M  V30 20 F -5.284583 2.790886 0.440156 0
M  V30 21 F -4.032503 1.156371 1.457137 0
M  V30 22 C -1.703620 2.615735 0.208934 0
M  V30 23 N 0.932932 0.546242 0.237257 0
M  V30 24 C 0.457378 -3.013793 0.633451 0
M  V30 25 C -0.656855 -3.350932 -0.208300 0
M  V30 26 C -1.928101 -2.787141 -0.316613 0
M  V30 27 C -2.831307 -3.308059 -1.205311 0
M  V30 28 C -2.569302 -4.381477 -2.029796 0
M  V30 29 C -1.294869 -4.961576 -1.936334 0
M  V30 30 C -0.392551 -4.438977 -1.043191 0
M  V30 31 N 0.862567 -3.875980 1.616124 0
M  V30 32 N 1.892202 -3.340489 2.247738 0
M  V30 33 N 2.563205 -3.861888 3.261463 0
M  V30 34 H 4.532070 -2.873326 5.742246 0
M  V30 35 H 3.956362 -4.566468 5.361654 0
M  V30 36 H 5.449649 -3.938545 4.637743 0
M  V30 37 H 4.738796 -1.360297 3.654566 0
M  V30 38 H 3.416332 -0.448043 1.756136 0
M  V30 39 H 1.964786 -1.765551 -1.901203 0
M  V30 40 H 2.064140 0.259807 -3.396763 0
M  V30 41 H 1.444049 3.544143 0.002840 0
M  V30 42 H 0.139622 5.424505 0.833803 0
M  V30 43 H -2.106887 6.186629 1.519976 0
M  V30 44 H -4.114562 4.716641 1.381527 0
M  V30 45 H -1.594547 1.605684 -0.158608 0
M  V30 46 H -2.052519 -1.951137 0.360737 0
M  V30 47 H -3.802017 -2.814177 -1.231009 0
M  V30 48 H -3.318403 -4.757154 -2.716416 0
M  V30 49 H -1.100133 -5.796799 -2.579095 0
M  V30 50 H 0.543859 -4.962379 -1.065669 0
M  V30 END ATOM
M  V30 BEGIN BOND
M  V30 1 1 1 2
M  V30 2 1 2 3
M  V30 3 2 3 4
M  V30 4 1 4 5
M  V30 5 2 5 6
M  V30 6 1 6 7
M  V30 7 2 7 8
M  V30 8 1 8 9
M  V30 9 2 9 10
M  V30 10 1 10 11
M  V30 11 1 11 12
M  V30 12 1 12 13
M  V30 13 2 13 14
M  V30 14 1 14 15
M  V30 15 2 15 16
M  V30 16 1 16 17
M  V30 17 1 17 18
M  V30 18 1 18 19
M  V30 19 1 18 20
M  V30 20 1 18 21
M  V30 21 2 17 22
M  V30 22 2 11 23
M  V30 23 1 6 24
M  V30 24 1 24 25
M  V30 25 2 25 26
M  V30 26 1 26 27
M  V30 27 2 27 28
M  V30 28 1 28 29
M  V30 29 2 29 30
M  V30 30 2 24 31
M  V30 31 1 31 32
M  V30 32 1 32 33
M  V30 33 2 33 2
M  V30 34 1 32 5
M  V30 35 1 23 7
M  V30 36 1 30 25
M  V30 37 1 22 13
M  V30 38 1 1 34
M  V30 39 1 1 35
M  V30 40 1 1 36
M  V30 41 1 3 37
M  V30 42 1 4 38
M  V30 43 1 8 39
M  V30 44 1 9 40
M  V30 45 1 12 41
M  V30 46 1 14 42
M  V30 47 1 15 43
M  V30 48 1 16 44
M  V30 49 1 22 45
M  V30 50 1 26 46
M  V30 51 1 27 47
M  V30 52 1 28 48
M  V30 53 1 29 49
M  V30 54 1 30 50
M  V30 END BOND
M  V30 END CTAB
M  END
>  <Dataset>  (156) 
ChEMBL_Kinases

>  <Ligand_Instance>  (156) 
nan

>  <PDB_ID>  (156) 
nan

>  <Standardized_SMILES>  (156) 
Cc1ccc2c(-c3ccnc(Nc4cccc(C(F)(F)F)c4)n3)c(-c3ccccc3)nn2n1

>  <Name>  (156) 
GW829906X

>  <Pocket>  (156) 
nan

>  <ATP_Site>  (156) 
nan

>  <Peripheral>  (156) 
nan

>  <Num_H_Atoms_ProtBoundConf>  (156) 
nan

>  <Num_Resolved_Atoms>  (156) 
nan

>  <Num_Not_Resolved_Atoms>  (156) 
nan

$$$$
CHEMBL4754636
     RDKit          3D

  0  0  0  0  0  0  0  0  0  0999 V3000
M  V30 BEGIN CTAB
M  V30 COUNTS 68 76 0 0 0
M  V30 BEGIN ATOM
M  V30 1 C 1.680826 -3.414118 -1.954929 0
M  V30 2 O 0.874861 -2.497728 -1.344490 0
M  V30 3 C 1.494226 -1.335416 -0.889036 0 CFG=1
M  V30 4 C 1.201422 -0.131739 -1.750553 0 CFG=1
M  V30 5 N 0.846564 -0.426480 -3.112116 0
M  V30 6 C -0.197442 -1.215485 -3.742600 0
M  V30 7 C 0.343453 -1.732042 -5.046801 0
M  V30 8 C 1.186845 -0.589833 -5.543531 0 CFG=1
M  V30 9 O 0.359989 0.339492 -6.204236 0
M  V30 10 C 1.544935 0.073721 -4.239260 0
M  V30 11 O 2.427083 0.991316 -4.341787 0
M  V30 12 C 0.171285 0.728033 -1.056487 0
M  V30 13 C 0.805906 1.180393 0.248730 0 CFG=2
M  V30 14 O 1.721893 0.284952 0.699752 0
M  V30 15 C 1.533213 -1.076096 0.505046 0 CFG=2
M  V30 16 C 2.908514 -1.604611 1.014132 0
M  V30 17 N 0.583637 -1.563626 1.446030 0
M  V30 18 C 0.451900 -2.812917 1.929204 0
M  V30 19 C 1.099047 -3.997715 1.642046 0
M  V30 20 C 0.826275 -5.211791 2.235361 0
M  V30 21 C -0.166257 -5.271180 3.191730 0
M  V30 22 C -0.851790 -4.120350 3.522947 0
M  V30 23 C -0.529521 -2.940144 2.892277 0
M  V30 24 C -1.064800 -1.676120 3.027919 0
M  V30 25 C -2.062761 -1.138808 3.818142 0
M  V30 26 C -2.382680 0.195603 3.731203 0
M  V30 27 C -1.702436 0.978136 2.853041 0
M  V30 28 C -1.821061 2.293237 2.536904 0
M  V30 29 C -2.548981 3.386936 2.887720 0
M  V30 30 C -2.435758 4.652834 2.360662 0
M  V30 31 C -1.479625 4.859434 1.359228 0
M  V30 32 C -0.707279 3.760312 0.966847 0
M  V30 33 C -0.882500 2.508812 1.549690 0
M  V30 34 N -0.213525 1.373548 1.270432 0
M  V30 35 C -0.722253 0.426919 2.084180 0
M  V30 36 C -0.373104 -0.910903 2.151394 0
M  V30 37 C -3.438517 0.451296 4.662034 0
M  V30 38 O -4.101491 1.438134 5.004109 0
M  V30 39 N -3.751365 -0.765086 5.316993 0
M  V30 40 C -2.902337 -1.836223 4.819604 0
M  V30 41 H 1.113452 -4.322747 -2.294640 0
M  V30 42 H 2.035052 -2.937002 -2.911410 0
M  V30 43 H 2.540185 -3.782706 -1.400505 0
M  V30 44 H 2.541845 -1.584216 -1.208567 0
M  V30 45 H 2.103053 0.550757 -1.822600 0
M  V30 46 H -1.021551 -0.478094 -3.951687 0
M  V30 47 H -0.575443 -2.040405 -3.129668 0
M  V30 48 H -0.544451 -1.802828 -5.737025 0
M  V30 49 H 0.850797 -2.694460 -4.979623 0
M  V30 50 H 2.061631 -0.884013 -6.127658 0
M  V30 51 H 0.879788 1.054873 -6.624242 0
M  V30 52 H 0.001614 1.616631 -1.690391 0
M  V30 53 H -0.791559 0.217415 -0.917328 0
M  V30 54 H 1.246717 2.189733 0.063876 0
M  V30 55 H 3.600329 -0.757553 1.240866 0
M  V30 56 H 2.719784 -2.109312 1.969204 0
M  V30 57 H 3.352239 -2.314995 0.308903 0
M  V30 58 H 1.864960 -3.978098 0.883346 0
M  V30 59 H 1.370086 -6.113277 1.969051 0
M  V30 60 H -0.380238 -6.204308 3.652184 0
M  V30 61 H -1.630683 -4.136362 4.264608 0
M  V30 62 H -3.293401 3.309705 3.640344 0
M  V30 63 H -3.020721 5.501959 2.652355 0
M  V30 64 H -1.316857 5.806695 0.888663 0
M  V30 65 H 0.035243 3.899973 0.196006 0
M  V30 66 H -4.442515 -1.024707 6.053122 0
M  V30 67 H -2.291064 -2.204888 5.672250 0
M  V30 68 H -3.551908 -2.613330 4.373800 0
M  V30 END ATOM
M  V30 BEGIN BOND
M  V30 1 1 1 2
M  V30 2 1 2 3
M  V30 3 1 3 4
M  V30 4 1 4 5
M  V30 5 1 5 6
M  V30 6 1 6 7
M  V30 7 1 7 8
M  V30 8 1 8 9
M  V30 9 1 8 10
M  V30 10 2 10 11
M  V30 11 1 4 12
M  V30 12 1 12 13
M  V30 13 1 13 14
M  V30 14 1 14 15
M  V30 15 1 15 16 CFG=1
M  V30 16 1 15 17
M  V30 17 1 17 18
M  V30 18 2 18 19
M  V30 19 1 19 20
M  V30 20 2 20 21
M  V30 21 1 21 22
M  V30 22 2 22 23
M  V30 23 1 23 24
M  V30 24 2 24 25
M  V30 25 1 25 26
M  V30 26 2 26 27
M  V30 27 1 27 28
M  V30 28 2 28 29
M  V30 29 1 29 30
M  V30 30 2 30 31
M  V30 31 1 31 32
M  V30 32 2 32 33
M  V30 33 1 33 34
M  V30 34 1 34 35
M  V30 35 2 35 36
M  V30 36 1 26 37
M  V30 37 2 37 38
M  V30 38 1 37 39
M  V30 39 1 39 40
M  V30 40 1 15 3
M  V30 41 1 36 17
M  V30 42 1 10 5
M  V30 43 1 34 13
M  V30 44 1 23 18
M  V30 45 1 36 24
M  V30 46 1 40 25
M  V30 47 1 35 27
M  V30 48 1 33 28
M  V30 49 1 1 41
M  V30 50 1 1 42
M  V30 51 1 1 43
M  V30 52 1 3 44 CFG=3
M  V30 53 1 4 45 CFG=3
M  V30 54 1 6 46
M  V30 55 1 6 47
M  V30 56 1 7 48
M  V30 57 1 7 49
M  V30 58 1 8 50 CFG=3
M  V30 59 1 9 51
M  V30 60 1 12 52
M  V30 61 1 12 53
M  V30 62 1 13 54 CFG=3
M  V30 63 1 16 55
M  V30 64 1 16 56
M  V30 65 1 16 57
M  V30 66 1 19 58
M  V30 67 1 20 59
M  V30 68 1 21 60
M  V30 69 1 22 61
M  V30 70 1 29 62
M  V30 71 1 30 63
M  V30 72 1 31 64
M  V30 73 1 32 65
M  V30 74 1 39 66
M  V30 75 1 40 67
M  V30 76 1 40 68
M  V30 END BOND
M  V30 END CTAB
M  END
>  <Dataset>  (157) 
ChEMBL_Kinases

>  <Ligand_Instance>  (157) 
nan

>  <PDB_ID>  (157) 
nan

>  <Standardized_SMILES>  (157) 
CO[C@H]1[C@@H](N2CC[C@@H](O)C2=O)C[C@@H]2O[C@@]1(C)n1c3ccccc3c3c4c(c5c6ccccc6n2c5c31)C(=O)NC4

>  <Name>  (157) 
nan

>  <Pocket>  (157) 
nan

>  <ATP_Site>  (157) 
nan

>  <Peripheral>  (157) 
nan

>  <Num_H_Atoms_ProtBoundConf>  (157) 
nan

>  <Num_Resolved_Atoms>  (157) 
nan

>  <Num_Not_Resolved_Atoms>  (157) 
nan

$$$$
CHEMBL434409
     RDKit          3D

  0  0  0  0  0  0  0  0  0  0999 V3000
M  V30 BEGIN CTAB
M  V30 COUNTS 46 50 0 0 0
M  V30 BEGIN ATOM
M  V30 1 O -0.785778 -3.695009 3.394951 0
M  V30 2 C -0.315331 -2.763086 2.660233 0
M  V30 3 C 0.694186 -1.906798 3.303323 0
M  V30 4 C 0.798231 -0.578716 2.582498 0
M  V30 5 C 0.272191 -0.552548 1.225355 0
M  V30 6 C 0.536550 0.552799 0.312475 0
M  V30 7 C 1.085944 1.745003 0.617543 0
M  V30 8 C 1.592567 2.396069 1.791890 0
M  V30 9 C 1.067164 2.819353 2.991958 0
M  V30 10 C 1.748538 3.465919 3.989624 0
M  V30 11 C 3.072252 3.751584 3.853015 0
M  V30 12 F 3.717486 4.388197 4.846933 0
M  V30 13 C 3.701704 3.374083 2.687776 0
M  V30 14 C 2.958974 2.726981 1.725143 0
M  V30 15 Cl 3.927079 2.313873 0.296584 0
M  V30 16 N 1.172008 2.467501 -0.540073 0
M  V30 17 C 0.696285 1.772798 -1.560385 0
M  V30 18 C 0.583687 2.090125 -2.893721 0
M  V30 19 C 0.044355 1.171084 -3.777896 0
M  V30 20 C -0.359241 -0.039491 -3.260785 0
M  V30 21 C -0.205197 -0.262506 -1.907964 0
M  V30 22 N 0.317914 0.624761 -1.037681 0
M  V30 23 N -0.432134 -1.467192 0.681771 0
M  V30 24 N -0.788580 -2.632867 1.332288 0
M  V30 25 C -1.581065 -3.641982 0.725543 0
M  V30 26 C -0.942876 -4.647605 0.033261 0
M  V30 27 Cl 0.807453 -4.680444 -0.087837 0
M  V30 28 C -1.584161 -5.688963 -0.605187 0
M  V30 29 C -2.962057 -5.735159 -0.553270 0
M  V30 30 C -3.612776 -4.719408 0.146122 0
M  V30 31 C -2.963733 -3.678730 0.784551 0
M  V30 32 Cl -3.790339 -2.411610 1.661545 0
M  V30 33 H 1.657133 -2.473540 3.324201 0
M  V30 34 H 0.464719 -1.746318 4.392765 0
M  V30 35 H 0.355008 0.203869 3.245718 0
M  V30 36 H 1.887059 -0.338305 2.543009 0
M  V30 37 H -0.004015 2.552964 3.024369 0
M  V30 38 H 1.142113 3.712380 4.856935 0
M  V30 39 H 4.749958 3.615352 2.610998 0
M  V30 40 H 0.911009 3.042348 -3.264159 0
M  V30 41 H -0.021395 1.469408 -4.812320 0
M  V30 42 H -0.782249 -0.766299 -3.937676 0
M  V30 43 H -0.551573 -1.240425 -1.607142 0
M  V30 44 H -1.094662 -6.461843 -1.137025 0
M  V30 45 H -3.596937 -6.498825 -1.013456 0
M  V30 46 H -4.699176 -4.675252 0.242104 0
M  V30 END ATOM
M  V30 BEGIN BOND
M  V30 1 2 1 2
M  V30 2 1 2 3
M  V30 3 1 3 4
M  V30 4 1 4 5
M  V30 5 1 5 6
M  V30 6 2 6 7
M  V30 7 1 7 8
M  V30 8 2 8 9
M  V30 9 1 9 10
M  V30 10 2 10 11
M  V30 11 1 11 12
M  V30 12 1 11 13
M  V30 13 2 13 14
M  V30 14 1 14 15
M  V30 15 1 7 16
M  V30 16 2 16 17
M  V30 17 1 17 18
M  V30 18 2 18 19
M  V30 19 1 19 20
M  V30 20 2 20 21
M  V30 21 1 21 22
M  V30 22 2 5 23
M  V30 23 1 23 24
M  V30 24 1 24 25
M  V30 25 2 25 26
M  V30 26 1 26 27
M  V30 27 1 26 28
M  V30 28 2 28 29
M  V30 29 1 29 30
M  V30 30 2 30 31
M  V30 31 1 31 32
M  V30 32 1 24 2
M  V30 33 1 31 25
M  V30 34 1 22 6
M  V30 35 1 14 8
M  V30 36 1 22 17
M  V30 37 1 3 33
M  V30 38 1 3 34
M  V30 39 1 4 35
M  V30 40 1 4 36
M  V30 41 1 9 37
M  V30 42 1 10 38
M  V30 43 1 13 39
M  V30 44 1 18 40
M  V30 45 1 19 41
M  V30 46 1 20 42
M  V30 47 1 21 43
M  V30 48 1 28 44
M  V30 49 1 29 45
M  V30 50 1 30 46
M  V30 END BOND
M  V30 END CTAB
M  END
>  <Dataset>  (158) 
ChEMBL_Kinases

>  <Ligand_Instance>  (158) 
nan

>  <PDB_ID>  (158) 
nan

>  <Standardized_SMILES>  (158) 
O=C1CCC(c2c(-c3ccc(F)cc3Cl)nc3ccccn23)=NN1c1c(Cl)cccc1Cl

>  <Name>  (158) 
nan

>  <Pocket>  (158) 
nan

>  <ATP_Site>  (158) 
nan

>  <Peripheral>  (158) 
nan

>  <Num_H_Atoms_ProtBoundConf>  (158) 
nan

>  <Num_Resolved_Atoms>  (158) 
nan

>  <Num_Not_Resolved_Atoms>  (158) 
nan

$$$$
CHEMBL4754671
     RDKit          3D

  0  0  0  0  0  0  0  0  0  0999 V3000
M  V30 BEGIN CTAB
M  V30 COUNTS 56 60 0 0 0
M  V30 BEGIN ATOM
M  V30 1 C -0.656792 3.847495 2.415514 0
M  V30 2 C 0.059921 3.169393 3.510882 0
M  V30 3 C -0.292949 3.074192 4.842546 0
M  V30 4 C 0.508774 2.391636 5.736844 0
M  V30 5 C 1.681790 1.785591 5.332972 0
M  V30 6 C 2.042016 1.880212 3.984703 0
M  V30 7 F 3.206875 1.258189 3.671568 0
M  V30 8 C 1.245173 2.563373 3.075192 0
M  V30 9 C 1.769865 2.559938 1.727483 0
M  V30 10 C 1.395138 1.519210 0.861830 0
M  V30 11 C 1.892609 1.500178 -0.443287 0
M  V30 12 C 2.747444 2.474303 -0.921730 0
M  V30 13 C 3.041077 2.154980 -2.231509 0
M  V30 14 N 2.371398 1.006312 -2.532207 0
M  V30 15 N 1.678775 0.608055 -1.459521 0
M  V30 16 C 0.839615 -0.541428 -1.328478 0
M  V30 17 C 0.965562 -1.435618 -0.280481 0
M  V30 18 C 0.106333 -2.519471 -0.238867 0
M  V30 19 C -0.875794 -2.774787 -1.175738 0
M  V30 20 N -1.741442 -3.901013 -1.098598 0
M  V30 21 C -1.544905 -4.786305 0.037031 0
M  V30 22 C -2.548972 -5.894414 0.111964 0
M  V30 23 N -3.212508 -6.203712 -1.114280 0
M  V30 24 C -2.505050 -7.110309 -1.963672 0
M  V30 25 C -3.786900 -5.067138 -1.761621 0
M  V30 26 C -2.728608 -4.050766 -2.157491 0
M  V30 27 C -0.950441 -1.843233 -2.198976 0
M  V30 28 C -0.124978 -0.738964 -2.302069 0
M  V30 29 C 3.126853 3.515627 -0.067159 0
M  V30 30 C 2.626880 3.520854 1.220245 0
M  V30 31 C 2.998305 4.586278 2.137798 0
M  V30 32 N 3.309778 5.431539 2.865929 0
M  V30 33 H -0.021671 4.500841 1.807361 0
M  V30 34 H -1.405245 4.513697 2.898361 0
M  V30 35 H -1.270834 3.142310 1.804103 0
M  V30 36 H -1.224972 3.580871 5.053461 0
M  V30 37 H 0.115566 2.393804 6.748964 0
M  V30 38 H 2.264990 1.266596 6.081467 0
M  V30 39 H 0.723828 0.762927 1.252902 0
M  V30 40 H 3.695225 2.755666 -2.851366 0
M  V30 41 H 1.720419 -1.278386 0.478623 0
M  V30 42 H 0.247505 -3.181277 0.594717 0
M  V30 43 H -0.541451 -5.249470 -0.114446 0
M  V30 44 H -1.467089 -4.210828 0.987770 0
M  V30 45 H -3.323995 -5.547276 0.857284 0
M  V30 46 H -2.134299 -6.827062 0.549098 0
M  V30 47 H -1.506122 -7.316332 -1.522340 0
M  V30 48 H -2.446326 -6.803135 -3.031049 0
M  V30 49 H -3.032877 -8.099221 -1.952307 0
M  V30 50 H -4.297895 -5.389824 -2.682715 0
M  V30 51 H -4.539859 -4.614605 -1.101512 0
M  V30 52 H -2.188571 -4.347828 -3.066314 0
M  V30 53 H -3.271252 -3.118588 -2.386600 0
M  V30 54 H -1.675337 -1.952794 -2.969418 0
M  V30 55 H -0.230418 -0.037156 -3.132669 0
M  V30 56 H 3.789339 4.271007 -0.437346 0
M  V30 END ATOM
M  V30 BEGIN BOND
M  V30 1 1 1 2
M  V30 2 2 2 3
M  V30 3 1 3 4
M  V30 4 2 4 5
M  V30 5 1 5 6
M  V30 6 1 6 7
M  V30 7 2 6 8
M  V30 8 1 8 9
M  V30 9 2 9 10
M  V30 10 1 10 11
M  V30 11 2 11 12
M  V30 12 1 12 13
M  V30 13 2 13 14
M  V30 14 1 14 15
M  V30 15 1 15 16
M  V30 16 2 16 17
M  V30 17 1 17 18
M  V30 18 2 18 19
M  V30 19 1 19 20
M  V30 20 1 20 21
M  V30 21 1 21 22
M  V30 22 1 22 23
M  V30 23 1 23 24
M  V30 24 1 23 25
M  V30 25 1 25 26
M  V30 26 1 19 27
M  V30 27 2 27 28
M  V30 28 1 12 29
M  V30 29 2 29 30
M  V30 30 1 30 31
M  V30 31 3 31 32
M  V30 32 1 8 2
M  V30 33 1 30 9
M  V30 34 1 15 11
M  V30 35 1 28 16
M  V30 36 1 26 20
M  V30 37 1 1 33
M  V30 38 1 1 34
M  V30 39 1 1 35
M  V30 40 1 3 36
M  V30 41 1 4 37
M  V30 42 1 5 38
M  V30 43 1 10 39
M  V30 44 1 13 40
M  V30 45 1 17 41
M  V30 46 1 18 42
M  V30 47 1 21 43
M  V30 48 1 21 44
M  V30 49 1 22 45
M  V30 50 1 22 46
M  V30 51 1 24 47
M  V30 52 1 24 48
M  V30 53 1 24 49
M  V30 54 1 25 50
M  V30 55 1 25 51
M  V30 56 1 26 52
M  V30 57 1 26 53
M  V30 58 1 27 54
M  V30 59 1 28 55
M  V30 60 1 29 56
M  V30 END BOND
M  V30 END CTAB
M  END
>  <Dataset>  (159) 
ChEMBL_Kinases

>  <Ligand_Instance>  (159) 
nan

>  <PDB_ID>  (159) 
nan

>  <Standardized_SMILES>  (159) 
Cc1cccc(F)c1-c1cc2c(cnn2-c2ccc(N3CCN(C)CC3)cc2)cc1C#N

>  <Name>  (159) 
nan

>  <Pocket>  (159) 
nan

>  <ATP_Site>  (159) 
nan

>  <Peripheral>  (159) 
nan

>  <Num_H_Atoms_ProtBoundConf>  (159) 
nan

>  <Num_Resolved_Atoms>  (159) 
nan

>  <Num_Not_Resolved_Atoms>  (159) 
nan

$$$$
CHEMBL4754703
     RDKit          3D

  0  0  0  0  0  0  0  0  0  0999 V3000
M  V30 BEGIN CTAB
M  V30 COUNTS 55 57 0 0 0
M  V30 BEGIN ATOM
M  V30 1 C -0.358806 -6.555912 -1.721642 0
M  V30 2 N 0.939076 -6.138286 -1.203843 0
M  V30 3 C 1.167268 -4.839629 -0.694853 0
M  V30 4 C 0.869504 -4.778796 0.675210 0
M  V30 5 C 0.997405 -3.619717 1.394739 0
M  V30 6 C 1.432270 -2.509781 0.718710 0
M  V30 7 C 1.726550 -2.568282 -0.630972 0
M  V30 8 C 2.202584 -1.359930 -1.347681 0
M  V30 9 N 2.327058 -0.205719 -0.849604 0
M  V30 10 C 2.772324 0.796967 -1.596260 0
M  V30 11 C 2.870802 2.132438 -0.937282 0
M  V30 12 C 1.842262 2.570320 -0.204332 0
M  V30 13 S 0.383655 1.538839 -0.045344 0
M  V30 14 C -0.455079 2.780056 0.987686 0
M  V30 15 N -1.789617 2.687774 1.547860 0
M  V30 16 C -1.957029 3.297497 2.838828 0
M  V30 17 C -3.384112 3.196206 3.251374 0
M  V30 18 C -3.836684 1.762513 3.307875 0
M  V30 19 C -3.618908 3.793201 4.639347 0
M  V30 20 C -4.264645 3.962872 2.312470 0
M  V30 21 O -4.218593 3.545585 1.008425 0
M  V30 22 N 0.322580 3.782589 1.145670 0
M  V30 23 C 1.563005 3.759496 0.551297 0
M  V30 24 O 2.409937 4.689497 0.642916 0
M  V30 25 C 3.096509 0.594152 -2.894879 0
M  V30 26 S 2.704890 -1.267029 -3.034850 0
M  V30 27 C 1.603362 -3.724660 -1.369463 0
M  V30 28 S 2.261811 -7.253869 -1.208294 0
M  V30 29 C 3.533168 -6.570963 -2.254978 0
M  V30 30 O 1.816716 -8.573554 -1.768652 0
M  V30 31 O 2.844270 -7.402453 0.173768 0
M  V30 32 H -0.273792 -7.020200 -2.738422 0
M  V30 33 H -0.794669 -7.365866 -1.068678 0
M  V30 34 H -1.086219 -5.733218 -1.717499 0
M  V30 35 H 0.516704 -5.628289 1.282328 0
M  V30 36 H 0.775198 -3.549536 2.450315 0
M  V30 37 H 1.548176 -1.561485 1.254407 0
M  V30 38 H 3.714449 2.816230 -0.986877 0
M  V30 39 H -2.423144 2.159699 0.881780 0
M  V30 40 H -1.246564 2.921480 3.600826 0
M  V30 41 H -1.705464 4.384458 2.707757 0
M  V30 42 H -4.954552 1.751118 3.390855 0
M  V30 43 H -3.453743 1.210984 4.167957 0
M  V30 44 H -3.642530 1.243455 2.332519 0
M  V30 45 H -4.690857 3.572519 4.892030 0
M  V30 46 H -2.968251 3.353385 5.393751 0
M  V30 47 H -3.542255 4.894062 4.527744 0
M  V30 48 H -3.967551 5.055930 2.297634 0
M  V30 49 H -5.323723 3.938759 2.659031 0
M  V30 50 H -4.951449 2.921384 0.737469 0
M  V30 51 H 3.464560 1.343099 -3.575114 0
M  V30 52 H 1.808409 -3.860065 -2.414623 0
M  V30 53 H 4.204309 -7.388368 -2.623684 0
M  V30 54 H 4.076169 -5.817771 -1.651897 0
M  V30 55 H 3.058337 -6.104123 -3.125606 0
M  V30 END ATOM
M  V30 BEGIN BOND
M  V30 1 1 1 2
M  V30 2 1 2 3
M  V30 3 2 3 4
M  V30 4 1 4 5
M  V30 5 2 5 6
M  V30 6 1 6 7
M  V30 7 1 7 8
M  V30 8 2 8 9
M  V30 9 1 9 10
M  V30 10 1 10 11
M  V30 11 2 11 12
M  V30 12 1 12 13
M  V30 13 1 13 14
M  V30 14 1 14 15
M  V30 15 1 15 16
M  V30 16 1 16 17
M  V30 17 1 17 18
M  V30 18 1 17 19
M  V30 19 1 17 20
M  V30 20 1 20 21
M  V30 21 2 14 22
M  V30 22 1 22 23
M  V30 23 2 23 24
M  V30 24 2 10 25
M  V30 25 1 25 26
M  V30 26 2 7 27
M  V30 27 1 2 28
M  V30 28 1 28 29
M  V30 29 2 28 30
M  V30 30 2 28 31
M  V30 31 1 27 3
M  V30 32 1 26 8
M  V30 33 1 23 12
M  V30 34 1 1 32
M  V30 35 1 1 33
M  V30 36 1 1 34
M  V30 37 1 4 35
M  V30 38 1 5 36
M  V30 39 1 6 37
M  V30 40 1 11 38
M  V30 41 1 15 39
M  V30 42 1 16 40
M  V30 43 1 16 41
M  V30 44 1 18 42
M  V30 45 1 18 43
M  V30 46 1 18 44
M  V30 47 1 19 45
M  V30 48 1 19 46
M  V30 49 1 19 47
M  V30 50 1 20 48
M  V30 51 1 20 49
M  V30 52 1 21 50
M  V30 53 1 25 51
M  V30 54 1 27 52
M  V30 55 1 29 53
M  V30 56 1 29 54
M  V30 57 1 29 55
M  V30 END BOND
M  V30 END CTAB
M  END
>  <Dataset>  (160) 
ChEMBL_Kinases

>  <Ligand_Instance>  (160) 
nan

>  <PDB_ID>  (160) 
nan

>  <Standardized_SMILES>  (160) 
CN(c1cccc(-c2nc(/C=C3\SC(NCC(C)(C)CO)=NC3=O)cs2)c1)S(C)(=O)=O

>  <Name>  (160) 
nan

>  <Pocket>  (160) 
nan

>  <ATP_Site>  (160) 
nan

>  <Peripheral>  (160) 
nan

>  <Num_H_Atoms_ProtBoundConf>  (160) 
nan

>  <Num_Resolved_Atoms>  (160) 
nan

>  <Num_Not_Resolved_Atoms>  (160) 
nan

$$$$
CHEMBL4754748
     RDKit          3D

  0  0  0  0  0  0  0  0  0  0999 V3000
M  V30 BEGIN CTAB
M  V30 COUNTS 34 36 0 0 0
M  V30 BEGIN ATOM
M  V30 1 C -0.008544 -6.207719 4.414212 0
M  V30 2 S 1.377324 -5.076337 4.722616 0
M  V30 3 C 1.263361 -3.765558 3.488535 0
M  V30 4 C 1.899341 -3.878831 2.269566 0
M  V30 5 C 1.837752 -2.896657 1.288987 0
M  V30 6 C 1.100888 -1.798349 1.607719 0
M  V30 7 C 0.963830 -0.665140 0.613564 0
M  V30 8 C 1.504053 -0.547603 -0.651397 0
M  V30 9 C 1.200068 0.586671 -1.298361 0
M  V30 10 N 1.638167 0.891075 -2.561735 0
M  V30 11 C 1.292181 2.042810 -3.141408 0
M  V30 12 N 0.505326 3.020652 -2.599713 0
M  V30 13 C 0.053758 2.741557 -1.336688 0
M  V30 14 S -0.993154 3.812391 -0.357925 0
M  V30 15 C -2.757379 3.469484 -0.659480 0
M  V30 16 C -3.128443 3.826556 -2.055112 0
M  V30 17 O -2.126819 4.274296 -2.670496 0
M  V30 18 O -3.837670 4.027601 -3.228855 0
M  V30 19 C 0.427987 1.516946 -0.733438 0
M  V30 20 S 0.056778 0.833420 0.818278 0
M  V30 21 C 0.429835 -1.591266 2.795386 0
M  V30 22 C 0.532867 -2.605801 3.724512 0
M  V30 23 F -0.096511 -2.497578 4.936987 0
M  V30 24 H -0.933705 -5.870790 4.911169 0
M  V30 25 H 0.225418 -7.263165 4.711485 0
M  V30 26 H -0.229445 -6.184742 3.315956 0
M  V30 27 H 2.475861 -4.773095 2.060584 0
M  V30 28 H 2.326885 -2.964464 0.329064 0
M  V30 29 H 2.109326 -1.387448 -0.969808 0
M  V30 30 H 1.653245 2.270848 -4.156270 0
M  V30 31 H -3.324808 4.133493 0.024590 0
M  V30 32 H -3.039768 2.429309 -0.406207 0
M  V30 33 H -4.253945 3.236237 -3.735133 0
M  V30 34 H -0.145667 -0.682286 2.987061 0
M  V30 END ATOM
M  V30 BEGIN BOND
M  V30 1 1 1 2
M  V30 2 1 2 3
M  V30 3 2 3 4
M  V30 4 1 4 5
M  V30 5 2 5 6
M  V30 6 1 6 7
M  V30 7 2 7 8
M  V30 8 1 8 9
M  V30 9 2 9 10
M  V30 10 1 10 11
M  V30 11 2 11 12
M  V30 12 1 12 13
M  V30 13 1 13 14
M  V30 14 1 14 15
M  V30 15 1 15 16
M  V30 16 2 16 17
M  V30 17 1 16 18
M  V30 18 2 13 19
M  V30 19 1 19 20
M  V30 20 1 6 21
M  V30 21 2 21 22
M  V30 22 1 22 23
M  V30 23 1 22 3
M  V30 24 1 20 7
M  V30 25 1 19 9
M  V30 26 1 1 24
M  V30 27 1 1 25
M  V30 28 1 1 26
M  V30 29 1 4 27
M  V30 30 1 5 28
M  V30 31 1 8 29
M  V30 32 1 11 30
M  V30 33 1 15 31
M  V30 34 1 15 32
M  V30 35 1 18 33
M  V30 36 1 21 34
M  V30 END BOND
M  V30 END CTAB
M  END
>  <Dataset>  (161) 
ChEMBL_Kinases

>  <Ligand_Instance>  (161) 
nan

>  <PDB_ID>  (161) 
nan

>  <Standardized_SMILES>  (161) 
CSc1ccc(-c2cc3ncnc(SCC(=O)O)c3s2)cc1F

>  <Name>  (161) 
nan

>  <Pocket>  (161) 
nan

>  <ATP_Site>  (161) 
nan

>  <Peripheral>  (161) 
nan

>  <Num_H_Atoms_ProtBoundConf>  (161) 
nan

>  <Num_Resolved_Atoms>  (161) 
nan

>  <Num_Not_Resolved_Atoms>  (161) 
nan

$$$$
CHEMBL434164
     RDKit          3D

  0  0  0  0  0  0  0  0  0  0999 V3000
M  V30 BEGIN CTAB
M  V30 COUNTS 47 50 0 0 0
M  V30 BEGIN ATOM
M  V30 1 C -1.521326 -5.239305 1.843754 0
M  V30 2 N -1.353698 -5.334726 0.427098 0
M  V30 3 C 0.005611 -5.079548 0.003747 0
M  V30 4 C 0.446379 -3.673219 0.259987 0
M  V30 5 C -0.547344 -2.651873 -0.242061 0
M  V30 6 C -0.177423 -1.308220 0.223579 0
M  V30 7 N 0.578182 -0.385274 -0.443455 0
M  V30 8 C 0.738096 0.757292 0.247712 0
M  V30 9 C 1.474525 1.928254 -0.163619 0
M  V30 10 C 1.031251 2.564557 -1.315332 0
M  V30 11 C 1.721799 3.685849 -1.724996 0
M  V30 12 C 2.813721 4.208305 -1.068191 0
M  V30 13 F 3.441312 5.317319 -1.533503 0
M  V30 14 C 3.252437 3.567868 0.082824 0
M  V30 15 C 2.576743 2.433086 0.522884 0
M  V30 16 C 0.063911 0.615966 1.442611 0
M  V30 17 C -0.018610 1.625738 2.492826 0
M  V30 18 C -0.632597 2.852711 2.229910 0
M  V30 19 C -0.657923 3.735275 3.287181 0
M  V30 20 N -0.148648 3.501621 4.511836 0
M  V30 21 C 0.436752 2.311981 4.737233 0
M  V30 22 C 0.517976 1.345995 3.740298 0
M  V30 23 C -0.481370 -0.650038 1.396874 0
M  V30 24 Cl -1.433527 -1.282415 2.714408 0
M  V30 25 C -1.975051 -3.009652 -0.030479 0
M  V30 26 C -2.206398 -4.461865 -0.343611 0
M  V30 27 H -2.169175 -6.103579 2.161044 0
M  V30 28 H -0.525622 -5.391755 2.350944 0
M  V30 29 H -2.004995 -4.328417 2.196213 0
M  V30 30 H 0.652592 -5.751543 0.606586 0
M  V30 31 H 0.110736 -5.380102 -1.049179 0
M  V30 32 H 1.401249 -3.511312 -0.292961 0
M  V30 33 H 0.680061 -3.528942 1.337814 0
M  V30 34 H -0.395193 -2.643555 -1.366697 0
M  V30 35 H 0.999346 -0.538451 -1.401761 0
M  V30 36 H 0.178813 2.204595 -1.877944 0
M  V30 37 H 1.390181 4.186583 -2.612969 0
M  V30 38 H 4.110138 3.940943 0.637533 0
M  V30 39 H 2.869147 1.888261 1.412431 0
M  V30 40 H -1.035823 3.041168 1.264902 0
M  V30 41 H -1.138507 4.707192 3.096432 0
M  V30 42 H 0.857709 2.090274 5.712665 0
M  V30 43 H 0.996823 0.404578 3.965654 0
M  V30 44 H -2.576658 -2.438673 -0.793831 0
M  V30 45 H -2.414078 -2.780462 0.933248 0
M  V30 46 H -3.273914 -4.680760 -0.050135 0
M  V30 47 H -2.067522 -4.705999 -1.407905 0
M  V30 END ATOM
M  V30 BEGIN BOND
M  V30 1 1 1 2
M  V30 2 1 2 3
M  V30 3 1 3 4
M  V30 4 1 4 5
M  V30 5 1 5 6
M  V30 6 1 6 7
M  V30 7 1 7 8
M  V30 8 1 8 9
M  V30 9 2 9 10
M  V30 10 1 10 11
M  V30 11 2 11 12
M  V30 12 1 12 13
M  V30 13 1 12 14
M  V30 14 2 14 15
M  V30 15 2 8 16
M  V30 16 1 16 17
M  V30 17 2 17 18
M  V30 18 1 18 19
M  V30 19 2 19 20
M  V30 20 1 20 21
M  V30 21 2 21 22
M  V30 22 1 16 23
M  V30 23 1 23 24
M  V30 24 1 5 25
M  V30 25 1 25 26
M  V30 26 1 26 2
M  V30 27 2 23 6
M  V30 28 1 15 9
M  V30 29 1 22 17
M  V30 30 1 1 27
M  V30 31 1 1 28
M  V30 32 1 1 29
M  V30 33 1 3 30
M  V30 34 1 3 31
M  V30 35 1 4 32
M  V30 36 1 4 33
M  V30 37 1 5 34
M  V30 38 1 7 35
M  V30 39 1 10 36
M  V30 40 1 11 37
M  V30 41 1 14 38
M  V30 42 1 15 39
M  V30 43 1 18 40
M  V30 44 1 19 41
M  V30 45 1 21 42
M  V30 46 1 22 43
M  V30 47 1 25 44
M  V30 48 1 25 45
M  V30 49 1 26 46
M  V30 50 1 26 47
M  V30 END BOND
M  V30 END CTAB
M  END
>  <Dataset>  (162) 
ChEMBL_Kinases

>  <Ligand_Instance>  (162) 
nan

>  <PDB_ID>  (162) 
nan

>  <Standardized_SMILES>  (162) 
CN1CCC(c2[nH]c(-c3ccc(F)cc3)c(-c3ccncc3)c2Cl)CC1

>  <Name>  (162) 
nan

>  <Pocket>  (162) 
nan

>  <ATP_Site>  (162) 
nan

>  <Peripheral>  (162) 
nan

>  <Num_H_Atoms_ProtBoundConf>  (162) 
nan

>  <Num_Resolved_Atoms>  (162) 
nan

>  <Num_Not_Resolved_Atoms>  (162) 
nan

$$$$
CHEMBL4754571
     RDKit          3D

  0  0  0  0  0  0  0  0  0  0999 V3000
M  V30 BEGIN CTAB
M  V30 COUNTS 47 50 0 0 0
M  V30 BEGIN ATOM
M  V30 1 O 0.405443 -1.771226 0.918668 0
M  V30 2 C 1.594476 -1.715172 1.147588 0
M  V30 3 C 2.754810 -2.324032 0.354704 0
M  V30 4 C 3.100725 -1.452736 -0.785184 0
M  V30 5 C 2.419090 -0.253053 -0.853136 0
M  V30 6 C 2.688113 0.676125 -1.867216 0
M  V30 7 C 3.659941 0.328895 -2.783567 0
M  V30 8 C 4.343792 -0.872909 -2.720023 0
M  V30 9 Cl 5.565854 -1.240044 -3.909142 0
M  V30 10 C 4.067692 -1.794110 -1.702680 0
M  V30 11 N 1.850448 -0.950581 2.358616 0
M  V30 12 C 1.761761 -0.189253 3.536849 0
M  V30 13 C 1.064644 1.117801 3.520190 0
M  V30 14 C -0.402095 1.214403 3.440322 0
M  V30 15 N -1.186218 0.658911 2.421282 0
M  V30 16 C -1.534404 1.176279 1.223096 0
M  V30 17 O -1.016479 2.263571 0.927858 0
M  V30 18 C -2.412483 0.512088 0.406976 0
M  V30 19 C -2.763300 1.070954 -0.808058 0
M  V30 20 C -3.659776 0.397278 -1.613241 0
M  V30 21 F -3.999744 0.951336 -2.807650 0
M  V30 22 C -4.220170 -0.808608 -1.261537 0
M  V30 23 C -3.845675 -1.350251 -0.025951 0
M  V30 24 C -2.959242 -0.689807 0.780634 0
M  V30 25 N -2.612948 -1.203062 1.963603 0
M  V30 26 C -2.983415 -2.334170 2.561748 0
M  V30 27 S -3.973155 -3.556264 2.161916 0
M  V30 28 N -2.367479 -2.418946 3.746317 0
M  V30 29 N -1.617910 -1.340552 3.877059 0
M  V30 30 C -1.743050 -0.549758 2.777195 0
M  V30 31 H 2.413194 -3.337008 -0.003497 0
M  V30 32 H 3.581135 -2.496804 1.020835 0
M  V30 33 H 1.663192 0.015994 -0.140366 0
M  V30 34 H 2.120331 1.609831 -1.867299 0
M  V30 35 H 3.836044 1.082366 -3.547989 0
M  V30 36 H 4.574903 -2.739275 -1.613015 0
M  V30 37 H 2.934070 -0.978541 2.350289 0
M  V30 38 H 2.781094 -0.009145 3.974660 0
M  V30 39 H 1.270303 -0.849736 4.348277 0
M  V30 40 H 1.367486 1.731633 4.436848 0
M  V30 41 H 1.481047 1.782568 2.697024 0
M  V30 42 H -0.864958 0.991444 4.470146 0
M  V30 43 H -0.601419 2.357580 3.370312 0
M  V30 44 H -2.358218 2.022618 -1.161153 0
M  V30 45 H -4.918314 -1.293131 -1.924649 0
M  V30 46 H -4.332924 -2.284582 0.162539 0
M  V30 47 H -2.336128 -3.103191 4.561398 0
M  V30 END ATOM
M  V30 BEGIN BOND
M  V30 1 2 1 2
M  V30 2 1 2 3
M  V30 3 1 3 4
M  V30 4 2 4 5
M  V30 5 1 5 6
M  V30 6 2 6 7
M  V30 7 1 7 8
M  V30 8 1 8 9
M  V30 9 2 8 10
M  V30 10 1 2 11
M  V30 11 1 11 12
M  V30 12 1 12 13
M  V30 13 1 13 14
M  V30 14 1 14 15
M  V30 15 1 15 16
M  V30 16 2 16 17
M  V30 17 1 16 18
M  V30 18 2 18 19
M  V30 19 1 19 20
M  V30 20 1 20 21
M  V30 21 2 20 22
M  V30 22 1 22 23
M  V30 23 2 23 24
M  V30 24 1 24 25
M  V30 25 1 25 26
M  V30 26 2 26 27
M  V30 27 1 26 28
M  V30 28 1 28 29
M  V30 29 2 29 30
M  V30 30 1 10 4
M  V30 31 1 30 15
M  V30 32 1 24 18
M  V30 33 1 30 25
M  V30 34 1 3 31
M  V30 35 1 3 32
M  V30 36 1 5 33
M  V30 37 1 6 34
M  V30 38 1 7 35
M  V30 39 1 10 36
M  V30 40 1 11 37
M  V30 41 1 12 38
M  V30 42 1 12 39
M  V30 43 1 13 40
M  V30 44 1 13 41
M  V30 45 1 14 42
M  V30 46 1 14 43
M  V30 47 1 19 44
M  V30 48 1 22 45
M  V30 49 1 23 46
M  V30 50 1 28 47
M  V30 END BOND
M  V30 END CTAB
M  END
>  <Dataset>  (163) 
ChEMBL_Kinases

>  <Ligand_Instance>  (163) 
nan

>  <PDB_ID>  (163) 
nan

>  <Standardized_SMILES>  (163) 
O=C(Cc1cccc(Cl)c1)NCCCn1c(=O)c2cc(F)ccc2n2c(=S)[nH]nc12

>  <Name>  (163) 
nan

>  <Pocket>  (163) 
nan

>  <ATP_Site>  (163) 
nan

>  <Peripheral>  (163) 
nan

>  <Num_H_Atoms_ProtBoundConf>  (163) 
nan

>  <Num_Resolved_Atoms>  (163) 
nan

>  <Num_Not_Resolved_Atoms>  (163) 
nan

$$$$
CHEMBL4637474
     RDKit          3D

  0  0  0  0  0  0  0  0  0  0999 V3000
M  V30 BEGIN CTAB
M  V30 COUNTS 44 47 0 0 0
M  V30 BEGIN ATOM
M  V30 1 O 0.809987 -5.100896 -1.488194 0
M  V30 2 C 0.178529 -4.021490 -1.312765 0
M  V30 3 C -0.432945 -3.430244 -2.497467 0
M  V30 4 S -1.318258 -1.898800 -2.249040 0
M  V30 5 C -0.228913 -0.547084 -1.773399 0
M  V30 6 N 0.292627 0.170740 -2.780261 0
M  V30 7 N 1.051253 1.100921 -2.250504 0
M  V30 8 C 1.007393 0.969427 -0.922130 0
M  V30 9 C 1.654017 1.724782 0.187396 0
M  V30 10 N 0.749706 2.789943 0.566043 0
M  V30 11 C 0.589935 4.060451 0.166164 0
M  V30 12 C 1.445100 4.667349 -0.885911 0
M  V30 13 F 1.066482 4.194509 -2.123890 0
M  V30 14 F 2.793416 4.386859 -0.678885 0
M  V30 15 F 1.274444 6.053186 -0.887636 0
M  V30 16 N -0.423831 4.646706 0.851451 0
M  V30 17 C -0.925771 3.731570 1.710390 0
M  V30 18 C -1.956980 3.793125 2.638073 0
M  V30 19 C -2.280994 2.688448 3.414285 0
M  V30 20 C -1.555408 1.528511 3.242981 0
M  V30 21 C -0.540544 1.490849 2.320110 0
M  V30 22 C -0.190647 2.572703 1.529809 0
M  V30 23 O 0.212289 -0.053310 -0.639896 0
M  V30 24 N 0.131419 -3.503245 0.007725 0
M  V30 25 C 0.737412 -4.101406 1.145645 0
M  V30 26 C 2.037735 -3.790012 1.518389 0
M  V30 27 C 2.691600 -4.337121 2.618011 0
M  V30 28 C 1.950074 -5.256631 3.367208 0
M  V30 29 F 2.567151 -5.812765 4.456196 0
M  V30 30 C 0.656014 -5.599378 3.038850 0
M  V30 31 C 0.050498 -5.027294 1.935763 0
M  V30 32 H 0.310172 -3.259796 -3.330956 0
M  V30 33 H -1.148018 -4.169647 -2.915333 0
M  V30 34 H 1.889066 1.076222 1.037225 0
M  V30 35 H 2.621991 2.165180 -0.138128 0
M  V30 36 H -2.487212 4.717276 2.730174 0
M  V30 37 H -3.090761 2.772633 4.127437 0
M  V30 38 H -1.774519 0.648125 3.825449 0
M  V30 39 H 0.012262 0.569838 2.205833 0
M  V30 40 H -0.390157 -2.612401 0.154410 0
M  V30 41 H 2.561084 -3.059026 0.883333 0
M  V30 42 H 3.691325 -4.035077 2.823499 0
M  V30 43 H 0.083847 -6.313303 3.622377 0
M  V30 44 H -0.973983 -5.261247 1.627755 0
M  V30 END ATOM
M  V30 BEGIN BOND
M  V30 1 2 1 2
M  V30 2 1 2 3
M  V30 3 1 3 4
M  V30 4 1 4 5
M  V30 5 2 5 6
M  V30 6 1 6 7
M  V30 7 2 7 8
M  V30 8 1 8 9
M  V30 9 1 9 10
M  V30 10 1 10 11
M  V30 11 1 11 12
M  V30 12 1 12 13
M  V30 13 1 12 14
M  V30 14 1 12 15
M  V30 15 2 11 16
M  V30 16 1 16 17
M  V30 17 2 17 18
M  V30 18 1 18 19
M  V30 19 2 19 20
M  V30 20 1 20 21
M  V30 21 2 21 22
M  V30 22 1 8 23
M  V30 23 1 2 24
M  V30 24 1 24 25
M  V30 25 2 25 26
M  V30 26 1 26 27
M  V30 27 2 27 28
M  V30 28 1 28 29
M  V30 29 1 28 30
M  V30 30 2 30 31
M  V30 31 1 23 5
M  V30 32 1 31 25
M  V30 33 1 22 10
M  V30 34 1 22 17
M  V30 35 1 3 32
M  V30 36 1 3 33
M  V30 37 1 9 34
M  V30 38 1 9 35
M  V30 39 1 18 36
M  V30 40 1 19 37
M  V30 41 1 20 38
M  V30 42 1 21 39
M  V30 43 1 24 40
M  V30 44 1 26 41
M  V30 45 1 27 42
M  V30 46 1 30 43
M  V30 47 1 31 44
M  V30 END BOND
M  V30 END CTAB
M  END
>  <Dataset>  (164) 
ChEMBL_Kinases

>  <Ligand_Instance>  (164) 
nan

>  <PDB_ID>  (164) 
nan

>  <Standardized_SMILES>  (164) 
O=C(CSc1nnc(Cn2c(C(F)(F)F)nc3ccccc32)o1)Nc1ccc(F)cc1

>  <Name>  (164) 
nan

>  <Pocket>  (164) 
nan

>  <ATP_Site>  (164) 
nan

>  <Peripheral>  (164) 
nan

>  <Num_H_Atoms_ProtBoundConf>  (164) 
nan

>  <Num_Resolved_Atoms>  (164) 
nan

>  <Num_Not_Resolved_Atoms>  (164) 
nan

$$$$
CHEMBL4560334
     RDKit          3D

  0  0  0  0  0  0  0  0  0  0999 V3000
M  V30 BEGIN CTAB
M  V30 COUNTS 49 52 0 0 0
M  V30 BEGIN ATOM
M  V30 1 C 1.635356 -4.443449 1.744032 0
M  V30 2 C 2.666311 -3.395478 2.144055 0
M  V30 3 C 2.342166 -3.029550 3.599838 0
M  V30 4 C 4.007031 -4.047348 2.121741 0
M  V30 5 O 2.563313 -2.206719 1.412487 0
M  V30 6 C 2.678936 -2.060165 0.056178 0
M  V30 7 O 2.899434 -3.178688 -0.467058 0
M  V30 8 N 2.509404 -0.681576 -0.318389 0
M  V30 9 C 2.261142 0.506118 0.461410 0
M  V30 10 C 0.865458 0.978479 0.308775 0
M  V30 11 C 0.356435 0.804515 -1.066286 0
M  V30 12 C 1.195064 0.226980 -1.999597 0
M  V30 13 S 0.284598 0.205887 -3.492930 0
M  V30 14 C -1.193464 0.976100 -2.801502 0
M  V30 15 N -2.329145 1.264822 -3.459384 0
M  V30 16 C -3.328473 1.844754 -2.779123 0
M  V30 17 N -3.093662 2.079850 -1.502490 0
M  V30 18 C -1.962134 1.791664 -0.847770 0
M  V30 19 N -1.926008 2.130249 0.538015 0
M  V30 20 C -2.867309 1.303856 1.218380 0
M  V30 21 C -3.798525 2.101866 1.860377 0
M  V30 22 C -4.831411 1.515495 2.592802 0
M  V30 23 C -4.913606 0.141699 2.669555 0
M  V30 24 F -5.895207 -0.514066 3.368330 0
M  V30 25 C -3.998449 -0.668299 2.038862 0
M  V30 26 C -2.995626 -0.058985 1.326786 0
M  V30 27 F -2.040122 -0.738587 0.655242 0
M  V30 28 C -0.892449 1.194716 -1.487589 0
M  V30 29 C 2.565750 -0.258843 -1.718233 0
M  V30 30 H 1.674275 -5.228353 2.515594 0
M  V30 31 H 0.626659 -4.035628 1.615216 0
M  V30 32 H 1.937738 -4.921176 0.795560 0
M  V30 33 H 3.040976 -2.218438 3.940319 0
M  V30 34 H 1.286626 -2.655738 3.551949 0
M  V30 35 H 2.432597 -3.917985 4.241198 0
M  V30 36 H 4.835611 -3.307981 2.089984 0
M  V30 37 H 4.123666 -4.619126 3.085976 0
M  V30 38 H 4.087300 -4.819269 1.324364 0
M  V30 39 H 3.048746 1.263616 0.181068 0
M  V30 40 H 2.446887 0.279821 1.566527 0
M  V30 41 H 0.249456 0.526696 1.101662 0
M  V30 42 H 0.893339 2.079262 0.597091 0
M  V30 43 H -4.204625 2.047619 -3.366757 0
M  V30 44 H -1.333084 2.846609 1.007817 0
M  V30 45 H -3.857603 3.187692 1.886588 0
M  V30 46 H -5.620399 2.016369 3.138276 0
M  V30 47 H -3.948449 -1.744690 2.018137 0
M  V30 48 H 3.337972 0.490265 -1.894498 0
M  V30 49 H 2.770405 -1.162310 -2.326988 0
M  V30 END ATOM
M  V30 BEGIN BOND
M  V30 1 1 1 2
M  V30 2 1 2 3
M  V30 3 1 2 4
M  V30 4 1 2 5
M  V30 5 1 5 6
M  V30 6 2 6 7
M  V30 7 1 6 8
M  V30 8 1 8 9
M  V30 9 1 9 10
M  V30 10 1 10 11
M  V30 11 2 11 12
M  V30 12 1 12 13
M  V30 13 1 13 14
M  V30 14 2 14 15
M  V30 15 1 15 16
M  V30 16 2 16 17
M  V30 17 1 17 18
M  V30 18 1 18 19
M  V30 19 1 19 20
M  V30 20 2 20 21
M  V30 21 1 21 22
M  V30 22 2 22 23
M  V30 23 1 23 24
M  V30 24 1 23 25
M  V30 25 2 25 26
M  V30 26 1 26 27
M  V30 27 2 18 28
M  V30 28 1 12 29
M  V30 29 1 29 8
M  V30 30 1 28 11
M  V30 31 1 28 14
M  V30 32 1 26 20
M  V30 33 1 1 30
M  V30 34 1 1 31
M  V30 35 1 1 32
M  V30 36 1 3 33
M  V30 37 1 3 34
M  V30 38 1 3 35
M  V30 39 1 4 36
M  V30 40 1 4 37
M  V30 41 1 4 38
M  V30 42 1 9 39
M  V30 43 1 9 40
M  V30 44 1 10 41
M  V30 45 1 10 42
M  V30 46 1 16 43
M  V30 47 1 19 44
M  V30 48 1 21 45
M  V30 49 1 22 46
M  V30 50 1 25 47
M  V30 51 1 29 48
M  V30 52 1 29 49
M  V30 END BOND
M  V30 END CTAB
M  END
>  <Dataset>  (165) 
ChEMBL_Kinases

>  <Ligand_Instance>  (165) 
nan

>  <PDB_ID>  (165) 
nan

>  <Standardized_SMILES>  (165) 
CC(C)(C)OC(=O)N1CCc2c(sc3ncnc(Nc4ccc(F)cc4F)c23)C1

>  <Name>  (165) 
nan

>  <Pocket>  (165) 
nan

>  <ATP_Site>  (165) 
nan

>  <Peripheral>  (165) 
nan

>  <Num_H_Atoms_ProtBoundConf>  (165) 
nan

>  <Num_Resolved_Atoms>  (165) 
nan

>  <Num_Not_Resolved_Atoms>  (165) 
nan

$$$$
CHEMBL4560317
     RDKit          3D

  0  0  0  0  0  0  0  0  0  0999 V3000
M  V30 BEGIN CTAB
M  V30 COUNTS 32 34 0 0 0
M  V30 BEGIN ATOM
M  V30 1 O 3.463018 0.447609 2.512141 0
M  V30 2 C 2.719841 -0.516982 2.123541 0
M  V30 3 N 3.129675 -1.873316 2.391075 0
M  V30 4 C 2.259411 -2.889002 1.932807 0
M  V30 5 C 2.663397 -4.177015 2.195152 0
M  V30 6 C 1.850805 -5.212778 1.769726 0
M  V30 7 C 0.676057 -4.926455 1.104396 0
M  V30 8 C 0.318137 -3.617514 0.867233 0
M  V30 9 C 1.101731 -2.564264 1.275943 0
M  V30 10 N 0.769099 -1.209561 1.051647 0
M  V30 11 C 1.516477 -0.077215 1.437875 0
M  V30 12 C 1.195876 1.186545 1.222948 0
M  V30 13 C -0.015738 1.457240 0.537414 0
M  V30 14 O 0.450843 2.628147 0.765642 0
M  V30 15 C -1.199174 1.855587 -0.135933 0
M  V30 16 C -1.973262 0.764815 -0.538756 0
M  V30 17 C -3.163212 0.927802 -1.209128 0
M  V30 18 C -3.530317 2.229020 -1.450717 0
M  V30 19 Cl -5.022155 2.608550 -2.296017 0
M  V30 20 C -2.853940 3.364737 -1.103821 0
M  V30 21 C -1.686093 3.108227 -0.443216 0
M  V30 22 H 4.024657 -1.995414 2.895249 0
M  V30 23 H 3.590627 -4.398685 2.720175 0
M  V30 24 H 2.086498 -6.257979 1.931063 0
M  V30 25 H -0.010736 -5.698412 0.741910 0
M  V30 26 H -0.609087 -3.401448 0.342373 0
M  V30 27 H -0.116616 -1.092551 0.552829 0
M  V30 28 H 2.014107 1.778948 1.664094 0
M  V30 29 H -1.878142 -0.322512 -0.455329 0
M  V30 30 H -3.873964 0.197908 -1.586534 0
M  V30 31 H -3.127038 4.380505 -1.284865 0
M  V30 32 H -1.072896 3.951168 -0.123541 0
M  V30 END ATOM
M  V30 BEGIN BOND
M  V30 1 2 1 2
M  V30 2 1 2 3
M  V30 3 1 3 4
M  V30 4 2 4 5
M  V30 5 1 5 6
M  V30 6 2 6 7
M  V30 7 1 7 8
M  V30 8 2 8 9
M  V30 9 1 9 10
M  V30 10 1 10 11
M  V30 11 2 11 12
M  V30 12 1 12 13
M  V30 13 2 13 14
M  V30 14 1 13 15
M  V30 15 2 15 16
M  V30 16 1 16 17
M  V30 17 2 17 18
M  V30 18 1 18 19
M  V30 19 1 18 20
M  V30 20 2 20 21
M  V30 21 1 11 2
M  V30 22 1 21 15
M  V30 23 1 9 4
M  V30 24 1 3 22
M  V30 25 1 5 23
M  V30 26 1 6 24
M  V30 27 1 7 25
M  V30 28 1 8 26
M  V30 29 1 10 27
M  V30 30 1 12 28
M  V30 31 1 16 29
M  V30 32 1 17 30
M  V30 33 1 20 31
M  V30 34 1 21 32
M  V30 END BOND
M  V30 END CTAB
M  END
>  <Dataset>  (166) 
ChEMBL_Kinases

>  <Ligand_Instance>  (166) 
nan

>  <PDB_ID>  (166) 
nan

>  <Standardized_SMILES>  (166) 
O=C1Nc2ccccc2N/C1=C\C(=O)c1ccc(Cl)cc1

>  <Name>  (166) 
nan

>  <Pocket>  (166) 
nan

>  <ATP_Site>  (166) 
nan

>  <Peripheral>  (166) 
nan

>  <Num_H_Atoms_ProtBoundConf>  (166) 
nan

>  <Num_Resolved_Atoms>  (166) 
nan

>  <Num_Not_Resolved_Atoms>  (166) 
nan

$$$$
CHEMBL4560290
     RDKit          3D

  0  0  0  0  0  0  0  0  0  0999 V3000
M  V30 BEGIN CTAB
M  V30 COUNTS 52 55 0 0 0
M  V30 BEGIN ATOM
M  V30 1 C 4.606528 -2.736766 0.797899 0
M  V30 2 N 4.547696 -3.314242 -0.550659 0
M  V30 3 N 5.687995 -3.795267 -1.005177 0
M  V30 4 C 5.513781 -4.279915 -2.224043 0
M  V30 5 C 4.185168 -4.052027 -2.459364 0
M  V30 6 Br 3.604145 -4.667900 -4.149242 0
M  V30 7 C 3.543297 -3.444065 -1.426945 0
M  V30 8 C 2.186941 -2.993772 -1.264800 0
M  V30 9 C 1.647263 -2.435810 -0.141049 0
M  V30 10 C 0.333436 -2.034561 -0.277472 0
M  V30 11 C -0.428898 -1.434462 0.809363 0
M  V30 12 O -0.119611 -1.406399 2.009893 0
M  V30 13 N -1.656053 -0.783816 0.631716 0
M  V30 14 C -2.543197 -0.153188 1.548043 0 CFG=2
M  V30 15 C -3.943247 -0.657115 1.477560 0
M  V30 16 N -4.915836 0.299262 1.964378 0
M  V30 17 C -4.307516 1.272326 2.853184 0
M  V30 18 C -3.454994 2.131135 1.988195 0
M  V30 19 C -2.384454 1.341188 1.355200 0 CFG=1
M  V30 20 C -1.011010 1.759167 1.804365 0
M  V30 21 C -0.719731 1.587578 3.139811 0
M  V30 22 C 0.540090 1.964107 3.575675 0
M  V30 23 C 1.527029 2.498692 2.777548 0
M  V30 24 Cl 3.104357 2.954526 3.389234 0
M  V30 25 C 1.158916 2.636808 1.463962 0
M  V30 26 C -0.066149 2.291267 0.942749 0
M  V30 27 N -0.004272 -2.341236 -1.532914 0
M  V30 28 C -1.291804 -2.129403 -2.152436 0
M  V30 29 C 1.100859 -2.902313 -2.091923 0
M  V30 30 Br 1.011871 -3.445514 -3.902707 0
M  V30 31 H 3.970012 -3.345557 1.450504 0
M  V30 32 H 5.651260 -2.680132 1.184046 0
M  V30 33 H 4.251163 -1.685107 0.827644 0
M  V30 34 H 6.356369 -4.712140 -2.745293 0
M  V30 35 H 2.092952 -2.274815 0.832512 0
M  V30 36 H -2.140413 -0.638711 -0.273544 0
M  V30 37 H -2.160289 -0.336134 2.586436 0
M  V30 38 H -4.030369 -1.538046 2.150685 0
M  V30 39 H -4.284311 -0.971975 0.472093 0
M  V30 40 H -5.400252 0.788759 1.169807 0
M  V30 41 H -3.712931 0.708795 3.587368 0
M  V30 42 H -5.158031 1.843296 3.325449 0
M  V30 43 H -3.080257 3.043168 2.500982 0
M  V30 44 H -4.133149 2.536593 1.182702 0
M  V30 45 H -2.385374 1.560114 0.247583 0
M  V30 46 H -1.391202 1.185972 3.866420 0
M  V30 47 H 0.782879 1.832138 4.630640 0
M  V30 48 H 1.905235 3.057621 0.781355 0
M  V30 49 H -0.315417 2.417827 -0.105756 0
M  V30 50 H -1.354060 -2.729882 -3.094741 0
M  V30 51 H -2.059752 -2.588870 -1.480513 0
M  V30 52 H -1.492320 -1.097744 -2.462732 0
M  V30 END ATOM
M  V30 BEGIN BOND
M  V30 1 1 1 2
M  V30 2 1 2 3
M  V30 3 2 3 4
M  V30 4 1 4 5
M  V30 5 1 5 6
M  V30 6 2 5 7
M  V30 7 1 7 8
M  V30 8 1 8 9
M  V30 9 2 9 10
M  V30 10 1 10 11
M  V30 11 2 11 12
M  V30 12 1 11 13
M  V30 13 1 13 14
M  V30 14 1 14 15
M  V30 15 1 15 16
M  V30 16 1 16 17
M  V30 17 1 17 18
M  V30 18 1 18 19
M  V30 19 1 19 20
M  V30 20 2 20 21
M  V30 21 1 21 22
M  V30 22 2 22 23
M  V30 23 1 23 24
M  V30 24 1 23 25
M  V30 25 2 25 26
M  V30 26 1 10 27
M  V30 27 1 27 28
M  V30 28 1 27 29
M  V30 29 1 29 30
M  V30 30 1 7 2
M  V30 31 2 29 8
M  V30 32 1 19 14
M  V30 33 1 26 20
M  V30 34 1 1 31
M  V30 35 1 1 32
M  V30 36 1 1 33
M  V30 37 1 4 34
M  V30 38 1 9 35
M  V30 39 1 13 36
M  V30 40 1 14 37 CFG=1
M  V30 41 1 15 38
M  V30 42 1 15 39
M  V30 43 1 16 40
M  V30 44 1 17 41
M  V30 45 1 17 42
M  V30 46 1 18 43
M  V30 47 1 18 44
M  V30 48 1 19 45 CFG=3
M  V30 49 1 21 46
M  V30 50 1 22 47
M  V30 51 1 25 48
M  V30 52 1 26 49
M  V30 53 1 28 50
M  V30 54 1 28 51
M  V30 55 1 28 52
M  V30 END BOND
M  V30 END CTAB
M  END
>  <Dataset>  (167) 
ChEMBL_Kinases

>  <Ligand_Instance>  (167) 
nan

>  <PDB_ID>  (167) 
nan

>  <Standardized_SMILES>  (167) 
Cn1ncc(Br)c1-c1cc(C(=O)N[C@@H]2CNCC[C@H]2c2ccc(Cl)cc2)n(C)c1Br

>  <Name>  (167) 
nan

>  <Pocket>  (167) 
nan

>  <ATP_Site>  (167) 
nan

>  <Peripheral>  (167) 
nan

>  <Num_H_Atoms_ProtBoundConf>  (167) 
nan

>  <Num_Resolved_Atoms>  (167) 
nan

>  <Num_Not_Resolved_Atoms>  (167) 
nan

$$$$
CHEMBL4560272
     RDKit          3D

  0  0  0  0  0  0  0  0  0  0999 V3000
M  V30 BEGIN CTAB
M  V30 COUNTS 41 43 0 0 0
M  V30 BEGIN ATOM
M  V30 1 C -0.622108 -4.843239 3.851223 0
M  V30 2 C -1.573696 -4.353106 2.791540 0
M  V30 3 C -1.008874 -3.191847 2.074187 0
M  V30 4 C -0.228870 -3.062024 0.956841 0
M  V30 5 C 0.086838 -1.764304 0.611669 0
M  V30 6 C 0.916724 -1.621832 -0.577133 0
M  V30 7 N 1.438543 -2.569649 -1.413491 0
M  V30 8 N 2.134614 -2.045237 -2.376279 0
M  V30 9 C 2.113630 -0.714320 -2.232166 0
M  V30 10 C 2.731215 0.201376 -3.048028 0
M  V30 11 C 2.566471 1.518960 -2.697072 0
M  V30 12 N 1.842130 1.833337 -1.621658 0
M  V30 13 C 1.257025 0.902896 -0.854064 0
M  V30 14 N 0.510548 1.346536 0.264124 0
M  V30 15 C 0.449653 2.774646 0.474516 0
M  V30 16 C 1.842315 3.333992 0.720589 0
M  V30 17 C -0.461161 3.289730 1.520371 0
M  V30 18 C 1.358903 -0.438450 -1.116067 0
M  V30 19 N -0.556763 -1.174872 1.593555 0
M  V30 20 N -1.183279 -1.925275 2.435421 0
M  V30 21 C -1.913089 -1.331451 3.541363 0
M  V30 22 H -0.401573 -5.935208 3.733272 0
M  V30 23 H -1.146455 -4.765192 4.846635 0
M  V30 24 H 0.338360 -4.314238 3.829071 0
M  V30 25 H -1.707079 -5.190163 2.052815 0
M  V30 26 H -2.597070 -4.155236 3.184195 0
M  V30 27 H 0.040602 -4.023492 0.484296 0
M  V30 28 H 2.545489 -2.742623 -3.030653 0
M  V30 29 H 3.304764 -0.076416 -3.902032 0
M  V30 30 H 3.026206 2.296092 -3.296263 0
M  V30 31 H -0.051172 1.137281 1.063512 0
M  V30 32 H 0.139348 3.245258 -0.513752 0
M  V30 33 H 2.326172 3.684623 -0.212893 0
M  V30 34 H 1.776559 4.170779 1.414808 0
M  V30 35 H 2.528678 2.582232 1.174295 0
M  V30 36 H -0.831295 4.292816 1.230574 0
M  V30 37 H -1.355821 2.642916 1.625306 0
M  V30 38 H 0.084915 3.414686 2.483212 0
M  V30 39 H -2.506095 -2.096298 4.077194 0
M  V30 40 H -2.503377 -0.499840 3.163144 0
M  V30 41 H -1.159087 -0.929894 4.248904 0
M  V30 END ATOM
M  V30 BEGIN BOND
M  V30 1 1 1 2
M  V30 2 1 2 3
M  V30 3 2 3 4
M  V30 4 1 4 5
M  V30 5 1 5 6
M  V30 6 2 6 7
M  V30 7 1 7 8
M  V30 8 1 8 9
M  V30 9 2 9 10
M  V30 10 1 10 11
M  V30 11 2 11 12
M  V30 12 1 12 13
M  V30 13 1 13 14
M  V30 14 1 14 15
M  V30 15 1 15 16
M  V30 16 1 15 17
M  V30 17 2 13 18
M  V30 18 2 5 19
M  V30 19 1 19 20
M  V30 20 1 20 21
M  V30 21 1 20 3
M  V30 22 1 18 6
M  V30 23 1 18 9
M  V30 24 1 1 22
M  V30 25 1 1 23
M  V30 26 1 1 24
M  V30 27 1 2 25
M  V30 28 1 2 26
M  V30 29 1 4 27
M  V30 30 1 8 28
M  V30 31 1 10 29
M  V30 32 1 11 30
M  V30 33 1 14 31
M  V30 34 1 15 32
M  V30 35 1 16 33
M  V30 36 1 16 34
M  V30 37 1 16 35
M  V30 38 1 17 36
M  V30 39 1 17 37
M  V30 40 1 17 38
M  V30 41 1 21 39
M  V30 42 1 21 40
M  V30 43 1 21 41
M  V30 END BOND
M  V30 END CTAB
M  END
>  <Dataset>  (168) 
ChEMBL_Kinases

>  <Ligand_Instance>  (168) 
nan

>  <PDB_ID>  (168) 
nan

>  <Standardized_SMILES>  (168) 
CCc1cc(-c2n[nH]c3ccnc(NC(C)C)c23)nn1C

>  <Name>  (168) 
nan

>  <Pocket>  (168) 
nan

>  <ATP_Site>  (168) 
nan

>  <Peripheral>  (168) 
nan

>  <Num_H_Atoms_ProtBoundConf>  (168) 
nan

>  <Num_Resolved_Atoms>  (168) 
nan

>  <Num_Not_Resolved_Atoms>  (168) 
nan

$$$$
CHEMBL456
     RDKit          3D

  0  0  0  0  0  0  0  0  0  0999 V3000
M  V30 BEGIN CTAB
M  V30 COUNTS 31 31 0 0 0
M  V30 BEGIN ATOM
M  V30 1 C 0.596154 -3.145736 -1.972431 0
M  V30 2 C -0.679604 -2.728629 -2.049794 0
M  V30 3 C -1.576029 -3.158483 -3.114878 0
M  V30 4 C -2.109712 -2.086013 -4.004695 0
M  V30 5 C -0.048190 -2.141785 -0.899728 0
M  V30 6 O 1.064168 -2.686317 -1.106239 0
M  V30 7 C -0.511067 -1.243638 0.136039 0
M  V30 8 C 0.551707 -0.990052 1.006664 0
M  V30 9 C 0.393611 -0.149620 2.101428 0
M  V30 10 C -0.835623 0.435666 2.318566 0
M  V30 11 O -1.190276 1.284942 3.331334 0
M  V30 12 C -0.304884 1.713238 4.342787 0
M  V30 13 C 0.833575 2.469783 3.749221 0
M  V30 14 O 1.013737 2.756118 2.521234 0
M  V30 15 O 1.882804 2.978777 4.480299 0
M  V30 16 C -1.873142 0.177834 1.455221 0
M  V30 17 Cl -3.483012 0.847199 1.607162 0
M  V30 18 C -1.734517 -0.653824 0.363646 0
M  V30 19 Cl -2.941800 -1.073618 -0.799143 0
M  V30 20 H 0.897820 -3.829812 -2.771983 0
M  V30 21 H 1.126504 -3.829808 -2.648581 0
M  V30 22 H -2.434230 -3.722479 -2.674907 0
M  V30 23 H -1.014545 -3.891714 -3.756378 0
M  V30 24 H -1.969718 -2.343971 -5.073259 0
M  V30 25 H -1.612547 -1.097223 -3.865037 0
M  V30 26 H -3.227975 -1.978890 -3.887538 0
M  V30 27 H 1.546135 -1.400811 0.917815 0
M  V30 28 H 1.173582 0.070041 2.800917 0
M  V30 29 H 0.133240 0.835220 4.894267 0
M  V30 30 H -0.826172 2.373671 5.048415 0
M  V30 31 H 2.204188 3.912007 4.317819 0
M  V30 END ATOM
M  V30 BEGIN BOND
M  V30 1 2 1 2
M  V30 2 1 2 3
M  V30 3 1 3 4
M  V30 4 1 2 5
M  V30 5 2 5 6
M  V30 6 1 5 7
M  V30 7 2 7 8
M  V30 8 1 8 9
M  V30 9 2 9 10
M  V30 10 1 10 11
M  V30 11 1 11 12
M  V30 12 1 12 13
M  V30 13 2 13 14
M  V30 14 1 13 15
M  V30 15 1 10 16
M  V30 16 1 16 17
M  V30 17 2 16 18
M  V30 18 1 18 19
M  V30 19 1 18 7
M  V30 20 1 1 20
M  V30 21 1 1 21
M  V30 22 1 3 22
M  V30 23 1 3 23
M  V30 24 1 4 24
M  V30 25 1 4 25
M  V30 26 1 4 26
M  V30 27 1 8 27
M  V30 28 1 9 28
M  V30 29 1 12 29
M  V30 30 1 12 30
M  V30 31 1 15 31
M  V30 END BOND
M  V30 END CTAB
M  END
>  <Dataset>  (169) 
ChEMBL_Kinases

>  <Ligand_Instance>  (169) 
nan

>  <PDB_ID>  (169) 
nan

>  <Standardized_SMILES>  (169) 
C=C(CC)C(=O)c1ccc(OCC(=O)O)c(Cl)c1Cl

>  <Name>  (169) 
ETHACRYNIC ACID

>  <Pocket>  (169) 
nan

>  <ATP_Site>  (169) 
nan

>  <Peripheral>  (169) 
nan

>  <Num_H_Atoms_ProtBoundConf>  (169) 
nan

>  <Num_Resolved_Atoms>  (169) 
nan

>  <Num_Not_Resolved_Atoms>  (169) 
nan

$$$$
CHEMBL4559825
     RDKit          3D

  0  0  0  0  0  0  0  0  0  0999 V3000
M  V30 BEGIN CTAB
M  V30 COUNTS 64 68 0 0 0
M  V30 BEGIN ATOM
M  V30 1 C 1.549405 -5.824059 6.096960 0
M  V30 2 O 0.678871 -5.106123 5.246874 0
M  V30 3 C 1.114879 -3.926174 4.662125 0
M  V30 4 C 2.324607 -3.275805 4.762173 0
M  V30 5 C 2.509208 -2.089242 4.063774 0
M  V30 6 C 1.530002 -1.555098 3.286712 0
M  V30 7 C 1.755252 -0.306588 2.563912 0
M  V30 8 N 1.767471 -0.033942 1.247584 0
M  V30 9 N 2.015303 1.246587 1.026529 0
M  V30 10 C 2.028421 1.537664 -0.371136 0
M  V30 11 C 3.139920 1.598229 -1.191833 0
M  V30 12 C 2.981153 1.891965 -2.532377 0
M  V30 13 C 1.724930 2.128398 -3.074295 0
M  V30 14 C 0.590568 2.071086 -2.257900 0
M  V30 15 N -0.709553 2.313722 -2.810941 0
M  V30 16 C -1.393403 1.146681 -3.307233 0
M  V30 17 O -0.939930 -0.049431 -3.290163 0
M  V30 18 N -2.694921 1.178783 -3.894876 0
M  V30 19 C -3.241907 -0.070943 -4.340110 0
M  V30 20 C -3.964472 -0.679268 -3.308261 0
M  V30 21 C -4.580403 -1.894796 -3.511422 0
M  V30 22 C -5.365489 -2.582770 -2.432027 0
M  V30 23 F -6.611725 -2.026450 -2.416359 0
M  V30 24 F -4.752841 -2.253718 -1.236834 0
M  V30 25 F -5.425534 -3.934598 -2.628590 0
M  V30 26 C -4.477122 -2.501207 -4.736011 0
M  V30 27 C -3.767320 -1.898335 -5.741151 0
M  V30 28 C -3.641889 -2.538023 -7.074804 0
M  V30 29 F -3.534675 -3.920323 -6.872638 0
M  V30 30 F -4.748097 -2.309893 -7.879233 0
M  V30 31 F -2.528220 -2.093078 -7.773636 0
M  V30 32 C -3.152775 -0.697981 -5.557841 0
M  V30 33 C 0.790220 1.776182 -0.931531 0
M  V30 34 C 2.176637 1.867088 2.207807 0
M  V30 35 C 2.014576 0.897918 3.174933 0
M  V30 36 C 2.131480 1.264440 4.581259 0
M  V30 37 C 3.201293 1.786191 5.290276 0
M  V30 38 C 3.044540 2.047346 6.632210 0
M  V30 39 N 1.889954 1.812952 7.274770 0
M  V30 40 C 0.822149 1.308380 6.636448 0
M  V30 41 C 0.940614 1.030819 5.278853 0
M  V30 42 C 0.289333 -2.195039 3.166490 0
M  V30 43 C 0.109218 -3.389534 3.871916 0
M  V30 44 Cl -1.493189 -4.074688 3.624452 0
M  V30 45 H 1.243304 -6.901473 6.142523 0
M  V30 46 H 1.459870 -5.471606 7.166278 0
M  V30 47 H 2.610026 -5.726691 5.827523 0
M  V30 48 H 3.016546 -3.779073 5.394185 0
M  V30 49 H 3.487269 -1.627923 4.186712 0
M  V30 50 H 4.086546 1.401756 -0.695746 0
M  V30 51 H 3.890455 1.929425 -3.145815 0
M  V30 52 H 1.639032 2.356633 -4.133645 0
M  V30 53 H -1.210177 3.227469 -2.893500 0
M  V30 54 H -3.180676 2.115007 -3.968566 0
M  V30 55 H -4.109308 -0.280854 -2.294544 0
M  V30 56 H -4.972169 -3.461590 -4.873388 0
M  V30 57 H -2.576320 -0.137155 -6.263738 0
M  V30 58 H -0.143088 1.747585 -0.348353 0
M  V30 59 H 2.385357 2.923823 2.148378 0
M  V30 60 H 4.065532 1.925971 4.656989 0
M  V30 61 H 3.933377 2.456373 7.116743 0
M  V30 62 H -0.076752 1.139937 7.197950 0
M  V30 63 H 0.015772 0.623623 4.853645 0
M  V30 64 H -0.450667 -1.723945 2.535231 0
M  V30 END ATOM
M  V30 BEGIN BOND
M  V30 1 1 1 2
M  V30 2 1 2 3
M  V30 3 2 3 4
M  V30 4 1 4 5
M  V30 5 2 5 6
M  V30 6 1 6 7
M  V30 7 2 7 8
M  V30 8 1 8 9
M  V30 9 1 9 10
M  V30 10 2 10 11
M  V30 11 1 11 12
M  V30 12 2 12 13
M  V30 13 1 13 14
M  V30 14 1 14 15
M  V30 15 1 15 16
M  V30 16 2 16 17
M  V30 17 1 16 18
M  V30 18 1 18 19
M  V30 19 2 19 20
M  V30 20 1 20 21
M  V30 21 1 21 22
M  V30 22 1 22 23
M  V30 23 1 22 24
M  V30 24 1 22 25
M  V30 25 2 21 26
M  V30 26 1 26 27
M  V30 27 1 27 28
M  V30 28 1 28 29
M  V30 29 1 28 30
M  V30 30 1 28 31
M  V30 31 2 27 32
M  V30 32 2 14 33
M  V30 33 1 9 34
M  V30 34 2 34 35
M  V30 35 1 35 36
M  V30 36 2 36 37
M  V30 37 1 37 38
M  V30 38 2 38 39
M  V30 39 1 39 40
M  V30 40 2 40 41
M  V30 41 1 6 42
M  V30 42 2 42 43
M  V30 43 1 43 44
M  V30 44 1 43 3
M  V30 45 1 35 7
M  V30 46 1 41 36
M  V30 47 1 33 10
M  V30 48 1 32 19
M  V30 49 1 1 45
M  V30 50 1 1 46
M  V30 51 1 1 47
M  V30 52 1 4 48
M  V30 53 1 5 49
M  V30 54 1 11 50
M  V30 55 1 12 51
M  V30 56 1 13 52
M  V30 57 1 15 53
M  V30 58 1 18 54
M  V30 59 1 20 55
M  V30 60 1 26 56
M  V30 61 1 32 57
M  V30 62 1 33 58
M  V30 63 1 34 59
M  V30 64 1 37 60
M  V30 65 1 38 61
M  V30 66 1 40 62
M  V30 67 1 41 63
M  V30 68 1 42 64
M  V30 END BOND
M  V30 END CTAB
M  END
>  <Dataset>  (170) 
ChEMBL_Kinases

>  <Ligand_Instance>  (170) 
nan

>  <PDB_ID>  (170) 
nan

>  <Standardized_SMILES>  (170) 
COc1ccc(-c2nn(-c3cccc(NC(=O)Nc4cc(C(F)(F)F)cc(C(F)(F)F)c4)c3)cc2-c2ccncc2)cc1Cl

>  <Name>  (170) 
nan

>  <Pocket>  (170) 
nan

>  <ATP_Site>  (170) 
nan

>  <Peripheral>  (170) 
nan

>  <Num_H_Atoms_ProtBoundConf>  (170) 
nan

>  <Num_Resolved_Atoms>  (170) 
nan

>  <Num_Not_Resolved_Atoms>  (170) 
nan

$$$$
CHEMBL4559776
     RDKit          3D

  0  0  0  0  0  0  0  0  0  0999 V3000
M  V30 BEGIN CTAB
M  V30 COUNTS 58 64 0 0 0
M  V30 BEGIN ATOM
M  V30 1 C 0.202727 -0.804687 4.811255 0
M  V30 2 C 1.323980 -1.816283 4.903561 0
M  V30 3 O 1.194362 -2.782755 5.885882 0
M  V30 4 C 2.719557 -1.176648 4.854262 0
M  V30 5 C 2.610705 -1.287987 3.375839 0
M  V30 6 C 3.795987 -1.449872 2.531731 0
M  V30 7 N 3.112272 -0.643453 1.508015 0
M  V30 8 C 3.110334 -0.383176 0.087016 0
M  V30 9 C 2.253089 0.500093 -0.494660 0
M  V30 10 C 2.304960 0.701429 -1.859893 0
M  V30 11 N 1.379441 1.639854 -2.404534 0
M  V30 12 N 1.521110 2.865376 -2.922875 0
M  V30 13 C 0.337225 3.347339 -3.303834 0
M  V30 14 C -0.611044 2.391753 -3.019367 0
M  V30 15 C -1.977438 2.373588 -3.206614 0
M  V30 16 C -2.717899 1.260637 -2.823303 0
M  V30 17 C -2.064971 0.171260 -2.251265 0
M  V30 18 C -2.917662 -0.952447 -1.879258 0
M  V30 19 C -3.879295 -1.386586 -2.885951 0
M  V30 20 N -4.641247 -1.716935 -3.687214 0
M  V30 21 C -2.244964 -2.158712 -1.252899 0
M  V30 22 C -3.464959 -2.255359 -0.394460 0
M  V30 23 C -4.501760 -3.253992 -0.472547 0
M  V30 24 C -3.603023 -3.071003 0.781089 0
M  V30 25 C -3.629827 -0.788191 -0.526905 0
M  V30 26 C -0.697708 0.239105 -2.085726 0
M  V30 27 C 0.070550 1.325379 -2.453342 0
M  V30 28 N 3.212674 0.016040 -2.617457 0
M  V30 29 C 4.063756 -0.864927 -2.017714 0
M  V30 30 N 4.007826 -1.059819 -0.667667 0
M  V30 31 C 2.284246 -0.089422 2.591053 0
M  V30 32 C 1.600009 -2.372052 3.498354 0
M  V30 33 H -0.468340 -0.847768 5.704412 0
M  V30 34 H -0.421245 -0.989317 3.917644 0
M  V30 35 H 0.655759 0.219577 4.708714 0
M  V30 36 H 0.291070 -3.150102 5.813358 0
M  V30 37 H 2.683073 -0.167908 5.291259 0
M  V30 38 H 3.445899 -1.855477 5.347097 0
M  V30 39 H 4.096142 -2.447897 2.207306 0
M  V30 40 H 4.677421 -0.882793 2.917573 0
M  V30 41 H 1.552117 1.019118 0.146775 0
M  V30 42 H 0.136267 4.313667 -3.757222 0
M  V30 43 H -2.481427 3.238324 -3.658651 0
M  V30 44 H -3.797677 1.268836 -2.981187 0
M  V30 45 H -1.366449 -1.945074 -0.609838 0
M  V30 46 H -2.155615 -3.041039 -1.904358 0
M  V30 47 H -5.579510 -2.958343 -0.319269 0
M  V30 48 H -4.358609 -4.153615 -1.081986 0
M  V30 49 H -4.124562 -2.772978 1.692339 0
M  V30 50 H -2.921395 -3.949819 0.942174 0
M  V30 51 H -2.916203 -0.252739 0.157794 0
M  V30 52 H -4.624425 -0.351766 -0.599715 0
M  V30 53 H -0.202557 -0.621366 -1.636824 0
M  V30 54 H 4.784697 -1.410929 -2.610362 0
M  V30 55 H 2.751921 0.860737 2.908669 0
M  V30 56 H 1.226601 0.086237 2.314521 0
M  V30 57 H 1.988478 -3.414711 3.541530 0
M  V30 58 H 0.720165 -2.348253 2.834937 0
M  V30 END ATOM
M  V30 BEGIN BOND
M  V30 1 1 1 2
M  V30 2 1 2 3
M  V30 3 1 2 4
M  V30 4 1 4 5
M  V30 5 1 5 6
M  V30 6 1 6 7
M  V30 7 1 7 8
M  V30 8 2 8 9
M  V30 9 1 9 10
M  V30 10 1 10 11
M  V30 11 1 11 12
M  V30 12 2 12 13
M  V30 13 1 13 14
M  V30 14 2 14 15
M  V30 15 1 15 16
M  V30 16 2 16 17
M  V30 17 1 17 18
M  V30 18 1 18 19
M  V30 19 3 19 20
M  V30 20 1 18 21
M  V30 21 1 21 22
M  V30 22 1 22 23
M  V30 23 1 23 24
M  V30 24 1 22 25
M  V30 25 1 17 26
M  V30 26 2 26 27
M  V30 27 2 10 28
M  V30 28 1 28 29
M  V30 29 2 29 30
M  V30 30 1 7 31
M  V30 31 1 5 32
M  V30 32 1 32 2
M  V30 33 1 31 5
M  V30 34 1 30 8
M  V30 35 1 27 11
M  V30 36 1 27 14
M  V30 37 1 25 18
M  V30 38 1 24 22
M  V30 39 1 1 33
M  V30 40 1 1 34
M  V30 41 1 1 35
M  V30 42 1 3 36
M  V30 43 1 4 37
M  V30 44 1 4 38
M  V30 45 1 6 39
M  V30 46 1 6 40
M  V30 47 1 9 41
M  V30 48 1 13 42
M  V30 49 1 15 43
M  V30 50 1 16 44
M  V30 51 1 21 45
M  V30 52 1 21 46
M  V30 53 1 23 47
M  V30 54 1 23 48
M  V30 55 1 24 49
M  V30 56 1 24 50
M  V30 57 1 25 51
M  V30 58 1 25 52
M  V30 59 1 26 53
M  V30 60 1 29 54
M  V30 61 1 31 55
M  V30 62 1 31 56
M  V30 63 1 32 57
M  V30 64 1 32 58
M  V30 END BOND
M  V30 END CTAB
M  END
>  <Dataset>  (171) 
ChEMBL_Kinases

>  <Ligand_Instance>  (171) 
nan

>  <PDB_ID>  (171) 
nan

>  <Standardized_SMILES>  (171) 
CC1(O)CC2(CN(c3cc(-n4ncc5ccc(C6(C#N)CC7(CC7)C6)cc54)ncn3)C2)C1

>  <Name>  (171) 
nan

>  <Pocket>  (171) 
nan

>  <ATP_Site>  (171) 
nan

>  <Peripheral>  (171) 
nan

>  <Num_H_Atoms_ProtBoundConf>  (171) 
nan

>  <Num_Resolved_Atoms>  (171) 
nan

>  <Num_Not_Resolved_Atoms>  (171) 
nan

$$$$
CHEMBL4559690
     RDKit          3D

  0  0  0  0  0  0  0  0  0  0999 V3000
M  V30 BEGIN CTAB
M  V30 COUNTS 31 32 0 0 0
M  V30 BEGIN ATOM
M  V30 1 C -2.330161 -1.203638 2.331620 0
M  V30 2 C -1.339206 -0.400754 1.564763 0
M  V30 3 C -0.181967 -0.965091 1.171606 0
M  V30 4 S -0.067513 -2.642362 1.674661 0
M  V30 5 C 1.398237 -3.512129 1.150896 0
M  V30 6 C 1.309529 -4.924426 1.742513 0
M  V30 7 C 1.515715 -3.662901 -0.334943 0
M  V30 8 C 0.752068 -0.135463 0.420518 0
M  V30 9 O 1.794905 -0.735899 0.098160 0
M  V30 10 C 0.486483 1.257347 0.083964 0
M  V30 11 C 1.438577 1.946452 -0.629405 0
M  V30 12 C 1.187302 3.270838 -0.950518 0
M  V30 13 C -0.010067 3.877649 -0.551622 0
M  V30 14 C -0.955584 3.161657 0.167531 0
M  V30 15 C -0.693502 1.844640 0.480693 0
M  V30 16 C -1.619705 1.012678 1.228921 0
M  V30 17 O -2.695112 1.573519 1.581975 0
M  V30 18 H -2.631049 -2.087740 1.698161 0
M  V30 19 H -1.902847 -1.607009 3.271580 0
M  V30 20 H -3.231607 -0.585290 2.478093 0
M  V30 21 H 2.317281 -3.056187 1.543963 0
M  V30 22 H 0.246870 -5.185497 1.821778 0
M  V30 23 H 1.762927 -4.907186 2.736438 0
M  V30 24 H 1.759613 -5.668416 1.053760 0
M  V30 25 H 0.740121 -3.066932 -0.872289 0
M  V30 26 H 1.499813 -4.727737 -0.662205 0
M  V30 27 H 2.500081 -3.269414 -0.650189 0
M  V30 28 H 2.359572 1.474624 -0.934420 0
M  V30 29 H 1.901933 3.874280 -1.515162 0
M  V30 30 H -0.258981 4.922771 -0.779394 0
M  V30 31 H -1.899089 3.603303 0.494018 0
M  V30 END ATOM
M  V30 BEGIN BOND
M  V30 1 1 1 2
M  V30 2 2 2 3
M  V30 3 1 3 4
M  V30 4 1 4 5
M  V30 5 1 5 6
M  V30 6 1 5 7
M  V30 7 1 3 8
M  V30 8 2 8 9
M  V30 9 1 8 10
M  V30 10 2 10 11
M  V30 11 1 11 12
M  V30 12 2 12 13
M  V30 13 1 13 14
M  V30 14 2 14 15
M  V30 15 1 15 16
M  V30 16 2 16 17
M  V30 17 1 16 2
M  V30 18 1 15 10
M  V30 19 1 1 18
M  V30 20 1 1 19
M  V30 21 1 1 20
M  V30 22 1 5 21
M  V30 23 1 6 22
M  V30 24 1 6 23
M  V30 25 1 6 24
M  V30 26 1 7 25
M  V30 27 1 7 26
M  V30 28 1 7 27
M  V30 29 1 11 28
M  V30 30 1 12 29
M  V30 31 1 13 30
M  V30 32 1 14 31
M  V30 END BOND
M  V30 END CTAB
M  END
>  <Dataset>  (172) 
ChEMBL_Kinases

>  <Ligand_Instance>  (172) 
nan

>  <PDB_ID>  (172) 
nan

>  <Standardized_SMILES>  (172) 
CC1=C(SC(C)C)C(=O)c2ccccc2C1=O

>  <Name>  (172) 
nan

>  <Pocket>  (172) 
nan

>  <ATP_Site>  (172) 
nan

>  <Peripheral>  (172) 
nan

>  <Num_H_Atoms_ProtBoundConf>  (172) 
nan

>  <Num_Resolved_Atoms>  (172) 
nan

>  <Num_Not_Resolved_Atoms>  (172) 
nan

$$$$
CHEMBL4559431
     RDKit          3D

  0  0  0  0  0  0  0  0  0  0999 V3000
M  V30 BEGIN CTAB
M  V30 COUNTS 50 54 0 0 0
M  V30 BEGIN ATOM
M  V30 1 O -0.686352 -3.488265 2.430065 0
M  V30 2 C -0.748162 -2.253207 2.207151 0
M  V30 3 C 0.444358 -1.513836 1.805766 0
M  V30 4 C 1.593674 -2.119035 1.670955 0
M  V30 5 C 2.844608 -1.480973 1.276251 0
M  V30 6 C 4.015460 -2.207834 1.158223 0
M  V30 7 N 5.195453 -1.672048 0.798281 0
M  V30 8 C 5.329446 -0.359726 0.519551 0
M  V30 9 N 6.329158 0.471584 0.142620 0
M  V30 10 C 5.850779 1.727301 0.008607 0
M  V30 11 C 4.485484 1.702784 0.312150 0
M  V30 12 C 3.687776 2.923596 0.255996 0
M  V30 13 C 2.825842 3.164440 1.307047 0
M  V30 14 C 2.042094 4.310716 1.309388 0
M  V30 15 C 2.091966 5.244172 0.274470 0
M  V30 16 C 2.965283 4.959440 -0.748733 0
M  V30 17 C 3.756611 3.840085 -0.790135 0
M  V30 18 C 4.181035 0.393251 0.627765 0
M  V30 19 C 2.961019 -0.136042 0.995260 0
M  V30 20 N -1.992622 -1.588193 2.350955 0
M  V30 21 C -3.270452 -2.133962 2.732738 0
M  V30 22 C -3.833262 -2.857431 1.563874 0
M  V30 23 C -3.646402 -4.184884 1.297426 0
M  V30 24 C -4.194363 -4.808670 0.187411 0
M  V30 25 C -4.958819 -4.043891 -0.676224 0
M  V30 26 N -5.604482 -4.401199 -1.825373 0
M  V30 27 C -6.226888 -3.345209 -2.346843 0
M  V30 28 C -5.973588 -2.275321 -1.506742 0
M  V30 29 C -5.185220 -2.691394 -0.460446 0
M  V30 30 C -4.597547 -2.137649 0.681619 0
M  V30 31 H 0.389414 -0.455988 1.615495 0
M  V30 32 H 1.606752 -3.179277 1.871125 0
M  V30 33 H 4.015712 -3.284132 1.362683 0
M  V30 34 H 7.274640 0.059354 0.014082 0
M  V30 35 H 6.479279 2.559425 -0.287219 0
M  V30 36 H 2.672540 2.548410 2.171329 0
M  V30 37 H 1.336781 4.564701 2.111450 0
M  V30 38 H 1.470430 6.143601 0.286746 0
M  V30 39 H 3.013432 5.677817 -1.560254 0
M  V30 40 H 4.449298 3.629931 -1.618395 0
M  V30 41 H 2.095272 0.498560 1.063878 0
M  V30 42 H -1.984097 -0.543480 2.150132 0
M  V30 43 H -3.953068 -1.359024 3.133950 0
M  V30 44 H -3.067566 -2.873793 3.537793 0
M  V30 45 H -3.052813 -4.775881 1.973756 0
M  V30 46 H -4.006876 -5.862713 0.035956 0
M  V30 47 H -5.589727 -5.388708 -2.215686 0
M  V30 48 H -6.826103 -3.312372 -3.260606 0
M  V30 49 H -6.319062 -1.257602 -1.615255 0
M  V30 50 H -4.784608 -1.068866 0.839231 0
M  V30 END ATOM
M  V30 BEGIN BOND
M  V30 1 2 1 2
M  V30 2 1 2 3
M  V30 3 2 3 4
M  V30 4 1 4 5
M  V30 5 2 5 6
M  V30 6 1 6 7
M  V30 7 2 7 8
M  V30 8 1 8 9
M  V30 9 1 9 10
M  V30 10 2 10 11
M  V30 11 1 11 12
M  V30 12 2 12 13
M  V30 13 1 13 14
M  V30 14 2 14 15
M  V30 15 1 15 16
M  V30 16 2 16 17
M  V30 17 1 11 18
M  V30 18 2 18 19
M  V30 19 1 2 20
M  V30 20 1 20 21
M  V30 21 1 21 22
M  V30 22 2 22 23
M  V30 23 1 23 24
M  V30 24 2 24 25
M  V30 25 1 25 26
M  V30 26 1 26 27
M  V30 27 2 27 28
M  V30 28 1 28 29
M  V30 29 2 29 30
M  V30 30 1 19 5
M  V30 31 1 30 22
M  V30 32 1 18 8
M  V30 33 1 29 25
M  V30 34 1 17 12
M  V30 35 1 3 31
M  V30 36 1 4 32
M  V30 37 1 6 33
M  V30 38 1 9 34
M  V30 39 1 10 35
M  V30 40 1 13 36
M  V30 41 1 14 37
M  V30 42 1 15 38
M  V30 43 1 16 39
M  V30 44 1 17 40
M  V30 45 1 19 41
M  V30 46 1 20 42
M  V30 47 1 21 43
M  V30 48 1 21 44
M  V30 49 1 23 45
M  V30 50 1 24 46
M  V30 51 1 26 47
M  V30 52 1 27 48
M  V30 53 1 28 49
M  V30 54 1 30 50
M  V30 END BOND
M  V30 END CTAB
M  END
>  <Dataset>  (173) 
ChEMBL_Kinases

>  <Ligand_Instance>  (173) 
nan

>  <PDB_ID>  (173) 
nan

>  <Standardized_SMILES>  (173) 
O=C(/C=C/c1cnc2[nH]cc(-c3ccccc3)c2c1)NCc1ccc2[nH]ccc2c1

>  <Name>  (173) 
nan

>  <Pocket>  (173) 
nan

>  <ATP_Site>  (173) 
nan

>  <Peripheral>  (173) 
nan

>  <Num_H_Atoms_ProtBoundConf>  (173) 
nan

>  <Num_Resolved_Atoms>  (173) 
nan

>  <Num_Not_Resolved_Atoms>  (173) 
nan

$$$$
CHEMBL4559327
     RDKit          3D

  0  0  0  0  0  0  0  0  0  0999 V3000
M  V30 BEGIN CTAB
M  V30 COUNTS 91 93 0 0 0
M  V30 BEGIN ATOM
M  V30 1 C 4.385506 -8.005254 -2.342609 0
M  V30 2 C 3.270018 -7.038829 -2.002317 0
M  V30 3 C 3.797757 -5.654728 -1.631842 0
M  V30 4 C 4.572963 -5.044403 -2.758114 0
M  V30 5 C 5.112872 -3.672090 -2.432278 0
M  V30 6 C 4.009658 -2.686736 -2.091537 0
M  V30 7 C 3.040008 -2.523092 -3.236389 0
M  V30 8 C 1.980293 -1.568452 -2.829939 0
M  V30 9 O 2.609749 -1.494096 -1.749339 0
M  V30 10 O 0.979525 -0.712830 -2.541015 0
M  V30 11 C 0.745411 0.018206 -1.393339 0 CFG=1
M  V30 12 C 0.797467 1.507474 -1.635697 0
M  V30 13 C 1.045546 1.939923 -2.861433 0
M  V30 14 C 1.124248 3.339848 -3.235334 0
M  V30 15 O 1.351855 3.823484 -4.369890 0
M  V30 16 O 0.997029 4.548264 -2.573340 0
M  V30 17 C 1.123924 5.793861 -3.190342 0
M  V30 18 C 0.576708 2.484155 -0.534207 0
M  V30 19 C -0.300379 1.753738 0.499276 0 CFG=1
M  V30 20 C -1.117525 2.679205 1.330050 0
M  V30 21 C -0.925395 2.450036 2.839913 0 CFG=2
M  V30 22 C 0.503600 2.781677 3.155463 0
M  V30 23 O 0.749393 4.149224 2.885657 0
M  V30 24 O -1.116713 1.098430 3.122072 0
M  V30 25 C -2.062978 0.505358 3.897071 0
M  V30 26 O -2.684209 1.507762 4.246064 0
M  V30 27 C -2.018770 -0.947187 4.025545 0
M  V30 28 C -3.266379 -1.580329 4.596393 0
M  V30 29 O -4.380538 -1.413133 3.763473 0
M  V30 30 C -4.948646 -0.230724 3.353812 0
M  V30 31 C -5.692415 0.335357 4.363048 0
M  V30 32 C -6.343249 1.530196 4.144546 0
M  V30 33 C -6.311228 2.232150 2.957363 0
M  V30 34 Br -7.242033 3.874301 2.748431 0
M  V30 35 C -5.540831 1.606679 1.972999 0
M  V30 36 C -4.865340 0.393296 2.158396 0
M  V30 37 C -4.185422 0.084745 0.935975 0
M  V30 38 O -4.644747 0.305079 -0.213819 0
M  V30 39 O -3.085222 -0.419719 0.326845 0
M  V30 40 C -2.930329 -0.471644 -1.083990 0
M  V30 41 C -1.560393 -1.073019 -1.371188 0
M  V30 42 C -1.613215 -2.487476 -0.825478 0
M  V30 43 C -1.434192 -1.112698 -2.868526 0
M  V30 44 C -0.531038 -0.248802 -0.677649 0 CFG=1
M  V30 45 O -0.208986 -0.981592 0.505748 0
M  V30 46 O -1.144497 0.952734 -0.320199 0
M  V30 47 H 4.305519 -8.955929 -1.750418 0
M  V30 48 H 5.383874 -7.592274 -2.067096 0
M  V30 49 H 4.414284 -8.249487 -3.411725 0
M  V30 50 H 2.610061 -6.995347 -2.877425 0
M  V30 51 H 2.690554 -7.454425 -1.173459 0
M  V30 52 H 4.362363 -5.755625 -0.701849 0
M  V30 53 H 2.884884 -5.066032 -1.378002 0
M  V30 54 H 5.481809 -5.690257 -2.890102 0
M  V30 55 H 3.938940 -5.055780 -3.664441 0
M  V30 56 H 5.818690 -3.300888 -3.174511 0
M  V30 57 H 5.683432 -3.796293 -1.465467 0
M  V30 58 H 4.444722 -1.697213 -1.817783 0
M  V30 59 H 3.457176 -3.113673 -1.233358 0
M  V30 60 H 2.615939 -3.533455 -3.458952 0
M  V30 61 H 3.549572 -2.210261 -4.171289 0
M  V30 62 H 1.554664 -0.116870 -0.608222 0
M  V30 63 H 1.210949 1.290401 -3.686763 0
M  V30 64 H 1.345477 6.536891 -2.387885 0
M  V30 65 H 2.012876 5.805700 -3.860744 0
M  V30 66 H 0.198427 6.144181 -3.681766 0
M  V30 67 H -0.066329 3.292718 -0.945763 0
M  V30 68 H 1.525828 2.814762 -0.113677 0
M  V30 69 H 0.257112 1.070423 1.130494 0
M  V30 70 H -2.195541 2.491745 1.145328 0
M  V30 71 H -0.925132 3.761296 1.125981 0
M  V30 72 H -1.597357 3.137814 3.393612 0
M  V30 73 H 0.748706 2.543996 4.213370 0
M  V30 74 H 1.200126 2.203861 2.531570 0
M  V30 75 H 1.289251 4.246113 2.058502 0
M  V30 76 H -1.749555 -1.488135 3.125173 0
M  V30 77 H -1.207396 -1.190468 4.773967 0
M  V30 78 H -3.478221 -1.166682 5.593257 0
M  V30 79 H -3.067213 -2.663497 4.686059 0
M  V30 80 H -5.825648 -0.067041 5.342112 0
M  V30 81 H -6.943369 2.000139 4.939235 0
M  V30 82 H -5.553418 2.209435 1.048496 0
M  V30 83 H -2.971109 0.497432 -1.580702 0
M  V30 84 H -3.723250 -1.119581 -1.504482 0
M  V30 85 H -1.471692 -2.434682 0.266960 0
M  V30 86 H -2.630008 -2.899101 -1.016992 0
M  V30 87 H -0.894424 -3.152017 -1.349670 0
M  V30 88 H -2.471171 -1.318171 -3.278368 0
M  V30 89 H -1.129715 -0.165438 -3.329964 0
M  V30 90 H -0.844660 -1.995237 -3.223126 0
M  V30 91 H -0.905962 -0.706403 1.137778 0
M  V30 END ATOM
M  V30 BEGIN BOND
M  V30 1 1 1 2
M  V30 2 1 2 3
M  V30 3 1 3 4
M  V30 4 1 4 5
M  V30 5 1 5 6
M  V30 6 1 6 7
M  V30 7 1 7 8
M  V30 8 2 8 9
M  V30 9 1 8 10
M  V30 10 1 10 11
M  V30 11 1 11 12
M  V30 12 2 12 13
M  V30 13 1 13 14
M  V30 14 2 14 15
M  V30 15 1 14 16
M  V30 16 1 16 17
M  V30 17 1 12 18
M  V30 18 1 18 19
M  V30 19 1 19 20
M  V30 20 1 20 21
M  V30 21 1 21 22
M  V30 22 1 22 23
M  V30 23 1 21 24
M  V30 24 1 24 25
M  V30 25 2 25 26
M  V30 26 1 25 27
M  V30 27 1 27 28
M  V30 28 1 28 29
M  V30 29 1 29 30
M  V30 30 2 30 31
M  V30 31 1 31 32
M  V30 32 2 32 33
M  V30 33 1 33 34
M  V30 34 1 33 35
M  V30 35 2 35 36
M  V30 36 1 36 37
M  V30 37 2 37 38
M  V30 38 1 37 39
M  V30 39 1 39 40
M  V30 40 1 40 41
M  V30 41 1 41 42
M  V30 42 1 41 43
M  V30 43 1 41 44
M  V30 44 1 44 45 CFG=1
M  V30 45 1 44 46
M  V30 46 1 44 11
M  V30 47 1 46 19
M  V30 48 1 36 30
M  V30 49 1 1 47
M  V30 50 1 1 48
M  V30 51 1 1 49
M  V30 52 1 2 50
M  V30 53 1 2 51
M  V30 54 1 3 52
M  V30 55 1 3 53
M  V30 56 1 4 54
M  V30 57 1 4 55
M  V30 58 1 5 56
M  V30 59 1 5 57
M  V30 60 1 6 58
M  V30 61 1 6 59
M  V30 62 1 7 60
M  V30 63 1 7 61
M  V30 64 1 11 62 CFG=1
M  V30 65 1 13 63
M  V30 66 1 17 64
M  V30 67 1 17 65
M  V30 68 1 17 66
M  V30 69 1 18 67
M  V30 70 1 18 68
M  V30 71 1 19 69 CFG=1
M  V30 72 1 20 70
M  V30 73 1 20 71
M  V30 74 1 21 72 CFG=1
M  V30 75 1 22 73
M  V30 76 1 22 74
M  V30 77 1 23 75
M  V30 78 1 27 76
M  V30 79 1 27 77
M  V30 80 1 28 78
M  V30 81 1 28 79
M  V30 82 1 31 80
M  V30 83 1 32 81
M  V30 84 1 35 82
M  V30 85 1 40 83
M  V30 86 1 40 84
M  V30 87 1 42 85
M  V30 88 1 42 86
M  V30 89 1 42 87
M  V30 90 1 43 88
M  V30 91 1 43 89
M  V30 92 1 43 90
M  V30 93 1 45 91
M  V30 END BOND
M  V30 END CTAB
M  END
>  <Dataset>  (174) 
ChEMBL_Kinases

>  <Ligand_Instance>  (174) 
nan

>  <PDB_ID>  (174) 
nan

>  <Standardized_SMILES>  (174) 
CCCCCCCC(=O)O[C@H]1/C(=C/C(=O)OC)C[C@H]2C[C@H](CO)OC(=O)CCOc3ccc(Br)cc3C(=O)OCC(C)(C)[C@]1(O)O2

>  <Name>  (174) 
nan

>  <Pocket>  (174) 
nan

>  <ATP_Site>  (174) 
nan

>  <Peripheral>  (174) 
nan

>  <Num_H_Atoms_ProtBoundConf>  (174) 
nan

>  <Num_Resolved_Atoms>  (174) 
nan

>  <Num_Not_Resolved_Atoms>  (174) 
nan

$$$$
CHEMBL472689
     RDKit          3D

  0  0  0  0  0  0  0  0  0  0999 V3000
M  V30 BEGIN CTAB
M  V30 COUNTS 58 63 0 0 0
M  V30 BEGIN ATOM
M  V30 1 C -0.264430 -3.828173 0.534299 0
M  V30 2 N -0.588575 -2.421419 0.783580 0
M  V30 3 C 0.266298 -1.356987 0.857764 0
M  V30 4 C 1.639397 -1.367965 0.713274 0
M  V30 5 C 2.393393 -0.216675 0.811268 0
M  V30 6 C 3.826005 -0.348352 0.642160 0
M  V30 7 O 4.343678 -1.469268 0.416533 0
M  V30 8 N 4.817656 0.652817 0.692568 0
M  V30 9 C 6.218646 0.477135 0.518199 0
M  V30 10 C 6.617113 -0.080923 -0.829755 0
M  V30 11 N 6.191889 0.781133 -1.914527 0
M  V30 12 C 5.022889 0.746987 -2.590115 0
M  V30 13 C 5.026389 1.746994 -3.547433 0
M  V30 14 C 6.238360 2.388981 -3.428989 0
M  V30 15 C 6.937493 1.777880 -2.419044 0
M  V30 16 C 1.673829 0.925362 1.061096 0
M  V30 17 O 2.355208 2.113788 1.172323 0
M  V30 18 C 0.307939 0.935479 1.204703 0
M  V30 19 C -0.437360 -0.198769 1.108418 0
M  V30 20 C -1.734734 -0.614160 1.179709 0
M  V30 21 C -2.877639 0.089039 1.406321 0
M  V30 22 C -4.098379 -0.539638 1.436955 0
M  V30 23 C -4.190487 -1.909981 1.236567 0
M  V30 24 C -5.467463 -2.612337 1.261807 0
M  V30 25 C -5.863755 -3.090380 2.507477 0
M  V30 26 C -7.053377 -3.768455 2.643992 0
M  V30 27 C -7.842120 -3.965139 1.530819 0
M  V30 28 C -7.463422 -3.498419 0.293335 0
M  V30 29 C -6.274799 -2.817426 0.140327 0
M  V30 30 Cl -5.714164 -2.188932 -1.394356 0
M  V30 31 C -3.033066 -2.624833 1.006655 0
M  V30 32 C -1.818042 -1.973286 0.980121 0
M  V30 33 C -5.206709 0.374886 1.692339 0
M  V30 34 O -6.432543 0.105946 1.778620 0
M  V30 35 N -4.549487 1.653198 1.819845 0
M  V30 36 C -3.155292 1.470493 1.646857 0
M  V30 37 O -2.491254 2.508268 1.736798 0
M  V30 38 H -0.376346 -4.364735 1.499832 0
M  V30 39 H 0.796821 -3.934583 0.237475 0
M  V30 40 H -0.976711 -4.272903 -0.197150 0
M  V30 41 H 2.136919 -2.323197 0.515165 0
M  V30 42 H 4.517304 1.632334 0.875042 0
M  V30 43 H 6.824347 1.346681 0.799908 0
M  V30 44 H 6.521979 -0.329978 1.253253 0
M  V30 45 H 7.715176 -0.282256 -0.874913 0
M  V30 46 H 6.141348 -1.065776 -0.978313 0
M  V30 47 H 4.193605 0.047003 -2.421030 0
M  V30 48 H 4.262442 2.013198 -4.265745 0
M  V30 49 H 6.622279 3.234058 -4.007147 0
M  V30 50 H 7.922960 2.049722 -2.082719 0
M  V30 51 H 2.046455 2.909964 1.690762 0
M  V30 52 H -0.158499 1.853564 1.393890 0
M  V30 53 H -5.260390 -2.946474 3.390202 0
M  V30 54 H -7.395796 -4.153933 3.589069 0
M  V30 55 H -8.800374 -4.488616 1.532641 0
M  V30 56 H -8.043827 -3.624055 -0.616660 0
M  V30 57 H -3.105482 -3.697791 0.849783 0
M  V30 58 H -5.158686 2.503052 2.013411 0
M  V30 END ATOM
M  V30 BEGIN BOND
M  V30 1 1 1 2
M  V30 2 1 2 3
M  V30 3 2 3 4
M  V30 4 1 4 5
M  V30 5 1 5 6
M  V30 6 2 6 7
M  V30 7 1 6 8
M  V30 8 1 8 9
M  V30 9 1 9 10
M  V30 10 1 10 11
M  V30 11 1 11 12
M  V30 12 2 12 13
M  V30 13 1 13 14
M  V30 14 2 14 15
M  V30 15 2 5 16
M  V30 16 1 16 17
M  V30 17 1 16 18
M  V30 18 2 18 19
M  V30 19 1 19 20
M  V30 20 2 20 21
M  V30 21 1 21 22
M  V30 22 2 22 23
M  V30 23 1 23 24
M  V30 24 2 24 25
M  V30 25 1 25 26
M  V30 26 2 26 27
M  V30 27 1 27 28
M  V30 28 2 28 29
M  V30 29 1 29 30
M  V30 30 1 23 31
M  V30 31 2 31 32
M  V30 32 1 22 33
M  V30 33 2 33 34
M  V30 34 1 33 35
M  V30 35 1 35 36
M  V30 36 2 36 37
M  V30 37 1 32 2
M  V30 38 1 19 3
M  V30 39 1 32 20
M  V30 40 1 15 11
M  V30 41 1 36 21
M  V30 42 1 29 24
M  V30 43 1 1 38
M  V30 44 1 1 39
M  V30 45 1 1 40
M  V30 46 1 4 41
M  V30 47 1 8 42
M  V30 48 1 9 43
M  V30 49 1 9 44
M  V30 50 1 10 45
M  V30 51 1 10 46
M  V30 52 1 12 47
M  V30 53 1 13 48
M  V30 54 1 14 49
M  V30 55 1 15 50
M  V30 56 1 17 51
M  V30 57 1 18 52
M  V30 58 1 25 53
M  V30 59 1 26 54
M  V30 60 1 27 55
M  V30 61 1 28 56
M  V30 62 1 31 57
M  V30 63 1 35 58
M  V30 END BOND
M  V30 END CTAB
M  END
>  <Dataset>  (175) 
ChEMBL_Kinases

>  <Ligand_Instance>  (175) 
nan

>  <PDB_ID>  (175) 
nan

>  <Standardized_SMILES>  (175) 
Cn1c2cc(C(=O)NCCn3cccc3)c(O)cc2c2c3c(c(-c4ccccc4Cl)cc21)C(=O)NC3=O

>  <Name>  (175) 
nan

>  <Pocket>  (175) 
nan

>  <ATP_Site>  (175) 
nan

>  <Peripheral>  (175) 
nan

>  <Num_H_Atoms_ProtBoundConf>  (175) 
nan

>  <Num_Resolved_Atoms>  (175) 
nan

>  <Num_Not_Resolved_Atoms>  (175) 
nan

$$$$
CHEMBL4559183
     RDKit          3D

  0  0  0  0  0  0  0  0  0  0999 V3000
M  V30 BEGIN CTAB
M  V30 COUNTS 58 60 0 0 0
M  V30 BEGIN ATOM
M  V30 1 C 5.010584 -1.231670 8.589008 0
M  V30 2 C 4.474544 -0.349357 7.484002 0
M  V30 3 O 4.884981 -0.865940 6.236184 0
M  V30 4 C 4.549567 -0.274590 5.027425 0
M  V30 5 O 3.851158 0.750595 5.225728 0
M  V30 6 N 4.943277 -0.764120 3.751410 0
M  V30 7 C 4.438255 0.068916 2.686742 0
M  V30 8 C 3.191993 -0.207479 2.126545 0
M  V30 9 C 2.759521 0.619197 1.114402 0
M  V30 10 C 3.514845 1.680642 0.661576 0
M  V30 11 C 4.744524 1.925943 1.238618 0
M  V30 12 N 5.162994 1.110125 2.232091 0
M  V30 13 O 3.098929 2.526063 -0.356490 0
M  V30 14 C 1.867519 2.382032 -1.024321 0
M  V30 15 C 1.077273 1.247128 -0.528937 0
M  V30 16 C -0.148794 1.017392 -1.117366 0
M  V30 17 C -0.981696 -0.018292 -0.737466 0
M  V30 18 O -2.212398 -0.217481 -1.355964 0
M  V30 19 C -3.067774 -1.276749 -0.969675 0
M  V30 20 C -4.344534 -1.282466 -1.789411 0 CFG=1
M  V30 21 C -5.338649 -2.286900 -1.272640 0
M  V30 22 N -4.966031 0.024055 -1.519005 0
M  V30 23 C -4.093129 -1.329858 -3.249820 0
M  V30 24 C -3.343798 -2.501078 -3.773193 0
M  V30 25 C -3.954975 -3.833549 -3.542722 0
M  V30 26 C -3.276471 -2.310604 -5.290704 0
M  V30 27 C -0.546105 -0.861884 0.291636 0
M  V30 28 C 0.664210 -0.646353 0.882481 0
M  V30 29 C 1.469903 0.393954 0.480908 0
M  V30 30 H 5.859778 -0.759335 9.146976 0
M  V30 31 H 4.164251 -1.463696 9.295888 0
M  V30 32 H 5.294412 -2.204774 8.154706 0
M  V30 33 H 3.349839 -0.401619 7.477186 0
M  V30 34 H 4.756794 0.713743 7.620236 0
M  V30 35 H 5.520763 -1.626766 3.784460 0
M  V30 36 H 2.644514 -1.048066 2.517889 0
M  V30 37 H 5.384040 2.752355 0.919300 0
M  V30 38 H 2.090465 2.316330 -2.104765 0
M  V30 39 H 1.280500 3.316996 -0.854866 0
M  V30 40 H -0.525659 1.648470 -1.920176 0
M  V30 41 H -2.508437 -2.219837 -1.182782 0
M  V30 42 H -3.320715 -1.186146 0.100465 0
M  V30 43 H -5.965367 -2.606359 -2.126768 0
M  V30 44 H -6.060366 -1.860591 -0.537877 0
M  V30 45 H -4.859648 -3.127470 -0.733822 0
M  V30 46 H -4.197113 0.744296 -1.617851 0
M  V30 47 H -5.224893 0.047281 -0.493286 0
M  V30 48 H -3.508779 -0.422703 -3.510976 0
M  V30 49 H -5.063075 -1.207395 -3.765412 0
M  V30 50 H -2.301879 -2.518192 -3.413703 0
M  V30 51 H -3.780768 -4.274774 -2.544604 0
M  V30 52 H -3.405260 -4.540368 -4.234817 0
M  V30 53 H -5.003249 -3.905752 -3.900267 0
M  V30 54 H -2.959843 -1.259718 -5.477438 0
M  V30 55 H -4.350145 -2.353658 -5.637852 0
M  V30 56 H -2.657941 -3.059949 -5.791508 0
M  V30 57 H -1.241881 -1.667953 0.556601 0
M  V30 58 H 0.904544 -1.349873 1.661286 0
M  V30 END ATOM
M  V30 BEGIN BOND
M  V30 1 1 1 2
M  V30 2 1 2 3
M  V30 3 1 3 4
M  V30 4 2 4 5
M  V30 5 1 4 6
M  V30 6 1 6 7
M  V30 7 2 7 8
M  V30 8 1 8 9
M  V30 9 2 9 10
M  V30 10 1 10 11
M  V30 11 2 11 12
M  V30 12 1 10 13
M  V30 13 1 13 14
M  V30 14 1 14 15
M  V30 15 2 15 16
M  V30 16 1 16 17
M  V30 17 1 17 18
M  V30 18 1 18 19
M  V30 19 1 19 20
M  V30 20 1 20 21
M  V30 21 1 20 22 CFG=3
M  V30 22 1 20 23
M  V30 23 1 23 24
M  V30 24 1 24 25
M  V30 25 1 24 26
M  V30 26 2 17 27
M  V30 27 1 27 28
M  V30 28 2 28 29
M  V30 29 1 12 7
M  V30 30 1 29 15
M  V30 31 1 29 9
M  V30 32 1 1 30
M  V30 33 1 1 31
M  V30 34 1 1 32
M  V30 35 1 2 33
M  V30 36 1 2 34
M  V30 37 1 6 35
M  V30 38 1 8 36
M  V30 39 1 11 37
M  V30 40 1 14 38
M  V30 41 1 14 39
M  V30 42 1 16 40
M  V30 43 1 19 41
M  V30 44 1 19 42
M  V30 45 1 21 43
M  V30 46 1 21 44
M  V30 47 1 21 45
M  V30 48 1 22 46
M  V30 49 1 22 47
M  V30 50 1 23 48
M  V30 51 1 23 49
M  V30 52 1 24 50
M  V30 53 1 25 51
M  V30 54 1 25 52
M  V30 55 1 25 53
M  V30 56 1 26 54
M  V30 57 1 26 55
M  V30 58 1 26 56
M  V30 59 1 27 57
M  V30 60 1 28 58
M  V30 END BOND
M  V30 END CTAB
M  END
>  <Dataset>  (176) 
ChEMBL_Kinases

>  <Ligand_Instance>  (176) 
nan

>  <PDB_ID>  (176) 
nan

>  <Standardized_SMILES>  (176) 
CCOC(=O)Nc1cc2c(cn1)OCc1cc(OC[C@@](C)(N)CC(C)C)ccc1-2

>  <Name>  (176) 
nan

>  <Pocket>  (176) 
nan

>  <ATP_Site>  (176) 
nan

>  <Peripheral>  (176) 
nan

>  <Num_H_Atoms_ProtBoundConf>  (176) 
nan

>  <Num_Resolved_Atoms>  (176) 
nan

>  <Num_Not_Resolved_Atoms>  (176) 
nan

$$$$
CHEMBL4559169
     RDKit          3D

  0  0  0  0  0  0  0  0  0  0999 V3000
M  V30 BEGIN CTAB
M  V30 COUNTS 46 49 0 0 0
M  V30 BEGIN ATOM
M  V30 1 N 0.175984 1.044766 3.179341 0
M  V30 2 C 1.146402 0.387235 2.368010 0
M  V30 3 N 2.396375 0.077569 2.734649 0
M  V30 4 C 3.242030 -0.544974 1.895570 0
M  V30 5 C 2.858520 -0.900416 0.597355 0
M  V30 6 C 3.816069 -1.576869 -0.280484 0
M  V30 7 C 3.680189 -1.314227 -1.628820 0
M  V30 8 C 4.546260 -1.914383 -2.521240 0
M  V30 9 C 5.520807 -2.760595 -2.017181 0
M  V30 10 C 5.663948 -3.030373 -0.656996 0
M  V30 11 C 4.775843 -2.409375 0.208668 0
M  V30 12 C 1.575163 -0.579585 0.228520 0
M  V30 13 C 0.700516 0.059729 1.084543 0
M  V30 14 N -0.586683 0.306552 0.519122 0
M  V30 15 C -1.694684 0.222273 1.134157 0
M  V30 16 C -2.980221 0.497077 0.464170 0
M  V30 17 C -4.170894 0.401588 1.147893 0
M  V30 18 C -5.368105 0.659416 0.513643 0
M  V30 19 N -5.343115 1.007487 -0.793582 0
M  V30 20 C -4.186076 1.106215 -1.479813 0
M  V30 21 N -4.270082 1.484960 -2.873485 0
M  V30 22 C -4.390501 0.280685 -3.617544 0
M  V30 23 O -4.395339 -0.771581 -2.928252 0
M  V30 24 C -4.507768 0.183298 -5.112635 0
M  V30 25 C -5.502651 -0.849019 -5.565016 0
M  V30 26 C -4.048683 -1.048101 -5.788906 0
M  V30 27 C -2.959402 0.852884 -0.870387 0
M  V30 28 H -0.267306 2.008758 3.145624 0
M  V30 29 H -0.073134 0.339565 3.920076 0
M  V30 30 H 4.235747 -0.764603 2.257877 0
M  V30 31 H 2.921145 -0.650679 -2.060283 0
M  V30 32 H 4.464455 -1.728104 -3.583205 0
M  V30 33 H 6.178941 -3.210104 -2.753654 0
M  V30 34 H 6.437562 -3.696061 -0.310564 0
M  V30 35 H 4.844605 -2.586176 1.278741 0
M  V30 36 H 1.317475 -0.873034 -0.786211 0
M  V30 37 H -1.677394 -0.060629 2.178722 0
M  V30 38 H -4.208777 0.128079 2.179954 0
M  V30 39 H -6.326927 0.596740 1.011922 0
M  V30 40 H -4.263554 2.379693 -3.431791 0
M  V30 41 H -4.497439 1.144058 -5.657981 0
M  V30 42 H -5.975319 -1.514556 -4.804349 0
M  V30 43 H -6.185018 -0.588588 -6.415579 0
M  V30 44 H -3.517724 -1.852402 -5.250993 0
M  V30 45 H -3.733064 -0.948753 -6.860937 0
M  V30 46 H -2.076551 0.946612 -1.463225 0
M  V30 END ATOM
M  V30 BEGIN BOND
M  V30 1 1 1 2
M  V30 2 2 2 3
M  V30 3 1 3 4
M  V30 4 2 4 5
M  V30 5 1 5 6
M  V30 6 2 6 7
M  V30 7 1 7 8
M  V30 8 2 8 9
M  V30 9 1 9 10
M  V30 10 2 10 11
M  V30 11 1 5 12
M  V30 12 2 12 13
M  V30 13 1 13 14
M  V30 14 2 14 15
M  V30 15 1 15 16
M  V30 16 2 16 17
M  V30 17 1 17 18
M  V30 18 2 18 19
M  V30 19 1 19 20
M  V30 20 1 20 21
M  V30 21 1 21 22
M  V30 22 2 22 23
M  V30 23 1 22 24
M  V30 24 1 24 25
M  V30 25 1 25 26
M  V30 26 2 20 27
M  V30 27 1 13 2
M  V30 28 1 27 16
M  V30 29 1 11 6
M  V30 30 1 26 24
M  V30 31 1 1 28
M  V30 32 1 1 29
M  V30 33 1 4 30
M  V30 34 1 7 31
M  V30 35 1 8 32
M  V30 36 1 9 33
M  V30 37 1 10 34
M  V30 38 1 11 35
M  V30 39 1 12 36
M  V30 40 1 15 37
M  V30 41 1 17 38
M  V30 42 1 18 39
M  V30 43 1 21 40
M  V30 44 1 24 41
M  V30 45 1 25 42
M  V30 46 1 25 43
M  V30 47 1 26 44
M  V30 48 1 26 45
M  V30 49 1 27 46
M  V30 END BOND
M  V30 END CTAB
M  END
>  <Dataset>  (177) 
ChEMBL_Kinases

>  <Ligand_Instance>  (177) 
nan

>  <PDB_ID>  (177) 
nan

>  <Standardized_SMILES>  (177) 
Nc1ncc(-c2ccccc2)cc1/N=C/c1ccnc(NC(=O)C2CC2)c1

>  <Name>  (177) 
nan

>  <Pocket>  (177) 
nan

>  <ATP_Site>  (177) 
nan

>  <Peripheral>  (177) 
nan

>  <Num_H_Atoms_ProtBoundConf>  (177) 
nan

>  <Num_Resolved_Atoms>  (177) 
nan

>  <Num_Not_Resolved_Atoms>  (177) 
nan

$$$$
CHEMBL4558980
     RDKit          3D

  0  0  0  0  0  0  0  0  0  0999 V3000
M  V30 BEGIN CTAB
M  V30 COUNTS 34 37 0 0 0
M  V30 BEGIN ATOM
M  V30 1 N 1.273133 -2.141344 2.950071 0
M  V30 2 C 0.103048 -1.458304 2.562227 0
M  V30 3 O -0.469216 -1.657413 3.661219 0
M  V30 4 C -0.492749 -0.741625 1.474829 0
M  V30 5 C 0.057557 -0.482551 0.243386 0
M  V30 6 C 1.359886 -0.847259 -0.302401 0
M  V30 7 C 1.773838 -2.150235 -0.158308 0
M  V30 8 C 3.009802 -2.483420 -0.670088 0
M  V30 9 C 3.738741 -1.484075 -1.288944 0
M  V30 10 S 5.399289 -1.483642 -2.095415 0
M  V30 11 C 5.247136 0.386708 -2.517366 0
M  V30 12 N 4.197310 0.640961 -2.074973 0
M  V30 13 C 3.350874 -0.155584 -1.452771 0
M  V30 14 C 2.090969 0.143202 -0.920055 0
M  V30 15 N -0.907040 0.228335 -0.395178 0
M  V30 16 N -1.952739 0.373883 0.411863 0
M  V30 17 C -1.755894 -0.218653 1.616085 0
M  V30 18 N -2.752449 -0.181755 2.629637 0
M  V30 19 C -4.082027 0.328455 2.310899 0
M  V30 20 C -4.294785 0.239447 0.814379 0
M  V30 21 C -3.202554 1.068826 0.124021 0
M  V30 22 H 1.487574 -3.161234 2.911251 0
M  V30 23 H 2.145010 -1.692108 3.356740 0
M  V30 24 H 1.236940 -2.958070 0.309514 0
M  V30 25 H 3.480768 -3.448382 -0.642930 0
M  V30 26 H 5.920251 1.123202 -3.039467 0
M  V30 27 H 1.657997 1.155254 -0.978109 0
M  V30 28 H -2.510801 -0.522726 3.587380 0
M  V30 29 H -4.229656 1.373195 2.597887 0
M  V30 30 H -4.871813 -0.317503 2.791392 0
M  V30 31 H -4.121769 -0.811773 0.453276 0
M  V30 32 H -5.279908 0.601021 0.522571 0
M  V30 33 H -3.388792 1.134360 -0.962898 0
M  V30 34 H -3.219539 2.057321 0.628521 0
M  V30 END ATOM
M  V30 BEGIN BOND
M  V30 1 1 1 2
M  V30 2 2 2 3
M  V30 3 1 2 4
M  V30 4 1 4 5
M  V30 5 1 5 6
M  V30 6 2 6 7
M  V30 7 1 7 8
M  V30 8 2 8 9
M  V30 9 1 9 10
M  V30 10 1 10 11
M  V30 11 2 11 12
M  V30 12 1 12 13
M  V30 13 2 13 14
M  V30 14 2 5 15
M  V30 15 1 15 16
M  V30 16 1 16 17
M  V30 17 1 17 18
M  V30 18 1 18 19
M  V30 19 1 19 20
M  V30 20 1 20 21
M  V30 21 2 17 4
M  V30 22 1 14 6
M  V30 23 1 21 16
M  V30 24 1 13 9
M  V30 25 1 1 22
M  V30 26 1 1 23
M  V30 27 1 7 24
M  V30 28 1 8 25
M  V30 29 1 11 26
M  V30 30 1 14 27
M  V30 31 1 18 28
M  V30 32 1 19 29
M  V30 33 1 19 30
M  V30 34 1 20 31
M  V30 35 1 20 32
M  V30 36 1 21 33
M  V30 37 1 21 34
M  V30 END BOND
M  V30 END CTAB
M  END
>  <Dataset>  (178) 
ChEMBL_Kinases

>  <Ligand_Instance>  (178) 
nan

>  <PDB_ID>  (178) 
nan

>  <Standardized_SMILES>  (178) 
NC(=O)c1c(-c2ccc3scnc3c2)nn2c1NCCC2

>  <Name>  (178) 
nan

>  <Pocket>  (178) 
nan

>  <ATP_Site>  (178) 
nan

>  <Peripheral>  (178) 
nan

>  <Num_H_Atoms_ProtBoundConf>  (178) 
nan

>  <Num_Resolved_Atoms>  (178) 
nan

>  <Num_Not_Resolved_Atoms>  (178) 
nan

$$$$
CHEMBL4558505
     RDKit          3D

  0  0  0  0  0  0  0  0  0  0999 V3000
M  V30 BEGIN CTAB
M  V30 COUNTS 49 52 0 0 0
M  V30 BEGIN ATOM
M  V30 1 C -4.401208 -6.056563 4.316097 0
M  V30 2 O -3.594378 -6.403119 3.208556 0
M  V30 3 C -2.899136 -5.429336 2.523366 0
M  V30 4 C -3.039597 -4.134244 2.977753 0
M  V30 5 C -2.403021 -3.051346 2.390725 0
M  V30 6 C -1.604828 -3.368812 1.299977 0
M  V30 7 C -0.912860 -2.251248 0.651072 0
M  V30 8 C -0.538106 -1.200317 1.466527 0
M  V30 9 N 0.096313 -0.166838 0.890758 0
M  V30 10 C 0.400944 -0.060732 -0.409157 0
M  V30 11 C 1.021280 0.921474 -1.048448 0
M  V30 12 C 1.571657 2.227001 -0.477524 0
M  V30 13 C 1.479459 2.551076 0.852422 0
M  V30 14 C 1.976549 3.728734 1.363182 0
M  V30 15 C 2.592611 4.621999 0.508997 0
M  V30 16 O 3.115246 5.826669 0.957863 0
M  V30 17 C 3.055142 6.222059 2.306422 0
M  V30 18 C 2.693944 4.314841 -0.824027 0
M  V30 19 O 3.313409 5.217455 -1.671460 0
M  V30 20 C 3.445709 4.944721 -3.071970 0
M  V30 21 C 2.189885 3.132820 -1.309813 0
M  V30 22 S 1.158732 0.564064 -2.700123 0
M  V30 23 N 0.293692 -1.095096 -2.568554 0
M  V30 24 C 0.039458 -1.092721 -1.243672 0
M  V30 25 C -0.616155 -2.178643 -0.695533 0
M  V30 26 C -1.442388 -4.639973 0.822581 0
M  V30 27 C -2.095615 -5.690025 1.437858 0
M  V30 28 O -2.044863 -7.033364 1.088487 0
M  V30 29 C -1.245346 -7.393346 -0.012637 0
M  V30 30 H -3.770400 -5.609725 5.132474 0
M  V30 31 H -5.178479 -5.321333 4.096356 0
M  V30 32 H -4.779946 -7.030614 4.718138 0
M  V30 33 H -3.668206 -3.886179 3.836168 0
M  V30 34 H -2.534033 -2.045813 2.771725 0
M  V30 35 H -0.718454 -1.143445 2.550091 0
M  V30 36 H 1.007689 1.882674 1.545698 0
M  V30 37 H 1.879620 3.938795 2.418864 0
M  V30 38 H 3.288621 7.308575 2.361290 0
M  V30 39 H 3.689861 5.634120 2.980356 0
M  V30 40 H 2.002436 6.108906 2.659284 0
M  V30 41 H 3.978790 3.987464 -3.236717 0
M  V30 42 H 3.999438 5.781499 -3.542977 0
M  V30 43 H 2.440720 4.898484 -3.566606 0
M  V30 44 H 2.291619 2.931972 -2.366888 0
M  V30 45 H -0.965496 -3.063079 -1.208217 0
M  V30 46 H -0.836385 -4.898588 -0.008878 0
M  V30 47 H -1.572701 -8.429664 -0.319416 0
M  V30 48 H -0.172897 -7.504841 0.238450 0
M  V30 49 H -1.395423 -6.673849 -0.843316 0
M  V30 END ATOM
M  V30 BEGIN BOND
M  V30 1 1 1 2
M  V30 2 1 2 3
M  V30 3 2 3 4
M  V30 4 1 4 5
M  V30 5 2 5 6
M  V30 6 1 6 7
M  V30 7 1 7 8
M  V30 8 2 8 9
M  V30 9 1 9 10
M  V30 10 2 10 11
M  V30 11 1 11 12
M  V30 12 2 12 13
M  V30 13 1 13 14
M  V30 14 2 14 15
M  V30 15 1 15 16
M  V30 16 1 16 17
M  V30 17 1 15 18
M  V30 18 1 18 19
M  V30 19 1 19 20
M  V30 20 2 18 21
M  V30 21 1 11 22
M  V30 22 1 22 23
M  V30 23 2 23 24
M  V30 24 1 24 25
M  V30 25 1 6 26
M  V30 26 2 26 27
M  V30 27 1 27 28
M  V30 28 1 28 29
M  V30 29 1 27 3
M  V30 30 2 25 7
M  V30 31 1 24 10
M  V30 32 1 21 12
M  V30 33 1 1 30
M  V30 34 1 1 31
M  V30 35 1 1 32
M  V30 36 1 4 33
M  V30 37 1 5 34
M  V30 38 1 8 35
M  V30 39 1 13 36
M  V30 40 1 14 37
M  V30 41 1 17 38
M  V30 42 1 17 39
M  V30 43 1 17 40
M  V30 44 1 20 41
M  V30 45 1 20 42
M  V30 46 1 20 43
M  V30 47 1 21 44
M  V30 48 1 25 45
M  V30 49 1 26 46
M  V30 50 1 29 47
M  V30 51 1 29 48
M  V30 52 1 29 49
M  V30 END BOND
M  V30 END CTAB
M  END
>  <Dataset>  (179) 
ChEMBL_Kinases

>  <Ligand_Instance>  (179) 
nan

>  <PDB_ID>  (179) 
nan

>  <Standardized_SMILES>  (179) 
COc1ccc(-c2cnc3c(-c4ccc(OC)c(OC)c4)snc3c2)cc1OC

>  <Name>  (179) 
nan

>  <Pocket>  (179) 
nan

>  <ATP_Site>  (179) 
nan

>  <Peripheral>  (179) 
nan

>  <Num_H_Atoms_ProtBoundConf>  (179) 
nan

>  <Num_Resolved_Atoms>  (179) 
nan

>  <Num_Not_Resolved_Atoms>  (179) 
nan

$$$$
CHEMBL4558319
     RDKit          3D

  0  0  0  0  0  0  0  0  0  0999 V3000
M  V30 BEGIN CTAB
M  V30 COUNTS 40 43 0 0 0
M  V30 BEGIN ATOM
M  V30 1 N 1.716198 -5.298130 3.145836 0
M  V30 2 C 2.549977 -4.386589 2.371076 0
M  V30 3 C 1.764860 -3.209123 1.913440 0
M  V30 4 C 1.086579 -3.183227 0.712005 0
M  V30 5 C 0.383497 -2.045850 0.369640 0
M  V30 6 C 0.311458 -0.894030 1.176364 0
M  V30 7 N -0.506026 0.125788 0.659820 0
M  V30 8 C -0.341819 1.187588 -0.102341 0
M  V30 9 C 0.815961 1.744559 -0.738038 0
M  V30 10 C 0.616173 2.886993 -1.484295 0
M  V30 11 C 1.637525 3.518608 -2.145038 0
M  V30 12 C 2.936293 3.080410 -2.126753 0
M  V30 13 N 3.130026 1.966080 -1.398580 0
M  V30 14 C 2.124357 1.375392 -0.769562 0
M  V30 15 N 2.560058 0.236354 -0.075147 0
M  V30 16 N -1.566846 1.706395 -0.190112 0
M  V30 17 C -2.460540 0.995368 0.491277 0
M  V30 18 C -3.812606 1.298420 0.578889 0
M  V30 19 C -4.569035 0.409552 1.352018 0
M  V30 20 Br -6.440474 0.695788 1.564427 0
M  V30 21 C -3.918347 -0.641211 1.928953 0
M  V30 22 N -2.609509 -0.828212 1.771376 0
M  V30 23 C -1.777825 -0.054193 1.060406 0
M  V30 24 C 1.017420 -0.962429 2.393116 0
M  V30 25 C 1.719320 -2.100486 2.732804 0
M  V30 26 H 1.021386 -4.700611 3.663172 0
M  V30 27 H 1.117519 -5.844628 2.470619 0
M  V30 28 H 2.945738 -4.956664 1.501851 0
M  V30 29 H 3.350255 -4.039518 3.044668 0
M  V30 30 H 1.111179 -4.042653 0.057527 0
M  V30 31 H -0.130588 -2.099610 -0.600650 0
M  V30 32 H -0.368207 3.365689 -1.599510 0
M  V30 33 H 1.411254 4.407675 -2.710368 0
M  V30 34 H 3.679691 3.633348 -2.672162 0
M  V30 35 H 2.798527 0.642173 0.878297 0
M  V30 36 H 2.461760 -0.523883 -0.810829 0
M  V30 37 H -4.244860 2.139653 0.097658 0
M  V30 38 H -4.468232 -1.354399 2.536833 0
M  V30 39 H 0.918358 -0.048475 2.957722 0
M  V30 40 H 2.233024 -2.050358 3.699420 0
M  V30 END ATOM
M  V30 BEGIN BOND
M  V30 1 1 1 2
M  V30 2 1 2 3
M  V30 3 2 3 4
M  V30 4 1 4 5
M  V30 5 2 5 6
M  V30 6 1 6 7
M  V30 7 1 7 8
M  V30 8 1 8 9
M  V30 9 2 9 10
M  V30 10 1 10 11
M  V30 11 2 11 12
M  V30 12 1 12 13
M  V30 13 2 13 14
M  V30 14 1 14 15
M  V30 15 2 8 16
M  V30 16 1 16 17
M  V30 17 2 17 18
M  V30 18 1 18 19
M  V30 19 1 19 20
M  V30 20 2 19 21
M  V30 21 1 21 22
M  V30 22 2 22 23
M  V30 23 1 6 24
M  V30 24 2 24 25
M  V30 25 1 25 3
M  V30 26 1 23 7
M  V30 27 1 14 9
M  V30 28 1 23 17
M  V30 29 1 1 26
M  V30 30 1 1 27
M  V30 31 1 2 28
M  V30 32 1 2 29
M  V30 33 1 4 30
M  V30 34 1 5 31
M  V30 35 1 10 32
M  V30 36 1 11 33
M  V30 37 1 12 34
M  V30 38 1 15 35
M  V30 39 1 15 36
M  V30 40 1 18 37
M  V30 41 1 21 38
M  V30 42 1 24 39
M  V30 43 1 25 40
M  V30 END BOND
M  V30 END CTAB
M  END
>  <Dataset>  (180) 
ChEMBL_Kinases

>  <Ligand_Instance>  (180) 
nan

>  <PDB_ID>  (180) 
nan

>  <Standardized_SMILES>  (180) 
NCc1ccc(-n2c(-c3cccnc3N)nc3cc(Br)cnc32)cc1

>  <Name>  (180) 
nan

>  <Pocket>  (180) 
nan

>  <ATP_Site>  (180) 
nan

>  <Peripheral>  (180) 
nan

>  <Num_H_Atoms_ProtBoundConf>  (180) 
nan

>  <Num_Resolved_Atoms>  (180) 
nan

>  <Num_Not_Resolved_Atoms>  (180) 
nan

$$$$
CHEMBL4558273
     RDKit          3D

  0  0  0  0  0  0  0  0  0  0999 V3000
M  V30 BEGIN CTAB
M  V30 COUNTS 36 38 0 0 0
M  V30 BEGIN ATOM
M  V30 1 C -0.762899 -3.639677 0.864524 0
M  V30 2 N 0.135725 -4.291578 1.763063 0
M  V30 3 C -0.205688 -5.696197 1.836020 0
M  V30 4 C 1.524463 -4.161845 1.394466 0
M  V30 5 N 1.939839 -2.783616 1.398088 0
M  V30 6 C 1.666373 -1.533032 0.791498 0
M  V30 7 N 2.443459 -1.278293 -0.294440 0
M  V30 8 C 2.347167 -0.149624 -1.017587 0
M  V30 9 C 1.405633 0.765182 -0.606429 0
M  V30 10 C 1.215534 1.968149 -1.280592 0
M  V30 11 C 0.293316 2.930501 -0.933979 0
M  V30 12 C 0.163764 4.097238 -1.658912 0
M  V30 13 N -0.772359 5.011271 -1.266846 0
M  V30 14 C -1.548431 4.763667 -0.188895 0
M  V30 15 C -1.440022 3.590503 0.564505 0
M  V30 16 C -0.495273 2.655359 0.178293 0
M  V30 17 C -0.345556 1.477555 0.881492 0
M  V30 18 N -1.189164 1.264945 2.004466 0 CHG=1 VAL=4
M  V30 19 O -1.358994 1.629531 3.185919 0
M  V30 20 O -2.090399 0.327294 1.540459 0 CHG=-1 VAL=1
M  V30 21 C 0.596571 0.554177 0.482804 0
M  V30 22 N 0.761391 -0.587223 1.136548 0
M  V30 23 H -0.302195 -3.562133 -0.138149 0
M  V30 24 H -1.709552 -4.257204 0.801112 0
M  V30 25 H -1.089746 -2.654190 1.218268 0
M  V30 26 H -1.069218 -5.865228 2.518349 0
M  V30 27 H 0.676578 -6.264578 2.183023 0
M  V30 28 H -0.433257 -6.043843 0.808286 0
M  V30 29 H 1.754000 -4.682913 0.442192 0
M  V30 30 H 2.096305 -4.670395 2.209451 0
M  V30 31 H 2.721774 -2.452635 2.045133 0
M  V30 32 H 2.975325 0.040373 -1.885933 0
M  V30 33 H 1.845926 2.159009 -2.146751 0
M  V30 34 H 0.806340 4.253044 -2.513515 0
M  V30 35 H -2.268380 5.528995 0.067132 0
M  V30 36 H -2.074682 3.430541 1.411922 0
M  V30 END ATOM
M  V30 BEGIN BOND
M  V30 1 1 1 2
M  V30 2 1 2 3
M  V30 3 1 2 4
M  V30 4 1 4 5
M  V30 5 1 5 6
M  V30 6 2 6 7
M  V30 7 1 7 8
M  V30 8 2 8 9
M  V30 9 1 9 10
M  V30 10 2 10 11
M  V30 11 1 11 12
M  V30 12 2 12 13
M  V30 13 1 13 14
M  V30 14 2 14 15
M  V30 15 1 15 16
M  V30 16 2 16 17
M  V30 17 1 17 18
M  V30 18 2 18 19
M  V30 19 1 18 20
M  V30 20 1 17 21
M  V30 21 2 21 22
M  V30 22 1 22 6
M  V30 23 1 21 9
M  V30 24 1 16 11
M  V30 25 1 1 23
M  V30 26 1 1 24
M  V30 27 1 1 25
M  V30 28 1 3 26
M  V30 29 1 3 27
M  V30 30 1 3 28
M  V30 31 1 4 29
M  V30 32 1 4 30
M  V30 33 1 5 31
M  V30 34 1 8 32
M  V30 35 1 10 33
M  V30 36 1 12 34
M  V30 37 1 14 35
M  V30 38 1 15 36
M  V30 END BOND
M  V30 END CTAB
M  END
>  <Dataset>  (181) 
ChEMBL_Kinases

>  <Ligand_Instance>  (181) 
nan

>  <PDB_ID>  (181) 
nan

>  <Standardized_SMILES>  (181) 
CN(C)CNc1ncc2cc3cnccc3c([N+](=O)[O-])c2n1

>  <Name>  (181) 
nan

>  <Pocket>  (181) 
nan

>  <ATP_Site>  (181) 
nan

>  <Peripheral>  (181) 
nan

>  <Num_H_Atoms_ProtBoundConf>  (181) 
nan

>  <Num_Resolved_Atoms>  (181) 
nan

>  <Num_Not_Resolved_Atoms>  (181) 
nan

$$$$
CHEMBL4558207
     RDKit          3D

  0  0  0  0  0  0  0  0  0  0999 V3000
M  V30 BEGIN CTAB
M  V30 COUNTS 38 40 0 0 0
M  V30 BEGIN ATOM
M  V30 1 C -0.573120 -1.527232 4.308403 0
M  V30 2 C -0.689216 -2.259217 2.964345 0
M  V30 3 C 0.563702 -3.071162 2.834133 0
M  V30 4 N -0.905474 -1.316806 1.888784 0
M  V30 5 C -2.076109 -0.468167 1.990219 0
M  V30 6 C -0.276798 -0.938218 0.655130 0
M  V30 7 N 0.230359 0.324830 0.542063 0
M  V30 8 C 0.847726 0.770994 -0.567281 0
M  V30 9 C 1.352945 2.139298 -0.581523 0
M  V30 10 C 1.994370 2.664279 -1.679593 0
M  V30 11 C 2.416832 3.969993 -1.547586 0
M  V30 12 N 2.246156 4.732025 -0.452040 0
M  V30 13 C 1.609255 4.206579 0.634577 0
M  V30 14 C 1.164160 2.895199 0.552770 0
M  V30 15 N 0.966040 -0.073314 -1.608024 0
M  V30 16 C 0.499470 -1.336413 -1.594817 0
M  V30 17 C 0.629964 -2.184266 -2.676167 0
M  V30 18 N 0.133392 -3.434071 -2.586018 0
M  V30 19 C -0.488823 -3.868017 -1.455363 0
M  V30 20 C -0.634076 -3.043174 -0.358419 0
M  V30 21 C -0.128486 -1.761923 -0.441431 0
M  V30 22 H -1.510997 -1.056272 4.612972 0
M  V30 23 H -0.371580 -2.345611 5.055676 0
M  V30 24 H 0.316539 -0.873218 4.321865 0
M  V30 25 H -1.538917 -2.937985 3.047979 0
M  V30 26 H 0.394812 -4.022969 2.264481 0
M  V30 27 H 1.417349 -2.497021 2.435003 0
M  V30 28 H 0.858759 -3.411438 3.847938 0
M  V30 29 H -2.612844 -0.599783 2.949341 0
M  V30 30 H -1.861080 0.612749 1.887984 0
M  V30 31 H -2.770830 -0.818235 1.188668 0
M  V30 32 H 2.148686 2.081865 -2.575190 0
M  V30 33 H 2.931867 4.468168 -2.360992 0
M  V30 34 H 1.436265 4.774046 1.562439 0
M  V30 35 H 0.656320 2.504612 1.444487 0
M  V30 36 H 1.131603 -1.839884 -3.592820 0
M  V30 37 H -0.899709 -4.875987 -1.357569 0
M  V30 38 H -1.133794 -3.405389 0.527754 0
M  V30 END ATOM
M  V30 BEGIN BOND
M  V30 1 1 1 2
M  V30 2 1 2 3
M  V30 3 1 2 4
M  V30 4 1 4 5
M  V30 5 1 4 6
M  V30 6 2 6 7
M  V30 7 1 7 8
M  V30 8 1 8 9
M  V30 9 2 9 10
M  V30 10 1 10 11
M  V30 11 2 11 12
M  V30 12 1 12 13
M  V30 13 2 13 14
M  V30 14 2 8 15
M  V30 15 1 15 16
M  V30 16 2 16 17
M  V30 17 1 17 18
M  V30 18 2 18 19
M  V30 19 1 19 20
M  V30 20 2 20 21
M  V30 21 1 21 6
M  V30 22 1 14 9
M  V30 23 1 21 16
M  V30 24 1 1 22
M  V30 25 1 1 23
M  V30 26 1 1 24
M  V30 27 1 2 25
M  V30 28 1 3 26
M  V30 29 1 3 27
M  V30 30 1 3 28
M  V30 31 1 5 29
M  V30 32 1 5 30
M  V30 33 1 5 31
M  V30 34 1 10 32
M  V30 35 1 11 33
M  V30 36 1 13 34
M  V30 37 1 14 35
M  V30 38 1 17 36
M  V30 39 1 19 37
M  V30 40 1 20 38
M  V30 END BOND
M  V30 END CTAB
M  END
>  <Dataset>  (182) 
ChEMBL_Kinases

>  <Ligand_Instance>  (182) 
nan

>  <PDB_ID>  (182) 
nan

>  <Standardized_SMILES>  (182) 
CC(C)N(C)c1nc(-c2ccncc2)nc2cnccc12

>  <Name>  (182) 
nan

>  <Pocket>  (182) 
nan

>  <ATP_Site>  (182) 
nan

>  <Peripheral>  (182) 
nan

>  <Num_H_Atoms_ProtBoundConf>  (182) 
nan

>  <Num_Resolved_Atoms>  (182) 
nan

>  <Num_Not_Resolved_Atoms>  (182) 
nan

$$$$
CHEMBL4558047
     RDKit          3D

  0  0  0  0  0  0  0  0  0  0999 V3000
M  V30 BEGIN CTAB
M  V30 COUNTS 61 64 0 0 0
M  V30 BEGIN ATOM
M  V30 1 C 3.249579 3.600032 -1.221440 0
M  V30 2 O 1.963137 3.077473 -0.982701 0
M  V30 3 C 1.702829 2.420248 0.238037 0
M  V30 4 C 2.754005 2.334633 1.135533 0
M  V30 5 C 2.695723 1.745342 2.361619 0
M  V30 6 C 3.681440 1.561410 3.399622 0
M  V30 7 O 4.363605 2.433104 4.043167 0
M  V30 8 N 3.966947 0.201937 3.801010 0
M  V30 9 C 3.308276 -0.941096 3.196667 0
M  V30 10 C 4.906051 -0.239782 4.826561 0
M  V30 11 C 1.475798 1.208166 2.685329 0
M  V30 12 C 0.396805 1.258022 1.842832 0
M  V30 13 C 0.467574 1.860758 0.595868 0
M  V30 14 N -0.606253 1.967774 -0.370305 0
M  V30 15 C -1.757762 1.342440 0.177806 0
M  V30 16 N -1.787601 0.037343 -0.119213 0
M  V30 17 C -2.775850 -0.776285 0.341695 0
M  V30 18 O -2.802008 -2.128786 0.026023 0
M  V30 19 C -1.990323 -2.786268 -0.853745 0 CFG=1
M  V30 20 C -0.636413 -3.245027 -0.340149 0
M  V30 21 C 0.222641 -3.415015 -1.595325 0
M  V30 22 O -0.595531 -3.346027 -2.710533 0
M  V30 23 C -1.623357 -4.285037 -2.712936 0
M  V30 24 C -2.373054 -4.259128 -4.026341 0
M  V30 25 C -0.970085 -5.628469 -2.567264 0
M  V30 26 C -2.579195 -3.941555 -1.587344 0
M  V30 27 C -3.840696 -0.323762 1.160147 0
M  V30 28 C -4.952557 -0.789791 1.788062 0
M  V30 29 C -5.499825 0.295159 2.414622 0
M  V30 30 N -4.760932 1.391104 2.186750 0
M  V30 31 C -3.699914 1.050769 1.398597 0
M  V30 32 N -2.742432 1.889923 0.963884 0
M  V30 33 H 3.248107 4.072641 -2.221429 0
M  V30 34 H 4.040362 2.842664 -1.155638 0
M  V30 35 H 3.450933 4.367887 -0.437121 0
M  V30 36 H 3.746544 2.752015 0.896461 0
M  V30 37 H 4.009206 -1.791295 3.087572 0
M  V30 38 H 2.969900 -0.723612 2.143674 0
M  V30 39 H 2.466509 -1.317835 3.790944 0
M  V30 40 H 5.716354 -0.789088 4.275598 0
M  V30 41 H 4.400829 -0.962802 5.514895 0
M  V30 42 H 5.336938 0.588386 5.415896 0
M  V30 43 H 1.241491 0.708080 3.605274 0
M  V30 44 H -0.567628 0.831845 2.100711 0
M  V30 45 H -0.447375 2.432917 -1.261652 0
M  V30 46 H -1.693721 -2.001605 -1.630262 0
M  V30 47 H -0.689407 -4.146292 0.269256 0
M  V30 48 H -0.184931 -2.413634 0.249223 0
M  V30 49 H 0.941883 -2.563933 -1.632759 0
M  V30 50 H 0.825217 -4.339573 -1.565295 0
M  V30 51 H -3.470618 -4.281471 -3.873551 0
M  V30 52 H -2.107286 -3.344209 -4.583865 0
M  V30 53 H -2.060997 -5.129023 -4.624975 0
M  V30 54 H -0.834831 -5.968032 -1.516946 0
M  V30 55 H -0.009360 -5.683779 -3.130770 0
M  V30 56 H -1.649658 -6.365539 -3.054831 0
M  V30 57 H -3.587508 -3.741555 -2.017211 0
M  V30 58 H -2.692346 -4.853921 -0.932170 0
M  V30 59 H -5.108807 -1.836523 1.637775 0
M  V30 60 H -6.417550 0.133821 2.985848 0
M  V30 61 H -5.060686 2.293240 2.604245 0
M  V30 END ATOM
M  V30 BEGIN BOND
M  V30 1 1 1 2
M  V30 2 1 2 3
M  V30 3 2 3 4
M  V30 4 1 4 5
M  V30 5 1 5 6
M  V30 6 2 6 7
M  V30 7 1 6 8
M  V30 8 1 8 9
M  V30 9 1 8 10
M  V30 10 2 5 11
M  V30 11 1 11 12
M  V30 12 2 12 13
M  V30 13 1 13 14
M  V30 14 1 14 15
M  V30 15 2 15 16
M  V30 16 1 16 17
M  V30 17 1 17 18
M  V30 18 1 18 19
M  V30 19 1 19 20
M  V30 20 1 20 21
M  V30 21 1 21 22
M  V30 22 1 22 23
M  V30 23 1 23 24
M  V30 24 1 23 25
M  V30 25 1 23 26
M  V30 26 2 17 27
M  V30 27 1 27 28
M  V30 28 2 28 29
M  V30 29 1 29 30
M  V30 30 1 30 31
M  V30 31 2 31 32
M  V30 32 1 13 3
M  V30 33 1 32 15
M  V30 34 1 26 19
M  V30 35 1 31 27
M  V30 36 1 1 33
M  V30 37 1 1 34
M  V30 38 1 1 35
M  V30 39 1 4 36
M  V30 40 1 9 37
M  V30 41 1 9 38
M  V30 42 1 9 39
M  V30 43 1 10 40
M  V30 44 1 10 41
M  V30 45 1 10 42
M  V30 46 1 11 43
M  V30 47 1 12 44
M  V30 48 1 14 45
M  V30 49 1 19 46 CFG=3
M  V30 50 1 20 47
M  V30 51 1 20 48
M  V30 52 1 21 49
M  V30 53 1 21 50
M  V30 54 1 24 51
M  V30 55 1 24 52
M  V30 56 1 24 53
M  V30 57 1 25 54
M  V30 58 1 25 55
M  V30 59 1 25 56
M  V30 60 1 26 57
M  V30 61 1 26 58
M  V30 62 1 28 59
M  V30 63 1 29 60
M  V30 64 1 30 61
M  V30 END BOND
M  V30 END CTAB
M  END
>  <Dataset>  (183) 
ChEMBL_Kinases

>  <Ligand_Instance>  (183) 
nan

>  <PDB_ID>  (183) 
nan

>  <Standardized_SMILES>  (183) 
COc1cc(C(=O)N(C)C)ccc1Nc1nc(O[C@H]2CCOC(C)(C)C2)c2cc[nH]c2n1

>  <Name>  (183) 
nan

>  <Pocket>  (183) 
nan

>  <ATP_Site>  (183) 
nan

>  <Peripheral>  (183) 
nan

>  <Num_H_Atoms_ProtBoundConf>  (183) 
nan

>  <Num_Resolved_Atoms>  (183) 
nan

>  <Num_Not_Resolved_Atoms>  (183) 
nan

$$$$
CHEMBL4557740
     RDKit          3D

  0  0  0  0  0  0  0  0  0  0999 V3000
M  V30 BEGIN CTAB
M  V30 COUNTS 40 43 0 0 0
M  V30 BEGIN ATOM
M  V30 1 F 2.413308 -3.059127 -0.397190 0
M  V30 2 C 1.573056 -4.038186 -0.092296 0
M  V30 3 C 2.009994 -5.315156 -0.345036 0
M  V30 4 N 1.222424 -6.363703 -0.066165 0
M  V30 5 C 0.009829 -6.119687 0.461216 0
M  V30 6 C -0.445718 -4.821550 0.722970 0
M  V30 7 C 0.348523 -3.725222 0.443786 0
M  V30 8 C -0.174471 -2.405009 0.735304 0
M  V30 9 C 0.416739 -1.198877 0.548018 0
M  V30 10 C -0.155859 0.017066 0.855082 0
M  V30 11 N 0.522879 1.231684 0.631130 0
M  V30 12 C 0.269369 2.436479 -0.173113 0
M  V30 13 C 1.513298 2.600780 -1.055863 0
M  V30 14 C 2.603335 3.101268 -0.163746 0
M  V30 15 C 2.481751 2.590594 1.232680 0
M  V30 16 C 1.765434 1.288892 1.380985 0
M  V30 17 C -1.425303 0.049765 1.395463 0
M  V30 18 C -2.087283 1.211694 1.737610 0
M  V30 19 C -3.354050 1.072973 2.267821 0
M  V30 20 N -3.941916 -0.122965 2.454224 0
M  V30 21 C -3.306570 -1.281736 2.123543 0
M  V30 22 C -2.023559 -1.179648 1.584509 0
M  V30 23 N -1.414586 -2.359314 1.263921 0
M  V30 24 H 2.981652 -5.512155 -0.767712 0
M  V30 25 H -0.635974 -6.956602 0.691092 0
M  V30 26 H -1.453955 -4.750158 1.154522 0
M  V30 27 H 1.385901 -1.159831 0.138842 0
M  V30 28 H 0.180629 3.345827 0.463764 0
M  V30 29 H -0.564957 2.297759 -0.879509 0
M  V30 30 H 1.787017 1.566372 -1.395296 0
M  V30 31 H 1.285896 3.261110 -1.913172 0
M  V30 32 H 3.599226 2.874711 -0.633866 0
M  V30 33 H 2.560481 4.228162 -0.192788 0
M  V30 34 H 2.029462 3.374234 1.867336 0
M  V30 35 H 3.512750 2.450597 1.621498 0
M  V30 36 H 2.451487 0.447939 1.165190 0
M  V30 37 H 1.497307 1.171816 2.458468 0
M  V30 38 H -1.584998 2.156407 1.574284 0
M  V30 39 H -3.868221 1.991952 2.534442 0
M  V30 40 H -3.780846 -2.247600 2.273881 0
M  V30 END ATOM
M  V30 BEGIN BOND
M  V30 1 1 1 2
M  V30 2 2 2 3
M  V30 3 1 3 4
M  V30 4 2 4 5
M  V30 5 1 5 6
M  V30 6 2 6 7
M  V30 7 1 7 8
M  V30 8 2 8 9
M  V30 9 1 9 10
M  V30 10 1 10 11
M  V30 11 1 11 12
M  V30 12 1 12 13
M  V30 13 1 13 14
M  V30 14 1 14 15
M  V30 15 1 15 16
M  V30 16 2 10 17
M  V30 17 1 17 18
M  V30 18 2 18 19
M  V30 19 1 19 20
M  V30 20 2 20 21
M  V30 21 1 21 22
M  V30 22 2 22 23
M  V30 23 1 7 2
M  V30 24 1 23 8
M  V30 25 1 16 11
M  V30 26 1 22 17
M  V30 27 1 3 24
M  V30 28 1 5 25
M  V30 29 1 6 26
M  V30 30 1 9 27
M  V30 31 1 12 28
M  V30 32 1 12 29
M  V30 33 1 13 30
M  V30 34 1 13 31
M  V30 35 1 14 32
M  V30 36 1 14 33
M  V30 37 1 15 34
M  V30 38 1 15 35
M  V30 39 1 16 36
M  V30 40 1 16 37
M  V30 41 1 18 38
M  V30 42 1 19 39
M  V30 43 1 21 40
M  V30 END BOND
M  V30 END CTAB
M  END
>  <Dataset>  (184) 
ChEMBL_Kinases

>  <Ligand_Instance>  (184) 
nan

>  <PDB_ID>  (184) 
nan

>  <Standardized_SMILES>  (184) 
Fc1cnccc1-c1cc(N2CCCCC2)c2ccncc2n1

>  <Name>  (184) 
nan

>  <Pocket>  (184) 
nan

>  <ATP_Site>  (184) 
nan

>  <Peripheral>  (184) 
nan

>  <Num_H_Atoms_ProtBoundConf>  (184) 
nan

>  <Num_Resolved_Atoms>  (184) 
nan

>  <Num_Not_Resolved_Atoms>  (184) 
nan

$$$$
CHEMBL4557683
     RDKit          3D

  0  0  0  0  0  0  0  0  0  0999 V3000
M  V30 BEGIN CTAB
M  V30 COUNTS 35 37 0 0 0
M  V30 BEGIN ATOM
M  V30 1 O 3.380894 -0.767396 2.787620 0
M  V30 2 C 2.402976 -0.830550 1.980360 0
M  V30 3 N 1.847162 -2.049009 1.541140 0
M  V30 4 C 2.059219 -3.423493 1.741253 0
M  V30 5 C 2.925636 -4.168912 0.944236 0
M  V30 6 C 3.052146 -5.517330 1.235572 0
M  V30 7 N 2.381173 -6.119454 2.239345 0
M  V30 8 C 1.550273 -5.379252 2.995319 0
M  V30 9 C 1.359496 -4.013339 2.776109 0
M  V30 10 C 1.767455 0.364896 1.435226 0
M  V30 11 C 0.714867 0.523986 0.560583 0
M  V30 12 C 0.474164 1.885970 0.346181 0
M  V30 13 C -0.543632 2.521325 -0.460546 0
M  V30 14 O -0.184859 3.656622 -0.928752 0
M  V30 15 C -1.890232 2.189797 -0.880672 0
M  V30 16 C -2.395815 2.793745 -2.034541 0
M  V30 17 F -1.667878 3.651186 -2.783679 0
M  V30 18 C -3.700591 2.461803 -2.376873 0
M  V30 19 C -4.540624 1.614999 -1.712655 0
M  V30 20 C -4.016691 1.038643 -0.582213 0
M  V30 21 C -2.712051 1.322507 -0.173259 0
M  V30 22 Cl -2.223814 0.549326 1.312368 0
M  V30 23 C 1.414322 2.534378 1.116686 0
M  V30 24 N 2.146035 1.617276 1.733955 0
M  V30 25 H 1.029701 -2.097911 0.866811 0
M  V30 26 H 3.468844 -3.685907 0.132988 0
M  V30 27 H 3.738662 -6.033891 0.581748 0
M  V30 28 H 0.995902 -5.852292 3.817251 0
M  V30 29 H 0.669837 -3.494888 3.435552 0
M  V30 30 H 0.233184 -0.334312 0.147371 0
M  V30 31 H -4.089768 2.943478 -3.285756 0
M  V30 32 H -5.534455 1.399480 -2.025460 0
M  V30 33 H -4.662752 0.353335 -0.021144 0
M  V30 34 H 1.509517 3.605386 1.182940 0
M  V30 35 H 2.935860 1.868344 2.384226 0
M  V30 END ATOM
M  V30 BEGIN BOND
M  V30 1 2 1 2
M  V30 2 1 2 3
M  V30 3 1 3 4
M  V30 4 2 4 5
M  V30 5 1 5 6
M  V30 6 2 6 7
M  V30 7 1 7 8
M  V30 8 2 8 9
M  V30 9 1 2 10
M  V30 10 2 10 11
M  V30 11 1 11 12
M  V30 12 1 12 13
M  V30 13 2 13 14
M  V30 14 1 13 15
M  V30 15 2 15 16
M  V30 16 1 16 17
M  V30 17 1 16 18
M  V30 18 2 18 19
M  V30 19 1 19 20
M  V30 20 2 20 21
M  V30 21 1 21 22
M  V30 22 2 12 23
M  V30 23 1 23 24
M  V30 24 1 9 4
M  V30 25 1 24 10
M  V30 26 1 21 15
M  V30 27 1 3 25
M  V30 28 1 5 26
M  V30 29 1 6 27
M  V30 30 1 8 28
M  V30 31 1 9 29
M  V30 32 1 11 30
M  V30 33 1 18 31
M  V30 34 1 19 32
M  V30 35 1 20 33
M  V30 36 1 23 34
M  V30 37 1 24 35
M  V30 END BOND
M  V30 END CTAB
M  END
>  <Dataset>  (185) 
ChEMBL_Kinases

>  <Ligand_Instance>  (185) 
nan

>  <PDB_ID>  (185) 
nan

>  <Standardized_SMILES>  (185) 
O=C(Nc1ccncc1)c1cc(C(=O)c2c(F)cccc2Cl)c[nH]1

>  <Name>  (185) 
nan

>  <Pocket>  (185) 
nan

>  <ATP_Site>  (185) 
nan

>  <Peripheral>  (185) 
nan

>  <Num_H_Atoms_ProtBoundConf>  (185) 
nan

>  <Num_Resolved_Atoms>  (185) 
nan

>  <Num_Not_Resolved_Atoms>  (185) 
nan

$$$$
CHEMBL4557360
     RDKit          3D

  0  0  0  0  0  0  0  0  0  0999 V3000
M  V30 BEGIN CTAB
M  V30 COUNTS 51 54 0 0 0
M  V30 BEGIN ATOM
M  V30 1 C 3.200328 -4.116060 5.181942 0
M  V30 2 S 4.410989 -4.069264 3.887796 0
M  V30 3 O 5.756894 -4.172618 4.508153 0
M  V30 4 O 4.226353 -5.246278 2.972089 0
M  V30 5 C 4.304002 -2.600069 2.952242 0
M  V30 6 C 4.989532 -1.425172 3.229828 0
M  V30 7 C 4.820850 -0.314825 2.405249 0
M  V30 8 C 3.990381 -0.321505 1.303392 0
M  V30 9 C 3.827145 0.851191 0.449124 0
M  V30 10 C 4.826044 1.685910 -0.065960 0
M  V30 11 N 4.288693 2.664388 -0.816061 0
M  V30 12 C 2.952542 2.504628 -0.815488 0
M  V30 13 N 1.918761 3.183601 -1.392153 0
M  V30 14 C 0.632608 2.819598 -1.239885 0
M  V30 15 C 0.273123 1.723894 -0.482121 0
M  V30 16 C -1.127306 1.343605 -0.330265 0
M  V30 17 C -1.590530 0.326296 0.364509 0
M  V30 18 C -2.985927 -0.066042 0.525526 0
M  V30 19 O -3.303683 -1.065686 1.220593 0
M  V30 20 N -4.062658 0.633204 -0.074816 0
M  V30 21 C -5.470783 0.295342 0.044645 0
M  V30 22 C -5.880594 -0.849249 -0.779830 0
M  V30 23 C -5.904133 -2.183127 -0.442824 0
M  V30 24 C -6.313398 -3.162780 -1.323121 0
M  V30 25 N -6.709172 -2.822391 -2.565034 0
M  V30 26 C -6.712479 -1.542888 -2.962639 0
M  V30 27 C -6.300843 -0.546528 -2.080705 0
M  V30 28 C 1.320132 1.039794 0.099412 0
M  V30 29 C 2.645530 1.398980 -0.046157 0
M  V30 30 C 3.310246 -1.502916 1.036390 0
M  V30 31 C 3.465690 -2.616771 1.845292 0
M  V30 32 H 2.202544 -4.443347 4.802163 0
M  V30 33 H 3.499642 -4.860253 5.948120 0
M  V30 34 H 3.070983 -3.150308 5.683945 0
M  V30 35 H 5.637752 -1.434099 4.097801 0
M  V30 36 H 5.372867 0.591258 2.650221 0
M  V30 37 H 5.901492 1.574893 0.106115 0
M  V30 38 H 4.786320 3.419177 -1.316517 0
M  V30 39 H -0.102692 3.425716 -1.738411 0
M  V30 40 H -1.869346 1.945605 -0.830743 0
M  V30 41 H -0.839147 -0.274468 0.864698 0
M  V30 42 H -3.834846 1.466120 -0.656651 0
M  V30 43 H -5.684684 0.022749 1.099626 0
M  V30 44 H -6.109894 1.170209 -0.211677 0
M  V30 45 H -5.586443 -2.415005 0.546915 0
M  V30 46 H -6.286245 -4.186444 -0.934175 0
M  V30 47 H -7.041465 -1.335776 -3.971564 0
M  V30 48 H -6.346102 0.446032 -2.511565 0
M  V30 49 H 1.128325 0.186324 0.698607 0
M  V30 50 H 2.640540 -1.596523 0.192783 0
M  V30 51 H 2.909766 -3.524827 1.595844 0
M  V30 END ATOM
M  V30 BEGIN BOND
M  V30 1 1 1 2
M  V30 2 2 2 3
M  V30 3 2 2 4
M  V30 4 1 2 5
M  V30 5 2 5 6
M  V30 6 1 6 7
M  V30 7 2 7 8
M  V30 8 1 8 9
M  V30 9 2 9 10
M  V30 10 1 10 11
M  V30 11 1 11 12
M  V30 12 2 12 13
M  V30 13 1 13 14
M  V30 14 2 14 15
M  V30 15 1 15 16
M  V30 16 2 16 17
M  V30 17 1 17 18
M  V30 18 2 18 19
M  V30 19 1 18 20
M  V30 20 1 20 21
M  V30 21 1 21 22
M  V30 22 2 22 23
M  V30 23 1 23 24
M  V30 24 2 24 25
M  V30 25 1 25 26
M  V30 26 2 26 27
M  V30 27 1 15 28
M  V30 28 2 28 29
M  V30 29 1 8 30
M  V30 30 2 30 31
M  V30 31 1 31 5
M  V30 32 1 29 9
M  V30 33 1 29 12
M  V30 34 1 27 22
M  V30 35 1 1 32
M  V30 36 1 1 33
M  V30 37 1 1 34
M  V30 38 1 6 35
M  V30 39 1 7 36
M  V30 40 1 10 37
M  V30 41 1 11 38
M  V30 42 1 14 39
M  V30 43 1 16 40
M  V30 44 1 17 41
M  V30 45 1 20 42
M  V30 46 1 21 43
M  V30 47 1 21 44
M  V30 48 1 23 45
M  V30 49 1 24 46
M  V30 50 1 26 47
M  V30 51 1 27 48
M  V30 52 1 28 49
M  V30 53 1 30 50
M  V30 54 1 31 51
M  V30 END BOND
M  V30 END CTAB
M  END
>  <Dataset>  (186) 
ChEMBL_Kinases

>  <Ligand_Instance>  (186) 
nan

>  <PDB_ID>  (186) 
nan

>  <Standardized_SMILES>  (186) 
CS(=O)(=O)c1ccc(-c2c[nH]c3ncc(/C=C/C(=O)NCc4ccncc4)cc23)cc1

>  <Name>  (186) 
nan

>  <Pocket>  (186) 
nan

>  <ATP_Site>  (186) 
nan

>  <Peripheral>  (186) 
nan

>  <Num_H_Atoms_ProtBoundConf>  (186) 
nan

>  <Num_Resolved_Atoms>  (186) 
nan

>  <Num_Not_Resolved_Atoms>  (186) 
nan

$$$$
CHEMBL4559313
     RDKit          3D

  0  0  0  0  0  0  0  0  0  0999 V3000
M  V30 BEGIN CTAB
M  V30 COUNTS 43 46 0 0 0
M  V30 BEGIN ATOM
M  V30 1 C 3.047369 -1.363791 1.432452 0
M  V30 2 O 3.221641 -0.539962 0.446173 0
M  V30 3 C 3.542674 0.155065 -0.575011 0
M  V30 4 C 4.601975 -0.209680 -1.370921 0
M  V30 5 C 4.916466 0.587446 -2.482976 0
M  V30 6 C 4.108852 1.689663 -2.672468 0
M  V30 7 C 4.512475 2.428611 -3.837761 0
M  V30 8 O 3.848875 3.503735 -4.071634 0
M  V30 9 O 4.950122 3.062616 -4.945535 0
M  V30 10 C 3.029344 2.094706 -1.893870 0
M  V30 11 C 2.770674 1.267358 -0.814465 0
M  V30 12 N 1.627431 1.773636 -0.091612 0
M  V30 13 C 0.489138 0.915454 0.027071 0
M  V30 14 N -0.159814 0.265931 0.929816 0
M  V30 15 C -1.204284 -0.445834 0.525658 0
M  V30 16 C -1.975172 -1.175560 1.529426 0
M  V30 17 C -3.072725 -1.943651 1.227560 0
M  V30 18 C -3.876280 -2.655120 2.087536 0
M  V30 19 C -3.535108 -2.589966 3.444630 0
M  V30 20 C -4.304769 -3.276532 4.341903 0
M  V30 21 C -3.956383 -3.198317 5.673292 0
M  V30 22 C -2.880713 -2.468517 6.127826 0
M  V30 23 C -2.156488 -1.805815 5.159285 0
M  V30 24 C -2.441950 -1.834828 3.813240 0
M  V30 25 C -1.685712 -1.149608 2.889510 0
M  V30 26 C -1.595521 -0.494972 -0.836990 0
M  V30 27 S -0.284191 0.630394 -1.602529 0
M  V30 28 H 3.801997 -2.219830 1.390577 0
M  V30 29 H 3.145346 -0.957723 2.477970 0
M  V30 30 H 2.025774 -1.849963 1.394583 0
M  V30 31 H 5.157778 -1.099921 -1.112230 0
M  V30 32 H 5.749908 0.285779 -3.097561 0
M  V30 33 H 5.320858 2.602252 -5.787615 0
M  V30 34 H 2.504583 2.990316 -2.188118 0
M  V30 35 H 1.681685 2.724667 0.306771 0
M  V30 36 H -3.400456 -2.042673 0.189029 0
M  V30 37 H -4.720642 -3.234095 1.769653 0
M  V30 38 H -5.179292 -3.885985 4.083781 0
M  V30 39 H -4.529728 -3.718364 6.426231 0
M  V30 40 H -2.546068 -2.356807 7.149644 0
M  V30 41 H -1.300074 -1.216753 5.454993 0
M  V30 42 H -0.834368 -0.568039 3.226489 0
M  V30 43 H -2.440258 -1.054702 -1.255008 0
M  V30 END ATOM
M  V30 BEGIN BOND
M  V30 1 1 1 2
M  V30 2 1 2 3
M  V30 3 2 3 4
M  V30 4 1 4 5
M  V30 5 2 5 6
M  V30 6 1 6 7
M  V30 7 2 7 8
M  V30 8 1 7 9
M  V30 9 1 6 10
M  V30 10 2 10 11
M  V30 11 1 11 12
M  V30 12 1 12 13
M  V30 13 2 13 14
M  V30 14 1 14 15
M  V30 15 1 15 16
M  V30 16 2 16 17
M  V30 17 1 17 18
M  V30 18 2 18 19
M  V30 19 1 19 20
M  V30 20 2 20 21
M  V30 21 1 21 22
M  V30 22 2 22 23
M  V30 23 1 23 24
M  V30 24 2 24 25
M  V30 25 2 15 26
M  V30 26 1 26 27
M  V30 27 1 11 3
M  V30 28 1 27 13
M  V30 29 1 25 16
M  V30 30 1 24 19
M  V30 31 1 1 28
M  V30 32 1 1 29
M  V30 33 1 1 30
M  V30 34 1 4 31
M  V30 35 1 5 32
M  V30 36 1 9 33
M  V30 37 1 10 34
M  V30 38 1 12 35
M  V30 39 1 17 36
M  V30 40 1 18 37
M  V30 41 1 20 38
M  V30 42 1 21 39
M  V30 43 1 22 40
M  V30 44 1 23 41
M  V30 45 1 25 42
M  V30 46 1 26 43
M  V30 END BOND
M  V30 END CTAB
M  END
>  <Dataset>  (187) 
ChEMBL_Kinases

>  <Ligand_Instance>  (187) 
nan

>  <PDB_ID>  (187) 
nan

>  <Standardized_SMILES>  (187) 
COc1ccc(C(=O)O)cc1Nc1nc(-c2ccc3ccccc3c2)cs1

>  <Name>  (187) 
nan

>  <Pocket>  (187) 
nan

>  <ATP_Site>  (187) 
nan

>  <Peripheral>  (187) 
nan

>  <Num_H_Atoms_ProtBoundConf>  (187) 
nan

>  <Num_Resolved_Atoms>  (187) 
nan

>  <Num_Not_Resolved_Atoms>  (187) 
nan

$$$$
CHEMBL4637411
     RDKit          3D

  0  0  0  0  0  0  0  0  0  0999 V3000
M  V30 BEGIN CTAB
M  V30 COUNTS 72 77 0 0 0
M  V30 BEGIN ATOM
M  V30 1 C 5.236656 -2.127327 -3.015811 0
M  V30 2 N 4.455947 -2.883482 -2.035080 0
M  V30 3 C 4.798913 -4.281539 -2.021210 0
M  V30 4 C 4.633424 -2.207970 -0.774365 0 CFG=2
M  V30 5 C 3.915246 -2.820694 0.372202 0
M  V30 6 C 2.414408 -2.747959 0.320569 0
M  V30 7 C 1.886471 -1.375202 -0.064462 0 CFG=1
M  V30 8 C 2.186244 -0.440379 1.076896 0
M  V30 9 C 2.613593 -1.021381 -1.328057 0 CFG=1
M  V30 10 C 2.052825 0.094203 -2.124632 0
M  V30 11 C 0.586322 -0.180311 -2.390113 0
M  V30 12 C -0.052810 -0.233015 -1.056911 0 CFG=2
M  V30 13 C 0.407951 -1.520677 -0.355253 0 CFG=2
M  V30 14 C -0.444241 -1.909168 0.771719 0
M  V30 15 C -1.441532 -0.935340 1.307974 0
M  V30 16 C -1.821933 0.205058 0.432411 0 CFG=2
M  V30 17 C -1.082353 1.487185 0.733574 0
M  V30 18 C -3.233093 0.558646 0.333247 0
M  V30 19 C -4.292313 0.705259 1.322206 0
M  V30 20 C -5.579428 1.041950 0.968733 0
M  V30 21 C -6.603674 1.190387 1.903778 0
M  V30 22 C -6.350928 0.999234 3.245908 0
M  V30 23 C -7.409224 1.162012 4.116164 0
M  V30 24 C -7.071314 0.951383 5.453885 0
M  V30 25 N -5.833131 0.620734 5.863123 0
M  V30 26 C -4.811435 0.468689 4.970977 0
M  V30 27 C -5.069145 0.660893 3.629504 0
M  V30 28 C -4.083616 0.523902 2.671084 0
M  V30 29 C -3.536764 0.778360 -0.959571 0
M  V30 30 C -2.329394 0.581525 -1.803739 0
M  V30 31 C -1.519969 -0.311167 -0.984110 0 CFG=1
M  V30 32 C 4.066882 -0.811960 -0.958514 0
M  V30 33 H 4.537753 -1.420117 -3.519625 0
M  V30 34 H 6.022369 -1.509233 -2.552758 0
M  V30 35 H 5.685295 -2.764553 -3.795054 0
M  V30 36 H 5.443203 -4.467700 -2.905800 0
M  V30 37 H 3.857025 -4.857468 -2.197297 0
M  V30 38 H 5.362566 -4.613720 -1.135004 0
M  V30 39 H 5.691793 -2.093719 -0.492584 0
M  V30 40 H 4.327353 -2.329683 1.297758 0
M  V30 41 H 4.152423 -3.896116 0.520005 0
M  V30 42 H 2.055608 -3.095983 1.306254 0
M  V30 43 H 2.098058 -3.483906 -0.461386 0
M  V30 44 H 3.098056 -0.734761 1.638089 0
M  V30 45 H 2.369907 0.612098 0.743781 0
M  V30 46 H 1.384780 -0.396389 1.822908 0
M  V30 47 H 2.550617 -1.944121 -1.976614 0
M  V30 48 H 2.540286 0.073662 -3.116802 0
M  V30 49 H 2.217163 1.093751 -1.686852 0
M  V30 50 H 0.515484 -1.184952 -2.855596 0
M  V30 51 H 0.162323 0.586421 -3.052518 0
M  V30 52 H 0.414719 0.567402 -0.412030 0
M  V30 53 H 0.387527 -2.275421 -1.198792 0
M  V30 54 H 0.216708 -2.274773 1.610921 0
M  V30 55 H -0.991351 -2.843477 0.487604 0
M  V30 56 H -1.025896 -0.509449 2.250244 0
M  V30 57 H -2.372857 -1.464864 1.599136 0
M  V30 58 H -0.897737 2.111130 -0.180760 0
M  V30 59 H -1.752009 2.162733 1.345268 0
M  V30 60 H -0.190235 1.356290 1.368625 0
M  V30 61 H -5.869442 1.210624 -0.056441 0
M  V30 62 H -7.610450 1.458671 1.577218 0
M  V30 63 H -8.408262 1.427565 3.798434 0
M  V30 64 H -7.876811 1.067454 6.195902 0
M  V30 65 H -3.827710 0.203595 5.320717 0
M  V30 66 H -3.131517 0.265605 3.055140 0
M  V30 67 H -4.454591 1.062182 -1.497593 0
M  V30 68 H -2.570631 0.074626 -2.773569 0
M  V30 69 H -1.835435 1.540419 -2.050805 0
M  V30 70 H -1.902877 -1.353801 -1.025504 0
M  V30 71 H 4.619362 -0.246670 -1.736981 0
M  V30 72 H 4.201118 -0.253332 -0.009133 0
M  V30 END ATOM
M  V30 BEGIN BOND
M  V30 1 1 1 2
M  V30 2 1 2 3
M  V30 3 1 2 4
M  V30 4 1 4 5
M  V30 5 1 5 6
M  V30 6 1 6 7
M  V30 7 1 7 8 CFG=1
M  V30 8 1 7 9
M  V30 9 1 9 10
M  V30 10 1 10 11
M  V30 11 1 11 12
M  V30 12 1 12 13
M  V30 13 1 13 14
M  V30 14 1 14 15
M  V30 15 1 15 16
M  V30 16 1 16 17 CFG=1
M  V30 17 1 16 18
M  V30 18 1 18 19
M  V30 19 2 19 20
M  V30 20 1 20 21
M  V30 21 2 21 22
M  V30 22 1 22 23
M  V30 23 2 23 24
M  V30 24 1 24 25
M  V30 25 2 25 26
M  V30 26 1 26 27
M  V30 27 2 27 28
M  V30 28 2 18 29
M  V30 29 1 29 30
M  V30 30 1 30 31
M  V30 31 1 9 32
M  V30 32 1 32 4
M  V30 33 1 13 7
M  V30 34 1 31 16
M  V30 35 1 31 12
M  V30 36 1 28 19
M  V30 37 1 27 22
M  V30 38 1 1 33
M  V30 39 1 1 34
M  V30 40 1 1 35
M  V30 41 1 3 36
M  V30 42 1 3 37
M  V30 43 1 3 38
M  V30 44 1 4 39 CFG=1
M  V30 45 1 5 40
M  V30 46 1 5 41
M  V30 47 1 6 42
M  V30 48 1 6 43
M  V30 49 1 8 44
M  V30 50 1 8 45
M  V30 51 1 8 46
M  V30 52 1 9 47 CFG=3
M  V30 53 1 10 48
M  V30 54 1 10 49
M  V30 55 1 11 50
M  V30 56 1 11 51
M  V30 57 1 12 52 CFG=1
M  V30 58 1 13 53 CFG=3
M  V30 59 1 14 54
M  V30 60 1 14 55
M  V30 61 1 15 56
M  V30 62 1 15 57
M  V30 63 1 17 58
M  V30 64 1 17 59
M  V30 65 1 17 60
M  V30 66 1 20 61
M  V30 67 1 21 62
M  V30 68 1 23 63
M  V30 69 1 24 64
M  V30 70 1 26 65
M  V30 71 1 28 66
M  V30 72 1 29 67
M  V30 73 1 30 68
M  V30 74 1 30 69
M  V30 75 1 31 70 CFG=1
M  V30 76 1 32 71
M  V30 77 1 32 72
M  V30 END BOND
M  V30 END CTAB
M  END
>  <Dataset>  (188) 
ChEMBL_Kinases

>  <Ligand_Instance>  (188) 
nan

>  <PDB_ID>  (188) 
nan

>  <Standardized_SMILES>  (188) 
CN(C)[C@@H]1CC[C@@]2(C)[C@@H](CC[C@@H]3[C@@H]2CC[C@]2(C)C(c4ccc5ccncc5c4)=CC[C@@H]32)C1

>  <Name>  (188) 
nan

>  <Pocket>  (188) 
nan

>  <ATP_Site>  (188) 
nan

>  <Peripheral>  (188) 
nan

>  <Num_H_Atoms_ProtBoundConf>  (188) 
nan

>  <Num_Resolved_Atoms>  (188) 
nan

>  <Num_Not_Resolved_Atoms>  (188) 
nan

$$$$
CHEMBL456218
     RDKit          3D

  0  0  0  0  0  0  0  0  0  0999 V3000
M  V30 BEGIN CTAB
M  V30 COUNTS 38 41 0 0 0
M  V30 BEGIN ATOM
M  V30 1 C 2.478584 -5.387478 2.999040 0
M  V30 2 O 1.516896 -4.484405 2.485575 0
M  V30 3 C 1.836175 -3.783652 1.336626 0
M  V30 4 C 2.991466 -3.831264 0.586288 0
M  V30 5 C 3.133539 -3.055826 -0.536318 0
M  V30 6 C 2.143421 -2.190634 -0.980088 0
M  V30 7 C 2.416789 -1.406750 -2.208909 0
M  V30 8 S 3.216089 0.180767 -1.878871 0
M  V30 9 C 2.135218 1.283920 -0.985025 0
M  V30 10 N 2.567812 2.532357 -0.644595 0
M  V30 11 N 1.547286 3.110022 0.007793 0
M  V30 12 C 0.510800 2.252660 0.073636 0
M  V30 13 C -0.787854 2.486203 0.696695 0
M  V30 14 C -1.099087 3.678593 1.316843 0
M  V30 15 C -2.357049 3.807973 1.882288 0
M  V30 16 C -3.301294 2.804508 1.851348 0
M  V30 17 C -2.983320 1.616782 1.230412 0
M  V30 18 C -1.732791 1.479550 0.664674 0
M  V30 19 O -4.084052 0.782932 1.333292 0
M  V30 20 C -5.173734 1.459004 1.920282 0
M  V30 21 O -4.594537 2.678920 2.325786 0
M  V30 22 O 0.908678 1.162749 -0.537958 0
M  V30 23 C 0.996877 -2.155363 -0.219460 0
M  V30 24 C 0.826320 -2.919405 0.908027 0
M  V30 25 F -0.355416 -2.786326 1.565069 0
M  V30 26 H 3.340963 -4.873032 3.490356 0
M  V30 27 H 2.881909 -5.983144 2.160370 0
M  V30 28 H 1.967867 -6.107219 3.695526 0
M  V30 29 H 3.722286 -4.520808 0.982136 0
M  V30 30 H 4.087550 -3.204336 -1.012436 0
M  V30 31 H 1.444569 -1.254682 -2.730973 0
M  V30 32 H 3.049311 -1.978381 -2.917576 0
M  V30 33 H -0.329713 4.409127 1.306045 0
M  V30 34 H -2.574325 4.762368 2.365857 0
M  V30 35 H -1.521259 0.541955 0.190489 0
M  V30 36 H -5.611183 0.895006 2.769081 0
M  V30 37 H -5.961900 1.668240 1.142643 0
M  V30 38 H 0.221827 -1.492063 -0.551788 0
M  V30 END ATOM
M  V30 BEGIN BOND
M  V30 1 1 1 2
M  V30 2 1 2 3
M  V30 3 2 3 4
M  V30 4 1 4 5
M  V30 5 2 5 6
M  V30 6 1 6 7
M  V30 7 1 7 8
M  V30 8 1 8 9
M  V30 9 2 9 10
M  V30 10 1 10 11
M  V30 11 2 11 12
M  V30 12 1 12 13
M  V30 13 2 13 14
M  V30 14 1 14 15
M  V30 15 2 15 16
M  V30 16 1 16 17
M  V30 17 2 17 18
M  V30 18 1 17 19
M  V30 19 1 19 20
M  V30 20 1 20 21
M  V30 21 1 12 22
M  V30 22 1 6 23
M  V30 23 2 23 24
M  V30 24 1 24 25
M  V30 25 1 24 3
M  V30 26 1 22 9
M  V30 27 1 18 13
M  V30 28 1 21 16
M  V30 29 1 1 26
M  V30 30 1 1 27
M  V30 31 1 1 28
M  V30 32 1 4 29
M  V30 33 1 5 30
M  V30 34 1 7 31
M  V30 35 1 7 32
M  V30 36 1 14 33
M  V30 37 1 15 34
M  V30 38 1 18 35
M  V30 39 1 20 36
M  V30 40 1 20 37
M  V30 41 1 23 38
M  V30 END BOND
M  V30 END CTAB
M  END
>  <Dataset>  (189) 
ChEMBL_Kinases

>  <Ligand_Instance>  (189) 
nan

>  <PDB_ID>  (189) 
nan

>  <Standardized_SMILES>  (189) 
COc1ccc(CSc2nnc(-c3ccc4c(c3)OCO4)o2)cc1F

>  <Name>  (189) 
nan

>  <Pocket>  (189) 
nan

>  <ATP_Site>  (189) 
nan

>  <Peripheral>  (189) 
nan

>  <Num_H_Atoms_ProtBoundConf>  (189) 
nan

>  <Num_Resolved_Atoms>  (189) 
nan

>  <Num_Not_Resolved_Atoms>  (189) 
nan

$$$$
CHEMBL4562069
     RDKit          3D

  0  0  0  0  0  0  0  0  0  0999 V3000
M  V30 BEGIN CTAB
M  V30 COUNTS 47 50 0 0 0
M  V30 BEGIN ATOM
M  V30 1 N -1.911742 -5.670923 -2.406589 0
M  V30 2 C -0.908213 -4.786008 -2.883476 0
M  V30 3 N 0.032197 -5.311635 -3.691975 0
M  V30 4 C 1.035791 -4.578626 -4.209456 0
M  V30 5 C 1.050171 -3.241434 -3.862796 0
M  V30 6 C 1.926262 -2.231111 -4.215661 0
M  V30 7 C 1.482762 -1.091182 -3.596291 0
M  V30 8 N 0.373933 -1.340852 -2.875041 0
M  V30 9 C -0.469664 -0.529181 -2.058990 0
M  V30 10 C -1.614311 -0.094764 -2.698092 0
M  V30 11 C -2.528712 0.708294 -2.014460 0
M  V30 12 N -2.310385 1.068139 -0.733258 0
M  V30 13 C -1.179486 0.639527 -0.100293 0
M  V30 14 C -0.938495 1.017893 1.264681 0
M  V30 15 C -0.753505 1.347419 2.410451 0
M  V30 16 C -0.528848 1.777013 3.811087 0
M  V30 17 O -1.593214 2.663363 4.096606 0
M  V30 18 C 0.737262 2.555578 3.930591 0
M  V30 19 C 1.344792 2.511630 5.308444 0
M  V30 20 C 2.151272 1.260042 5.543142 0
M  V30 21 C 1.805735 0.154740 4.593424 0
M  V30 22 C 0.418330 -0.372991 4.738247 0
M  V30 23 C -0.663721 0.646802 4.774485 0
M  V30 24 C -0.260591 -0.151843 -0.746352 0
M  V30 25 C 0.100953 -2.643322 -3.028692 0
M  V30 26 N -0.856793 -3.487497 -2.573456 0
M  V30 27 H -2.951738 -5.724838 -2.344105 0
M  V30 28 H -1.524516 -6.556309 -1.976962 0
M  V30 29 H 1.815611 -4.948919 -4.862378 0
M  V30 30 H 2.806295 -2.246112 -4.844980 0
M  V30 31 H 1.873693 -0.076890 -3.603367 0
M  V30 32 H -1.957188 -0.276309 -3.705720 0
M  V30 33 H -3.462970 1.099680 -2.439709 0
M  V30 34 H -1.265955 3.402343 4.673991 0
M  V30 35 H 0.526458 3.648359 3.737056 0
M  V30 36 H 1.480667 2.287062 3.163335 0
M  V30 37 H 0.589042 2.653592 6.082097 0
M  V30 38 H 2.053894 3.366261 5.373591 0
M  V30 39 H 2.005239 0.889615 6.572140 0
M  V30 40 H 3.248594 1.450314 5.439818 0
M  V30 41 H 2.487705 -0.701021 4.873896 0
M  V30 42 H 2.067852 0.370222 3.542366 0
M  V30 43 H 0.264151 -1.134410 3.953420 0
M  V30 44 H 0.369255 -0.936312 5.707749 0
M  V30 45 H -0.806019 1.067961 5.782323 0
M  V30 46 H -1.620695 0.126194 4.529457 0
M  V30 47 H 0.648931 -0.523824 -0.308702 0
M  V30 END ATOM
M  V30 BEGIN BOND
M  V30 1 1 1 2
M  V30 2 2 2 3
M  V30 3 1 3 4
M  V30 4 2 4 5
M  V30 5 1 5 6
M  V30 6 2 6 7
M  V30 7 1 7 8
M  V30 8 1 8 9
M  V30 9 2 9 10
M  V30 10 1 10 11
M  V30 11 2 11 12
M  V30 12 1 12 13
M  V30 13 1 13 14
M  V30 14 3 14 15
M  V30 15 1 15 16
M  V30 16 1 16 17
M  V30 17 1 16 18
M  V30 18 1 18 19
M  V30 19 1 19 20
M  V30 20 1 20 21
M  V30 21 1 21 22
M  V30 22 1 22 23
M  V30 23 2 13 24
M  V30 24 1 8 25
M  V30 25 2 25 26
M  V30 26 1 26 2
M  V30 27 1 25 5
M  V30 28 1 24 9
M  V30 29 1 23 16
M  V30 30 1 1 27
M  V30 31 1 1 28
M  V30 32 1 4 29
M  V30 33 1 6 30
M  V30 34 1 7 31
M  V30 35 1 10 32
M  V30 36 1 11 33
M  V30 37 1 17 34
M  V30 38 1 18 35
M  V30 39 1 18 36
M  V30 40 1 19 37
M  V30 41 1 19 38
M  V30 42 1 20 39
M  V30 43 1 20 40
M  V30 44 1 21 41
M  V30 45 1 21 42
M  V30 46 1 22 43
M  V30 47 1 22 44
M  V30 48 1 23 45
M  V30 49 1 23 46
M  V30 50 1 24 47
M  V30 END BOND
M  V30 END CTAB
M  END
>  <Dataset>  (190) 
ChEMBL_Kinases

>  <Ligand_Instance>  (190) 
nan

>  <PDB_ID>  (190) 
nan

>  <Standardized_SMILES>  (190) 
Nc1ncc2ccn(-c3ccnc(C#CC4(O)CCCCCC4)c3)c2n1

>  <Name>  (190) 
nan

>  <Pocket>  (190) 
nan

>  <ATP_Site>  (190) 
nan

>  <Peripheral>  (190) 
nan

>  <Num_H_Atoms_ProtBoundConf>  (190) 
nan

>  <Num_Resolved_Atoms>  (190) 
nan

>  <Num_Not_Resolved_Atoms>  (190) 
nan

$$$$
CHEMBL4637421
     RDKit          3D

  0  0  0  0  0  0  0  0  0  0999 V3000
M  V30 BEGIN CTAB
M  V30 COUNTS 63 65 0 0 0
M  V30 BEGIN ATOM
M  V30 1 C 2.360280 -3.950674 -0.249457 0
M  V30 2 C 2.581491 -3.508995 1.181275 0
M  V30 3 C 1.668470 -4.220796 2.149381 0
M  V30 4 C 2.431261 -2.015703 1.327307 0
M  V30 5 C 3.332412 -0.970732 1.241002 0
M  V30 6 N 2.680649 0.187187 1.457473 0
M  V30 7 N 1.413182 -0.063599 1.677110 0
M  V30 8 C 0.388345 0.763614 1.939595 0
M  V30 9 N 0.567201 2.174006 2.012775 0
M  V30 10 C 1.855622 2.795871 1.821522 0
M  V30 11 C 1.789552 4.274542 1.916567 0
M  V30 12 C 1.941225 4.956890 3.104401 0
M  V30 13 C 1.856027 6.343922 3.042051 0
M  V30 14 C 1.630766 7.001845 1.850127 0
M  V30 15 C 1.483909 6.296891 0.686392 0
M  V30 16 C 1.560396 4.914298 0.694511 0
M  V30 17 C -0.876167 0.249977 2.139358 0
M  V30 18 C -1.057132 -1.113501 2.062960 0
M  V30 19 N -2.270750 -1.831577 2.248859 0
M  V30 20 C -3.090066 -1.369951 1.147081 0
M  V30 21 C -2.324972 -1.655180 -0.133306 0
M  V30 22 C -3.059122 -1.223617 -1.350219 0
M  V30 23 C -2.419766 -1.528353 -2.632933 0
M  V30 24 C -2.340740 -2.825498 -3.269398 0
M  V30 25 C -1.894185 -4.085819 -2.692348 0
M  V30 26 C -2.815706 -4.738405 -1.721622 0
M  V30 27 N -4.101776 -5.030957 -2.397752 0
M  V30 28 N -0.009669 -1.934320 1.796685 0
M  V30 29 C 1.212927 -1.403987 1.606857 0
M  V30 30 H 3.019684 -4.792282 -0.464813 0
M  V30 31 H 2.706662 -3.085826 -0.883366 0
M  V30 32 H 1.286224 -4.171973 -0.425109 0
M  V30 33 H 3.611329 -3.821463 1.457362 0
M  V30 34 H 2.176349 -5.083078 2.664183 0
M  V30 35 H 1.306566 -3.567914 2.956871 0
M  V30 36 H 0.847094 -4.671460 1.550863 0
M  V30 37 H 4.367459 -1.192117 1.027515 0
M  V30 38 H -0.228553 2.805468 2.207193 0
M  V30 39 H 2.558770 2.336592 2.550811 0
M  V30 40 H 2.219849 2.458561 0.827287 0
M  V30 41 H 2.114976 4.417801 4.024386 0
M  V30 42 H 1.968174 6.931950 3.952238 0
M  V30 43 H 1.564347 8.079350 1.799153 0
M  V30 44 H 1.303390 6.781112 -0.281585 0
M  V30 45 H 1.441570 4.373409 -0.233312 0
M  V30 46 H -1.760992 0.828268 2.355347 0
M  V30 47 H -2.282335 -2.474784 3.075109 0
M  V30 48 H -4.021505 -1.979095 1.195988 0
M  V30 49 H -3.416817 -0.326048 1.230056 0
M  V30 50 H -1.866101 -2.599163 -0.165962 0
M  V30 51 H -1.400547 -0.936175 0.004092 0
M  V30 52 H -4.136620 -1.531233 -1.296143 0
M  V30 53 H -3.122328 -0.087387 -1.273267 0
M  V30 54 H -2.817711 -0.804500 -3.454775 0
M  V30 55 H -1.330678 -1.099711 -2.569246 0
M  V30 56 H -3.312455 -2.992840 -3.893705 0
M  V30 57 H -1.624704 -2.656013 -4.187654 0
M  V30 58 H -0.863961 -3.938918 -2.248786 0
M  V30 59 H -1.673407 -4.878925 -3.486797 0
M  V30 60 H -2.439728 -5.793490 -1.482477 0
M  V30 61 H -3.012419 -4.303132 -0.762523 0
M  V30 62 H -4.572987 -4.112360 -2.639608 0
M  V30 63 H -4.757726 -5.532574 -1.765288 0
M  V30 END ATOM
M  V30 BEGIN BOND
M  V30 1 1 1 2
M  V30 2 1 2 3
M  V30 3 1 2 4
M  V30 4 1 4 5
M  V30 5 2 5 6
M  V30 6 1 6 7
M  V30 7 1 7 8
M  V30 8 1 8 9
M  V30 9 1 9 10
M  V30 10 1 10 11
M  V30 11 2 11 12
M  V30 12 1 12 13
M  V30 13 2 13 14
M  V30 14 1 14 15
M  V30 15 2 15 16
M  V30 16 2 8 17
M  V30 17 1 17 18
M  V30 18 1 18 19
M  V30 19 1 19 20
M  V30 20 1 20 21
M  V30 21 1 21 22
M  V30 22 1 22 23
M  V30 23 1 23 24
M  V30 24 1 24 25
M  V30 25 1 25 26
M  V30 26 1 26 27
M  V30 27 2 18 28
M  V30 28 1 28 29
M  V30 29 2 29 4
M  V30 30 1 29 7
M  V30 31 1 16 11
M  V30 32 1 1 30
M  V30 33 1 1 31
M  V30 34 1 1 32
M  V30 35 1 2 33
M  V30 36 1 3 34
M  V30 37 1 3 35
M  V30 38 1 3 36
M  V30 39 1 5 37
M  V30 40 1 9 38
M  V30 41 1 10 39
M  V30 42 1 10 40
M  V30 43 1 12 41
M  V30 44 1 13 42
M  V30 45 1 14 43
M  V30 46 1 15 44
M  V30 47 1 16 45
M  V30 48 1 17 46
M  V30 49 1 19 47
M  V30 50 1 20 48
M  V30 51 1 20 49
M  V30 52 1 21 50
M  V30 53 1 21 51
M  V30 54 1 22 52
M  V30 55 1 22 53
M  V30 56 1 23 54
M  V30 57 1 23 55
M  V30 58 1 24 56
M  V30 59 1 24 57
M  V30 60 1 25 58
M  V30 61 1 25 59
M  V30 62 1 26 60
M  V30 63 1 26 61
M  V30 64 1 27 62
M  V30 65 1 27 63
M  V30 END BOND
M  V30 END CTAB
M  END
>  <Dataset>  (191) 
ChEMBL_Kinases

>  <Ligand_Instance>  (191) 
nan

>  <PDB_ID>  (191) 
nan

>  <Standardized_SMILES>  (191) 
CC(C)c1cnn2c(NCc3ccccc3)cc(NCCCCCCCN)nc12

>  <Name>  (191) 
nan

>  <Pocket>  (191) 
nan

>  <ATP_Site>  (191) 
nan

>  <Peripheral>  (191) 
nan

>  <Num_H_Atoms_ProtBoundConf>  (191) 
nan

>  <Num_Resolved_Atoms>  (191) 
nan

>  <Num_Not_Resolved_Atoms>  (191) 
nan

$$$$
CHEMBL4561966
     RDKit          3D

  0  0  0  0  0  0  0  0  0  0999 V3000
M  V30 BEGIN CTAB
M  V30 COUNTS 47 50 0 0 0
M  V30 BEGIN ATOM
M  V30 1 C 1.549956 -3.670623 1.455635 0
M  V30 2 C 1.485019 -2.271860 0.841362 0
M  V30 3 C 1.075995 -2.328667 -0.603144 0
M  V30 4 C 2.815492 -1.591243 0.962824 0
M  V30 5 C 3.158491 -0.985132 2.254060 0
M  V30 6 O 4.446494 -1.433946 2.636817 0
M  V30 7 C 2.227909 -1.094795 3.396355 0
M  V30 8 C 0.874258 -1.661519 3.088695 0
M  V30 9 N 0.543933 -1.510457 1.663534 0
M  V30 10 C -0.559384 -0.716549 1.177097 0
M  V30 11 C -0.306731 0.394871 0.366701 0
M  V30 12 C -1.276146 1.212109 -0.136915 0
M  V30 13 C -0.986290 2.367277 -0.980861 0
M  V30 14 C 0.280541 2.759564 -1.360758 0
M  V30 15 C 0.411653 3.878000 -2.165622 0
M  V30 16 N -0.601405 4.619507 -2.611310 0
M  V30 17 C -1.857126 4.264126 -2.258499 0
M  V30 18 C -2.023344 3.145828 -1.450945 0
M  V30 19 Cl -3.655322 2.709751 -1.010856 0
M  V30 20 N -2.548072 0.910247 0.179261 0
M  V30 21 C -2.877689 -0.138799 0.951356 0
M  V30 22 C -4.194834 -0.416551 1.252289 0
M  V30 23 N -4.459694 -1.492508 2.036512 0
M  V30 24 C -3.508160 -2.287804 2.525659 0
M  V30 25 C -2.201555 -2.020842 2.233252 0
M  V30 26 C -1.890123 -0.953640 1.451751 0
M  V30 27 H 1.916554 -4.409218 0.688093 0
M  V30 28 H 2.301117 -3.654973 2.270321 0
M  V30 29 H 0.545656 -4.011064 1.779261 0
M  V30 30 H 0.788532 -3.396061 -0.821797 0
M  V30 31 H 2.002617 -2.188635 -1.234708 0
M  V30 32 H 0.298440 -1.623908 -0.898966 0
M  V30 33 H 3.564172 -2.382968 0.659776 0
M  V30 34 H 2.882843 -0.865279 0.101974 0
M  V30 35 H 3.344878 0.117137 2.075287 0
M  V30 36 H 4.952029 -1.680478 1.817139 0
M  V30 37 H 2.068876 -0.126257 3.916832 0
M  V30 38 H 2.680329 -1.752450 4.177064 0
M  V30 39 H 0.831611 -2.738685 3.346412 0
M  V30 40 H 0.080115 -1.150202 3.663196 0
M  V30 41 H 0.736518 0.578753 0.152657 0
M  V30 42 H 1.116140 2.193918 -1.025774 0
M  V30 43 H 1.417272 4.198464 -2.473771 0
M  V30 44 H -2.737367 4.827819 -2.588504 0
M  V30 45 H -4.932491 0.253078 0.835344 0
M  V30 46 H -3.742781 -3.145524 3.152618 0
M  V30 47 H -1.448837 -2.674082 2.634894 0
M  V30 END ATOM
M  V30 BEGIN BOND
M  V30 1 1 1 2
M  V30 2 1 2 3
M  V30 3 1 2 4
M  V30 4 1 4 5
M  V30 5 1 5 6
M  V30 6 1 5 7
M  V30 7 1 7 8
M  V30 8 1 8 9
M  V30 9 1 9 10
M  V30 10 2 10 11
M  V30 11 1 11 12
M  V30 12 1 12 13
M  V30 13 2 13 14
M  V30 14 1 14 15
M  V30 15 2 15 16
M  V30 16 1 16 17
M  V30 17 2 17 18
M  V30 18 1 18 19
M  V30 19 2 12 20
M  V30 20 1 20 21
M  V30 21 2 21 22
M  V30 22 1 22 23
M  V30 23 2 23 24
M  V30 24 1 24 25
M  V30 25 2 25 26
M  V30 26 1 9 2
M  V30 27 1 26 10
M  V30 28 1 18 13
M  V30 29 1 26 21
M  V30 30 1 1 27
M  V30 31 1 1 28
M  V30 32 1 1 29
M  V30 33 1 3 30
M  V30 34 1 3 31
M  V30 35 1 3 32
M  V30 36 1 4 33
M  V30 37 1 4 34
M  V30 38 1 5 35
M  V30 39 1 6 36
M  V30 40 1 7 37
M  V30 41 1 7 38
M  V30 42 1 8 39
M  V30 43 1 8 40
M  V30 44 1 11 41
M  V30 45 1 14 42
M  V30 46 1 15 43
M  V30 47 1 17 44
M  V30 48 1 22 45
M  V30 49 1 24 46
M  V30 50 1 25 47
M  V30 END BOND
M  V30 END CTAB
M  END
>  <Dataset>  (192) 
ChEMBL_Kinases

>  <Ligand_Instance>  (192) 
nan

>  <PDB_ID>  (192) 
nan

>  <Standardized_SMILES>  (192) 
CC1(C)CC(O)CCN1c1cc(-c2ccncc2Cl)nc2cnccc12

>  <Name>  (192) 
nan

>  <Pocket>  (192) 
nan

>  <ATP_Site>  (192) 
nan

>  <Peripheral>  (192) 
nan

>  <Num_H_Atoms_ProtBoundConf>  (192) 
nan

>  <Num_Resolved_Atoms>  (192) 
nan

>  <Num_Not_Resolved_Atoms>  (192) 
nan

$$$$
CHEMBL4561931
     RDKit          3D

  0  0  0  0  0  0  0  0  0  0999 V3000
M  V30 BEGIN CTAB
M  V30 COUNTS 33 35 0 0 0
M  V30 BEGIN ATOM
M  V30 1 C -2.114092 -2.313155 4.040377 0
M  V30 2 C -1.978174 -3.063854 2.729986 0
M  V30 3 N -1.492899 -2.119465 1.738284 0
M  V30 4 N -0.200572 -1.934445 1.526080 0
M  V30 5 C -0.013495 -1.014159 0.564233 0
M  V30 6 C 1.255796 -0.527870 0.029809 0
M  V30 7 C 2.103131 -1.608824 -0.256479 0
M  V30 8 C 3.361476 -1.287128 -0.771024 0
M  V30 9 C 3.680626 -0.001189 -0.957388 0
M  V30 10 S 5.174759 0.874496 -1.591424 0
M  V30 11 C 4.380441 2.610225 -1.356388 0
M  V30 12 N 3.244996 2.349423 -0.893319 0
M  V30 13 C 2.867957 1.104730 -0.685870 0
M  V30 14 C 1.631237 0.774860 -0.179369 0
M  V30 15 C -1.295260 -0.661340 0.215054 0
M  V30 16 C -1.710928 0.298821 -0.792174 0
M  V30 17 N -1.184389 1.190582 -1.750691 0
M  V30 18 O -2.914749 0.553095 -1.032420 0
M  V30 19 C -2.255176 -1.329501 0.926214 0
M  V30 20 N -3.673778 -1.259486 0.874704 0
M  V30 21 H -1.080225 -2.103364 4.385868 0
M  V30 22 H -2.657222 -2.929728 4.790768 0
M  V30 23 H -2.613527 -1.346958 3.862968 0
M  V30 24 H -3.005105 -3.375158 2.454905 0
M  V30 25 H -1.353631 -3.949652 2.833631 0
M  V30 26 H 1.897702 -2.646640 -0.126773 0
M  V30 27 H 4.146611 -1.976503 -1.050783 0
M  V30 28 H 4.804537 3.604206 -1.570912 0
M  V30 29 H 0.847913 1.448821 0.107235 0
M  V30 30 H -0.697143 2.116425 -1.627134 0
M  V30 31 H -0.706457 2.096586 -1.650993 0
M  V30 32 H -4.310478 -0.535842 1.285393 0
M  V30 33 H -4.198900 -2.020079 0.362740 0
M  V30 END ATOM
M  V30 BEGIN BOND
M  V30 1 1 1 2
M  V30 2 1 2 3
M  V30 3 1 3 4
M  V30 4 2 4 5
M  V30 5 1 5 6
M  V30 6 2 6 7
M  V30 7 1 7 8
M  V30 8 2 8 9
M  V30 9 1 9 10
M  V30 10 1 10 11
M  V30 11 2 11 12
M  V30 12 1 12 13
M  V30 13 2 13 14
M  V30 14 1 5 15
M  V30 15 1 15 16
M  V30 16 1 16 17
M  V30 17 2 16 18
M  V30 18 2 15 19
M  V30 19 1 19 20
M  V30 20 1 19 3
M  V30 21 1 14 6
M  V30 22 1 13 9
M  V30 23 1 1 21
M  V30 24 1 1 22
M  V30 25 1 1 23
M  V30 26 1 2 24
M  V30 27 1 2 25
M  V30 28 1 7 26
M  V30 29 1 8 27
M  V30 30 1 11 28
M  V30 31 1 14 29
M  V30 32 1 17 30
M  V30 33 1 17 31
M  V30 34 1 20 32
M  V30 35 1 20 33
M  V30 END BOND
M  V30 END CTAB
M  END
>  <Dataset>  (193) 
ChEMBL_Kinases

>  <Ligand_Instance>  (193) 
nan

>  <PDB_ID>  (193) 
nan

>  <Standardized_SMILES>  (193) 
CCn1nc(-c2ccc3scnc3c2)c(C(N)=O)c1N

>  <Name>  (193) 
nan

>  <Pocket>  (193) 
nan

>  <ATP_Site>  (193) 
nan

>  <Peripheral>  (193) 
nan

>  <Num_H_Atoms_ProtBoundConf>  (193) 
nan

>  <Num_Resolved_Atoms>  (193) 
nan

>  <Num_Not_Resolved_Atoms>  (193) 
nan

$$$$
CHEMBL4561883
     RDKit          3D

  0  0  0  0  0  0  0  0  0  0999 V3000
M  V30 BEGIN CTAB
M  V30 COUNTS 44 48 0 0 0
M  V30 BEGIN ATOM
M  V30 1 O -0.411925 2.099789 -0.905882 0
M  V30 2 S 0.951044 2.620314 -1.310138 0
M  V30 3 O 0.781127 4.129097 -1.404401 0
M  V30 4 C 1.301629 2.035732 -2.868201 0
M  V30 5 C 1.451989 2.672433 -4.135709 0
M  V30 6 C 1.746566 1.931651 -5.241460 0
M  V30 7 C 1.895866 0.472750 -5.053011 0
M  V30 8 S 1.578835 0.322124 -3.206274 0
M  V30 9 N 2.154223 2.318918 -0.159837 0
M  V30 10 C 2.472704 0.988628 0.124047 0
M  V30 11 C 1.415858 0.106736 0.718275 0
M  V30 12 C 0.663279 0.795111 1.795512 0
M  V30 13 C 0.994468 2.106337 1.843255 0
M  V30 14 S 0.062352 2.813950 3.218032 0
M  V30 15 C -0.716018 1.172177 3.597276 0
M  V30 16 N -1.615937 0.915113 4.605119 0
M  V30 17 C -2.096277 -0.318908 4.765377 0
M  V30 18 N -1.615114 -1.169598 3.884245 0
M  V30 19 C -0.751393 -0.929943 2.914057 0
M  V30 20 N -0.463075 -2.065558 2.153847 0
M  V30 21 C -0.751867 -3.426903 2.343269 0
M  V30 22 C -1.424160 -3.952636 3.421193 0
M  V30 23 C -1.705719 -5.275428 3.606302 0
M  V30 24 C -1.298451 -6.186951 2.656263 0
M  V30 25 Cl -1.612507 -7.900883 2.806316 0
M  V30 26 C -0.619911 -5.737321 1.548712 0
M  V30 27 C -0.380786 -4.404908 1.442145 0
M  V30 28 F 0.302381 -4.028536 0.309785 0
M  V30 29 C -0.217860 0.309001 2.694696 0
M  V30 30 C 1.872500 3.020724 1.077920 0
M  V30 31 H 1.310801 3.736168 -4.091654 0
M  V30 32 H 1.857705 2.420518 -6.195222 0
M  V30 33 H 2.137988 -0.112816 -5.977182 0
M  V30 34 H 2.908195 0.507034 -0.771769 0
M  V30 35 H 3.323453 1.014826 0.866739 0
M  V30 36 H 1.939162 -0.817752 1.128557 0
M  V30 37 H 0.797258 -0.247871 -0.122047 0
M  V30 38 H -2.776192 -0.328989 5.591649 0
M  V30 39 H 0.028284 -1.910086 1.282874 0
M  V30 40 H -1.798208 -3.371986 4.238733 0
M  V30 41 H -2.230828 -5.709932 4.443866 0
M  V30 42 H -0.305180 -6.440112 0.815067 0
M  V30 43 H 1.383542 3.988133 0.856686 0
M  V30 44 H 2.858087 3.169034 1.570561 0
M  V30 END ATOM
M  V30 BEGIN BOND
M  V30 1 2 1 2
M  V30 2 2 2 3
M  V30 3 1 2 4
M  V30 4 2 4 5
M  V30 5 1 5 6
M  V30 6 2 6 7
M  V30 7 1 7 8
M  V30 8 1 2 9
M  V30 9 1 9 10
M  V30 10 1 10 11
M  V30 11 1 11 12
M  V30 12 2 12 13
M  V30 13 1 13 14
M  V30 14 1 14 15
M  V30 15 2 15 16
M  V30 16 1 16 17
M  V30 17 2 17 18
M  V30 18 1 18 19
M  V30 19 1 19 20
M  V30 20 1 20 21
M  V30 21 2 21 22
M  V30 22 1 22 23
M  V30 23 2 23 24
M  V30 24 1 24 25
M  V30 25 1 24 26
M  V30 26 2 26 27
M  V30 27 1 27 28
M  V30 28 2 19 29
M  V30 29 1 13 30
M  V30 30 1 8 4
M  V30 31 1 30 9
M  V30 32 1 29 12
M  V30 33 1 29 15
M  V30 34 1 27 21
M  V30 35 1 5 31
M  V30 36 1 6 32
M  V30 37 1 7 33
M  V30 38 1 10 34
M  V30 39 1 10 35
M  V30 40 1 11 36
M  V30 41 1 11 37
M  V30 42 1 17 38
M  V30 43 1 20 39
M  V30 44 1 22 40
M  V30 45 1 23 41
M  V30 46 1 26 42
M  V30 47 1 30 43
M  V30 48 1 30 44
M  V30 END BOND
M  V30 END CTAB
M  END
>  <Dataset>  (194) 
ChEMBL_Kinases

>  <Ligand_Instance>  (194) 
nan

>  <PDB_ID>  (194) 
nan

>  <Standardized_SMILES>  (194) 
O=S(=O)(c1cccs1)N1CCc2c(sc3ncnc(Nc4ccc(Cl)cc4F)c23)C1

>  <Name>  (194) 
nan

>  <Pocket>  (194) 
nan

>  <ATP_Site>  (194) 
nan

>  <Peripheral>  (194) 
nan

>  <Num_H_Atoms_ProtBoundConf>  (194) 
nan

>  <Num_Resolved_Atoms>  (194) 
nan

>  <Num_Not_Resolved_Atoms>  (194) 
nan

$$$$
CHEMBL4561857
     RDKit          3D

  0  0  0  0  0  0  0  0  0  0999 V3000
M  V30 BEGIN CTAB
M  V30 COUNTS 56 60 0 0 0
M  V30 BEGIN ATOM
M  V30 1 C -3.485821 0.371493 0.409118 0
M  V30 2 C -2.016817 0.460098 0.250253 0
M  V30 3 S -0.925983 1.623932 1.139477 0
M  V30 4 C 0.539538 1.071665 0.394192 0
M  V30 5 C 1.955715 1.568872 0.617242 0
M  V30 6 O 2.996062 1.157953 0.070923 0
M  V30 7 N 2.066510 2.616142 1.557247 0
M  V30 8 C 3.339294 3.211093 1.893100 0 CFG=1
M  V30 9 C 3.416351 4.647315 1.465951 0
M  V30 10 C 4.489686 5.427136 2.128333 0
M  V30 11 C 4.285892 5.346756 3.627135 0
M  V30 12 C 4.549294 3.889065 3.994292 0
M  V30 13 F 4.349397 3.792279 5.364635 0
M  V30 14 F 5.874167 3.600974 3.731520 0
M  V30 15 C 3.607433 2.938240 3.325639 0 CFG=1
M  V30 16 N 2.362927 2.827232 4.065928 0
M  V30 17 C 0.192762 0.096616 -0.443176 0
M  V30 18 C -1.135771 -0.242248 -0.537288 0
M  V30 19 C -1.713806 -1.289951 -1.405686 0
M  V30 20 C -2.112811 -0.926320 -2.687576 0
M  V30 21 N -2.599980 -2.051821 -3.266834 0
M  V30 22 N -2.526795 -3.071322 -2.433134 0
M  V30 23 C -2.845121 -4.387207 -2.445899 0
M  V30 24 C -2.615744 -5.184975 -1.338291 0
M  V30 25 C -2.988490 -6.596506 -1.431280 0
M  V30 26 C -2.313940 -7.611512 -0.754585 0
M  V30 27 N -2.885946 -8.819778 -1.032526 0
M  V30 28 N -3.906847 -8.582435 -1.870966 0
M  V30 29 C -4.764688 -9.617967 -2.398457 0
M  V30 30 C -3.984084 -7.262926 -2.120490 0
M  V30 31 C -2.058079 -4.693727 -0.174901 0
M  V30 32 N -1.745331 -3.365484 -0.184629 0
M  V30 33 C -1.990573 -2.636798 -1.290513 0
M  V30 34 H -3.676976 0.515750 1.513694 0
M  V30 35 H -4.054047 1.148490 -0.099710 0
M  V30 36 H -3.752697 -0.663978 0.210077 0
M  V30 37 H 1.302010 3.081281 2.108130 0
M  V30 38 H 4.098639 2.658847 1.264792 0
M  V30 39 H 2.440517 5.166103 1.661786 0
M  V30 40 H 3.615901 4.665117 0.358564 0
M  V30 41 H 4.446761 6.464414 1.741140 0
M  V30 42 H 5.472477 4.931890 1.914448 0
M  V30 43 H 3.244967 5.607433 3.922374 0
M  V30 44 H 5.049589 5.936306 4.183963 0
M  V30 45 H 4.086972 1.920933 3.412994 0
M  V30 46 H 1.822409 3.716182 4.064337 0
M  V30 47 H 2.528713 2.458333 5.039933 0
M  V30 48 H 0.934948 -0.441263 -1.057041 0
M  V30 49 H -2.091713 0.014875 -3.222904 0
M  V30 50 H -3.288973 -4.773397 -3.375138 0
M  V30 51 H -1.455597 -7.587277 -0.081493 0
M  V30 52 H -4.713997 -10.527407 -1.740917 0
M  V30 53 H -5.830651 -9.351902 -2.436198 0
M  V30 54 H -4.386835 -9.981459 -3.396775 0
M  V30 55 H -4.684036 -6.732871 -2.747838 0
M  V30 56 H -1.893278 -5.338148 0.665871 0
M  V30 END ATOM
M  V30 BEGIN BOND
M  V30 1 1 1 2
M  V30 2 1 2 3
M  V30 3 1 3 4
M  V30 4 1 4 5
M  V30 5 2 5 6
M  V30 6 1 5 7
M  V30 7 1 7 8
M  V30 8 1 8 9
M  V30 9 1 9 10
M  V30 10 1 10 11
M  V30 11 1 11 12
M  V30 12 1 12 13
M  V30 13 1 12 14
M  V30 14 1 12 15
M  V30 15 1 15 16
M  V30 16 2 4 17
M  V30 17 1 17 18
M  V30 18 1 18 19
M  V30 19 1 19 20
M  V30 20 2 20 21
M  V30 21 1 21 22
M  V30 22 1 22 23
M  V30 23 2 23 24
M  V30 24 1 24 25
M  V30 25 1 25 26
M  V30 26 2 26 27
M  V30 27 1 27 28
M  V30 28 1 28 29
M  V30 29 1 28 30
M  V30 30 1 24 31
M  V30 31 2 31 32
M  V30 32 1 32 33
M  V30 33 2 18 2
M  V30 34 2 33 19
M  V30 35 1 15 8
M  V30 36 1 33 22
M  V30 37 2 30 25
M  V30 38 1 1 34
M  V30 39 1 1 35
M  V30 40 1 1 36
M  V30 41 1 7 37
M  V30 42 1 8 38 CFG=3
M  V30 43 1 9 39
M  V30 44 1 9 40
M  V30 45 1 10 41
M  V30 46 1 10 42
M  V30 47 1 11 43
M  V30 48 1 11 44
M  V30 49 1 15 45 CFG=3
M  V30 50 1 16 46
M  V30 51 1 16 47
M  V30 52 1 17 48
M  V30 53 1 20 49
M  V30 54 1 23 50
M  V30 55 1 26 51
M  V30 56 1 29 52
M  V30 57 1 29 53
M  V30 58 1 29 54
M  V30 59 1 30 55
M  V30 60 1 31 56
M  V30 END BOND
M  V30 END CTAB
M  END
>  <Dataset>  (195) 
ChEMBL_Kinases

>  <Ligand_Instance>  (195) 
nan

>  <PDB_ID>  (195) 
nan

>  <Standardized_SMILES>  (195) 
Cc1sc(C(=O)N[C@H]2CCCC(F)(F)[C@H]2N)cc1-c1cnn2cc(-c3cnn(C)c3)cnc12

>  <Name>  (195) 
nan

>  <Pocket>  (195) 
nan

>  <ATP_Site>  (195) 
nan

>  <Peripheral>  (195) 
nan

>  <Num_H_Atoms_ProtBoundConf>  (195) 
nan

>  <Num_Resolved_Atoms>  (195) 
nan

>  <Num_Not_Resolved_Atoms>  (195) 
nan

$$$$
CHEMBL4637443
     RDKit          3D

  0  0  0  0  0  0  0  0  0  0999 V3000
M  V30 BEGIN CTAB
M  V30 COUNTS 63 68 0 0 0
M  V30 BEGIN ATOM
M  V30 1 C 1.118441 2.262512 5.558425 0
M  V30 2 C 0.263579 1.165088 6.101200 0
M  V30 3 C 0.895705 -0.207294 6.170884 0
M  V30 4 N 1.264272 -0.576474 4.814275 0
M  V30 5 C 2.398299 -0.368331 4.137971 0
M  V30 6 C 2.323818 -0.890330 2.859093 0
M  V30 7 N 3.297064 -0.887174 1.821858 0
M  V30 8 C 2.988538 -1.493011 0.566697 0
M  V30 9 C 2.406319 -0.780737 -0.484128 0
M  V30 10 C 2.112005 -1.386474 -1.701439 0
M  V30 11 O 1.545541 -0.566129 -2.634148 0
M  V30 12 C 0.217152 -0.314637 -2.837316 0
M  V30 13 C -0.209088 1.012539 -2.705409 0
M  V30 14 N -1.513831 1.076951 -2.934039 0
M  V30 15 C -2.392420 2.241074 -2.911429 0
M  V30 16 C -3.402933 2.348276 -1.847144 0
M  V30 17 C -3.808023 2.084531 -3.298139 0
M  V30 18 N -1.923504 -0.144815 -3.202203 0
M  V30 19 C -0.906671 -1.021868 -3.154794 0
M  V30 20 C -0.838224 -2.478520 -3.371990 0
M  V30 21 C -1.085922 -3.230022 -2.081791 0
M  V30 22 C -2.392464 -4.000207 -2.110447 0
M  V30 23 O -2.400587 -4.952606 -3.126228 0
M  V30 24 C -1.972905 -4.431591 -4.339998 0
M  V30 25 C -1.941065 -2.925040 -4.340000 0
M  V30 26 C 2.430650 -2.724694 -1.799674 0
M  V30 27 C 3.004082 -3.437332 -0.772490 0
M  V30 28 N 3.272216 -2.815863 0.385790 0
M  V30 29 C 1.058720 -1.432394 2.807222 0
M  V30 30 N 0.438982 -1.235457 3.985405 0
M  V30 31 C -1.133893 1.153888 5.521918 0
M  V30 32 O -1.617342 0.863529 6.782051 0
M  V30 33 C -0.541571 1.561693 7.326581 0
M  V30 34 H 1.773663 2.718277 6.329433 0
M  V30 35 H 0.436124 3.088342 5.234414 0
M  V30 36 H 1.642662 1.918958 4.660472 0
M  V30 37 H 0.113136 -0.906287 6.542306 0
M  V30 38 H 1.739487 -0.235706 6.874906 0
M  V30 39 H 3.261306 0.146294 4.550804 0
M  V30 40 H 4.208301 -0.432591 2.033429 0
M  V30 41 H 2.215020 0.257197 -0.257779 0
M  V30 42 H 0.341065 1.933832 -2.459190 0
M  V30 43 H -1.896903 3.190056 -3.236872 0
M  V30 44 H -3.600308 1.503467 -1.148272 0
M  V30 45 H -3.619749 3.362918 -1.429897 0
M  V30 46 H -4.239544 1.078697 -3.513039 0
M  V30 47 H -4.314487 2.926629 -3.813955 0
M  V30 48 H 0.104499 -2.768773 -3.879152 0
M  V30 49 H -1.217738 -2.468501 -1.260708 0
M  V30 50 H -0.235333 -3.851110 -1.807595 0
M  V30 51 H -2.444011 -4.557479 -1.152278 0
M  V30 52 H -3.267296 -3.320142 -2.131985 0
M  V30 53 H -2.584311 -4.751008 -5.196052 0
M  V30 54 H -0.940962 -4.798539 -4.518259 0
M  V30 55 H -2.872724 -2.498722 -3.961586 0
M  V30 56 H -1.700515 -2.617149 -5.384726 0
M  V30 57 H 2.190315 -3.172839 -2.759901 0
M  V30 58 H 3.213857 -4.481127 -0.953549 0
M  V30 59 H 0.626373 -1.939542 1.952315 0
M  V30 60 H -1.395298 2.144578 5.097557 0
M  V30 61 H -1.274621 0.341114 4.765179 0
M  V30 62 H -0.194482 1.130531 8.277949 0
M  V30 63 H -0.677933 2.656978 7.379760 0
M  V30 END ATOM
M  V30 BEGIN BOND
M  V30 1 1 1 2
M  V30 2 1 2 3
M  V30 3 1 3 4
M  V30 4 1 4 5
M  V30 5 2 5 6
M  V30 6 1 6 7
M  V30 7 1 7 8
M  V30 8 2 8 9
M  V30 9 1 9 10
M  V30 10 1 10 11
M  V30 11 1 11 12
M  V30 12 2 12 13
M  V30 13 1 13 14
M  V30 14 1 14 15
M  V30 15 1 15 16
M  V30 16 1 16 17
M  V30 17 1 14 18
M  V30 18 2 18 19
M  V30 19 1 19 20
M  V30 20 1 20 21
M  V30 21 1 21 22
M  V30 22 1 22 23
M  V30 23 1 23 24
M  V30 24 1 24 25
M  V30 25 2 10 26
M  V30 26 1 26 27
M  V30 27 2 27 28
M  V30 28 1 6 29
M  V30 29 2 29 30
M  V30 30 1 2 31
M  V30 31 1 31 32
M  V30 32 1 32 33
M  V30 33 1 33 2
M  V30 34 1 30 4
M  V30 35 1 28 8
M  V30 36 1 19 12
M  V30 37 1 25 20
M  V30 38 1 17 15
M  V30 39 1 1 34
M  V30 40 1 1 35
M  V30 41 1 1 36
M  V30 42 1 3 37
M  V30 43 1 3 38
M  V30 44 1 5 39
M  V30 45 1 7 40
M  V30 46 1 9 41
M  V30 47 1 13 42
M  V30 48 1 15 43
M  V30 49 1 16 44
M  V30 50 1 16 45
M  V30 51 1 17 46
M  V30 52 1 17 47
M  V30 53 1 20 48
M  V30 54 1 21 49
M  V30 55 1 21 50
M  V30 56 1 22 51
M  V30 57 1 22 52
M  V30 58 1 24 53
M  V30 59 1 24 54
M  V30 60 1 25 55
M  V30 61 1 25 56
M  V30 62 1 26 57
M  V30 63 1 27 58
M  V30 64 1 29 59
M  V30 65 1 31 60
M  V30 66 1 31 61
M  V30 67 1 33 62
M  V30 68 1 33 63
M  V30 END BOND
M  V30 END CTAB
M  END
>  <Dataset>  (196) 
ChEMBL_Kinases

>  <Ligand_Instance>  (196) 
nan

>  <PDB_ID>  (196) 
nan

>  <Standardized_SMILES>  (196) 
CC1(Cn2cc(Nc3cc(Oc4cn(C5CC5)nc4C4CCOCC4)ccn3)cn2)COC1

>  <Name>  (196) 
nan

>  <Pocket>  (196) 
nan

>  <ATP_Site>  (196) 
nan

>  <Peripheral>  (196) 
nan

>  <Num_H_Atoms_ProtBoundConf>  (196) 
nan

>  <Num_Resolved_Atoms>  (196) 
nan

>  <Num_Not_Resolved_Atoms>  (196) 
nan

$$$$
CHEMBL4561768
     RDKit          3D

  0  0  0  0  0  0  0  0  0  0999 V3000
M  V30 BEGIN CTAB
M  V30 COUNTS 42 45 0 0 0
M  V30 BEGIN ATOM
M  V30 1 O 0.240745 -1.850498 2.137732 0
M  V30 2 C -0.826850 -2.226090 2.628737 0
M  V30 3 N -0.338042 -2.866821 1.468287 0
M  V30 4 C 0.697635 -2.902963 0.490882 0
M  V30 5 C 1.838603 -3.656529 0.583888 0
M  V30 6 C 2.698908 -3.479216 -0.468813 0
M  V30 7 C 2.367912 -2.611122 -1.478407 0
M  V30 8 C 1.206908 -1.874126 -1.533599 0
M  V30 9 N 0.366929 -2.050427 -0.497209 0
M  V30 10 C 0.813075 -0.948728 -2.600557 0
M  V30 11 N 1.206056 -1.392132 -3.839481 0
M  V30 12 N 0.818016 -0.532981 -4.767589 0
M  V30 13 C 0.192571 0.419067 -4.053035 0
M  V30 14 N 0.164091 0.198437 -2.674890 0
M  V30 15 C -0.552974 1.302964 -2.106358 0
M  V30 16 C -0.613304 1.224215 -0.621369 0
M  V30 17 C 0.747380 1.366501 -0.015360 0
M  V30 18 C 0.710488 1.418437 1.494067 0
M  V30 19 O 0.083699 0.339995 2.105433 0
M  V30 20 C 0.002693 0.205791 3.493649 0
M  V30 21 C 0.220062 0.935025 4.612867 0
M  V30 22 C 0.004323 0.344303 5.829143 0
M  V30 23 C -0.419151 -0.942461 6.017263 0
M  V30 24 C -0.616699 -1.611214 4.829616 0
M  V30 25 C -0.438679 -1.130711 3.552139 0
M  V30 26 H -0.856355 -3.689330 1.102418 0
M  V30 27 H 1.762702 -4.224525 1.486994 0
M  V30 28 H 3.587955 -4.064144 -0.394572 0
M  V30 29 H 3.057158 -2.480065 -2.296825 0
M  V30 30 H -0.104900 1.100592 -4.877778 0
M  V30 31 H -1.623263 1.380147 -2.437402 0
M  V30 32 H -0.141151 2.323433 -2.415015 0
M  V30 33 H -1.215654 2.079920 -0.190138 0
M  V30 34 H -1.159732 0.327941 -0.255148 0
M  V30 35 H 1.496422 0.638859 -0.293796 0
M  V30 36 H 1.133581 2.364822 -0.379991 0
M  V30 37 H 1.790246 1.442289 1.824603 0
M  V30 38 H 0.305651 2.419626 1.803410 0
M  V30 39 H 0.541235 1.900800 4.306129 0
M  V30 40 H 0.205628 1.004805 6.652459 0
M  V30 41 H -0.570629 -1.354719 6.997962 0
M  V30 42 H -0.918395 -2.641711 4.811366 0
M  V30 END ATOM
M  V30 BEGIN BOND
M  V30 1 2 1 2
M  V30 2 1 2 3
M  V30 3 1 3 4
M  V30 4 1 4 5
M  V30 5 2 5 6
M  V30 6 1 6 7
M  V30 7 2 7 8
M  V30 8 1 8 9
M  V30 9 1 8 10
M  V30 10 2 10 11
M  V30 11 1 11 12
M  V30 12 2 12 13
M  V30 13 1 13 14
M  V30 14 1 14 15
M  V30 15 1 15 16
M  V30 16 1 16 17
M  V30 17 1 17 18
M  V30 18 1 18 19
M  V30 19 1 19 20
M  V30 20 2 20 21
M  V30 21 1 21 22
M  V30 22 2 22 23
M  V30 23 1 23 24
M  V30 24 2 24 25
M  V30 25 1 25 2
M  V30 26 2 9 4
M  V30 27 1 14 10
M  V30 28 1 25 20
M  V30 29 1 3 26
M  V30 30 1 5 27
M  V30 31 1 6 28
M  V30 32 1 7 29
M  V30 33 1 13 30
M  V30 34 1 15 31
M  V30 35 1 15 32
M  V30 36 1 16 33
M  V30 37 1 16 34
M  V30 38 1 17 35
M  V30 39 1 17 36
M  V30 40 1 18 37
M  V30 41 1 18 38
M  V30 42 1 21 39
M  V30 43 1 22 40
M  V30 44 1 23 41
M  V30 45 1 24 42
M  V30 END BOND
M  V30 END CTAB
M  END
>  <Dataset>  (197) 
ChEMBL_Kinases

>  <Ligand_Instance>  (197) 
nan

>  <PDB_ID>  (197) 
nan

>  <Standardized_SMILES>  (197) 
O=C1Nc2cccc(n2)-c2nncn2CCCCOc2ccccc21

>  <Name>  (197) 
nan

>  <Pocket>  (197) 
nan

>  <ATP_Site>  (197) 
nan

>  <Peripheral>  (197) 
nan

>  <Num_H_Atoms_ProtBoundConf>  (197) 
nan

>  <Num_Resolved_Atoms>  (197) 
nan

>  <Num_Not_Resolved_Atoms>  (197) 
nan

$$$$
CHEMBL4561737
     RDKit          3D

  0  0  0  0  0  0  0  0  0  0999 V3000
M  V30 BEGIN CTAB
M  V30 COUNTS 30 31 0 0 0
M  V30 BEGIN ATOM
M  V30 1 N 0.937647 -5.529840 -0.629809 0
M  V30 2 C 0.826012 -4.382026 -0.383395 0
M  V30 3 C 0.706403 -2.965762 -0.064866 0
M  V30 4 C 0.478127 -2.577324 1.207764 0
M  V30 5 N 0.331183 -3.323634 2.369365 0
M  V30 6 C 0.058412 -2.709664 3.650478 0
M  V30 7 C -1.266176 -2.000205 3.708080 0
M  V30 8 O -1.465528 -1.432315 4.968569 0
M  V30 9 S 0.404369 -0.775754 1.131282 0
M  V30 10 C 0.689947 -0.680122 -0.629617 0
M  V30 11 C 0.762475 0.554219 -1.427130 0
M  V30 12 O 0.967236 0.476512 -2.636801 0
M  V30 13 C 0.588375 1.788041 -0.740466 0
M  V30 14 C 0.614716 3.031311 -1.262159 0
M  V30 15 C 0.431329 4.112514 -0.476491 0
M  V30 16 C 0.205017 3.793442 0.976767 0
M  V30 17 Br -0.084979 5.358085 2.263038 0
M  V30 18 S 0.289405 1.958658 1.006394 0
M  V30 19 C 0.824965 -2.030501 -1.056083 0
M  V30 20 N 1.063823 -2.244173 -2.443018 0
M  V30 21 H 0.423836 -4.356089 2.295936 0
M  V30 22 H 0.221419 -3.403622 4.487492 0
M  V30 23 H 0.832959 -1.890685 3.758644 0
M  V30 24 H -1.304774 -1.248272 2.916578 0
M  V30 25 H -2.080034 -2.736941 3.472768 0
M  V30 26 H -1.794494 -0.506964 4.891246 0
M  V30 27 H 0.783351 3.187331 -2.319560 0
M  V30 28 H 0.431248 5.147147 -0.779519 0
M  V30 29 H 0.282390 -2.049415 -3.115525 0
M  V30 30 H 2.044215 -2.581094 -2.557057 0
M  V30 END ATOM
M  V30 BEGIN BOND
M  V30 1 3 1 2
M  V30 2 1 2 3
M  V30 3 2 3 4
M  V30 4 1 4 5
M  V30 5 1 5 6
M  V30 6 1 6 7
M  V30 7 1 7 8
M  V30 8 1 4 9
M  V30 9 1 9 10
M  V30 10 1 10 11
M  V30 11 2 11 12
M  V30 12 1 11 13
M  V30 13 2 13 14
M  V30 14 1 14 15
M  V30 15 2 15 16
M  V30 16 1 16 17
M  V30 17 1 16 18
M  V30 18 2 10 19
M  V30 19 1 19 20
M  V30 20 1 19 3
M  V30 21 1 18 13
M  V30 22 1 5 21
M  V30 23 1 6 22
M  V30 24 1 6 23
M  V30 25 1 7 24
M  V30 26 1 7 25
M  V30 27 1 8 26
M  V30 28 1 14 27
M  V30 29 1 15 28
M  V30 30 1 20 29
M  V30 31 1 20 30
M  V30 END BOND
M  V30 END CTAB
M  END
>  <Dataset>  (198) 
ChEMBL_Kinases

>  <Ligand_Instance>  (198) 
nan

>  <PDB_ID>  (198) 
nan

>  <Standardized_SMILES>  (198) 
N#Cc1c(NCCO)sc(C(=O)c2ccc(Br)s2)c1N

>  <Name>  (198) 
nan

>  <Pocket>  (198) 
nan

>  <ATP_Site>  (198) 
nan

>  <Peripheral>  (198) 
nan

>  <Num_H_Atoms_ProtBoundConf>  (198) 
nan

>  <Num_Resolved_Atoms>  (198) 
nan

>  <Num_Not_Resolved_Atoms>  (198) 
nan

$$$$
CHEMBL4560457
     RDKit          3D

  0  0  0  0  0  0  0  0  0  0999 V3000
M  V30 BEGIN CTAB
M  V30 COUNTS 47 50 0 0 0
M  V30 BEGIN ATOM
M  V30 1 C 3.247810 -5.259404 0.813446 0
M  V30 2 C 3.314316 -4.505576 2.131624 0
M  V30 3 N 3.423470 -3.095528 1.840877 0
M  V30 4 C 4.558603 -2.384714 1.672044 0
M  V30 5 C 5.859598 -2.802954 1.730842 0
M  V30 6 C 6.906942 -1.925141 1.529613 0
M  V30 7 C 6.598745 -0.594625 1.263613 0
M  V30 8 C 5.287804 -0.149699 1.199582 0
M  V30 9 C 4.270295 -1.057571 1.406380 0
M  V30 10 C 2.881504 -0.947196 1.412327 0
M  V30 11 C 2.019243 0.119239 1.211436 0
M  V30 12 C 0.654271 -0.071355 1.278001 0
M  V30 13 C -0.316020 0.998067 1.079458 0
M  V30 14 N -1.562474 0.731933 1.158102 0
M  V30 15 N -2.593201 1.664296 0.988793 0
M  V30 16 C -3.509373 1.441945 -0.072582 0
M  V30 17 O -3.298011 0.400023 -0.775180 0
M  V30 18 C -4.663533 2.245692 -0.470377 0
M  V30 19 C -4.704721 3.413885 -1.204070 0
M  V30 20 C -5.910191 4.013665 -1.467846 0
M  V30 21 C -7.071637 3.461856 -1.008779 0
M  V30 22 C -7.078252 2.283180 -0.263851 0
M  V30 23 C -5.841922 1.682747 -0.002641 0
M  V30 24 N -5.953947 0.478759 0.767556 0 CHG=1 VAL=4
M  V30 25 O -5.018056 0.199104 1.541488 0
M  V30 26 O -7.076913 -0.301976 0.617708 0 CHG=-1 VAL=1
M  V30 27 C 0.245266 -1.360094 1.550075 0
M  V30 28 C 1.054403 -2.460679 1.759071 0
M  V30 29 C 2.422169 -2.219818 1.682142 0
M  V30 30 H 2.345414 -5.903269 0.774016 0
M  V30 31 H 4.167678 -5.859372 0.657408 0
M  V30 32 H 3.183647 -4.580256 -0.060151 0
M  V30 33 H 4.148352 -4.884399 2.736973 0
M  V30 34 H 2.375117 -4.701169 2.709404 0
M  V30 35 H 6.090004 -3.845547 1.939427 0
M  V30 36 H 7.914699 -2.307156 1.586853 0
M  V30 37 H 7.444903 0.092412 1.105536 0
M  V30 38 H 5.060733 0.901665 0.989238 0
M  V30 39 H 2.405708 1.101340 1.002681 0
M  V30 40 H -0.010354 1.996288 0.870420 0
M  V30 41 H -2.815666 2.544909 1.540313 0
M  V30 42 H -3.712696 3.750958 -1.511746 0
M  V30 43 H -5.884784 4.910305 -2.036043 0
M  V30 44 H -8.034171 3.922868 -1.208094 0
M  V30 45 H -8.028120 1.875586 0.084141 0
M  V30 46 H -0.826044 -1.534098 1.607556 0
M  V30 47 H 0.619478 -3.423395 1.964812 0
M  V30 END ATOM
M  V30 BEGIN BOND
M  V30 1 1 1 2
M  V30 2 1 2 3
M  V30 3 1 3 4
M  V30 4 2 4 5
M  V30 5 1 5 6
M  V30 6 2 6 7
M  V30 7 1 7 8
M  V30 8 2 8 9
M  V30 9 1 9 10
M  V30 10 2 10 11
M  V30 11 1 11 12
M  V30 12 1 12 13
M  V30 13 2 13 14
M  V30 14 1 14 15
M  V30 15 1 15 16
M  V30 16 2 16 17
M  V30 17 1 16 18
M  V30 18 2 18 19
M  V30 19 1 19 20
M  V30 20 2 20 21
M  V30 21 1 21 22
M  V30 22 2 22 23
M  V30 23 1 23 24
M  V30 24 2 24 25
M  V30 25 1 24 26
M  V30 26 2 12 27
M  V30 27 1 27 28
M  V30 28 2 28 29
M  V30 29 1 29 3
M  V30 30 1 9 4
M  V30 31 1 29 10
M  V30 32 1 23 18
M  V30 33 1 1 30
M  V30 34 1 1 31
M  V30 35 1 1 32
M  V30 36 1 2 33
M  V30 37 1 2 34
M  V30 38 1 5 35
M  V30 39 1 6 36
M  V30 40 1 7 37
M  V30 41 1 8 38
M  V30 42 1 11 39
M  V30 43 1 13 40
M  V30 44 1 15 41
M  V30 45 1 19 42
M  V30 46 1 20 43
M  V30 47 1 21 44
M  V30 48 1 22 45
M  V30 49 1 27 46
M  V30 50 1 28 47
M  V30 END BOND
M  V30 END CTAB
M  END
>  <Dataset>  (199) 
ChEMBL_Kinases

>  <Ligand_Instance>  (199) 
nan

>  <PDB_ID>  (199) 
nan

>  <Standardized_SMILES>  (199) 
CCn1c2ccccc2c2cc(/C=N/NC(=O)c3ccccc3[N+](=O)[O-])ccc21

>  <Name>  (199) 
nan

>  <Pocket>  (199) 
nan

>  <ATP_Site>  (199) 
nan

>  <Peripheral>  (199) 
nan

>  <Num_H_Atoms_ProtBoundConf>  (199) 
nan

>  <Num_Resolved_Atoms>  (199) 
nan

>  <Num_Not_Resolved_Atoms>  (199) 
nan

$$$$
CHEMBL4637452
     RDKit          3D

  0  0  0  0  0  0  0  0  0  0999 V3000
M  V30 BEGIN CTAB
M  V30 COUNTS 49 52 0 0 0
M  V30 BEGIN ATOM
M  V30 1 N 2.441137 -7.095585 2.910089 0
M  V30 2 C 1.619712 -6.054980 2.358186 0
M  V30 3 C 1.777731 -4.747147 2.819639 0
M  V30 4 C 1.004277 -3.703445 2.315008 0
M  V30 5 F 1.262237 -2.493686 2.850333 0
M  V30 6 C 0.063405 -3.979828 1.336917 0
M  V30 7 C -0.716553 -2.851315 0.845975 0
M  V30 8 C -0.075509 -1.683149 0.550079 0
M  V30 9 C -0.733959 -0.538652 0.071747 0
M  V30 10 N -0.094095 0.651644 -0.235323 0
M  V30 11 C 0.036757 1.982707 -0.647623 0 CFG=1
M  V30 12 C -0.532361 3.037570 0.272017 0
M  V30 13 C 0.422272 3.277913 1.421197 0
M  V30 14 C 1.522861 4.252358 1.102594 0
M  V30 15 C 2.777186 3.468792 0.681992 0
M  V30 16 N 2.427121 2.329823 -0.089017 0
M  V30 17 C 1.421173 2.464620 -1.038151 0
M  V30 18 C -2.098095 -0.648204 -0.092128 0
M  V30 19 C -2.933847 0.362157 -0.558814 0
M  V30 20 C -4.282089 0.259416 -0.727328 0
M  V30 21 N -4.883214 -0.921731 -0.419875 0
M  V30 22 C -4.180726 -1.970542 0.039130 0
M  V30 23 C -2.821076 -1.810912 0.190070 0
M  V30 24 C -2.075451 -2.857561 0.648917 0
M  V30 25 C -0.105824 -5.280029 0.866384 0
M  V30 26 C 0.669030 -6.306770 1.376369 0
M  V30 27 F 0.505115 -7.567899 0.920213 0
M  V30 28 H 3.095834 -7.648517 2.298044 0
M  V30 29 H 2.335834 -7.255188 3.954226 0
M  V30 30 H 2.537953 -4.592097 3.593846 0
M  V30 31 H 1.002374 -1.657427 0.699419 0
M  V30 32 H 0.923467 0.518095 -0.050747 0
M  V30 33 H -0.541688 2.146292 -1.621118 0
M  V30 34 H -0.607146 3.975561 -0.301827 0
M  V30 35 H -1.521440 2.799675 0.686200 0
M  V30 36 H 0.879366 2.312323 1.638277 0
M  V30 37 H -0.137871 3.555761 2.361310 0
M  V30 38 H 1.244000 4.995702 0.330445 0
M  V30 39 H 1.800937 4.764320 2.046565 0
M  V30 40 H 3.277543 3.123136 1.609361 0
M  V30 41 H 3.447713 4.178213 0.177365 0
M  V30 42 H 2.932932 1.468462 0.024299 0
M  V30 43 H 1.289363 3.514966 -1.363977 0
M  V30 44 H 1.679031 1.896782 -1.966694 0
M  V30 45 H -2.503622 1.290601 -0.813458 0
M  V30 46 H -4.879558 1.078995 -1.093535 0
M  V30 47 H -4.640642 -2.916667 0.288537 0
M  V30 48 H -2.579934 -3.783683 0.884345 0
M  V30 49 H -0.858764 -5.448321 0.096121 0
M  V30 END ATOM
M  V30 BEGIN BOND
M  V30 1 1 1 2
M  V30 2 2 2 3
M  V30 3 1 3 4
M  V30 4 1 4 5
M  V30 5 2 4 6
M  V30 6 1 6 7
M  V30 7 2 7 8
M  V30 8 1 8 9
M  V30 9 1 9 10
M  V30 10 1 10 11
M  V30 11 1 11 12
M  V30 12 1 12 13
M  V30 13 1 13 14
M  V30 14 1 14 15
M  V30 15 1 15 16
M  V30 16 1 16 17
M  V30 17 2 9 18
M  V30 18 1 18 19
M  V30 19 2 19 20
M  V30 20 1 20 21
M  V30 21 2 21 22
M  V30 22 1 22 23
M  V30 23 2 23 24
M  V30 24 1 6 25
M  V30 25 2 25 26
M  V30 26 1 26 27
M  V30 27 1 26 2
M  V30 28 1 24 7
M  V30 29 1 17 11
M  V30 30 1 23 18
M  V30 31 1 1 28
M  V30 32 1 1 29
M  V30 33 1 3 30
M  V30 34 1 8 31
M  V30 35 1 10 32
M  V30 36 1 11 33 CFG=3
M  V30 37 1 12 34
M  V30 38 1 12 35
M  V30 39 1 13 36
M  V30 40 1 13 37
M  V30 41 1 14 38
M  V30 42 1 14 39
M  V30 43 1 15 40
M  V30 44 1 15 41
M  V30 45 1 16 42
M  V30 46 1 17 43
M  V30 47 1 17 44
M  V30 48 1 19 45
M  V30 49 1 20 46
M  V30 50 1 22 47
M  V30 51 1 24 48
M  V30 52 1 25 49
M  V30 END BOND
M  V30 END CTAB
M  END
>  <Dataset>  (200) 
ChEMBL_Kinases

>  <Ligand_Instance>  (200) 
nan

>  <PDB_ID>  (200) 
nan

>  <Standardized_SMILES>  (200) 
Nc1cc(F)c(-c2cc(N[C@H]3CCCCNC3)c3ccncc3c2)cc1F

>  <Name>  (200) 
nan

>  <Pocket>  (200) 
nan

>  <ATP_Site>  (200) 
nan

>  <Peripheral>  (200) 
nan

>  <Num_H_Atoms_ProtBoundConf>  (200) 
nan

>  <Num_Resolved_Atoms>  (200) 
nan

>  <Num_Not_Resolved_Atoms>  (200) 
nan

$$$$
CHEMBL4561299
     RDKit          3D

  0  0  0  0  0  0  0  0  0  0999 V3000
M  V30 BEGIN CTAB
M  V30 COUNTS 48 51 0 0 0
M  V30 BEGIN ATOM
M  V30 1 C 0.049345 -5.182567 -0.870843 0
M  V30 2 C -0.566424 -4.572772 0.389662 0
M  V30 3 C -1.682152 -5.502013 0.817322 0
M  V30 4 C -1.189604 -3.247813 0.010313 0
M  V30 5 N -0.203266 -2.329239 -0.532034 0
M  V30 6 C 0.498498 -1.472761 0.232054 0
M  V30 7 C 1.355819 -0.729178 -0.551195 0
M  V30 8 C 2.332592 0.325369 -0.313980 0
M  V30 9 N 3.570714 0.278504 -0.874680 0
M  V30 10 N 4.261942 1.345425 -0.510189 0
M  V30 11 C 3.548069 2.143021 0.290483 0
M  V30 12 C 3.678717 3.336861 0.972336 0
M  V30 13 C 2.670191 3.879660 1.739315 0
M  V30 14 N 1.505940 3.187699 1.809760 0
M  V30 15 C 1.325367 2.017146 1.163731 0
M  V30 16 O 0.085040 1.376158 1.297135 0
M  V30 17 C -0.922122 1.996697 2.110482 0
M  V30 18 C -1.237206 1.012429 3.214844 0
M  V30 19 C -2.351898 0.122058 2.709870 0
M  V30 20 O -2.256230 -0.189723 1.368872 0
M  V30 21 C -2.435328 0.939816 0.554940 0
M  V30 22 C -2.211232 2.212221 1.347412 0
M  V30 23 C 2.336958 1.497424 0.410145 0
M  V30 24 C 1.097308 -1.222381 -1.838364 0
M  V30 25 N 0.163301 -2.174994 -1.793608 0
M  V30 26 H -0.764840 -5.385883 -1.595561 0
M  V30 27 H 0.730432 -4.450706 -1.345401 0
M  V30 28 H 0.547692 -6.144194 -0.638187 0
M  V30 29 H 0.175952 -4.480750 1.188603 0
M  V30 30 H -1.273907 -6.473581 1.198177 0
M  V30 31 H -2.345469 -5.745723 -0.037470 0
M  V30 32 H -2.326848 -5.016640 1.587861 0
M  V30 33 H -1.971677 -3.452690 -0.752210 0
M  V30 34 H -1.713459 -2.844269 0.899846 0
M  V30 35 H 0.465872 -1.322090 1.302458 0
M  V30 36 H 5.258724 1.588325 -0.787491 0
M  V30 37 H 4.629081 3.840152 0.876699 0
M  V30 38 H 2.815777 4.818067 2.257021 0
M  V30 39 H -0.528479 2.943455 2.535448 0
M  V30 40 H -0.317782 0.449111 3.434974 0
M  V30 41 H -1.601564 1.593440 4.090359 0
M  V30 42 H -2.194550 -0.855112 3.254668 0
M  V30 43 H -3.355678 0.520985 2.955908 0
M  V30 44 H -3.476112 0.885393 0.171495 0
M  V30 45 H -1.709581 0.850463 -0.260089 0
M  V30 46 H -3.025160 2.335871 2.087716 0
M  V30 47 H -2.205593 3.105868 0.731355 0
M  V30 48 H 1.506858 -0.973752 -2.815239 0
M  V30 END ATOM
M  V30 BEGIN BOND
M  V30 1 1 1 2
M  V30 2 1 2 3
M  V30 3 1 2 4
M  V30 4 1 4 5
M  V30 5 1 5 6
M  V30 6 2 6 7
M  V30 7 1 7 8
M  V30 8 2 8 9
M  V30 9 1 9 10
M  V30 10 1 10 11
M  V30 11 2 11 12
M  V30 12 1 12 13
M  V30 13 2 13 14
M  V30 14 1 14 15
M  V30 15 1 15 16
M  V30 16 1 16 17
M  V30 17 1 17 18
M  V30 18 1 18 19
M  V30 19 1 19 20
M  V30 20 1 20 21
M  V30 21 1 21 22
M  V30 22 2 15 23
M  V30 23 1 7 24
M  V30 24 2 24 25
M  V30 25 1 25 5
M  V30 26 1 23 8
M  V30 27 1 23 11
M  V30 28 1 22 17
M  V30 29 1 1 26
M  V30 30 1 1 27
M  V30 31 1 1 28
M  V30 32 1 2 29
M  V30 33 1 3 30
M  V30 34 1 3 31
M  V30 35 1 3 32
M  V30 36 1 4 33
M  V30 37 1 4 34
M  V30 38 1 6 35
M  V30 39 1 10 36
M  V30 40 1 12 37
M  V30 41 1 13 38
M  V30 42 1 17 39
M  V30 43 1 18 40
M  V30 44 1 18 41
M  V30 45 1 19 42
M  V30 46 1 19 43
M  V30 47 1 21 44
M  V30 48 1 21 45
M  V30 49 1 22 46
M  V30 50 1 22 47
M  V30 51 1 24 48
M  V30 END BOND
M  V30 END CTAB
M  END
>  <Dataset>  (201) 
ChEMBL_Kinases

>  <Ligand_Instance>  (201) 
nan

>  <PDB_ID>  (201) 
nan

>  <Standardized_SMILES>  (201) 
CC(C)Cn1cc(-c2n[nH]c3ccnc(OC4CCOCC4)c23)cn1

>  <Name>  (201) 
nan

>  <Pocket>  (201) 
nan

>  <ATP_Site>  (201) 
nan

>  <Peripheral>  (201) 
nan

>  <Num_H_Atoms_ProtBoundConf>  (201) 
nan

>  <Num_Resolved_Atoms>  (201) 
nan

>  <Num_Not_Resolved_Atoms>  (201) 
nan

$$$$
CHEMBL4561290
     RDKit          3D

  0  0  0  0  0  0  0  0  0  0999 V3000
M  V30 BEGIN CTAB
M  V30 COUNTS 33 36 0 0 0
M  V30 BEGIN ATOM
M  V30 1 C -2.742984 -0.705300 0.189097 0
M  V30 2 C -2.053848 -1.870293 0.854302 0
M  V30 3 N -1.070602 -1.496142 1.851636 0
M  V30 4 C 0.029919 -0.700148 1.435998 0
M  V30 5 N 0.107783 -0.334839 0.151852 0
M  V30 6 C 1.102214 0.414683 -0.346697 0
M  V30 7 C 1.047425 0.747244 -1.833777 0
M  V30 8 C 0.406639 1.430517 -2.789568 0
M  V30 9 N 0.947781 1.240430 -3.966298 0
M  V30 10 C 1.815760 0.640480 -4.340929 0
M  V30 11 S 2.411843 -0.143684 -2.690134 0
M  V30 12 N 2.088196 0.843482 0.435401 0
M  V30 13 C 2.083840 0.519113 1.741444 0
M  V30 14 C 3.088494 0.944407 2.585714 0
M  V30 15 N 3.046832 0.597290 3.888752 0
M  V30 16 C 2.041775 -0.159991 4.391668 0
M  V30 17 C 1.015906 -0.605025 3.573264 0
M  V30 18 C 1.054612 -0.252366 2.240166 0
M  V30 19 C -2.802275 -3.144723 0.981428 0
M  V30 20 C -1.714146 -3.015671 -0.060542 0
M  V30 21 H -2.148159 -0.253365 -0.604540 0
M  V30 22 H -3.078521 -0.021008 0.991716 0
M  V30 23 H -3.667160 -1.092360 -0.297474 0
M  V30 24 H -1.285778 -1.865124 2.799366 0
M  V30 25 H -0.372567 1.924548 -2.224777 0
M  V30 26 H 1.809640 0.887851 -5.584894 0
M  V30 27 H 3.867955 1.546225 2.136708 0
M  V30 28 H 2.039297 -0.423275 5.454567 0
M  V30 29 H 0.228212 -1.199613 3.971855 0
M  V30 30 H -2.609645 -3.750068 1.870089 0
M  V30 31 H -3.865364 -3.105492 0.645934 0
M  V30 32 H -0.822020 -3.627574 0.104699 0
M  V30 33 H -2.060073 -2.952279 -1.120916 0
M  V30 END ATOM
M  V30 BEGIN BOND
M  V30 1 1 1 2
M  V30 2 1 2 3
M  V30 3 1 3 4
M  V30 4 2 4 5
M  V30 5 1 5 6
M  V30 6 1 6 7
M  V30 7 2 7 8
M  V30 8 1 8 9
M  V30 9 2 9 10
M  V30 10 1 10 11
M  V30 11 2 6 12
M  V30 12 1 12 13
M  V30 13 2 13 14
M  V30 14 1 14 15
M  V30 15 2 15 16
M  V30 16 1 16 17
M  V30 17 2 17 18
M  V30 18 1 2 19
M  V30 19 1 19 20
M  V30 20 1 20 2
M  V30 21 1 18 4
M  V30 22 1 11 7
M  V30 23 1 18 13
M  V30 24 1 1 21
M  V30 25 1 1 22
M  V30 26 1 1 23
M  V30 27 1 3 24
M  V30 28 1 8 25
M  V30 29 1 10 26
M  V30 30 1 14 27
M  V30 31 1 16 28
M  V30 32 1 17 29
M  V30 33 1 19 30
M  V30 34 1 19 31
M  V30 35 1 20 32
M  V30 36 1 20 33
M  V30 END BOND
M  V30 END CTAB
M  END
>  <Dataset>  (202) 
ChEMBL_Kinases

>  <Ligand_Instance>  (202) 
nan

>  <PDB_ID>  (202) 
nan

>  <Standardized_SMILES>  (202) 
CC1(Nc2nc(-c3cncs3)nc3cnccc23)CC1

>  <Name>  (202) 
nan

>  <Pocket>  (202) 
nan

>  <ATP_Site>  (202) 
nan

>  <Peripheral>  (202) 
nan

>  <Num_H_Atoms_ProtBoundConf>  (202) 
nan

>  <Num_Resolved_Atoms>  (202) 
nan

>  <Num_Not_Resolved_Atoms>  (202) 
nan

$$$$
CHEMBL4561278
     RDKit          3D

  0  0  0  0  0  0  0  0  0  0999 V3000
M  V30 BEGIN CTAB
M  V30 COUNTS 41 44 0 0 0
M  V30 BEGIN ATOM
M  V30 1 O -3.278834 0.820805 0.432660 0
M  V30 2 C -2.496960 1.741172 0.055304 0
M  V30 3 N -2.188728 1.604238 -1.344913 0
M  V30 4 C -2.779148 0.505589 -2.070976 0
M  V30 5 C -3.958341 0.349483 -2.782392 0
M  V30 6 N -4.004680 -0.892921 -3.258846 0
M  V30 7 C -2.893565 -1.537908 -2.875914 0
M  V30 8 N -2.476915 -2.794207 -3.100808 0
M  V30 9 C -1.311947 -3.277389 -2.629632 0
M  V30 10 C -0.474746 -2.478718 -1.875041 0
M  V30 11 C 0.816362 -2.898075 -1.311447 0
M  V30 12 C 1.647844 -3.820878 -1.916440 0
M  V30 13 C 2.852786 -4.152417 -1.301204 0
M  V30 14 C 3.245412 -3.586376 -0.100715 0
M  V30 15 C 4.527855 -3.930505 0.566890 0
M  V30 16 F 4.879097 -5.223886 0.246685 0
M  V30 17 F 5.544690 -3.038140 0.204890 0
M  V30 18 F 4.396179 -3.839610 1.936152 0
M  V30 19 C 2.407897 -2.652789 0.514809 0
M  V30 20 C 1.229479 -2.347706 -0.115353 0
M  V30 21 C -0.892889 -1.182594 -1.636540 0
M  V30 22 C -2.092137 -0.699441 -2.126698 0
M  V30 23 C -1.940975 2.824389 0.860439 0
M  V30 24 C -1.086207 3.824282 0.434781 0
M  V30 25 C -0.670023 4.763651 1.357553 0
M  V30 26 C -1.066825 4.746036 2.670469 0
M  V30 27 N -1.902620 3.762122 3.071457 0
M  V30 28 C -2.326385 2.830984 2.195014 0
M  V30 29 H -1.544139 2.299513 -1.814775 0
M  V30 30 H -4.647834 1.190990 -2.859972 0
M  V30 31 H -4.816134 -1.232297 -3.832630 0
M  V30 32 H -0.969360 -4.293506 -2.808061 0
M  V30 33 H 1.340322 -4.258718 -2.848834 0
M  V30 34 H 3.521936 -4.871992 -1.753839 0
M  V30 35 H 2.715878 -2.211384 1.452782 0
M  V30 36 H 0.628795 -1.612271 0.424013 0
M  V30 37 H -0.271277 -0.514312 -1.048889 0
M  V30 38 H -0.811346 3.782359 -0.608618 0
M  V30 39 H -0.008604 5.530963 1.012839 0
M  V30 40 H -0.709458 5.511769 3.361166 0
M  V30 41 H -2.993670 2.096580 2.643276 0
M  V30 END ATOM
M  V30 BEGIN BOND
M  V30 1 2 1 2
M  V30 2 1 2 3
M  V30 3 1 3 4
M  V30 4 2 4 5
M  V30 5 1 5 6
M  V30 6 1 6 7
M  V30 7 2 7 8
M  V30 8 1 8 9
M  V30 9 2 9 10
M  V30 10 1 10 11
M  V30 11 2 11 12
M  V30 12 1 12 13
M  V30 13 2 13 14
M  V30 14 1 14 15
M  V30 15 1 15 16
M  V30 16 1 15 17
M  V30 17 1 15 18
M  V30 18 1 14 19
M  V30 19 2 19 20
M  V30 20 1 10 21
M  V30 21 2 21 22
M  V30 22 1 2 23
M  V30 23 2 23 24
M  V30 24 1 24 25
M  V30 25 2 25 26
M  V30 26 1 26 27
M  V30 27 2 27 28
M  V30 28 1 22 4
M  V30 29 1 28 23
M  V30 30 1 22 7
M  V30 31 1 20 11
M  V30 32 1 3 29
M  V30 33 1 5 30
M  V30 34 1 6 31
M  V30 35 1 9 32
M  V30 36 1 12 33
M  V30 37 1 13 34
M  V30 38 1 19 35
M  V30 39 1 20 36
M  V30 40 1 21 37
M  V30 41 1 24 38
M  V30 42 1 25 39
M  V30 43 1 26 40
M  V30 44 1 28 41
M  V30 END BOND
M  V30 END CTAB
M  END
>  <Dataset>  (203) 
ChEMBL_Kinases

>  <Ligand_Instance>  (203) 
nan

>  <PDB_ID>  (203) 
nan

>  <Standardized_SMILES>  (203) 
O=C(Nc1c[nH]c2ncc(-c3ccc(C(F)(F)F)cc3)cc12)c1cccnc1

>  <Name>  (203) 
nan

>  <Pocket>  (203) 
nan

>  <ATP_Site>  (203) 
nan

>  <Peripheral>  (203) 
nan

>  <Num_H_Atoms_ProtBoundConf>  (203) 
nan

>  <Num_Resolved_Atoms>  (203) 
nan

>  <Num_Not_Resolved_Atoms>  (203) 
nan

$$$$
CHEMBL4637462
     RDKit          3D

  0  0  0  0  0  0  0  0  0  0999 V3000
M  V30 BEGIN CTAB
M  V30 COUNTS 48 51 0 0 0
M  V30 BEGIN ATOM
M  V30 1 C 0.243747 3.796335 3.722569 0
M  V30 2 N 1.220550 2.877762 3.120470 0
M  V30 3 C 2.372365 2.473777 3.821325 0
M  V30 4 O 2.838992 3.190270 4.731080 0
M  V30 5 C 2.904636 1.155322 3.339956 0
M  V30 6 C 3.020488 1.115928 1.851206 0
M  V30 7 C 3.267443 -0.287600 1.391257 0
M  V30 8 C 3.615412 -1.279361 2.280263 0
M  V30 9 C 3.844965 -2.578477 1.865019 0
M  V30 10 C 3.730566 -2.921972 0.532774 0
M  V30 11 C 3.380864 -1.913167 -0.341513 0
M  V30 12 C 3.146016 -0.603281 0.053126 0
M  V30 13 N 1.818963 1.564916 1.179791 0
M  V30 14 C 1.022810 2.370735 1.796352 0
M  V30 15 S -0.454669 2.917799 0.954357 0
M  V30 16 C -0.649249 2.253736 -0.688177 0
M  V30 17 C -0.870627 0.804174 -0.747763 0
M  V30 18 C -2.135837 0.214896 -0.708472 0
M  V30 19 N -1.977292 -1.118571 -0.784154 0
M  V30 20 C -3.010379 -2.096528 -0.776952 0
M  V30 21 C -4.227048 -1.864395 -0.148299 0
M  V30 22 C -5.178316 -2.863922 -0.185603 0
M  V30 23 C -4.996685 -4.095735 -0.815797 0
M  V30 24 C -3.785996 -4.321292 -1.439147 0
M  V30 25 N -3.535724 -5.554665 -2.099157 0 CHG=1 VAL=4
M  V30 26 O -2.434638 -5.734451 -2.655966 0
M  V30 27 O -4.459424 -6.562010 -2.151137 0 CHG=-1 VAL=1
M  V30 28 C -2.829256 -3.328296 -1.406952 0
M  V30 29 N -0.677064 -1.339572 -0.866057 0
M  V30 30 N 0.002405 -0.210184 -0.846288 0
M  V30 31 H -0.610038 3.173256 4.036301 0
M  V30 32 H -0.019955 4.538937 2.923004 0
M  V30 33 H 0.688581 4.321532 4.578510 0
M  V30 34 H 3.942927 1.112675 3.773439 0
M  V30 35 H 2.322510 0.320373 3.732986 0
M  V30 36 H 3.885851 1.770756 1.582967 0
M  V30 37 H 3.725147 -1.097928 3.321096 0
M  V30 38 H 4.119195 -3.348139 2.584002 0
M  V30 39 H 3.911944 -3.941780 0.219916 0
M  V30 40 H 3.293287 -2.185380 -1.377494 0
M  V30 41 H 2.872833 0.176269 -0.644527 0
M  V30 42 H -1.502712 2.765579 -1.155770 0
M  V30 43 H 0.224264 2.479972 -1.360565 0
M  V30 44 H -3.096260 0.690956 -0.631826 0
M  V30 45 H -4.422229 -0.931412 0.353866 0
M  V30 46 H -6.143107 -2.740024 0.285361 0
M  V30 47 H -5.778739 -4.843084 -0.813669 0
M  V30 48 H -1.877490 -3.491945 -1.890979 0
M  V30 END ATOM
M  V30 BEGIN BOND
M  V30 1 1 1 2
M  V30 2 1 2 3
M  V30 3 2 3 4
M  V30 4 1 3 5
M  V30 5 1 5 6
M  V30 6 1 6 7
M  V30 7 2 7 8
M  V30 8 1 8 9
M  V30 9 2 9 10
M  V30 10 1 10 11
M  V30 11 2 11 12
M  V30 12 1 6 13
M  V30 13 2 13 14
M  V30 14 1 14 15
M  V30 15 1 15 16
M  V30 16 1 16 17
M  V30 17 2 17 18
M  V30 18 1 18 19
M  V30 19 1 19 20
M  V30 20 2 20 21
M  V30 21 1 21 22
M  V30 22 2 22 23
M  V30 23 1 23 24
M  V30 24 1 24 25
M  V30 25 2 25 26
M  V30 26 1 25 27
M  V30 27 2 24 28
M  V30 28 1 19 29
M  V30 29 2 29 30
M  V30 30 1 14 2
M  V30 31 1 30 17
M  V30 32 1 12 7
M  V30 33 1 28 20
M  V30 34 1 1 31
M  V30 35 1 1 32
M  V30 36 1 1 33
M  V30 37 1 5 34
M  V30 38 1 5 35
M  V30 39 1 6 36
M  V30 40 1 8 37
M  V30 41 1 9 38
M  V30 42 1 10 39
M  V30 43 1 11 40
M  V30 44 1 12 41
M  V30 45 1 16 42
M  V30 46 1 16 43
M  V30 47 1 18 44
M  V30 48 1 21 45
M  V30 49 1 22 46
M  V30 50 1 23 47
M  V30 51 1 28 48
M  V30 END BOND
M  V30 END CTAB
M  END
>  <Dataset>  (204) 
ChEMBL_Kinases

>  <Ligand_Instance>  (204) 
nan

>  <PDB_ID>  (204) 
nan

>  <Standardized_SMILES>  (204) 
CN1C(=O)CC(c2ccccc2)N=C1SCc1cn(-c2cccc([N+](=O)[O-])c2)nn1

>  <Name>  (204) 
nan

>  <Pocket>  (204) 
nan

>  <ATP_Site>  (204) 
nan

>  <Peripheral>  (204) 
nan

>  <Num_H_Atoms_ProtBoundConf>  (204) 
nan

>  <Num_Resolved_Atoms>  (204) 
nan

>  <Num_Not_Resolved_Atoms>  (204) 
nan

$$$$
CHEMBL4561098
     RDKit          3D

  0  0  0  0  0  0  0  0  0  0999 V3000
M  V30 BEGIN CTAB
M  V30 COUNTS 44 47 0 0 0
M  V30 BEGIN ATOM
M  V30 1 C 2.336241 -5.073451 -0.435693 0
M  V30 2 N 1.355455 -4.163677 -1.009638 0
M  V30 3 C 1.234849 -2.873390 -0.649384 0
M  V30 4 C 0.212091 -2.332227 -1.396504 0
M  V30 5 C -0.229706 -0.947940 -1.298373 0
M  V30 6 C -1.260858 -0.443930 -2.065771 0
M  V30 7 C -1.641563 0.895801 -1.926441 0
M  V30 8 N -2.657238 1.318289 -2.709896 0
M  V30 9 C -3.018069 2.614931 -2.568443 0
M  V30 10 C -2.384626 3.460368 -1.673814 0
M  V30 11 N -1.371065 3.018240 -0.899478 0
M  V30 12 C -0.991235 1.738203 -1.017352 0
M  V30 13 C 0.043127 1.154847 -0.276033 0
M  V30 14 O 0.640661 2.045261 0.601865 0
M  V30 15 C 1.710592 1.686783 1.459639 0
M  V30 16 C 1.349001 0.577808 2.421995 0
M  V30 17 C 2.488984 0.207307 3.325176 0
M  V30 18 N 1.995318 -0.257903 4.594015 0
M  V30 19 C 0.867423 -1.138831 4.477594 0
M  V30 20 C -0.300815 -0.307793 4.012021 0
M  V30 21 C 0.156488 0.933650 3.273932 0
M  V30 22 F 0.401147 1.936306 4.175152 0
M  V30 23 F -0.900449 1.339988 2.464764 0
M  V30 24 N 0.390186 -0.133883 -0.427808 0
M  V30 25 C -0.274381 -3.329021 -2.210412 0
M  V30 26 N 0.449682 -4.419778 -1.940128 0
M  V30 27 H 3.339207 -4.908721 -0.873703 0
M  V30 28 H 2.040263 -6.102057 -0.693855 0
M  V30 29 H 2.342854 -4.978933 0.674681 0
M  V30 30 H 1.834974 -2.378441 0.086211 0
M  V30 31 H -1.740073 -1.124911 -2.757581 0
M  V30 32 H -3.833969 2.963205 -3.194582 0
M  V30 33 H -2.694734 4.505643 -1.577707 0
M  V30 34 H 2.087168 2.562723 2.001872 0
M  V30 35 H 2.518209 1.293012 0.799461 0
M  V30 36 H 1.090657 -0.307161 1.835775 0
M  V30 37 H 3.147904 1.076458 3.534706 0
M  V30 38 H 3.127698 -0.527924 2.808280 0
M  V30 39 H 2.714243 -0.529079 5.263048 0
M  V30 40 H 1.051629 -2.012808 3.827065 0
M  V30 41 H 0.644637 -1.541992 5.484257 0
M  V30 42 H -0.918509 -0.947867 3.367764 0
M  V30 43 H -0.870128 -0.002650 4.909342 0
M  V30 44 H -1.085386 -3.215272 -2.918432 0
M  V30 END ATOM
M  V30 BEGIN BOND
M  V30 1 1 1 2
M  V30 2 1 2 3
M  V30 3 2 3 4
M  V30 4 1 4 5
M  V30 5 2 5 6
M  V30 6 1 6 7
M  V30 7 2 7 8
M  V30 8 1 8 9
M  V30 9 2 9 10
M  V30 10 1 10 11
M  V30 11 2 11 12
M  V30 12 1 12 13
M  V30 13 1 13 14
M  V30 14 1 14 15
M  V30 15 1 15 16
M  V30 16 1 16 17
M  V30 17 1 17 18
M  V30 18 1 18 19
M  V30 19 1 19 20
M  V30 20 1 20 21
M  V30 21 1 21 22
M  V30 22 1 21 23
M  V30 23 2 13 24
M  V30 24 1 4 25
M  V30 25 2 25 26
M  V30 26 1 26 2
M  V30 27 1 24 5
M  V30 28 1 12 7
M  V30 29 1 21 16
M  V30 30 1 1 27
M  V30 31 1 1 28
M  V30 32 1 1 29
M  V30 33 1 3 30
M  V30 34 1 6 31
M  V30 35 1 9 32
M  V30 36 1 10 33
M  V30 37 1 15 34
M  V30 38 1 15 35
M  V30 39 1 16 36
M  V30 40 1 17 37
M  V30 41 1 17 38
M  V30 42 1 18 39
M  V30 43 1 19 40
M  V30 44 1 19 41
M  V30 45 1 20 42
M  V30 46 1 20 43
M  V30 47 1 25 44
M  V30 END BOND
M  V30 END CTAB
M  END
>  <Dataset>  (205) 
ChEMBL_Kinases

>  <Ligand_Instance>  (205) 
nan

>  <PDB_ID>  (205) 
nan

>  <Standardized_SMILES>  (205) 
Cn1cc(-c2cc3nccnc3c(OCC3CNCCC3(F)F)n2)cn1

>  <Name>  (205) 
nan

>  <Pocket>  (205) 
nan

>  <ATP_Site>  (205) 
nan

>  <Peripheral>  (205) 
nan

>  <Num_H_Atoms_ProtBoundConf>  (205) 
nan

>  <Num_Resolved_Atoms>  (205) 
nan

>  <Num_Not_Resolved_Atoms>  (205) 
nan

$$$$
CHEMBL4560969
     RDKit          3D

  0  0  0  0  0  0  0  0  0  0999 V3000
M  V30 BEGIN CTAB
M  V30 COUNTS 44 46 0 0 0
M  V30 BEGIN ATOM
M  V30 1 N 3.403815 -5.525740 -1.730796 0
M  V30 2 C 3.154410 -4.423114 -2.058601 0
M  V30 3 C 2.849711 -3.080422 -2.484065 0
M  V30 4 C 2.302405 -2.794096 -3.730750 0
M  V30 5 C 1.996671 -1.518990 -4.155366 0
M  V30 6 C 2.250741 -0.448979 -3.286288 0
M  V30 7 C 2.788365 -0.828940 -2.087626 0
M  V30 8 N 3.032244 0.328627 -1.244415 0
M  V30 9 C 1.795947 0.336028 -0.487905 0
M  V30 10 O 0.888768 -0.567363 -0.738974 0
M  V30 11 C 0.703668 0.644399 0.455884 0
M  V30 12 C 1.687200 1.669804 0.992944 0
M  V30 13 C 1.575852 2.619854 2.067814 0
M  V30 14 C 2.414751 3.682445 2.729356 0
M  V30 15 F 2.531337 3.388639 4.058043 0
M  V30 16 F 3.668134 3.721963 2.135853 0
M  V30 17 F 1.745304 4.871719 2.584986 0
M  V30 18 C 0.362896 2.646124 2.779586 0
M  V30 19 C -0.555003 1.733874 2.325090 0
M  V30 20 C -0.297491 0.927139 1.321028 0
M  V30 21 O -0.950175 -0.084119 0.610040 0
M  V30 22 C -2.215060 -0.610126 0.764988 0
M  V30 23 C -2.509518 -1.248280 2.061060 0
M  V30 24 C -2.113658 -2.571294 2.301865 0
M  V30 25 C -2.328358 -3.329400 3.431523 0
M  V30 26 C -3.017930 -2.690529 4.436092 0
M  V30 27 F -3.247957 -3.399459 5.571757 0
M  V30 28 C -3.472812 -1.395130 4.347655 0
M  V30 29 C -3.198602 -0.740465 3.171226 0
M  V30 30 C 3.116448 -2.068123 -1.597439 0
M  V30 31 H 2.092484 -3.599445 -4.421219 0
M  V30 32 H 1.575672 -1.349829 -5.135285 0
M  V30 33 H 2.020460 0.550299 -3.594465 0
M  V30 34 H 3.248280 1.157519 -0.671821 0
M  V30 35 H 2.752912 2.090061 0.849070 0
M  V30 36 H -0.127286 3.145402 3.588182 0
M  V30 37 H -1.556151 1.474612 2.602233 0
M  V30 38 H -2.405364 -1.412426 -0.011933 0
M  V30 39 H -3.011529 0.171890 0.613924 0
M  V30 40 H -1.566126 -3.065556 1.495841 0
M  V30 41 H -1.962939 -4.341208 3.473329 0
M  V30 42 H -4.013935 -0.876622 5.115722 0
M  V30 43 H -3.545857 0.292570 3.045802 0
M  V30 44 H 3.535161 -2.154132 -0.616356 0
M  V30 END ATOM
M  V30 BEGIN BOND
M  V30 1 3 1 2
M  V30 2 1 2 3
M  V30 3 2 3 4
M  V30 4 1 4 5
M  V30 5 2 5 6
M  V30 6 1 6 7
M  V30 7 1 7 8
M  V30 8 1 8 9
M  V30 9 2 9 10
M  V30 10 1 9 11
M  V30 11 2 11 12
M  V30 12 1 12 13
M  V30 13 1 13 14
M  V30 14 1 14 15
M  V30 15 1 14 16
M  V30 16 1 14 17
M  V30 17 2 13 18
M  V30 18 1 18 19
M  V30 19 2 19 20
M  V30 20 1 20 21
M  V30 21 1 21 22
M  V30 22 1 22 23
M  V30 23 2 23 24
M  V30 24 1 24 25
M  V30 25 2 25 26
M  V30 26 1 26 27
M  V30 27 1 26 28
M  V30 28 2 28 29
M  V30 29 2 7 30
M  V30 30 1 30 3
M  V30 31 1 20 11
M  V30 32 1 29 23
M  V30 33 1 4 31
M  V30 34 1 5 32
M  V30 35 1 6 33
M  V30 36 1 8 34
M  V30 37 1 12 35
M  V30 38 1 18 36
M  V30 39 1 19 37
M  V30 40 1 22 38
M  V30 41 1 22 39
M  V30 42 1 24 40
M  V30 43 1 25 41
M  V30 44 1 28 42
M  V30 45 1 29 43
M  V30 46 1 30 44
M  V30 END BOND
M  V30 END CTAB
M  END
>  <Dataset>  (206) 
ChEMBL_Kinases

>  <Ligand_Instance>  (206) 
nan

>  <PDB_ID>  (206) 
nan

>  <Standardized_SMILES>  (206) 
N#Cc1cccc(NC(=O)c2cc(C(F)(F)F)ccc2OCc2ccc(F)cc2)c1

>  <Name>  (206) 
nan

>  <Pocket>  (206) 
nan

>  <ATP_Site>  (206) 
nan

>  <Peripheral>  (206) 
nan

>  <Num_H_Atoms_ProtBoundConf>  (206) 
nan

>  <Num_Resolved_Atoms>  (206) 
nan

>  <Num_Not_Resolved_Atoms>  (206) 
nan

$$$$
CHEMBL4560963
     RDKit          3D

  0  0  0  0  0  0  0  0  0  0999 V3000
M  V30 BEGIN CTAB
M  V30 COUNTS 53 56 0 0 0
M  V30 BEGIN ATOM
M  V30 1 C 5.313783 -4.750139 2.041655 0
M  V30 2 N 5.262945 -3.545495 2.865906 0
M  V30 3 C 6.002448 -3.276560 4.086650 0
M  V30 4 C 4.369842 -2.565408 2.357988 0
M  V30 5 C 4.666768 -1.540671 1.485735 0
M  V30 6 C 3.733953 -0.631036 1.036774 0
M  V30 7 C 2.437653 -0.763652 1.491842 0
M  V30 8 C 1.363897 0.138663 1.081694 0
M  V30 9 C 1.542269 1.191526 0.209739 0
M  V30 10 C 0.481820 1.998550 -0.134565 0
M  V30 11 N 0.649439 3.027169 -0.973222 0
M  V30 12 C -0.437233 3.789389 -1.263984 0
M  V30 13 C -1.682327 3.513628 -0.711531 0
M  V30 14 N -1.850620 2.482518 0.128946 0
M  V30 15 C -0.753551 1.728259 0.410443 0
M  V30 16 C -0.964125 0.661315 1.301322 0
M  V30 17 C -2.238290 0.272701 1.911371 0
M  V30 18 C -3.161612 -0.636675 1.250396 0
M  V30 19 C -3.763527 -0.451575 -0.061534 0
M  V30 20 C -2.966585 -0.397188 -1.291670 0
M  V30 21 C -3.889390 0.146647 -2.410633 0
M  V30 22 C -5.103935 -0.749065 -2.501422 0
M  V30 23 N -5.009881 -1.878548 -1.620479 0
M  V30 24 C -4.807961 -1.567679 -0.241542 0
M  V30 25 N 0.125800 -0.040984 1.556597 0
M  V30 26 C 2.146790 -1.792691 2.366154 0
M  V30 27 N 3.088018 -2.671262 2.788697 0
M  V30 28 H 6.048233 -4.673909 1.217389 0
M  V30 29 H 5.598536 -5.619348 2.672472 0
M  V30 30 H 4.297299 -5.001485 1.658913 0
M  V30 31 H 5.316718 -3.047705 4.927741 0
M  V30 32 H 6.657796 -2.372595 3.960525 0
M  V30 33 H 6.618769 -4.131898 4.399099 0
M  V30 34 H 5.706814 -1.520971 1.188660 0
M  V30 35 H 4.016096 0.153744 0.353852 0
M  V30 36 H 2.517982 1.389397 -0.208754 0
M  V30 37 H -0.409128 4.638099 -1.925458 0
M  V30 38 H -2.578498 4.085817 -0.907679 0
M  V30 39 H -1.939873 -0.243432 2.892222 0
M  V30 40 H -2.757345 1.196707 2.337104 0
M  V30 41 H -4.019719 -0.809681 2.008248 0
M  V30 42 H -2.662202 -1.684003 1.324908 0
M  V30 43 H -4.404421 0.501982 -0.066027 0
M  V30 44 H -2.078090 0.191268 -1.369703 0
M  V30 45 H -2.779021 -1.482785 -1.603787 0
M  V30 46 H -4.229446 1.147117 -2.074489 0
M  V30 47 H -3.328984 0.247085 -3.349692 0
M  V30 48 H -5.139831 -1.135942 -3.535612 0
M  V30 49 H -6.036265 -0.182052 -2.325042 0
M  V30 50 H -4.408489 -2.648658 -1.983103 0
M  V30 51 H -5.728357 -1.276837 0.292482 0
M  V30 52 H -4.389234 -2.479623 0.264346 0
M  V30 53 H 1.140333 -1.946012 2.757662 0
M  V30 END ATOM
M  V30 BEGIN BOND
M  V30 1 1 1 2
M  V30 2 1 2 3
M  V30 3 1 2 4
M  V30 4 2 4 5
M  V30 5 1 5 6
M  V30 6 2 6 7
M  V30 7 1 7 8
M  V30 8 2 8 9
M  V30 9 1 9 10
M  V30 10 2 10 11
M  V30 11 1 11 12
M  V30 12 2 12 13
M  V30 13 1 13 14
M  V30 14 2 14 15
M  V30 15 1 15 16
M  V30 16 1 16 17
M  V30 17 1 17 18
M  V30 18 1 18 19
M  V30 19 1 19 20
M  V30 20 1 20 21
M  V30 21 1 21 22
M  V30 22 1 22 23
M  V30 23 1 23 24
M  V30 24 2 16 25
M  V30 25 1 7 26
M  V30 26 2 26 27
M  V30 27 1 27 4
M  V30 28 1 25 8
M  V30 29 1 15 10
M  V30 30 1 24 19
M  V30 31 1 1 28
M  V30 32 1 1 29
M  V30 33 1 1 30
M  V30 34 1 3 31
M  V30 35 1 3 32
M  V30 36 1 3 33
M  V30 37 1 5 34
M  V30 38 1 6 35
M  V30 39 1 9 36
M  V30 40 1 12 37
M  V30 41 1 13 38
M  V30 42 1 17 39
M  V30 43 1 17 40
M  V30 44 1 18 41
M  V30 45 1 18 42
M  V30 46 1 19 43
M  V30 47 1 20 44
M  V30 48 1 20 45
M  V30 49 1 21 46
M  V30 50 1 21 47
M  V30 51 1 22 48
M  V30 52 1 22 49
M  V30 53 1 23 50
M  V30 54 1 24 51
M  V30 55 1 24 52
M  V30 56 1 26 53
M  V30 END BOND
M  V30 END CTAB
M  END
>  <Dataset>  (207) 
ChEMBL_Kinases

>  <Ligand_Instance>  (207) 
nan

>  <PDB_ID>  (207) 
nan

>  <Standardized_SMILES>  (207) 
CN(C)c1ccc(-c2cc3nccnc3c(CCC3CCCNC3)n2)cn1

>  <Name>  (207) 
nan

>  <Pocket>  (207) 
nan

>  <ATP_Site>  (207) 
nan

>  <Peripheral>  (207) 
nan

>  <Num_H_Atoms_ProtBoundConf>  (207) 
nan

>  <Num_Resolved_Atoms>  (207) 
nan

>  <Num_Not_Resolved_Atoms>  (207) 
nan

$$$$
CHEMBL4560849
     RDKit          3D

  0  0  0  0  0  0  0  0  0  0999 V3000
M  V30 BEGIN CTAB
M  V30 COUNTS 49 52 0 0 0
M  V30 BEGIN ATOM
M  V30 1 C 1.805509 -4.261498 1.335070 0
M  V30 2 C 2.717499 -3.281906 2.067716 0
M  V30 3 C 2.164992 -3.203795 3.480934 0
M  V30 4 C 4.112290 -3.859020 2.106603 0
M  V30 5 O 2.628642 -2.049115 1.412772 0
M  V30 6 C 2.950475 -1.770783 0.109367 0
M  V30 7 O 3.383254 -2.652245 -0.650035 0
M  V30 8 N 2.722919 -0.396826 -0.222856 0
M  V30 9 C 2.254586 0.622991 0.669989 0
M  V30 10 C 0.814363 0.953934 0.523850 0
M  V30 11 C 0.454108 0.959082 -0.935570 0
M  V30 12 C 1.450113 0.650863 -1.847396 0
M  V30 13 S 0.735525 0.774487 -3.438970 0
M  V30 14 C -0.910972 1.244866 -2.820063 0
M  V30 15 N -2.007865 1.492674 -3.557646 0
M  V30 16 C -3.143315 1.805744 -2.911299 0
M  V30 17 N -3.072096 1.840469 -1.582542 0
M  V30 18 C -1.963141 1.588333 -0.876549 0
M  V30 19 N -2.126624 1.648805 0.554153 0
M  V30 20 C -3.234125 1.159695 1.327210 0
M  V30 21 C -4.111307 1.789318 2.134825 0
M  V30 22 C -5.094757 1.066594 2.793335 0
M  V30 23 C -5.217645 -0.319579 2.648914 0
M  V30 24 F -6.211582 -0.949737 3.334294 0
M  V30 25 C -4.304513 -0.948015 1.811826 0
M  V30 26 C -3.325324 -0.229371 1.157700 0
M  V30 27 Br -2.215688 -1.382919 0.085597 0
M  V30 28 C -0.766643 1.263442 -1.470489 0
M  V30 29 C 2.880184 0.265947 -1.533821 0
M  V30 30 H 1.831473 -5.262028 1.816799 0
M  V30 31 H 0.755402 -3.872799 1.510187 0
M  V30 32 H 2.057478 -4.292733 0.269292 0
M  V30 33 H 2.064700 -4.247241 3.853614 0
M  V30 34 H 2.867739 -2.690451 4.149354 0
M  V30 35 H 1.155967 -2.717518 3.450212 0
M  V30 36 H 4.894187 -3.070001 1.970023 0
M  V30 37 H 4.262361 -4.335408 3.102866 0
M  V30 38 H 4.222965 -4.636940 1.324903 0
M  V30 39 H 2.388769 0.282493 1.747270 0
M  V30 40 H 2.950784 1.487257 0.605065 0
M  V30 41 H 0.143219 0.362108 1.145534 0
M  V30 42 H 0.724913 2.022900 0.921830 0
M  V30 43 H -4.069697 2.023784 -3.412281 0
M  V30 44 H -1.593314 2.005861 1.370228 0
M  V30 45 H -3.947934 2.839150 2.193516 0
M  V30 46 H -5.776613 1.599105 3.434430 0
M  V30 47 H -4.478568 -2.029157 1.763294 0
M  V30 48 H 3.542126 1.126879 -1.467066 0
M  V30 49 H 3.228083 -0.525149 -2.210391 0
M  V30 END ATOM
M  V30 BEGIN BOND
M  V30 1 1 1 2
M  V30 2 1 2 3
M  V30 3 1 2 4
M  V30 4 1 2 5
M  V30 5 1 5 6
M  V30 6 2 6 7
M  V30 7 1 6 8
M  V30 8 1 8 9
M  V30 9 1 9 10
M  V30 10 1 10 11
M  V30 11 2 11 12
M  V30 12 1 12 13
M  V30 13 1 13 14
M  V30 14 2 14 15
M  V30 15 1 15 16
M  V30 16 2 16 17
M  V30 17 1 17 18
M  V30 18 1 18 19
M  V30 19 1 19 20
M  V30 20 2 20 21
M  V30 21 1 21 22
M  V30 22 2 22 23
M  V30 23 1 23 24
M  V30 24 1 23 25
M  V30 25 2 25 26
M  V30 26 1 26 27
M  V30 27 2 18 28
M  V30 28 1 12 29
M  V30 29 1 29 8
M  V30 30 1 28 11
M  V30 31 1 28 14
M  V30 32 1 26 20
M  V30 33 1 1 30
M  V30 34 1 1 31
M  V30 35 1 1 32
M  V30 36 1 3 33
M  V30 37 1 3 34
M  V30 38 1 3 35
M  V30 39 1 4 36
M  V30 40 1 4 37
M  V30 41 1 4 38
M  V30 42 1 9 39
M  V30 43 1 9 40
M  V30 44 1 10 41
M  V30 45 1 10 42
M  V30 46 1 16 43
M  V30 47 1 19 44
M  V30 48 1 21 45
M  V30 49 1 22 46
M  V30 50 1 25 47
M  V30 51 1 29 48
M  V30 52 1 29 49
M  V30 END BOND
M  V30 END CTAB
M  END
>  <Dataset>  (208) 
ChEMBL_Kinases

>  <Ligand_Instance>  (208) 
nan

>  <PDB_ID>  (208) 
nan

>  <Standardized_SMILES>  (208) 
CC(C)(C)OC(=O)N1CCc2c(sc3ncnc(Nc4ccc(F)cc4Br)c23)C1

>  <Name>  (208) 
nan

>  <Pocket>  (208) 
nan

>  <ATP_Site>  (208) 
nan

>  <Peripheral>  (208) 
nan

>  <Num_H_Atoms_ProtBoundConf>  (208) 
nan

>  <Num_Resolved_Atoms>  (208) 
nan

>  <Num_Not_Resolved_Atoms>  (208) 
nan

$$$$
CHEMBL4560593
     RDKit          3D

  0  0  0  0  0  0  0  0  0  0999 V3000
M  V30 BEGIN CTAB
M  V30 COUNTS 113 116 0 0 0
M  V30 BEGIN ATOM
M  V30 1 C 5.035544 -1.338001 4.986161 0
M  V30 2 C 4.076550 -1.991637 4.015366 0
M  V30 3 C 3.150733 -0.926075 3.460709 0
M  V30 4 C 2.171130 -1.541046 2.469931 0
M  V30 5 C 1.253272 -0.487576 1.915435 0
M  V30 6 C 0.258573 -1.036384 0.917417 0
M  V30 7 C 0.940610 -1.646524 -0.281902 0
M  V30 8 C -0.046618 -2.188788 -1.230285 0
M  V30 9 O 0.579554 -2.580449 -2.272245 0
M  V30 10 O -1.421385 -2.314543 -1.136900 0
M  V30 11 C -2.188199 -2.868560 -2.154852 0 CFG=1
M  V30 12 C -2.688274 -4.222227 -1.634141 0
M  V30 13 C -1.802017 -5.170432 -1.526752 0
M  V30 14 C -2.140672 -6.499610 -1.048557 0
M  V30 15 O -3.039004 -7.239309 -0.636448 0
M  V30 16 O -1.247426 -7.551938 -0.909474 0
M  V30 17 C -1.659410 -8.817121 -0.436614 0
M  V30 18 C -4.106264 -4.418464 -1.279769 0
M  V30 19 C -4.890042 -3.134713 -1.070225 0 CFG=1
M  V30 20 C -5.552825 -3.103220 0.253541 0
M  V30 21 C -5.406188 -1.871059 1.059278 0 CFG=2
M  V30 22 C -6.151617 -2.205298 2.396685 0
M  V30 23 O -7.449722 -2.469159 2.052458 0
M  V30 24 O -6.023361 -0.759393 0.488919 0
M  V30 25 C -5.456609 0.480851 0.406248 0
M  V30 26 O -4.317382 0.433373 0.925170 0
M  V30 27 C -5.658290 1.853217 -0.049088 0
M  V30 28 C -4.463142 2.665889 0.477992 0
M  V30 29 O -3.294900 2.099662 -0.011073 0
M  V30 30 C -2.005251 2.500271 0.207164 0
M  V30 31 C -1.426259 3.103951 1.270043 0
M  V30 32 C -0.104281 3.449210 1.344627 0
M  V30 33 C 0.682583 3.152571 0.248442 0
M  V30 34 C 2.085727 3.528275 0.361171 0
M  V30 35 C 3.033180 2.775797 -0.286121 0
M  V30 36 C 4.383380 3.041533 -0.244387 0
M  V30 37 C 4.826142 4.126652 0.488309 0
M  V30 38 C 6.213526 4.573692 0.660893 0
M  V30 39 O 6.613012 5.565275 1.327566 0
M  V30 40 O 7.101100 3.768972 -0.007585 0
M  V30 41 C 8.499484 3.924740 -0.043967 0
M  V30 42 C 9.006328 4.061224 -1.467617 0
M  V30 43 C 9.122106 2.670723 0.534412 0
M  V30 44 C 3.905783 4.934986 1.171576 0
M  V30 45 C 2.553885 4.590147 1.073577 0
M  V30 46 C 0.129450 2.534678 -0.860150 0
M  V30 47 C -1.223028 2.191506 -0.915336 0
M  V30 48 C -1.738484 1.540982 -2.134135 0
M  V30 49 O -1.056726 1.544576 -3.160807 0
M  V30 50 O -2.948884 0.996786 -1.974852 0
M  V30 51 C -3.768001 0.316380 -2.827044 0
M  V30 52 C -3.390979 -0.997209 -3.394326 0
M  V30 53 C -2.123359 -0.976757 -4.247247 0
M  V30 54 C -4.484846 -1.219562 -4.496971 0
M  V30 55 C -3.459712 -2.178553 -2.516448 0 CFG=1
M  V30 56 O -4.185453 -3.171633 -3.239365 0
M  V30 57 O -4.204577 -1.977007 -1.358825 0
M  V30 58 H 4.762955 -0.250576 5.134029 0
M  V30 59 H 6.087064 -1.384945 4.610582 0
M  V30 60 H 5.038993 -1.855494 5.964184 0
M  V30 61 H 4.634612 -2.497452 3.220180 0
M  V30 62 H 3.427840 -2.678040 4.632616 0
M  V30 63 H 2.561423 -0.433873 4.253603 0
M  V30 64 H 3.733757 -0.129215 2.933786 0
M  V30 65 H 2.812838 -1.960332 1.658433 0
M  V30 66 H 1.637794 -2.343445 3.005274 0
M  V30 67 H 1.838219 0.348493 1.477198 0
M  V30 68 H 0.662459 -0.053471 2.756658 0
M  V30 69 H -0.342057 -1.834896 1.406022 0
M  V30 70 H -0.381793 -0.212363 0.536275 0
M  V30 71 H 1.607332 -2.466288 0.127454 0
M  V30 72 H 1.629766 -0.924075 -0.783359 0
M  V30 73 H -1.570956 -3.123986 -3.013311 0
M  V30 74 H -0.763519 -5.060522 -1.773589 0
M  V30 75 H -2.475332 -9.274011 -1.018386 0
M  V30 76 H -2.031536 -8.676852 0.602246 0
M  V30 77 H -0.791484 -9.515855 -0.338346 0
M  V30 78 H -4.206959 -4.985878 -0.319992 0
M  V30 79 H -4.553849 -5.085010 -2.047069 0
M  V30 80 H -5.729537 -3.203282 -1.846922 0
M  V30 81 H -5.115097 -3.986170 0.839839 0
M  V30 82 H -6.643567 -3.419688 0.180622 0
M  V30 83 H -4.356432 -1.682436 1.332204 0
M  V30 84 H -5.981886 -1.428558 3.138683 0
M  V30 85 H -5.662016 -3.136770 2.741406 0
M  V30 86 H -7.856218 -3.191478 2.586844 0
M  V30 87 H -5.767408 1.973880 -1.126914 0
M  V30 88 H -6.588461 2.236926 0.442653 0
M  V30 89 H -4.550216 3.703711 0.081620 0
M  V30 90 H -4.439448 2.635438 1.580889 0
M  V30 91 H -2.148476 3.284622 2.071466 0
M  V30 92 H 0.210295 3.931060 2.269943 0
M  V30 93 H 2.718348 1.911652 -0.874840 0
M  V30 94 H 5.172656 2.480021 -0.739250 0
M  V30 95 H 8.873816 4.781415 0.533680 0
M  V30 96 H 10.024797 3.630948 -1.496136 0
M  V30 97 H 8.388790 3.413176 -2.160859 0
M  V30 98 H 9.025686 5.091428 -1.823928 0
M  V30 99 H 10.036838 2.896986 1.129269 0
M  V30 100 H 9.429889 1.965186 -0.284053 0
M  V30 101 H 8.430011 2.142292 1.228055 0
M  V30 102 H 4.191407 5.798686 1.757069 0
M  V30 103 H 1.825164 5.208691 1.597576 0
M  V30 104 H 0.813121 2.331222 -1.687883 0
M  V30 105 H -4.815940 0.204769 -2.406116 0
M  V30 106 H -3.994950 0.977197 -3.745669 0
M  V30 107 H -2.212718 -0.111958 -4.931919 0
M  V30 108 H -1.202696 -1.071755 -3.691603 0
M  V30 109 H -2.165329 -1.866643 -4.960053 0
M  V30 110 H -4.746282 -0.272906 -4.970085 0
M  V30 111 H -5.374121 -1.573162 -3.927712 0
M  V30 112 H -4.184853 -2.027631 -5.170840 0
M  V30 113 H -3.524795 -3.489617 -3.909181 0
M  V30 END ATOM
M  V30 BEGIN BOND
M  V30 1 1 1 2
M  V30 2 1 2 3
M  V30 3 1 3 4
M  V30 4 1 4 5
M  V30 5 1 5 6
M  V30 6 1 6 7
M  V30 7 1 7 8
M  V30 8 2 8 9
M  V30 9 1 8 10
M  V30 10 1 10 11
M  V30 11 1 11 12
M  V30 12 2 12 13
M  V30 13 1 13 14
M  V30 14 2 14 15
M  V30 15 1 14 16
M  V30 16 1 16 17
M  V30 17 1 12 18
M  V30 18 1 18 19
M  V30 19 1 19 20
M  V30 20 1 20 21
M  V30 21 1 21 22
M  V30 22 1 22 23
M  V30 23 1 21 24
M  V30 24 1 24 25
M  V30 25 2 25 26
M  V30 26 1 25 27
M  V30 27 1 27 28
M  V30 28 1 28 29
M  V30 29 1 29 30
M  V30 30 2 30 31
M  V30 31 1 31 32
M  V30 32 2 32 33
M  V30 33 1 33 34
M  V30 34 2 34 35
M  V30 35 1 35 36
M  V30 36 2 36 37
M  V30 37 1 37 38
M  V30 38 2 38 39
M  V30 39 1 38 40
M  V30 40 1 40 41
M  V30 41 1 41 42
M  V30 42 1 41 43
M  V30 43 1 37 44
M  V30 44 2 44 45
M  V30 45 1 33 46
M  V30 46 2 46 47
M  V30 47 1 47 48
M  V30 48 2 48 49
M  V30 49 1 48 50
M  V30 50 1 50 51
M  V30 51 1 51 52
M  V30 52 1 52 53
M  V30 53 1 52 54
M  V30 54 1 52 55
M  V30 55 1 55 56 CFG=3
M  V30 56 1 55 57
M  V30 57 1 55 11
M  V30 58 1 57 19
M  V30 59 1 47 30
M  V30 60 1 45 34
M  V30 61 1 1 58
M  V30 62 1 1 59
M  V30 63 1 1 60
M  V30 64 1 2 61
M  V30 65 1 2 62
M  V30 66 1 3 63
M  V30 67 1 3 64
M  V30 68 1 4 65
M  V30 69 1 4 66
M  V30 70 1 5 67
M  V30 71 1 5 68
M  V30 72 1 6 69
M  V30 73 1 6 70
M  V30 74 1 7 71
M  V30 75 1 7 72
M  V30 76 1 11 73 CFG=3
M  V30 77 1 13 74
M  V30 78 1 17 75
M  V30 79 1 17 76
M  V30 80 1 17 77
M  V30 81 1 18 78
M  V30 82 1 18 79
M  V30 83 1 19 80 CFG=3
M  V30 84 1 20 81
M  V30 85 1 20 82
M  V30 86 1 21 83 CFG=1
M  V30 87 1 22 84
M  V30 88 1 22 85
M  V30 89 1 23 86
M  V30 90 1 27 87
M  V30 91 1 27 88
M  V30 92 1 28 89
M  V30 93 1 28 90
M  V30 94 1 31 91
M  V30 95 1 32 92
M  V30 96 1 35 93
M  V30 97 1 36 94
M  V30 98 1 41 95
M  V30 99 1 42 96
M  V30 100 1 42 97
M  V30 101 1 42 98
M  V30 102 1 43 99
M  V30 103 1 43 100
M  V30 104 1 43 101
M  V30 105 1 44 102
M  V30 106 1 45 103
M  V30 107 1 46 104
M  V30 108 1 51 105
M  V30 109 1 51 106
M  V30 110 1 53 107
M  V30 111 1 53 108
M  V30 112 1 53 109
M  V30 113 1 54 110
M  V30 114 1 54 111
M  V30 115 1 54 112
M  V30 116 1 56 113
M  V30 END BOND
M  V30 END CTAB
M  END
>  <Dataset>  (209) 
ChEMBL_Kinases

>  <Ligand_Instance>  (209) 
nan

>  <PDB_ID>  (209) 
nan

>  <Standardized_SMILES>  (209) 
CCCCCCCC(=O)O[C@H]1/C(=C/C(=O)OC)C[C@H]2C[C@H](CO)OC(=O)CCOc3ccc(-c4ccc(C(=O)OC(C)C)cc4)cc3C(=O)OCC(C)(C)[C@]1(O)O2

>  <Name>  (209) 
nan

>  <Pocket>  (209) 
nan

>  <ATP_Site>  (209) 
nan

>  <Peripheral>  (209) 
nan

>  <Num_H_Atoms_ProtBoundConf>  (209) 
nan

>  <Num_Resolved_Atoms>  (209) 
nan

>  <Num_Not_Resolved_Atoms>  (209) 
nan

$$$$
CHEMBL4560589
     RDKit          3D

  0  0  0  0  0  0  0  0  0  0999 V3000
M  V30 BEGIN CTAB
M  V30 COUNTS 56 60 0 0 0
M  V30 BEGIN ATOM
M  V30 1 C -0.891187 -5.052111 2.825462 0
M  V30 2 C 0.137794 -5.876952 2.127233 0 CFG=2
M  V30 3 C 1.150573 -4.962909 1.484824 0
M  V30 4 N 0.564704 -4.444937 0.292905 0
M  V30 5 C 0.335906 -3.100391 -0.028968 0
M  V30 6 C 0.673785 -2.089646 0.822747 0
M  V30 7 C 0.426375 -0.775554 0.457132 0
M  V30 8 C 0.798594 0.281923 1.388413 0
M  V30 9 N 1.370433 0.169316 2.600908 0
M  V30 10 N 1.561079 1.353180 3.158641 0
M  V30 11 C 2.151963 1.611911 4.458654 0
M  V30 12 C 1.110572 2.296396 2.310797 0
M  V30 13 C 1.039963 3.672554 2.332287 0
M  V30 14 C 0.501645 4.355287 1.263363 0
M  V30 15 C 0.009189 3.704207 0.125185 0
M  V30 16 O -0.484254 4.549156 -0.827076 0
M  V30 17 C -1.042431 4.186973 -2.069959 0
M  V30 18 C -0.170673 3.427571 -3.027512 0
M  V30 19 C -2.509572 4.140967 -2.143591 0
M  V30 20 C -1.830459 5.354417 -2.721049 0
M  V30 21 C 0.090637 2.320154 0.125950 0
M  V30 22 C 0.630811 1.638566 1.198997 0
M  V30 23 N -0.149803 -0.501316 -0.744320 0
M  V30 24 C -0.479209 -1.523389 -1.579281 0
M  V30 25 N -0.227098 -2.790574 -1.197687 0
M  V30 26 C 0.205536 -5.520885 -0.612993 0
M  V30 27 C -0.657600 -6.560654 0.031843 0 CFG=2
M  V30 28 C -2.121165 -6.243222 -0.208855 0
M  V30 29 O -0.374229 -6.852949 1.336261 0
M  V30 30 H -0.998407 -4.094809 2.285016 0
M  V30 31 H -1.848219 -5.592944 2.776254 0
M  V30 32 H -0.612434 -4.784628 3.867872 0
M  V30 33 H 0.716941 -6.403745 2.941922 0
M  V30 34 H 2.031205 -5.600041 1.211524 0
M  V30 35 H 1.479155 -4.244969 2.230933 0
M  V30 36 H 1.127393 -2.288911 1.770685 0
M  V30 37 H 2.028972 0.743799 5.140789 0
M  V30 38 H 1.690170 2.474573 4.954071 0
M  V30 39 H 3.246378 1.807762 4.358406 0
M  V30 40 H 1.423378 4.158852 3.215858 0
M  V30 41 H 0.493200 5.446653 1.382399 0
M  V30 42 H 0.053992 4.070886 -3.903850 0
M  V30 43 H 0.830055 3.187952 -2.586154 0
M  V30 44 H -0.630066 2.507843 -3.411043 0
M  V30 45 H -3.085046 4.316318 -1.212002 0
M  V30 46 H -3.084151 3.559296 -2.881479 0
M  V30 47 H -1.874278 6.313474 -2.207564 0
M  V30 48 H -1.766232 5.451606 -3.823891 0
M  V30 49 H -0.303198 1.875635 -0.774716 0
M  V30 50 H -0.935631 -1.340548 -2.535347 0
M  V30 51 H 1.165483 -6.013695 -0.899998 0
M  V30 52 H -0.313490 -5.146180 -1.517801 0
M  V30 53 H -0.466129 -7.524970 -0.527601 0
M  V30 54 H -2.556212 -6.846960 -1.032697 0
M  V30 55 H -2.749925 -6.425410 0.683808 0
M  V30 56 H -2.261276 -5.179791 -0.562861 0
M  V30 END ATOM
M  V30 BEGIN BOND
M  V30 1 1 1 2
M  V30 2 1 2 3
M  V30 3 1 3 4
M  V30 4 1 4 5
M  V30 5 2 5 6
M  V30 6 1 6 7
M  V30 7 1 7 8
M  V30 8 2 8 9
M  V30 9 1 9 10
M  V30 10 1 10 11
M  V30 11 1 10 12
M  V30 12 2 12 13
M  V30 13 1 13 14
M  V30 14 2 14 15
M  V30 15 1 15 16
M  V30 16 1 16 17
M  V30 17 1 17 18
M  V30 18 1 17 19
M  V30 19 1 19 20
M  V30 20 1 15 21
M  V30 21 2 21 22
M  V30 22 2 7 23
M  V30 23 1 23 24
M  V30 24 2 24 25
M  V30 25 1 4 26
M  V30 26 1 26 27
M  V30 27 1 27 28
M  V30 28 1 27 29
M  V30 29 1 29 2
M  V30 30 1 25 5
M  V30 31 1 22 8
M  V30 32 1 22 12
M  V30 33 1 20 17
M  V30 34 1 1 30
M  V30 35 1 1 31
M  V30 36 1 1 32
M  V30 37 1 2 33 CFG=1
M  V30 38 1 3 34
M  V30 39 1 3 35
M  V30 40 1 6 36
M  V30 41 1 11 37
M  V30 42 1 11 38
M  V30 43 1 11 39
M  V30 44 1 13 40
M  V30 45 1 14 41
M  V30 46 1 18 42
M  V30 47 1 18 43
M  V30 48 1 18 44
M  V30 49 1 19 45
M  V30 50 1 19 46
M  V30 51 1 20 47
M  V30 52 1 20 48
M  V30 53 1 21 49
M  V30 54 1 24 50
M  V30 55 1 26 51
M  V30 56 1 26 52
M  V30 57 1 27 53 CFG=3
M  V30 58 1 28 54
M  V30 59 1 28 55
M  V30 60 1 28 56
M  V30 END BOND
M  V30 END CTAB
M  END
>  <Dataset>  (210) 
ChEMBL_Kinases

>  <Ligand_Instance>  (210) 
nan

>  <PDB_ID>  (210) 
nan

>  <Standardized_SMILES>  (210) 
C[C@@H]1CN(c2cc(-c3nn(C)c4ccc(OC5(C)CC5)cc34)ncn2)C[C@H](C)O1

>  <Name>  (210) 
MLi-2-NC

>  <Pocket>  (210) 
nan

>  <ATP_Site>  (210) 
nan

>  <Peripheral>  (210) 
nan

>  <Num_H_Atoms_ProtBoundConf>  (210) 
nan

>  <Num_Resolved_Atoms>  (210) 
nan

>  <Num_Not_Resolved_Atoms>  (210) 
nan

$$$$
CHEMBL4560505
     RDKit          3D

  0  0  0  0  0  0  0  0  0  0999 V3000
M  V30 BEGIN CTAB
M  V30 COUNTS 42 45 0 0 0
M  V30 BEGIN ATOM
M  V30 1 C -1.126896 -4.125832 3.248889 0
M  V30 2 N -0.165572 -3.322322 2.536857 0
M  V30 3 C 0.159247 -3.357675 1.221500 0
M  V30 4 C 1.147167 -2.419165 0.882968 0
M  V30 5 C 1.641015 -2.359222 -0.472459 0
M  V30 6 N 2.111939 -3.502695 -1.040155 0
M  V30 7 N 2.529920 -3.287082 -2.269861 0
M  V30 8 C 2.306003 -1.977416 -2.455177 0
M  V30 9 C 2.533031 -1.170486 -3.538517 0
M  V30 10 C 2.267970 0.165175 -3.643271 0
M  V30 11 N 1.733515 0.667180 -2.540110 0
M  V30 12 C 1.455415 0.001434 -1.407833 0
M  V30 13 N 0.834333 0.538580 -0.233171 0
M  V30 14 C 0.232125 1.050965 0.911331 0
M  V30 15 C -0.160714 2.535790 0.954559 0
M  V30 16 C -0.218080 2.901409 2.417767 0
M  V30 17 C -0.451314 1.720937 3.301897 0
M  V30 18 C -1.348429 0.673866 2.726347 0
M  V30 19 C -1.075105 0.352246 1.291208 0
M  V30 20 C 1.750875 -1.337920 -1.372640 0
M  V30 21 C 1.359099 -1.845158 2.118724 0
M  V30 22 N 0.589367 -2.379993 3.068133 0
M  V30 23 H -1.629259 -4.801571 2.516689 0
M  V30 24 H -0.694282 -4.727507 4.051405 0
M  V30 25 H -1.947673 -3.463573 3.649982 0
M  V30 26 H -0.346661 -4.071464 0.578458 0
M  V30 27 H 2.942098 -3.936121 -2.972163 0
M  V30 28 H 2.968481 -1.599582 -4.428924 0
M  V30 29 H 2.458384 0.776205 -4.510143 0
M  V30 30 H 0.715848 1.496841 -0.574498 0
M  V30 31 H 0.964017 0.942475 1.775179 0
M  V30 32 H 0.566009 3.149705 0.390424 0
M  V30 33 H -1.187990 2.653732 0.545552 0
M  V30 34 H -0.896442 3.745098 2.604130 0
M  V30 35 H 0.822421 3.266760 2.661601 0
M  V30 36 H 0.489903 1.275571 3.728914 0
M  V30 37 H -0.981777 2.115787 4.214542 0
M  V30 38 H -2.410123 0.962192 2.908019 0
M  V30 39 H -1.198460 -0.244773 3.330080 0
M  V30 40 H -1.876521 0.890781 0.698876 0
M  V30 41 H -1.120768 -0.692363 1.011057 0
M  V30 42 H 2.122777 -1.053354 2.145547 0
M  V30 END ATOM
M  V30 BEGIN BOND
M  V30 1 1 1 2
M  V30 2 1 2 3
M  V30 3 2 3 4
M  V30 4 1 4 5
M  V30 5 2 5 6
M  V30 6 1 6 7
M  V30 7 1 7 8
M  V30 8 2 8 9
M  V30 9 1 9 10
M  V30 10 2 10 11
M  V30 11 1 11 12
M  V30 12 1 12 13
M  V30 13 1 13 14
M  V30 14 1 14 15
M  V30 15 1 15 16
M  V30 16 1 16 17
M  V30 17 1 17 18
M  V30 18 1 18 19
M  V30 19 2 12 20
M  V30 20 1 4 21
M  V30 21 2 21 22
M  V30 22 1 22 2
M  V30 23 1 20 5
M  V30 24 1 20 8
M  V30 25 1 19 14
M  V30 26 1 1 23
M  V30 27 1 1 24
M  V30 28 1 1 25
M  V30 29 1 3 26
M  V30 30 1 7 27
M  V30 31 1 9 28
M  V30 32 1 10 29
M  V30 33 1 13 30
M  V30 34 1 14 31
M  V30 35 1 15 32
M  V30 36 1 15 33
M  V30 37 1 16 34
M  V30 38 1 16 35
M  V30 39 1 17 36
M  V30 40 1 17 37
M  V30 41 1 18 38
M  V30 42 1 18 39
M  V30 43 1 19 40
M  V30 44 1 19 41
M  V30 45 1 21 42
M  V30 END BOND
M  V30 END CTAB
M  END
>  <Dataset>  (211) 
ChEMBL_Kinases

>  <Ligand_Instance>  (211) 
nan

>  <PDB_ID>  (211) 
nan

>  <Standardized_SMILES>  (211) 
Cn1cc(-c2n[nH]c3ccnc(NC4CCCCC4)c23)cn1

>  <Name>  (211) 
nan

>  <Pocket>  (211) 
nan

>  <ATP_Site>  (211) 
nan

>  <Peripheral>  (211) 
nan

>  <Num_H_Atoms_ProtBoundConf>  (211) 
nan

>  <Num_Resolved_Atoms>  (211) 
nan

>  <Num_Not_Resolved_Atoms>  (211) 
nan

$$$$
CHEMBL4561384
     RDKit          3D

  0  0  0  0  0  0  0  0  0  0999 V3000
M  V30 BEGIN CTAB
M  V30 COUNTS 42 45 0 0 0
M  V30 BEGIN ATOM
M  V30 1 C 0.332867 -6.584837 -0.183440 0
M  V30 2 C 1.243091 -6.092338 0.884358 0
M  V30 3 N 2.073807 -6.813925 1.691741 0
M  V30 4 N 2.714228 -5.989935 2.510855 0
M  V30 5 C 2.352256 -4.704048 2.297482 0
M  V30 6 C 1.445849 -4.791406 1.291904 0
M  V30 7 C 0.757404 -3.632799 0.703119 0
M  V30 8 C 0.851445 -2.338335 0.990033 0
M  V30 9 C 0.107941 -1.421004 0.306679 0
M  V30 10 N 0.021524 -0.079213 0.403105 0
M  V30 11 C -0.791986 0.643837 -0.384201 0
M  V30 12 C -0.779859 2.120034 -0.160616 0 CFG=2
M  V30 13 C 0.410218 2.808542 -0.741796 0
M  V30 14 C 0.687707 3.880062 0.318274 0
M  V30 15 C 0.374116 3.150825 1.582633 0
M  V30 16 C 1.522402 2.282821 2.031917 0
M  V30 17 C 0.061167 4.080195 2.735308 0
M  V30 18 N -0.824575 2.430084 1.263648 0
M  V30 19 N -1.597468 0.139458 -1.337493 0
M  V30 20 C -1.603287 -1.188854 -1.532959 0
M  V30 21 O -2.263494 -1.844263 -2.348770 0
M  V30 22 C -0.744936 -1.913889 -0.696823 0
M  V30 23 S -0.417818 -3.759240 -0.601103 0
M  V30 24 H 0.522313 -7.652254 -0.407501 0
M  V30 25 H -0.728902 -6.392049 0.025192 0
M  V30 26 H 0.534573 -6.057224 -1.156664 0
M  V30 27 H 3.404929 -6.374179 3.212884 0
M  V30 28 H 2.729889 -3.845348 2.833611 0
M  V30 29 H 1.528253 -2.027378 1.774967 0
M  V30 30 H -1.692047 2.544472 -0.586484 0
M  V30 31 H 1.315535 2.161475 -0.842646 0
M  V30 32 H 0.171262 3.302281 -1.715980 0
M  V30 33 H 1.737571 4.227376 0.270384 0
M  V30 34 H -0.044092 4.690948 0.175968 0
M  V30 35 H 2.189401 2.058618 1.152979 0
M  V30 36 H 1.176866 1.336974 2.527494 0
M  V30 37 H 2.137248 2.832057 2.775947 0
M  V30 38 H -0.996481 4.412015 2.689280 0
M  V30 39 H 0.156187 3.484109 3.667296 0
M  V30 40 H 0.786295 4.917515 2.777698 0
M  V30 41 H -0.773616 1.520510 1.777563 0
M  V30 42 H -2.222889 0.685762 -1.944131 0
M  V30 END ATOM
M  V30 BEGIN BOND
M  V30 1 1 1 2
M  V30 2 2 2 3
M  V30 3 1 3 4
M  V30 4 1 4 5
M  V30 5 2 5 6
M  V30 6 1 6 7
M  V30 7 2 7 8
M  V30 8 1 8 9
M  V30 9 1 9 10
M  V30 10 2 10 11
M  V30 11 1 11 12
M  V30 12 1 12 13
M  V30 13 1 13 14
M  V30 14 1 14 15
M  V30 15 1 15 16
M  V30 16 1 15 17
M  V30 17 1 15 18
M  V30 18 1 11 19
M  V30 19 1 19 20
M  V30 20 2 20 21
M  V30 21 1 20 22
M  V30 22 1 22 23
M  V30 23 1 6 2
M  V30 24 1 23 7
M  V30 25 2 22 9
M  V30 26 1 18 12
M  V30 27 1 1 24
M  V30 28 1 1 25
M  V30 29 1 1 26
M  V30 30 1 4 27
M  V30 31 1 5 28
M  V30 32 1 8 29
M  V30 33 1 12 30 CFG=3
M  V30 34 1 13 31
M  V30 35 1 13 32
M  V30 36 1 14 33
M  V30 37 1 14 34
M  V30 38 1 16 35
M  V30 39 1 16 36
M  V30 40 1 16 37
M  V30 41 1 17 38
M  V30 42 1 17 39
M  V30 43 1 17 40
M  V30 44 1 18 41
M  V30 45 1 19 42
M  V30 END BOND
M  V30 END CTAB
M  END
>  <Dataset>  (212) 
ChEMBL_Kinases

>  <Ligand_Instance>  (212) 
nan

>  <PDB_ID>  (212) 
nan

>  <Standardized_SMILES>  (212) 
Cc1n[nH]cc1-c1cc2nc([C@@H]3CCC(C)(C)N3)[nH]c(=O)c2s1

>  <Name>  (212) 
nan

>  <Pocket>  (212) 
nan

>  <ATP_Site>  (212) 
nan

>  <Peripheral>  (212) 
nan

>  <Num_H_Atoms_ProtBoundConf>  (212) 
nan

>  <Num_Resolved_Atoms>  (212) 
nan

>  <Num_Not_Resolved_Atoms>  (212) 
nan

$$$$
CHEMBL4638383
     RDKit          3D

  0  0  0  0  0  0  0  0  0  0999 V3000
M  V30 BEGIN CTAB
M  V30 COUNTS 45 48 0 0 0
M  V30 BEGIN ATOM
M  V30 1 N -2.400422 -4.053669 5.670343 0
M  V30 2 C -2.464594 -3.363392 4.428348 0
M  V30 3 C -1.423759 -3.536764 3.550366 0
M  V30 4 C -1.365899 -2.925331 2.317060 0
M  V30 5 C -2.384159 -2.090734 1.909321 0
M  V30 6 C -2.593213 -1.305456 0.704594 0
M  V30 7 C -3.771945 -1.500335 -0.000237 0
M  V30 8 N -4.041951 -0.835846 -1.150395 0
M  V30 9 C -3.141528 0.055198 -1.646573 0
M  V30 10 C -1.976219 0.232574 -0.927156 0
M  V30 11 C -1.086907 1.145331 -1.448372 0
M  V30 12 C 0.087846 1.370405 -0.773221 0
M  V30 13 C 0.465695 0.756515 0.397170 0
M  V30 14 O 1.558524 0.830383 1.206945 0
M  V30 15 C 2.657086 1.643036 0.944995 0
M  V30 16 C 3.405425 1.302496 -0.288892 0 CFG=2
M  V30 17 C 4.189073 -0.018137 -0.115502 0
M  V30 18 C 4.995329 0.016052 -1.405276 0
M  V30 19 C 5.285205 1.491492 -1.569257 0
M  V30 20 N 4.539392 2.184335 -0.529284 0
M  V30 21 C -0.467827 -0.165914 0.895427 0
M  V30 22 C -1.652725 -0.413345 0.242058 0
M  V30 23 C -3.456768 -1.899176 2.788670 0
M  V30 24 C -3.491277 -2.531481 4.033898 0
M  V30 25 H -2.277634 -3.675454 6.635280 0
M  V30 26 H -2.498806 -5.096587 5.511932 0
M  V30 27 H -0.568647 -4.164458 3.754519 0
M  V30 28 H -0.592904 -3.019558 1.567844 0
M  V30 29 H -4.545826 -2.194177 0.326031 0
M  V30 30 H -3.354546 0.583112 -2.559938 0
M  V30 31 H -1.260094 1.685559 -2.345280 0
M  V30 32 H 0.778450 2.081673 -1.146187 0
M  V30 33 H 2.266323 2.692305 0.837812 0
M  V30 34 H 3.397490 1.627747 1.797323 0
M  V30 35 H 2.878471 1.201002 -1.218741 0
M  V30 36 H 4.808551 0.121039 0.780195 0
M  V30 37 H 3.490131 -0.858954 -0.067574 0
M  V30 38 H 4.302371 -0.307203 -2.212375 0
M  V30 39 H 5.904806 -0.601071 -1.342804 0
M  V30 40 H 5.027490 1.848691 -2.589008 0
M  V30 41 H 6.366063 1.624868 -1.447585 0
M  V30 42 H 4.232884 3.096812 -0.961963 0
M  V30 43 H -0.344308 -0.719237 1.790046 0
M  V30 44 H -4.347622 -1.274877 2.632314 0
M  V30 45 H -4.298194 -2.412472 4.743273 0
M  V30 END ATOM
M  V30 BEGIN BOND
M  V30 1 1 1 2
M  V30 2 2 2 3
M  V30 3 1 3 4
M  V30 4 2 4 5
M  V30 5 1 5 6
M  V30 6 2 6 7
M  V30 7 1 7 8
M  V30 8 2 8 9
M  V30 9 1 9 10
M  V30 10 2 10 11
M  V30 11 1 11 12
M  V30 12 2 12 13
M  V30 13 1 13 14
M  V30 14 1 14 15
M  V30 15 1 15 16
M  V30 16 1 16 17
M  V30 17 1 17 18
M  V30 18 1 18 19
M  V30 19 1 19 20
M  V30 20 1 13 21
M  V30 21 2 21 22
M  V30 22 1 5 23
M  V30 23 2 23 24
M  V30 24 1 24 2
M  V30 25 1 22 6
M  V30 26 1 22 10
M  V30 27 1 20 16
M  V30 28 1 1 25
M  V30 29 1 1 26
M  V30 30 1 3 27
M  V30 31 1 4 28
M  V30 32 1 7 29
M  V30 33 1 9 30
M  V30 34 1 11 31
M  V30 35 1 12 32
M  V30 36 1 15 33
M  V30 37 1 15 34
M  V30 38 1 16 35 CFG=3
M  V30 39 1 17 36
M  V30 40 1 17 37
M  V30 41 1 18 38
M  V30 42 1 18 39
M  V30 43 1 19 40
M  V30 44 1 19 41
M  V30 45 1 20 42
M  V30 46 1 21 43
M  V30 47 1 23 44
M  V30 48 1 24 45
M  V30 END BOND
M  V30 END CTAB
M  END
>  <Dataset>  (213) 
ChEMBL_Kinases

>  <Ligand_Instance>  (213) 
nan

>  <PDB_ID>  (213) 
nan

>  <Standardized_SMILES>  (213) 
Nc1ccc(-c2cncc3ccc(OC[C@@H]4CCCN4)cc23)cc1

>  <Name>  (213) 
nan

>  <Pocket>  (213) 
nan

>  <ATP_Site>  (213) 
nan

>  <Peripheral>  (213) 
nan

>  <Num_H_Atoms_ProtBoundConf>  (213) 
nan

>  <Num_Resolved_Atoms>  (213) 
nan

>  <Num_Not_Resolved_Atoms>  (213) 
nan

$$$$
CHEMBL4638387
     RDKit          3D

  0  0  0  0  0  0  0  0  0  0999 V3000
M  V30 BEGIN CTAB
M  V30 COUNTS 42 45 0 0 0
M  V30 BEGIN ATOM
M  V30 1 C 0.985928 -5.580838 2.458556 0
M  V30 2 C 0.423156 -4.194599 2.680987 0 CFG=2
M  V30 3 C -0.599610 -3.830788 1.641716 0
M  V30 4 N -0.340981 -2.497052 1.208826 0
M  V30 5 C -0.958496 -2.101749 -0.048812 0
M  V30 6 S -2.032630 -3.239699 -1.067772 0
M  V30 7 N -2.341535 -2.076953 -2.314671 0
M  V30 8 C -1.642871 -0.899447 -1.931856 0
M  V30 9 C -1.663598 0.242314 -2.696498 0
M  V30 10 C -0.972087 1.355026 -2.283850 0
M  V30 11 C -0.264348 1.333951 -1.118978 0
M  V30 12 C 0.495304 2.464039 -0.606612 0
M  V30 13 C 0.526253 3.643999 -1.311659 0
M  V30 14 C 1.255231 4.692183 -0.796786 0
M  V30 15 C 1.952978 4.624011 0.381953 0
M  V30 16 C 1.923976 3.437107 1.094612 0
M  V30 17 Cl 2.777412 3.244654 2.606180 0
M  V30 18 C 1.191503 2.380347 0.579546 0
M  V30 19 N -0.279663 0.204407 -0.420788 0
M  V30 20 C -0.938605 -0.898285 -0.786872 0
M  V30 21 C 0.423756 -1.435739 1.773699 0
M  V30 22 C 1.178474 -2.014532 2.976959 0 CFG=2
M  V30 23 C 2.462926 -1.245254 3.145969 0
M  V30 24 O 1.520629 -3.333824 2.710348 0
M  V30 25 H 0.375036 -6.100346 1.692579 0
M  V30 26 H 2.046021 -5.556256 2.093825 0
M  V30 27 H 0.998934 -6.192262 3.382965 0
M  V30 28 H -0.014431 -4.205331 3.718387 0
M  V30 29 H -0.639046 -4.547144 0.790996 0
M  V30 30 H -1.597349 -3.802224 2.164037 0
M  V30 31 H -2.210587 0.298538 -3.622358 0
M  V30 32 H -1.003744 2.237331 -2.900184 0
M  V30 33 H 0.030515 3.834385 -2.240006 0
M  V30 34 H 1.312557 5.637782 -1.308878 0
M  V30 35 H 2.519546 5.461297 0.767627 0
M  V30 36 H 1.135294 1.424634 1.099943 0
M  V30 37 H -0.251933 -0.616013 2.088965 0
M  V30 38 H 1.161336 -0.986682 1.053512 0
M  V30 39 H 0.538211 -1.902244 3.875877 0
M  V30 40 H 2.342435 -0.196443 2.759417 0
M  V30 41 H 2.744759 -1.184156 4.207445 0
M  V30 42 H 3.294234 -1.670690 2.533368 0
M  V30 END ATOM
M  V30 BEGIN BOND
M  V30 1 1 1 2
M  V30 2 1 2 3
M  V30 3 1 3 4
M  V30 4 1 4 5
M  V30 5 1 5 6
M  V30 6 1 6 7
M  V30 7 2 7 8
M  V30 8 1 8 9
M  V30 9 2 9 10
M  V30 10 1 10 11
M  V30 11 1 11 12
M  V30 12 2 12 13
M  V30 13 1 13 14
M  V30 14 2 14 15
M  V30 15 1 15 16
M  V30 16 1 16 17
M  V30 17 2 16 18
M  V30 18 2 11 19
M  V30 19 1 19 20
M  V30 20 1 4 21
M  V30 21 1 21 22
M  V30 22 1 22 23
M  V30 23 1 22 24
M  V30 24 1 24 2
M  V30 25 2 20 5
M  V30 26 1 20 8
M  V30 27 1 18 12
M  V30 28 1 1 25
M  V30 29 1 1 26
M  V30 30 1 1 27
M  V30 31 1 2 28 CFG=1
M  V30 32 1 3 29
M  V30 33 1 3 30
M  V30 34 1 9 31
M  V30 35 1 10 32
M  V30 36 1 13 33
M  V30 37 1 14 34
M  V30 38 1 15 35
M  V30 39 1 18 36
M  V30 40 1 21 37
M  V30 41 1 21 38
M  V30 42 1 22 39 CFG=1
M  V30 43 1 23 40
M  V30 44 1 23 41
M  V30 45 1 23 42
M  V30 END BOND
M  V30 END CTAB
M  END
>  <Dataset>  (214) 
ChEMBL_Kinases

>  <Ligand_Instance>  (214) 
nan

>  <PDB_ID>  (214) 
nan

>  <Standardized_SMILES>  (214) 
C[C@@H]1CN(c2snc3ccc(-c4cccc(Cl)c4)nc23)C[C@H](C)O1

>  <Name>  (214) 
nan

>  <Pocket>  (214) 
nan

>  <ATP_Site>  (214) 
nan

>  <Peripheral>  (214) 
nan

>  <Num_H_Atoms_ProtBoundConf>  (214) 
nan

>  <Num_Resolved_Atoms>  (214) 
nan

>  <Num_Not_Resolved_Atoms>  (214) 
nan

$$$$
CHEMBL4555069
     RDKit          3D

  0  0  0  0  0  0  0  0  0  0999 V3000
M  V30 BEGIN CTAB
M  V30 COUNTS 70 73 0 0 0
M  V30 BEGIN ATOM
M  V30 1 C 3.823930 -8.669463 -2.207819 0
M  V30 2 N 5.059331 -8.666717 -2.982466 0
M  V30 3 C 5.491353 -10.053757 -3.034077 0
M  V30 4 C 6.018995 -7.842456 -2.268281 0
M  V30 5 C 5.557854 -6.432815 -2.315930 0
M  V30 6 C 5.301641 -5.780790 -1.199041 0
M  V30 7 C 4.845745 -4.402333 -1.116075 0
M  V30 8 O 4.614921 -3.831198 0.007661 0
M  V30 9 N 4.599410 -3.525777 -2.194034 0
M  V30 10 C 4.161844 -2.260394 -1.649226 0
M  V30 11 C 5.060820 -1.254976 -1.330406 0
M  V30 12 C 4.648625 -0.036034 -0.805098 0
M  V30 13 C 3.278820 0.119033 -0.616621 0
M  V30 14 C 2.388379 -0.875757 -0.931937 0
M  V30 15 C 0.977874 -0.600252 -0.687503 0
M  V30 16 O 0.668093 0.504038 -0.141483 0
M  V30 17 N -0.120155 -1.427630 -0.989894 0
M  V30 18 C -1.372693 -0.868616 -0.623196 0
M  V30 19 C -1.776117 -1.228062 0.647794 0
M  V30 20 C -2.961361 -0.800662 1.216509 0
M  V30 21 C -3.781963 0.024562 0.480211 0
M  V30 22 N -5.010021 0.468576 1.049897 0
M  V30 23 C -5.081668 1.657389 1.838739 0
M  V30 24 O -4.017891 2.301078 2.017078 0
M  V30 25 C -6.326177 2.124822 2.424350 0
M  V30 26 N -7.546551 1.570055 2.303634 0
M  V30 27 N -8.417201 2.320443 2.996382 0
M  V30 28 C -7.732770 3.356914 3.557435 0
M  V30 29 C -6.402657 3.257128 3.210542 0
M  V30 30 N -5.409795 4.163471 3.624176 0
M  V30 31 C -4.993480 5.334483 2.966693 0
M  V30 32 O -5.671638 5.441424 1.915871 0
M  V30 33 C -4.008638 6.333483 3.276192 0
M  V30 34 C -3.912234 7.322185 2.304295 0
M  V30 35 Cl -4.856266 7.424823 0.813387 0
M  V30 36 C -2.998031 8.361939 2.469723 0
M  V30 37 C -2.184440 8.451859 3.557982 0
M  V30 38 C -2.261497 7.483970 4.534177 0
M  V30 39 C -3.170271 6.469357 4.348124 0
M  V30 40 Cl -3.248962 5.267323 5.590400 0
M  V30 41 C -3.387698 0.392525 -0.796773 0
M  V30 42 C -2.203122 -0.042615 -1.348738 0
M  V30 43 C 2.818018 -2.078716 -1.452560 0
M  V30 44 H 3.440754 -7.634274 -2.020226 0
M  V30 45 H 3.976124 -9.236492 -1.263122 0
M  V30 46 H 3.075189 -9.228841 -2.797214 0
M  V30 47 H 4.582278 -10.666608 -3.236821 0
M  V30 48 H 6.287961 -10.246649 -3.757640 0
M  V30 49 H 5.858511 -10.402976 -2.035473 0
M  V30 50 H 6.133198 -8.198701 -1.215835 0
M  V30 51 H 6.988338 -7.939791 -2.785323 0
M  V30 52 H 5.425049 -5.924669 -3.238650 0
M  V30 53 H 5.439496 -6.306333 -0.280438 0
M  V30 54 H 4.767750 -3.923859 -3.167135 0
M  V30 55 H 6.132811 -1.407547 -1.489631 0
M  V30 56 H 5.372071 0.747204 -0.558459 0
M  V30 57 H 2.991935 1.099041 -0.199759 0
M  V30 58 H 0.115674 -2.355333 -1.448790 0
M  V30 59 H -1.203014 -1.882740 1.324841 0
M  V30 60 H -3.286304 -1.079009 2.214795 0
M  V30 61 H -5.944508 -0.028198 0.941885 0
M  V30 62 H -9.442929 2.134364 3.086588 0
M  V30 63 H -8.232329 4.110653 4.175465 0
M  V30 64 H -4.927673 3.950217 4.510395 0
M  V30 65 H -2.884575 9.153786 1.744496 0
M  V30 66 H -1.477317 9.255737 3.686754 0
M  V30 67 H -1.635705 7.528386 5.399376 0
M  V30 68 H -4.010771 1.041188 -1.399779 0
M  V30 69 H -1.826927 0.200068 -2.331986 0
M  V30 70 H 2.104330 -2.864803 -1.699906 0
M  V30 END ATOM
M  V30 BEGIN BOND
M  V30 1 1 1 2
M  V30 2 1 2 3
M  V30 3 1 2 4
M  V30 4 1 4 5
M  V30 5 2 5 6
M  V30 6 1 6 7
M  V30 7 2 7 8
M  V30 8 1 7 9
M  V30 9 1 9 10
M  V30 10 2 10 11
M  V30 11 1 11 12
M  V30 12 2 12 13
M  V30 13 1 13 14
M  V30 14 1 14 15
M  V30 15 2 15 16
M  V30 16 1 15 17
M  V30 17 1 17 18
M  V30 18 2 18 19
M  V30 19 1 19 20
M  V30 20 2 20 21
M  V30 21 1 21 22
M  V30 22 1 22 23
M  V30 23 2 23 24
M  V30 24 1 23 25
M  V30 25 2 25 26
M  V30 26 1 26 27
M  V30 27 1 27 28
M  V30 28 2 28 29
M  V30 29 1 29 30
M  V30 30 1 30 31
M  V30 31 2 31 32
M  V30 32 1 31 33
M  V30 33 2 33 34
M  V30 34 1 34 35
M  V30 35 1 34 36
M  V30 36 2 36 37
M  V30 37 1 37 38
M  V30 38 2 38 39
M  V30 39 1 39 40
M  V30 40 1 21 41
M  V30 41 2 41 42
M  V30 42 2 14 43
M  V30 43 1 43 10
M  V30 44 1 42 18
M  V30 45 1 29 25
M  V30 46 1 39 33
M  V30 47 1 1 44
M  V30 48 1 1 45
M  V30 49 1 1 46
M  V30 50 1 3 47
M  V30 51 1 3 48
M  V30 52 1 3 49
M  V30 53 1 4 50
M  V30 54 1 4 51
M  V30 55 1 5 52
M  V30 56 1 6 53
M  V30 57 1 9 54
M  V30 58 1 11 55
M  V30 59 1 12 56
M  V30 60 1 13 57
M  V30 61 1 17 58
M  V30 62 1 19 59
M  V30 63 1 20 60
M  V30 64 1 22 61
M  V30 65 1 27 62
M  V30 66 1 28 63
M  V30 67 1 30 64
M  V30 68 1 36 65
M  V30 69 1 37 66
M  V30 70 1 38 67
M  V30 71 1 41 68
M  V30 72 1 42 69
M  V30 73 1 43 70
M  V30 END BOND
M  V30 END CTAB
M  END
>  <Dataset>  (215) 
ChEMBL_Kinases

>  <Ligand_Instance>  (215) 
nan

>  <PDB_ID>  (215) 
nan

>  <Standardized_SMILES>  (215) 
CN(C)C/C=C/C(=O)Nc1cccc(C(=O)Nc2ccc(NC(=O)c3n[nH]cc3NC(=O)c3c(Cl)cccc3Cl)cc2)c1

>  <Name>  (215) 
nan

>  <Pocket>  (215) 
nan

>  <ATP_Site>  (215) 
nan

>  <Peripheral>  (215) 
nan

>  <Num_H_Atoms_ProtBoundConf>  (215) 
nan

>  <Num_Resolved_Atoms>  (215) 
nan

>  <Num_Not_Resolved_Atoms>  (215) 
nan

$$$$
CHEMBL4555040
     RDKit          3D

  0  0  0  0  0  0  0  0  0  0999 V3000
M  V30 BEGIN CTAB
M  V30 COUNTS 53 56 0 0 0
M  V30 BEGIN ATOM
M  V30 1 C -1.101005 -5.791531 2.476255 0
M  V30 2 O 0.008839 -5.849614 1.596810 0
M  V30 3 C 0.231994 -4.850469 0.644404 0
M  V30 4 C -0.682220 -3.795053 0.594952 0
M  V30 5 C -0.442960 -2.824641 -0.346069 0
M  V30 6 C 0.618716 -2.824684 -1.226400 0
M  V30 7 N 0.787067 -1.747695 -2.165970 0
M  V30 8 C -0.191278 -0.688052 -2.168158 0
M  V30 9 N -1.129346 -0.291847 -3.052188 0
M  V30 10 C -1.904984 0.762658 -2.715667 0
M  V30 11 C -1.747019 1.418045 -1.506777 0
M  V30 12 C -0.788782 1.013065 -0.603490 0
M  V30 13 N -0.049672 -0.042297 -0.998316 0
M  V30 14 N -0.836598 1.810305 0.502020 0
M  V30 15 C 0.085043 1.542066 1.570713 0 CFG=1
M  V30 16 C 0.313046 2.680455 2.501055 0
M  V30 17 C 1.005753 2.208605 3.751302 0
M  V30 18 C 1.710085 0.896377 3.621263 0 CFG=2
M  V30 19 O 2.957115 1.021998 2.990428 0
M  V30 20 C 0.875921 -0.206282 3.062771 0
M  V30 21 C -0.385775 0.345981 2.409456 0
M  V30 22 C -1.820200 2.669194 0.225505 0
M  V30 23 O -2.114317 3.556488 1.072985 0
M  V30 24 N -2.380266 2.459840 -0.962482 0
M  V30 25 C -3.468347 3.225567 -1.543305 0
M  V30 26 C 1.495316 -3.878850 -1.147585 0
M  V30 27 C 2.654925 -3.918449 -2.079444 0
M  V30 28 C 1.310053 -4.902485 -0.210947 0
M  V30 29 H -1.121724 -6.744150 3.045576 0
M  V30 30 H -0.956753 -4.978559 3.241755 0
M  V30 31 H -2.068769 -5.673189 1.963462 0
M  V30 32 H -1.511039 -3.796664 1.284550 0
M  V30 33 H -1.192708 -2.025940 -0.337210 0
M  V30 34 H 1.631841 -1.814369 -2.799097 0
M  V30 35 H -2.636000 1.049263 -3.441083 0
M  V30 36 H 1.097213 1.254601 1.163886 0
M  V30 37 H 0.874298 3.507556 2.004996 0
M  V30 38 H -0.677855 3.070495 2.830494 0
M  V30 39 H 0.328271 2.175396 4.638570 0
M  V30 40 H 1.779725 2.979097 3.986393 0
M  V30 41 H 1.969328 0.589927 4.678872 0
M  V30 42 H 3.222372 0.091078 2.731679 0
M  V30 43 H 0.645976 -1.017379 3.786821 0
M  V30 44 H 1.451983 -0.702071 2.244586 0
M  V30 45 H -0.869235 -0.421092 1.770740 0
M  V30 46 H -1.029216 0.706330 3.237775 0
M  V30 47 H -3.802456 4.027762 -0.858827 0
M  V30 48 H -4.337979 2.566579 -1.785754 0
M  V30 49 H -3.157587 3.692399 -2.505082 0
M  V30 50 H 3.322564 -3.023441 -1.970060 0
M  V30 51 H 3.278457 -4.823340 -1.836631 0
M  V30 52 H 2.317696 -3.974337 -3.137026 0
M  V30 53 H 2.016560 -5.728632 -0.164899 0
M  V30 END ATOM
M  V30 BEGIN BOND
M  V30 1 1 1 2
M  V30 2 1 2 3
M  V30 3 2 3 4
M  V30 4 1 4 5
M  V30 5 2 5 6
M  V30 6 1 6 7
M  V30 7 1 7 8
M  V30 8 2 8 9
M  V30 9 1 9 10
M  V30 10 2 10 11
M  V30 11 1 11 12
M  V30 12 2 12 13
M  V30 13 1 12 14
M  V30 14 1 14 15
M  V30 15 1 15 16
M  V30 16 1 16 17
M  V30 17 1 17 18
M  V30 18 1 18 19
M  V30 19 1 18 20
M  V30 20 1 20 21
M  V30 21 1 14 22
M  V30 22 2 22 23
M  V30 23 1 22 24
M  V30 24 1 24 25
M  V30 25 1 6 26
M  V30 26 1 26 27
M  V30 27 2 26 28
M  V30 28 1 28 3
M  V30 29 1 13 8
M  V30 30 1 21 15
M  V30 31 1 24 11
M  V30 32 1 1 29
M  V30 33 1 1 30
M  V30 34 1 1 31
M  V30 35 1 4 32
M  V30 36 1 5 33
M  V30 37 1 7 34
M  V30 38 1 10 35
M  V30 39 1 15 36 CFG=3
M  V30 40 1 16 37
M  V30 41 1 16 38
M  V30 42 1 17 39
M  V30 43 1 17 40
M  V30 44 1 18 41 CFG=1
M  V30 45 1 19 42
M  V30 46 1 20 43
M  V30 47 1 20 44
M  V30 48 1 21 45
M  V30 49 1 21 46
M  V30 50 1 25 47
M  V30 51 1 25 48
M  V30 52 1 25 49
M  V30 53 1 27 50
M  V30 54 1 27 51
M  V30 55 1 27 52
M  V30 56 1 28 53
M  V30 END BOND
M  V30 END CTAB
M  END
>  <Dataset>  (216) 
ChEMBL_Kinases

>  <Ligand_Instance>  (216) 
nan

>  <PDB_ID>  (216) 
nan

>  <Standardized_SMILES>  (216) 
COc1ccc(Nc2ncc3c(n2)n([C@H]2CC[C@H](O)CC2)c(=O)n3C)c(C)c1

>  <Name>  (216) 
nan

>  <Pocket>  (216) 
nan

>  <ATP_Site>  (216) 
nan

>  <Peripheral>  (216) 
nan

>  <Num_H_Atoms_ProtBoundConf>  (216) 
nan

>  <Num_Resolved_Atoms>  (216) 
nan

>  <Num_Not_Resolved_Atoms>  (216) 
nan

$$$$
CHEMBL4555026
     RDKit          3D

  0  0  0  0  0  0  0  0  0  0999 V3000
M  V30 BEGIN CTAB
M  V30 COUNTS 53 56 0 0 0
M  V30 BEGIN ATOM
M  V30 1 C 2.833894 2.755855 1.609144 0
M  V30 2 C 2.831278 1.343748 1.112466 0 CFG=1
M  V30 3 C 3.239664 0.409692 2.236682 0
M  V30 4 N 4.566431 0.713821 2.733464 0
M  V30 5 C 4.866248 -0.226917 3.799160 0
M  V30 6 C 5.509347 0.457049 1.650674 0
M  V30 7 C 1.491146 0.882339 0.656421 0
M  V30 8 C 1.368224 0.479083 -0.650407 0
M  V30 9 C 0.144343 0.048806 -1.098396 0
M  V30 10 C -0.968193 0.014527 -0.255009 0
M  V30 11 C -2.335711 -0.314773 -0.537803 0
M  V30 12 C -2.882126 0.930270 -0.897412 0
M  V30 13 O -2.329470 2.226666 -0.989968 0
M  V30 14 C -4.240181 0.999745 -1.251133 0
M  V30 15 C -5.054332 -0.111896 -1.257286 0
M  V30 16 Cl -6.737057 -0.085726 -1.684992 0
M  V30 17 C -4.484946 -1.294234 -0.902990 0
M  V30 18 N -5.227758 -2.411726 -0.890168 0
M  V30 19 C -4.730417 -3.611182 -0.550841 0
M  V30 20 O -5.448700 -4.642261 -0.547367 0
M  V30 21 C -3.388883 -3.669434 -0.202963 0
M  V30 22 C -2.902095 -4.907730 0.142046 0
M  V30 23 O -3.713869 -6.006995 0.134068 0
M  V30 24 C -1.569487 -4.956420 0.487430 0
M  V30 25 C -0.701588 -3.855989 0.509418 0
M  V30 26 C -1.331078 -2.692212 0.141661 0
M  V30 27 C -2.624629 -2.554989 -0.209859 0
M  V30 28 C -3.166152 -1.382079 -0.555785 0
M  V30 29 C -0.799643 0.438954 1.086367 0
M  V30 30 C 0.443871 0.879738 1.554259 0
M  V30 31 H 2.316531 3.465180 0.956376 0
M  V30 32 H 2.426315 2.752135 2.648019 0
M  V30 33 H 3.898330 3.080064 1.663609 0
M  V30 34 H 3.530219 1.277059 0.254080 0
M  V30 35 H 2.473081 0.493520 3.031539 0
M  V30 36 H 3.199384 -0.626935 1.837143 0
M  V30 37 H 4.127196 -1.053858 3.848725 0
M  V30 38 H 4.903632 0.233218 4.798944 0
M  V30 39 H 5.872843 -0.705511 3.636074 0
M  V30 40 H 5.011417 -0.033479 0.785415 0
M  V30 41 H 6.326690 -0.221289 1.971445 0
M  V30 42 H 6.032618 1.408056 1.347014 0
M  V30 43 H 2.179823 0.475705 -1.365150 0
M  V30 44 H -0.088834 -0.288567 -2.078740 0
M  V30 45 H -2.351732 2.706015 -1.885022 0
M  V30 46 H -4.778645 1.902138 -1.547556 0
M  V30 47 H -6.245989 -2.375878 -1.152645 0
M  V30 48 H -3.400233 -6.910138 -0.248041 0
M  V30 49 H -1.225626 -5.965474 0.755176 0
M  V30 50 H 0.289388 -4.131383 0.809202 0
M  V30 51 H -0.549786 -2.010755 0.218568 0
M  V30 52 H -1.587413 0.458091 1.835738 0
M  V30 53 H 0.568731 1.202372 2.576809 0
M  V30 END ATOM
M  V30 BEGIN BOND
M  V30 1 1 1 2
M  V30 2 1 2 3
M  V30 3 1 3 4
M  V30 4 1 4 5
M  V30 5 1 4 6
M  V30 6 1 2 7
M  V30 7 2 7 8
M  V30 8 1 8 9
M  V30 9 2 9 10
M  V30 10 1 10 11
M  V30 11 2 11 12
M  V30 12 1 12 13
M  V30 13 1 12 14
M  V30 14 2 14 15
M  V30 15 1 15 16
M  V30 16 1 15 17
M  V30 17 1 17 18
M  V30 18 1 18 19
M  V30 19 2 19 20
M  V30 20 1 19 21
M  V30 21 2 21 22
M  V30 22 1 22 23
M  V30 23 1 22 24
M  V30 24 2 24 25
M  V30 25 1 25 26
M  V30 26 2 26 27
M  V30 27 1 27 28
M  V30 28 1 10 29
M  V30 29 2 29 30
M  V30 30 1 30 7
M  V30 31 1 28 11
M  V30 32 2 28 17
M  V30 33 1 27 21
M  V30 34 1 1 31
M  V30 35 1 1 32
M  V30 36 1 1 33
M  V30 37 1 2 34 CFG=3
M  V30 38 1 3 35
M  V30 39 1 3 36
M  V30 40 1 5 37
M  V30 41 1 5 38
M  V30 42 1 5 39
M  V30 43 1 6 40
M  V30 44 1 6 41
M  V30 45 1 6 42
M  V30 46 1 8 43
M  V30 47 1 9 44
M  V30 48 1 13 45
M  V30 49 1 14 46
M  V30 50 1 18 47
M  V30 51 1 23 48
M  V30 52 1 24 49
M  V30 53 1 25 50
M  V30 54 1 26 51
M  V30 55 1 29 52
M  V30 56 1 30 53
M  V30 END BOND
M  V30 END CTAB
M  END
>  <Dataset>  (217) 
ChEMBL_Kinases

>  <Ligand_Instance>  (217) 
nan

>  <PDB_ID>  (217) 
nan

>  <Standardized_SMILES>  (217) 
C[C@@H](CN(C)C)c1ccc(-c2c(O)cc(Cl)c3[nH]c(=O)c4c(O)cccc4c23)cc1

>  <Name>  (217) 
nan

>  <Pocket>  (217) 
nan

>  <ATP_Site>  (217) 
nan

>  <Peripheral>  (217) 
nan

>  <Num_H_Atoms_ProtBoundConf>  (217) 
nan

>  <Num_Resolved_Atoms>  (217) 
nan

>  <Num_Not_Resolved_Atoms>  (217) 
nan

$$$$
CHEMBL4638460
     RDKit          3D

  0  0  0  0  0  0  0  0  0  0999 V3000
M  V30 BEGIN CTAB
M  V30 COUNTS 37 40 0 0 0
M  V30 BEGIN ATOM
M  V30 1 C 1.916793 -3.355286 4.041788 0
M  V30 2 C 0.593278 -3.698991 3.863843 0
M  V30 3 C 0.119468 -3.603620 2.562760 0
M  V30 4 C 0.961048 -3.186889 1.553167 0
M  V30 5 C 0.471218 -3.074977 0.132700 0
M  V30 6 N -0.032683 -1.723094 -0.008690 0
M  V30 7 C 0.780627 -0.703509 -0.414583 0
M  V30 8 C 0.040439 0.484621 -0.464265 0
M  V30 9 C 0.618844 1.765695 -0.863041 0
M  V30 10 C 1.451009 1.836718 -1.986583 0
M  V30 11 C 2.030168 3.009857 -2.419894 0
M  V30 12 N 1.799061 4.152342 -1.747286 0
M  V30 13 C 1.005353 4.137702 -0.659188 0
M  V30 14 C 0.419535 2.968662 -0.215438 0
M  V30 15 C -1.247943 0.156283 -0.076135 0
M  V30 16 C -2.362999 0.948265 0.046646 0
M  V30 17 C -3.503410 0.286339 0.463729 0
M  V30 18 N -3.502383 -1.033179 0.724799 0
M  V30 19 C -2.414993 -1.817353 0.607411 0
M  V30 20 C -1.253642 -1.196156 0.193144 0
M  V30 21 C 2.266886 -2.859426 1.794745 0
M  V30 22 C 2.815075 -2.930927 3.080017 0
M  V30 23 H 2.304797 -3.425145 5.060541 0
M  V30 24 H 0.004346 -4.015199 4.709596 0
M  V30 25 H -0.900316 -3.860087 2.378288 0
M  V30 26 H 1.273460 -3.287892 -0.573215 0
M  V30 27 H -0.363406 -3.784751 -0.032330 0
M  V30 28 H 1.839856 -0.777639 -0.665532 0
M  V30 29 H 1.672386 0.950167 -2.566412 0
M  V30 30 H 2.672267 3.015579 -3.302046 0
M  V30 31 H 0.758867 4.986774 -0.056436 0
M  V30 32 H -0.234372 2.918779 0.669278 0
M  V30 33 H -2.327223 2.000964 -0.170810 0
M  V30 34 H -4.427610 0.852639 0.583345 0
M  V30 35 H -2.443229 -2.877727 0.824491 0
M  V30 36 H 2.964688 -2.523973 1.014811 0
M  V30 37 H 3.832386 -2.691989 3.359756 0
M  V30 END ATOM
M  V30 BEGIN BOND
M  V30 1 2 1 2
M  V30 2 1 2 3
M  V30 3 2 3 4
M  V30 4 1 4 5
M  V30 5 1 5 6
M  V30 6 1 6 7
M  V30 7 2 7 8
M  V30 8 1 8 9
M  V30 9 2 9 10
M  V30 10 1 10 11
M  V30 11 2 11 12
M  V30 12 1 12 13
M  V30 13 2 13 14
M  V30 14 1 8 15
M  V30 15 2 15 16
M  V30 16 1 16 17
M  V30 17 2 17 18
M  V30 18 1 18 19
M  V30 19 2 19 20
M  V30 20 1 4 21
M  V30 21 2 21 22
M  V30 22 1 22 1
M  V30 23 1 20 6
M  V30 24 1 14 9
M  V30 25 1 20 15
M  V30 26 1 1 23
M  V30 27 1 2 24
M  V30 28 1 3 25
M  V30 29 1 5 26
M  V30 30 1 5 27
M  V30 31 1 7 28
M  V30 32 1 10 29
M  V30 33 1 11 30
M  V30 34 1 13 31
M  V30 35 1 14 32
M  V30 36 1 16 33
M  V30 37 1 17 34
M  V30 38 1 19 35
M  V30 39 1 21 36
M  V30 40 1 22 37
M  V30 END BOND
M  V30 END CTAB
M  END
>  <Dataset>  (218) 
ChEMBL_Kinases

>  <Ligand_Instance>  (218) 
nan

>  <PDB_ID>  (218) 
nan

>  <Standardized_SMILES>  (218) 
c1ccc(Cn2cc(-c3ccncc3)c3ccncc32)cc1

>  <Name>  (218) 
nan

>  <Pocket>  (218) 
nan

>  <ATP_Site>  (218) 
nan

>  <Peripheral>  (218) 
nan

>  <Num_H_Atoms_ProtBoundConf>  (218) 
nan

>  <Num_Resolved_Atoms>  (218) 
nan

>  <Num_Not_Resolved_Atoms>  (218) 
nan

$$$$
CHEMBL4554892
     RDKit          3D

  0  0  0  0  0  0  0  0  0  0999 V3000
M  V30 BEGIN CTAB
M  V30 COUNTS 61 64 0 0 0
M  V30 BEGIN ATOM
M  V30 1 C 2.237054 -4.866340 3.429311 0
M  V30 2 N 1.209478 -4.529198 2.445795 0
M  V30 3 C 1.081097 -3.222500 1.938213 0
M  V30 4 N 1.913988 -2.260314 2.359718 0
M  V30 5 C 1.838259 -0.993374 1.909644 0
M  V30 6 N 2.748149 -0.015800 2.392491 0
M  V30 7 C 2.866007 1.359568 2.075568 0
M  V30 8 C 3.827210 2.155211 2.657851 0
M  V30 9 N 3.951851 3.457287 2.369092 0
M  V30 10 C 3.141730 4.078503 1.485870 0
M  V30 11 C 3.385662 5.478809 1.269515 0
M  V30 12 N 3.559482 6.588741 1.093640 0
M  V30 13 C 2.140376 3.333481 0.853773 0
M  V30 14 O 1.407637 4.110519 -0.010461 0
M  V30 15 C 0.329493 3.687722 -0.807010 0
M  V30 16 C -0.944965 4.354775 -0.400837 0
M  V30 17 C -1.995272 4.402299 -1.456155 0
M  V30 18 C -1.598477 3.567680 -2.665189 0
M  V30 19 N -0.372031 4.187365 -3.133961 0
M  V30 20 C 0.672375 3.799581 -2.254145 0
M  V30 21 C 2.049716 2.005457 1.179523 0
M  V30 22 N 0.873388 -0.757516 1.010737 0
M  V30 23 C 0.000166 -1.653388 0.534473 0
M  V30 24 C 0.103541 -2.933267 1.012204 0
M  V30 25 C -0.811012 -3.961706 0.540624 0
M  V30 26 C -0.438408 -4.690818 -0.573006 0
M  V30 27 C -1.220542 -5.687189 -1.109139 0
M  V30 28 C -2.436221 -5.979534 -0.513690 0
M  V30 29 O -3.351414 -6.955572 -0.925094 0
M  V30 30 C -3.164754 -7.795964 -2.023194 0
M  V30 31 C -2.824545 -5.256485 0.605033 0
M  V30 32 C -2.024799 -4.247209 1.142405 0
M  V30 33 O -2.389652 -3.522318 2.245338 0
M  V30 34 C -3.570339 -3.676118 2.971636 0
M  V30 35 H 1.768263 -4.644241 4.413670 0
M  V30 36 H 2.444942 -5.960463 3.433041 0
M  V30 37 H 3.169547 -4.322571 3.263677 0
M  V30 38 H 0.582216 -5.284660 2.137817 0
M  V30 39 H 3.449128 -0.353844 3.096189 0
M  V30 40 H 4.518912 1.724485 3.381726 0
M  V30 41 H 0.184478 2.609460 -0.607272 0
M  V30 42 H -1.400820 3.885743 0.495863 0
M  V30 43 H -0.705371 5.406018 -0.106098 0
M  V30 44 H -2.144336 5.437925 -1.873350 0
M  V30 45 H -2.967524 4.019019 -1.118843 0
M  V30 46 H -2.392742 3.574058 -3.421691 0
M  V30 47 H -1.431503 2.518721 -2.353577 0
M  V30 48 H -0.192374 3.828740 -4.083494 0
M  V30 49 H 1.163053 2.889346 -2.658231 0
M  V30 50 H 1.470269 4.595281 -2.338554 0
M  V30 51 H 1.263677 1.498099 0.659890 0
M  V30 52 H -0.742989 -1.369812 -0.188908 0
M  V30 53 H 0.522032 -4.473408 -1.058868 0
M  V30 54 H -0.972646 -6.278696 -1.971086 0
M  V30 55 H -2.530205 -7.317547 -2.782547 0
M  V30 56 H -4.151546 -8.019370 -2.519683 0
M  V30 57 H -2.724323 -8.774935 -1.779637 0
M  V30 58 H -3.754262 -5.410511 1.139522 0
M  V30 59 H -3.627476 -4.661803 3.470441 0
M  V30 60 H -4.467248 -3.424741 2.365166 0
M  V30 61 H -3.553197 -2.913295 3.789691 0
M  V30 END ATOM
M  V30 BEGIN BOND
M  V30 1 1 1 2
M  V30 2 1 2 3
M  V30 3 2 3 4
M  V30 4 1 4 5
M  V30 5 1 5 6
M  V30 6 1 6 7
M  V30 7 2 7 8
M  V30 8 1 8 9
M  V30 9 2 9 10
M  V30 10 1 10 11
M  V30 11 3 11 12
M  V30 12 1 10 13
M  V30 13 1 13 14
M  V30 14 1 14 15
M  V30 15 1 15 16
M  V30 16 1 16 17
M  V30 17 1 17 18
M  V30 18 1 18 19
M  V30 19 1 19 20
M  V30 20 2 13 21
M  V30 21 2 5 22
M  V30 22 1 22 23
M  V30 23 2 23 24
M  V30 24 1 24 25
M  V30 25 2 25 26
M  V30 26 1 26 27
M  V30 27 2 27 28
M  V30 28 1 28 29
M  V30 29 1 29 30
M  V30 30 1 28 31
M  V30 31 2 31 32
M  V30 32 1 32 33
M  V30 33 1 33 34
M  V30 34 1 24 3
M  V30 35 1 32 25
M  V30 36 1 21 7
M  V30 37 1 20 15
M  V30 38 1 1 35
M  V30 39 1 1 36
M  V30 40 1 1 37
M  V30 41 1 2 38
M  V30 42 1 6 39
M  V30 43 1 8 40
M  V30 44 1 15 41
M  V30 45 1 16 42
M  V30 46 1 16 43
M  V30 47 1 17 44
M  V30 48 1 17 45
M  V30 49 1 18 46
M  V30 50 1 18 47
M  V30 51 1 19 48
M  V30 52 1 20 49
M  V30 53 1 20 50
M  V30 54 1 21 51
M  V30 55 1 23 52
M  V30 56 1 26 53
M  V30 57 1 27 54
M  V30 58 1 30 55
M  V30 59 1 30 56
M  V30 60 1 30 57
M  V30 61 1 31 58
M  V30 62 1 34 59
M  V30 63 1 34 60
M  V30 64 1 34 61
M  V30 END BOND
M  V30 END CTAB
M  END
>  <Dataset>  (219) 
ChEMBL_Kinases

>  <Ligand_Instance>  (219) 
nan

>  <PDB_ID>  (219) 
nan

>  <Standardized_SMILES>  (219) 
CNc1nc(Nc2cnc(C#N)c(OC3CCCNC3)c2)ncc1-c1ccc(OC)cc1OC

>  <Name>  (219) 
nan

>  <Pocket>  (219) 
nan

>  <ATP_Site>  (219) 
nan

>  <Peripheral>  (219) 
nan

>  <Num_H_Atoms_ProtBoundConf>  (219) 
nan

>  <Num_Resolved_Atoms>  (219) 
nan

>  <Num_Not_Resolved_Atoms>  (219) 
nan

$$$$
CHEMBL4554796
     RDKit          3D

  0  0  0  0  0  0  0  0  0  0999 V3000
M  V30 BEGIN CTAB
M  V30 COUNTS 60 65 0 0 0
M  V30 BEGIN ATOM
M  V30 1 C 2.897403 -2.422059 3.140927 0
M  V30 2 C 2.870271 -1.675061 1.839057 0
M  V30 3 N 2.802049 -0.247972 2.017117 0
M  V30 4 C 3.862660 0.575833 2.146070 0
M  V30 5 C 3.683607 1.954154 2.325428 0
M  V30 6 C 4.973785 2.620323 2.435697 0
M  V30 7 C 5.605782 2.811273 3.665903 0
M  V30 8 Cl 4.856136 2.261946 5.130701 0
M  V30 9 C 6.827929 3.446965 3.639352 0
M  V30 10 C 7.448409 3.895813 2.488136 0
M  V30 11 C 6.763651 3.672492 1.304762 0
M  V30 12 C 5.529627 3.040138 1.245851 0
M  V30 13 Cl 4.747224 2.805721 -0.298051 0
M  V30 14 C 2.393881 2.438451 2.365535 0
M  V30 15 O 2.372293 3.685707 2.530410 0
M  V30 16 C 1.336860 1.597302 2.234443 0
M  V30 17 C 0.093666 2.147138 2.284919 0
M  V30 18 N -0.971966 1.322126 2.156017 0
M  V30 19 C -0.812708 -0.005149 1.982488 0
M  V30 20 N -1.771800 -1.039388 1.834190 0
M  V30 21 C -2.375066 -1.383670 0.588849 0
M  V30 22 C -2.064621 -0.594303 -0.497412 0
M  V30 23 C -2.630189 -0.894427 -1.734313 0
M  V30 24 C -3.482057 -1.973349 -1.827244 0
M  V30 25 C -3.763896 -2.743124 -0.694645 0
M  V30 26 C -3.218406 -2.472158 0.552647 0
M  V30 27 C -4.701232 -3.894005 -0.959620 0
M  V30 28 N -4.175317 -4.735559 -2.002508 0
M  V30 29 C -5.040148 -5.858885 -2.180849 0
M  V30 30 C -3.913719 -3.953159 -3.165727 0
M  V30 31 C -4.213275 -2.499512 -3.009030 0
M  V30 32 C -4.550027 -1.669407 -4.165179 0
M  V30 33 C -5.637436 -2.105987 -3.223895 0
M  V30 34 N 0.447458 -0.502474 1.939746 0
M  V30 35 C 1.554816 0.250379 2.059981 0
M  V30 36 H 1.953037 -2.984021 3.227541 0
M  V30 37 H 3.755026 -3.104175 3.186956 0
M  V30 38 H 3.013463 -1.692692 3.974396 0
M  V30 39 H 3.801081 -1.902457 1.283709 0
M  V30 40 H 2.025940 -2.042931 1.184263 0
M  V30 41 H 4.798957 0.020201 2.089440 0
M  V30 42 H 7.348484 3.612841 4.574691 0
M  V30 43 H 8.400677 4.393853 2.433798 0
M  V30 44 H 7.217221 4.011526 0.363379 0
M  V30 45 H -0.063275 3.197942 2.421515 0
M  V30 46 H -1.968662 -1.503138 2.746288 0
M  V30 47 H -1.405027 0.253784 -0.462141 0
M  V30 48 H -2.475568 -0.362963 -2.663895 0
M  V30 49 H -3.468560 -3.096857 1.392484 0
M  V30 50 H -5.736217 -3.537389 -1.134211 0
M  V30 51 H -4.635842 -4.518818 -0.019222 0
M  V30 52 H -4.712606 -6.625265 -1.419678 0
M  V30 53 H -6.108419 -5.675530 -1.963801 0
M  V30 54 H -4.896169 -6.354035 -3.177781 0
M  V30 55 H -2.804042 -4.018018 -3.373958 0
M  V30 56 H -4.375288 -4.360085 -4.095427 0
M  V30 57 H -4.577910 -2.121361 -5.164062 0
M  V30 58 H -4.403076 -0.570133 -4.181066 0
M  V30 59 H -6.353062 -2.880834 -3.557487 0
M  V30 60 H -6.119131 -1.340520 -2.550614 0
M  V30 END ATOM
M  V30 BEGIN BOND
M  V30 1 1 1 2
M  V30 2 1 2 3
M  V30 3 1 3 4
M  V30 4 2 4 5
M  V30 5 1 5 6
M  V30 6 2 6 7
M  V30 7 1 7 8
M  V30 8 1 7 9
M  V30 9 2 9 10
M  V30 10 1 10 11
M  V30 11 2 11 12
M  V30 12 1 12 13
M  V30 13 1 5 14
M  V30 14 2 14 15
M  V30 15 1 14 16
M  V30 16 2 16 17
M  V30 17 1 17 18
M  V30 18 2 18 19
M  V30 19 1 19 20
M  V30 20 1 20 21
M  V30 21 2 21 22
M  V30 22 1 22 23
M  V30 23 2 23 24
M  V30 24 1 24 25
M  V30 25 2 25 26
M  V30 26 1 25 27
M  V30 27 1 27 28
M  V30 28 1 28 29
M  V30 29 1 28 30
M  V30 30 1 30 31
M  V30 31 1 31 32
M  V30 32 1 32 33
M  V30 33 1 19 34
M  V30 34 2 34 35
M  V30 35 1 35 3
M  V30 36 1 12 6
M  V30 37 1 35 16
M  V30 38 1 26 21
M  V30 39 1 33 31
M  V30 40 1 31 24
M  V30 41 1 1 36
M  V30 42 1 1 37
M  V30 43 1 1 38
M  V30 44 1 2 39
M  V30 45 1 2 40
M  V30 46 1 4 41
M  V30 47 1 9 42
M  V30 48 1 10 43
M  V30 49 1 11 44
M  V30 50 1 17 45
M  V30 51 1 20 46
M  V30 52 1 22 47
M  V30 53 1 23 48
M  V30 54 1 26 49
M  V30 55 1 27 50
M  V30 56 1 27 51
M  V30 57 1 29 52
M  V30 58 1 29 53
M  V30 59 1 29 54
M  V30 60 1 30 55
M  V30 61 1 30 56
M  V30 62 1 32 57
M  V30 63 1 32 58
M  V30 64 1 33 59
M  V30 65 1 33 60
M  V30 END BOND
M  V30 END CTAB
M  END
>  <Dataset>  (220) 
ChEMBL_Kinases

>  <Ligand_Instance>  (220) 
nan

>  <PDB_ID>  (220) 
nan

>  <Standardized_SMILES>  (220) 
CCn1cc(-c2c(Cl)cccc2Cl)c(=O)c2cnc(Nc3ccc4c(c3)CN(C)CC43CC3)nc21

>  <Name>  (220) 
nan

>  <Pocket>  (220) 
nan

>  <ATP_Site>  (220) 
nan

>  <Peripheral>  (220) 
nan

>  <Num_H_Atoms_ProtBoundConf>  (220) 
nan

>  <Num_Resolved_Atoms>  (220) 
nan

>  <Num_Not_Resolved_Atoms>  (220) 
nan

$$$$
CHEMBL4554747
     RDKit          3D

  0  0  0  0  0  0  0  0  0  0999 V3000
M  V30 BEGIN CTAB
M  V30 COUNTS 54 58 0 0 0
M  V30 BEGIN ATOM
M  V30 1 O -0.184180 -2.147368 2.432338 0
M  V30 2 C -1.292011 -2.062316 1.845208 0
M  V30 3 C -1.723404 -1.000570 0.928606 0
M  V30 4 C -1.104435 0.159026 0.449008 0
M  V30 5 C -1.769639 0.990744 -0.425938 0
M  V30 6 C -1.094247 2.189126 -0.905468 0
M  V30 7 C -1.679269 3.080191 -1.779418 0
M  V30 8 C -0.944951 4.181472 -2.164431 0
M  V30 9 N 0.297442 4.351743 -1.685538 0
M  V30 10 C 0.874944 3.496092 -0.838850 0
M  V30 11 N 2.195340 3.736084 -0.367406 0
M  V30 12 C 2.915292 2.856075 0.558895 0
M  V30 13 C 4.281106 3.382431 0.882723 0
M  V30 14 C 5.304316 2.341073 0.486094 0
M  V30 15 O 5.077803 1.193602 1.225345 0
M  V30 16 C 3.889819 0.572099 0.844999 0
M  V30 17 C 3.037101 1.463764 -0.019084 0
M  V30 18 N 0.152164 2.435638 -0.475584 0
M  V30 19 C -3.044975 0.613153 -0.783729 0
M  V30 20 C -3.656706 -0.531947 -0.310363 0
M  V30 21 C -2.983906 -1.338877 0.551597 0
M  V30 22 C -3.437144 -2.601119 1.179329 0
M  V30 23 N -2.335228 -3.020155 1.986507 0
M  V30 24 C -2.410863 -4.240749 2.766162 0
M  V30 25 C -1.930205 -5.423538 2.000454 0
M  V30 26 C -2.887269 -6.101498 1.268764 0
M  V30 27 C -2.607876 -7.208949 0.511355 0
M  V30 28 C -1.293688 -7.647176 0.497603 0
M  V30 29 Cl -0.823867 -9.053112 -0.436609 0
M  V30 30 C -0.318923 -6.982042 1.223961 0
M  V30 31 C -0.620397 -5.864709 1.983472 0
M  V30 32 H -0.104712 0.318316 0.821584 0
M  V30 33 H -2.682170 2.913575 -2.146531 0
M  V30 34 H -1.337857 4.922932 -2.846849 0
M  V30 35 H 2.706078 4.582312 -0.683861 0
M  V30 36 H 2.349346 2.737393 1.504021 0
M  V30 37 H 4.324283 3.623000 1.957530 0
M  V30 38 H 4.420387 4.304990 0.276901 0
M  V30 39 H 5.246630 2.201686 -0.599671 0
M  V30 40 H 6.334871 2.696294 0.771925 0
M  V30 41 H 4.074078 -0.406468 0.358400 0
M  V30 42 H 3.319703 0.366309 1.774584 0
M  V30 43 H 3.415627 1.431487 -1.040265 0
M  V30 44 H 2.014407 1.022463 -0.044293 0
M  V30 45 H -3.596941 1.232912 -1.462649 0
M  V30 46 H -4.676862 -0.768554 -0.640327 0
M  V30 47 H -4.347815 -2.413316 1.799195 0
M  V30 48 H -3.731570 -3.342451 0.408759 0
M  V30 49 H -3.442441 -4.429027 3.132842 0
M  V30 50 H -1.782510 -4.165727 3.673269 0
M  V30 51 H -3.949169 -5.813404 1.230749 0
M  V30 52 H -3.338725 -7.752452 -0.066562 0
M  V30 53 H 0.724339 -7.312310 1.226170 0
M  V30 54 H 0.069833 -5.291594 2.573774 0
M  V30 END ATOM
M  V30 BEGIN BOND
M  V30 1 2 1 2
M  V30 2 1 2 3
M  V30 3 2 3 4
M  V30 4 1 4 5
M  V30 5 1 5 6
M  V30 6 2 6 7
M  V30 7 1 7 8
M  V30 8 2 8 9
M  V30 9 1 9 10
M  V30 10 1 10 11
M  V30 11 1 11 12
M  V30 12 1 12 13
M  V30 13 1 13 14
M  V30 14 1 14 15
M  V30 15 1 15 16
M  V30 16 1 16 17
M  V30 17 2 10 18
M  V30 18 2 5 19
M  V30 19 1 19 20
M  V30 20 2 20 21
M  V30 21 1 21 22
M  V30 22 1 22 23
M  V30 23 1 23 24
M  V30 24 1 24 25
M  V30 25 2 25 26
M  V30 26 1 26 27
M  V30 27 2 27 28
M  V30 28 1 28 29
M  V30 29 1 28 30
M  V30 30 2 30 31
M  V30 31 1 23 2
M  V30 32 1 31 25
M  V30 33 1 21 3
M  V30 34 1 18 6
M  V30 35 1 17 12
M  V30 36 1 4 32
M  V30 37 1 7 33
M  V30 38 1 8 34
M  V30 39 1 11 35
M  V30 40 1 12 36
M  V30 41 1 13 37
M  V30 42 1 13 38
M  V30 43 1 14 39
M  V30 44 1 14 40
M  V30 45 1 16 41
M  V30 46 1 16 42
M  V30 47 1 17 43
M  V30 48 1 17 44
M  V30 49 1 19 45
M  V30 50 1 20 46
M  V30 51 1 22 47
M  V30 52 1 22 48
M  V30 53 1 24 49
M  V30 54 1 24 50
M  V30 55 1 26 51
M  V30 56 1 27 52
M  V30 57 1 30 53
M  V30 58 1 31 54
M  V30 END BOND
M  V30 END CTAB
M  END
>  <Dataset>  (221) 
ChEMBL_Kinases

>  <Ligand_Instance>  (221) 
nan

>  <PDB_ID>  (221) 
nan

>  <Standardized_SMILES>  (221) 
O=C1c2cc(-c3ccnc(NC4CCOCC4)n3)ccc2CN1Cc1ccc(Cl)cc1

>  <Name>  (221) 
nan

>  <Pocket>  (221) 
nan

>  <ATP_Site>  (221) 
nan

>  <Peripheral>  (221) 
nan

>  <Num_H_Atoms_ProtBoundConf>  (221) 
nan

>  <Num_Resolved_Atoms>  (221) 
nan

>  <Num_Not_Resolved_Atoms>  (221) 
nan

$$$$
CHEMBL4554744
     RDKit          3D

  0  0  0  0  0  0  0  0  0  0999 V3000
M  V30 BEGIN CTAB
M  V30 COUNTS 62 65 0 0 0
M  V30 BEGIN ATOM
M  V30 1 C 6.981257 -0.811895 0.182456 0
M  V30 2 C 6.978614 -0.067874 1.311454 0
M  V30 3 C 6.227025 0.842496 2.214363 0
M  V30 4 O 6.534427 1.433719 3.306024 0
M  V30 5 N 4.905466 1.110821 1.778235 0
M  V30 6 C 3.756631 1.844818 2.152919 0
M  V30 7 C 3.647468 3.151852 1.671559 0
M  V30 8 C 2.636002 4.099581 1.877859 0
M  V30 9 C 1.647244 3.585351 2.681284 0
M  V30 10 C 1.679253 2.318103 3.193695 0
M  V30 11 C 0.577268 1.893865 4.025039 0
M  V30 12 O -0.309021 1.648069 4.839210 0
M  V30 13 N -0.126734 0.819289 3.339191 0
M  V30 14 C -1.268234 0.296114 4.060465 0
M  V30 15 C -2.002868 -0.734443 3.275659 0
M  V30 16 C -1.098391 -1.915579 2.898751 0
M  V30 17 N -1.825894 -2.857592 2.091433 0
M  V30 18 C -2.675168 -2.702959 0.958914 0
M  V30 19 O -2.871844 -1.577618 0.497107 0
M  V30 20 C -3.328240 -3.835982 0.317597 0
M  V30 21 N -3.337179 -5.102789 0.766061 0
M  V30 22 N -4.078426 -5.876617 -0.037573 0
M  V30 23 C -4.570217 -5.096003 -1.043618 0
M  V30 24 C -4.092733 -3.798146 -0.819750 0
M  V30 25 N -4.352991 -2.661661 -1.633252 0
M  V30 26 C -3.359843 -2.687383 -2.640511 0
M  V30 27 O -2.690793 -3.740448 -2.328011 0
M  V30 28 C -3.044297 -1.844869 -3.776068 0
M  V30 29 C -3.593712 -0.680013 -4.246996 0
M  V30 30 Cl -4.917943 -0.052970 -3.309281 0
M  V30 31 C -3.174468 -0.005583 -5.366428 0
M  V30 32 C -2.134043 -0.536472 -6.058441 0
M  V30 33 C -1.550680 -1.683673 -5.643009 0
M  V30 34 C -1.975184 -2.338758 -4.535613 0
M  V30 35 Cl -1.098877 -3.826241 -4.129170 0
M  V30 36 C 0.159032 -1.394663 2.337706 0
M  V30 37 C 0.018279 0.089987 2.069071 0
M  V30 38 C 2.696750 1.470310 2.942012 0
M  V30 39 H 6.037519 -0.325103 0.318603 0
M  V30 40 H 5.943605 -0.472505 0.039676 0
M  V30 41 H 7.977123 -0.228194 1.710991 0
M  V30 42 H 4.434076 0.728374 0.904086 0
M  V30 43 H 4.477951 3.494355 1.030379 0
M  V30 44 H 2.736880 5.068874 1.410995 0
M  V30 45 H 0.829193 4.288396 2.873549 0
M  V30 46 H -1.015314 -0.097963 5.069092 0
M  V30 47 H -1.991267 1.165263 4.172799 0
M  V30 48 H -2.428985 -0.339048 2.351268 0
M  V30 49 H -2.803573 -1.194509 3.909430 0
M  V30 50 H -0.871214 -2.455529 3.869869 0
M  V30 51 H -1.737682 -3.890562 2.355008 0
M  V30 52 H -4.296108 -6.900594 0.015836 0
M  V30 53 H -5.207119 -5.305335 -1.896986 0
M  V30 54 H -5.012123 -1.863140 -1.717695 0
M  V30 55 H -3.700285 0.901317 -5.621306 0
M  V30 56 H -1.779983 -0.028383 -6.940254 0
M  V30 57 H -0.721031 -2.057678 -6.238985 0
M  V30 58 H 0.464949 -1.850465 1.372228 0
M  V30 59 H 0.983412 -1.469189 3.095918 0
M  V30 60 H 0.991509 0.412595 1.604731 0
M  V30 61 H -0.833085 0.361107 1.444344 0
M  V30 62 H 2.753436 0.461533 3.329788 0
M  V30 END ATOM
M  V30 BEGIN BOND
M  V30 1 2 1 2
M  V30 2 1 2 3
M  V30 3 2 3 4
M  V30 4 1 3 5
M  V30 5 1 5 6
M  V30 6 2 6 7
M  V30 7 1 7 8
M  V30 8 2 8 9
M  V30 9 1 9 10
M  V30 10 1 10 11
M  V30 11 2 11 12
M  V30 12 1 11 13
M  V30 13 1 13 14
M  V30 14 1 14 15
M  V30 15 1 15 16
M  V30 16 1 16 17
M  V30 17 1 17 18
M  V30 18 2 18 19
M  V30 19 1 18 20
M  V30 20 2 20 21
M  V30 21 1 21 22
M  V30 22 1 22 23
M  V30 23 2 23 24
M  V30 24 1 24 25
M  V30 25 1 25 26
M  V30 26 2 26 27
M  V30 27 1 26 28
M  V30 28 2 28 29
M  V30 29 1 29 30
M  V30 30 1 29 31
M  V30 31 2 31 32
M  V30 32 1 32 33
M  V30 33 2 33 34
M  V30 34 1 34 35
M  V30 35 1 16 36
M  V30 36 1 36 37
M  V30 37 2 10 38
M  V30 38 1 38 6
M  V30 39 1 37 13
M  V30 40 1 24 20
M  V30 41 1 34 28
M  V30 42 1 1 39
M  V30 43 1 1 40
M  V30 44 1 2 41
M  V30 45 1 5 42
M  V30 46 1 7 43
M  V30 47 1 8 44
M  V30 48 1 9 45
M  V30 49 1 14 46
M  V30 50 1 14 47
M  V30 51 1 15 48
M  V30 52 1 15 49
M  V30 53 1 16 50
M  V30 54 1 17 51
M  V30 55 1 22 52
M  V30 56 1 23 53
M  V30 57 1 25 54
M  V30 58 1 31 55
M  V30 59 1 32 56
M  V30 60 1 33 57
M  V30 61 1 36 58
M  V30 62 1 36 59
M  V30 63 1 37 60
M  V30 64 1 37 61
M  V30 65 1 38 62
M  V30 END BOND
M  V30 END CTAB
M  END
>  <Dataset>  (222) 
ChEMBL_Kinases

>  <Ligand_Instance>  (222) 
nan

>  <PDB_ID>  (222) 
nan

>  <Standardized_SMILES>  (222) 
C=CC(=O)Nc1cccc(C(=O)N2CCC(NC(=O)c3n[nH]cc3NC(=O)c3c(Cl)cccc3Cl)CC2)c1

>  <Name>  (222) 
nan

>  <Pocket>  (222) 
nan

>  <ATP_Site>  (222) 
nan

>  <Peripheral>  (222) 
nan

>  <Num_H_Atoms_ProtBoundConf>  (222) 
nan

>  <Num_Resolved_Atoms>  (222) 
nan

>  <Num_Not_Resolved_Atoms>  (222) 
nan

$$$$
CHEMBL4554683
     RDKit          3D

  0  0  0  0  0  0  0  0  0  0999 V3000
M  V30 BEGIN CTAB
M  V30 COUNTS 48 51 0 0 0
M  V30 BEGIN ATOM
M  V30 1 C 0.640125 -7.202756 2.375837 0
M  V30 2 N 1.518417 -6.302901 1.679938 0
M  V30 3 N 2.791041 -6.611507 1.357974 0
M  V30 4 C 3.335962 -5.573960 0.725396 0
M  V30 5 C 2.335087 -4.622798 0.678915 0
M  V30 6 Cl 2.939957 -3.180941 -0.146111 0
M  V30 7 C 1.185718 -5.082209 1.281783 0
M  V30 8 C 0.048572 -4.217174 1.321445 0
M  V30 9 C -0.006089 -2.941948 0.806030 0
M  V30 10 C -1.236033 -2.337900 0.984974 0
M  V30 11 C -1.724890 -1.022180 0.605225 0
M  V30 12 O -2.879771 -0.662162 0.860083 0
M  V30 13 N -0.864008 -0.117340 -0.076523 0
M  V30 14 C -1.164540 1.226433 -0.534192 0 CFG=2
M  V30 15 C -0.967517 1.163715 -2.056099 0
M  V30 16 N 0.471901 1.171849 -2.261794 0
M  V30 17 C 0.979527 2.531477 -2.184003 0
M  V30 18 C 0.134637 3.238165 -1.117251 0
M  V30 19 C -0.125754 2.188343 -0.037786 0 CFG=1
M  V30 20 C -0.434574 2.808748 1.262315 0
M  V30 21 C 0.440866 2.606986 2.310524 0
M  V30 22 C 0.263416 3.133045 3.573082 0
M  V30 23 C -0.879367 3.909528 3.764745 0
M  V30 24 Cl -1.114163 4.580636 5.359421 0
M  V30 25 C -1.759664 4.114073 2.715773 0
M  V30 26 C -1.559694 3.573438 1.451651 0
M  V30 27 O -1.962757 -3.250284 1.622778 0
M  V30 28 C -1.223257 -4.316185 1.809738 0
M  V30 29 Cl -2.007265 -5.622316 2.632233 0
M  V30 30 H 1.269874 -8.129460 2.614194 0
M  V30 31 H -0.180600 -7.587337 1.780435 0
M  V30 32 H 0.425950 -6.813706 3.385077 0
M  V30 33 H 4.358343 -5.765092 0.442738 0
M  V30 34 H 0.709481 -2.303865 0.287211 0
M  V30 35 H 0.140787 -0.354643 -0.330092 0
M  V30 36 H -2.204516 1.528587 -0.295477 0
M  V30 37 H -1.334744 0.172487 -2.401779 0
M  V30 38 H -1.486830 1.983654 -2.578933 0
M  V30 39 H 0.782554 0.663516 -3.098312 0
M  V30 40 H 0.903078 3.038030 -3.157705 0
M  V30 41 H 2.020578 2.473835 -1.784348 0
M  V30 42 H 0.737736 4.083802 -0.718190 0
M  V30 43 H -0.814331 3.617267 -1.553367 0
M  V30 44 H 0.830829 1.621106 0.053224 0
M  V30 45 H 1.341498 1.995526 2.160962 0
M  V30 46 H 0.955209 2.964329 4.373204 0
M  V30 47 H -2.632272 4.717002 2.892581 0
M  V30 48 H -2.254484 3.745878 0.657201 0
M  V30 END ATOM
M  V30 BEGIN BOND
M  V30 1 1 1 2
M  V30 2 1 2 3
M  V30 3 2 3 4
M  V30 4 1 4 5
M  V30 5 1 5 6
M  V30 6 2 5 7
M  V30 7 1 7 8
M  V30 8 1 8 9
M  V30 9 2 9 10
M  V30 10 1 10 11
M  V30 11 2 11 12
M  V30 12 1 11 13
M  V30 13 1 13 14
M  V30 14 1 14 15
M  V30 15 1 15 16
M  V30 16 1 16 17
M  V30 17 1 17 18
M  V30 18 1 18 19
M  V30 19 1 19 20
M  V30 20 2 20 21
M  V30 21 1 21 22
M  V30 22 2 22 23
M  V30 23 1 23 24
M  V30 24 1 23 25
M  V30 25 2 25 26
M  V30 26 1 10 27
M  V30 27 1 27 28
M  V30 28 1 28 29
M  V30 29 1 7 2
M  V30 30 2 28 8
M  V30 31 1 19 14
M  V30 32 1 26 20
M  V30 33 1 1 30
M  V30 34 1 1 31
M  V30 35 1 1 32
M  V30 36 1 4 33
M  V30 37 1 9 34
M  V30 38 1 13 35
M  V30 39 1 14 36 CFG=3
M  V30 40 1 15 37
M  V30 41 1 15 38
M  V30 42 1 16 39
M  V30 43 1 17 40
M  V30 44 1 17 41
M  V30 45 1 18 42
M  V30 46 1 18 43
M  V30 47 1 19 44 CFG=1
M  V30 48 1 21 45
M  V30 49 1 22 46
M  V30 50 1 25 47
M  V30 51 1 26 48
M  V30 END BOND
M  V30 END CTAB
M  END
>  <Dataset>  (223) 
ChEMBL_Kinases

>  <Ligand_Instance>  (223) 
nan

>  <PDB_ID>  (223) 
nan

>  <Standardized_SMILES>  (223) 
Cn1ncc(Cl)c1-c1cc(C(=O)N[C@@H]2CNCC[C@H]2c2ccc(Cl)cc2)oc1Cl

>  <Name>  (223) 
nan

>  <Pocket>  (223) 
nan

>  <ATP_Site>  (223) 
nan

>  <Peripheral>  (223) 
nan

>  <Num_H_Atoms_ProtBoundConf>  (223) 
nan

>  <Num_Resolved_Atoms>  (223) 
nan

>  <Num_Not_Resolved_Atoms>  (223) 
nan

$$$$
CHEMBL4557345
     RDKit          3D

  0  0  0  0  0  0  0  0  0  0999 V3000
M  V30 BEGIN CTAB
M  V30 COUNTS 46 50 0 0 0
M  V30 BEGIN ATOM
M  V30 1 O 5.576346 -0.005633 -3.545697 0
M  V30 2 C 4.836119 -0.225908 -2.548879 0
M  V30 3 N 4.782836 -1.535530 -2.031381 0
M  V30 4 C 5.522534 -2.645794 -2.568840 0
M  V30 5 C 5.169579 -3.868312 -1.709865 0
M  V30 6 F 5.832149 -4.992827 -2.146410 0
M  V30 7 F 3.823981 -4.126489 -1.768860 0
M  V30 8 F 5.472801 -3.623805 -0.378943 0
M  V30 9 C 4.085990 0.904307 -2.004862 0
M  V30 10 C 3.239975 1.048172 -1.000805 0
M  V30 11 C 2.655792 2.244328 -0.685884 0
M  V30 12 C 1.717625 2.452781 0.412259 0
M  V30 13 C 1.727445 3.496168 1.317126 0
M  V30 14 N 0.666039 3.226354 2.116307 0
M  V30 15 N 0.056643 2.115692 1.737512 0
M  V30 16 C -1.023346 1.467564 2.223467 0
M  V30 17 C -1.469402 0.300709 1.636377 0
M  V30 18 C -2.621567 -0.490253 2.067646 0
M  V30 19 C -3.383718 -1.221765 1.148948 0
M  V30 20 C -4.464861 -1.953893 1.614019 0
M  V30 21 C -4.794575 -1.970418 2.952662 0
M  V30 22 C -4.045833 -1.246862 3.883536 0
M  V30 23 C -2.961854 -0.512684 3.417850 0
M  V30 24 O -4.589915 -1.433823 5.168331 0
M  V30 25 C -5.410879 -2.584617 5.154654 0
M  V30 26 C -5.883356 -2.655131 3.721227 0
M  V30 27 C -0.802488 -0.228328 0.522128 0
M  V30 28 N 0.272770 0.436428 0.055262 0
M  V30 29 C 0.673562 1.568645 0.656128 0
M  V30 30 C 3.060733 3.318200 -1.560772 0
M  V30 31 S 4.256304 2.453491 -2.751428 0
M  V30 32 H 4.134297 -1.616915 -1.196846 0
M  V30 33 H 5.193164 -2.937847 -3.602669 0
M  V30 34 H 6.605673 -2.485897 -2.600198 0
M  V30 35 H 3.033883 0.148469 -0.433918 0
M  V30 36 H 2.417586 4.319255 1.365171 0
M  V30 37 H -1.582454 1.823057 3.080512 0
M  V30 38 H -3.104830 -1.189893 0.118938 0
M  V30 39 H -5.025815 -2.502825 0.875721 0
M  V30 40 H -2.369702 0.056215 4.135316 0
M  V30 41 H -6.252776 -2.391376 5.855616 0
M  V30 42 H -4.889734 -3.503015 5.463987 0
M  V30 43 H -6.805152 -2.059948 3.661090 0
M  V30 44 H -6.007247 -3.710471 3.453856 0
M  V30 45 H -1.031732 -1.116630 -0.032351 0
M  V30 46 H 2.595707 4.410586 -1.359138 0
M  V30 END ATOM
M  V30 BEGIN BOND
M  V30 1 2 1 2
M  V30 2 1 2 3
M  V30 3 1 3 4
M  V30 4 1 4 5
M  V30 5 1 5 6
M  V30 6 1 5 7
M  V30 7 1 5 8
M  V30 8 1 2 9
M  V30 9 2 9 10
M  V30 10 1 10 11
M  V30 11 1 11 12
M  V30 12 1 12 13
M  V30 13 2 13 14
M  V30 14 1 14 15
M  V30 15 1 15 16
M  V30 16 2 16 17
M  V30 17 1 17 18
M  V30 18 2 18 19
M  V30 19 1 19 20
M  V30 20 2 20 21
M  V30 21 1 21 22
M  V30 22 2 22 23
M  V30 23 1 22 24
M  V30 24 1 24 25
M  V30 25 1 25 26
M  V30 26 1 17 27
M  V30 27 2 27 28
M  V30 28 1 28 29
M  V30 29 2 11 30
M  V30 30 1 30 31
M  V30 31 1 31 9
M  V30 32 2 29 12
M  V30 33 1 29 15
M  V30 34 1 23 18
M  V30 35 1 26 21
M  V30 36 1 3 32
M  V30 37 1 4 33
M  V30 38 1 4 34
M  V30 39 1 10 35
M  V30 40 1 13 36
M  V30 41 1 16 37
M  V30 42 1 19 38
M  V30 43 1 20 39
M  V30 44 1 23 40
M  V30 45 1 25 41
M  V30 46 1 25 42
M  V30 47 1 26 43
M  V30 48 1 26 44
M  V30 49 1 27 45
M  V30 50 1 30 46
M  V30 END BOND
M  V30 END CTAB
M  END
>  <Dataset>  (224) 
ChEMBL_Kinases

>  <Ligand_Instance>  (224) 
nan

>  <PDB_ID>  (224) 
nan

>  <Standardized_SMILES>  (224) 
O=C(NCC(F)(F)F)c1cc(-c2cnn3cc(-c4ccc5c(c4)OCC5)cnc23)cs1

>  <Name>  (224) 
nan

>  <Pocket>  (224) 
nan

>  <ATP_Site>  (224) 
nan

>  <Peripheral>  (224) 
nan

>  <Num_H_Atoms_ProtBoundConf>  (224) 
nan

>  <Num_Resolved_Atoms>  (224) 
nan

>  <Num_Not_Resolved_Atoms>  (224) 
nan

$$$$
CHEMBL4554641
     RDKit          3D

  0  0  0  0  0  0  0  0  0  0999 V3000
M  V30 BEGIN CTAB
M  V30 COUNTS 42 44 0 0 0
M  V30 BEGIN ATOM
M  V30 1 C 2.227175 -3.953233 2.312380 0
M  V30 2 C 1.616282 -3.129371 1.186100 0
M  V30 3 C 0.138338 -2.963762 1.451377 0
M  V30 4 C -0.423274 -4.392323 1.483242 0
M  V30 5 C -0.066720 -2.313284 2.803392 0
M  V30 6 N -0.443195 -2.211912 0.385948 0
M  V30 7 C -0.310972 -0.871234 0.018201 0
M  V30 8 C 0.444545 0.064459 0.692813 0
M  V30 9 C 0.594878 1.393022 0.384506 0
M  V30 10 C 1.377785 2.395714 1.070156 0
M  V30 11 C 1.377934 3.693957 0.571012 0
M  V30 12 C 2.086801 4.709409 1.150146 0
M  V30 13 N 2.820538 4.498184 2.235122 0
M  V30 14 C 2.880346 3.274757 2.787498 0
M  V30 15 C 2.160587 2.265444 2.191096 0
M  V30 16 F 2.243078 1.061235 2.766681 0
M  V30 17 N -0.082140 1.790244 -0.697761 0
M  V30 18 C -0.851305 0.973600 -1.436383 0
M  V30 19 C -1.500682 1.499168 -2.530723 0
M  V30 20 N -2.280486 0.703105 -3.292671 0
M  V30 21 C -2.435020 -0.606061 -2.998201 0
M  V30 22 C -1.774491 -1.094220 -1.903014 0
M  V30 23 C -0.963725 -0.347985 -1.079223 0
M  V30 24 H 2.796698 -4.808858 1.898126 0
M  V30 25 H 2.978635 -3.324034 2.873992 0
M  V30 26 H 1.488483 -4.238568 3.084973 0
M  V30 27 H 2.166458 -2.187388 1.058097 0
M  V30 28 H 1.692427 -3.752493 0.248462 0
M  V30 29 H -1.200906 -4.468350 2.298973 0
M  V30 30 H 0.370932 -5.149827 1.642876 0
M  V30 31 H -0.912358 -4.661509 0.512281 0
M  V30 32 H 0.922033 -2.017143 3.200406 0
M  V30 33 H -0.714580 -1.437453 2.795584 0
M  V30 34 H -0.427614 -3.098301 3.532401 0
M  V30 35 H -1.065732 -2.808898 -0.189198 0
M  V30 36 H 0.972056 -0.274619 1.568836 0
M  V30 37 H 0.810050 3.982390 -0.316785 0
M  V30 38 H 2.080865 5.715026 0.755239 0
M  V30 39 H 3.469273 3.102340 3.659451 0
M  V30 40 H -1.383635 2.540809 -2.773149 0
M  V30 41 H -3.072978 -1.212526 -3.638914 0
M  V30 42 H -1.941492 -2.132056 -1.731631 0
M  V30 END ATOM
M  V30 BEGIN BOND
M  V30 1 1 1 2
M  V30 2 1 2 3
M  V30 3 1 3 4
M  V30 4 1 3 5
M  V30 5 1 3 6
M  V30 6 1 6 7
M  V30 7 2 7 8
M  V30 8 1 8 9
M  V30 9 1 9 10
M  V30 10 2 10 11
M  V30 11 1 11 12
M  V30 12 2 12 13
M  V30 13 1 13 14
M  V30 14 2 14 15
M  V30 15 1 15 16
M  V30 16 2 9 17
M  V30 17 1 17 18
M  V30 18 2 18 19
M  V30 19 1 19 20
M  V30 20 2 20 21
M  V30 21 1 21 22
M  V30 22 2 22 23
M  V30 23 1 23 7
M  V30 24 1 15 10
M  V30 25 1 23 18
M  V30 26 1 1 24
M  V30 27 1 1 25
M  V30 28 1 1 26
M  V30 29 1 2 27
M  V30 30 1 2 28
M  V30 31 1 4 29
M  V30 32 1 4 30
M  V30 33 1 4 31
M  V30 34 1 5 32
M  V30 35 1 5 33
M  V30 36 1 5 34
M  V30 37 1 6 35
M  V30 38 1 8 36
M  V30 39 1 11 37
M  V30 40 1 12 38
M  V30 41 1 14 39
M  V30 42 1 19 40
M  V30 43 1 21 41
M  V30 44 1 22 42
M  V30 END BOND
M  V30 END CTAB
M  END
>  <Dataset>  (225) 
ChEMBL_Kinases

>  <Ligand_Instance>  (225) 
nan

>  <PDB_ID>  (225) 
nan

>  <Standardized_SMILES>  (225) 
CCC(C)(C)Nc1cc(-c2ccncc2F)nc2cnccc12

>  <Name>  (225) 
nan

>  <Pocket>  (225) 
nan

>  <ATP_Site>  (225) 
nan

>  <Peripheral>  (225) 
nan

>  <Num_H_Atoms_ProtBoundConf>  (225) 
nan

>  <Num_Resolved_Atoms>  (225) 
nan

>  <Num_Not_Resolved_Atoms>  (225) 
nan

$$$$
CHEMBL4554563
     RDKit          3D

  0  0  0  0  0  0  0  0  0  0999 V3000
M  V30 BEGIN CTAB
M  V30 COUNTS 56 59 0 0 0
M  V30 BEGIN ATOM
M  V30 1 C -0.388969 -2.842136 3.508558 0
M  V30 2 N -0.521933 -3.327118 2.150357 0
M  V30 3 C 0.430818 -3.104511 1.129217 0
M  V30 4 N 1.520662 -2.398059 1.476210 0
M  V30 5 C 2.471189 -2.145227 0.565054 0
M  V30 6 N 3.721519 -1.477214 0.536908 0
M  V30 7 C 3.786291 -0.076462 0.479261 0
M  V30 8 C 4.867370 0.655228 0.093569 0
M  V30 9 N 4.889825 2.012249 0.070076 0
M  V30 10 C 3.765622 2.658059 0.456031 0
M  V30 11 C 3.923737 4.101709 0.387495 0
M  V30 12 N 4.034082 5.259745 0.332464 0
M  V30 13 C 2.578673 2.034928 0.879082 0
M  V30 14 O 1.651050 2.919655 1.195658 0
M  V30 15 C 0.391699 3.043433 1.643229 0
M  V30 16 C -0.775931 2.497720 0.930494 0
M  V30 17 C -0.837692 1.031786 0.692093 0
M  V30 18 C -2.323546 0.686453 0.509362 0
M  V30 19 N -3.107485 1.893554 0.371194 0
M  V30 20 C -2.594595 2.733240 -0.685448 0
M  V30 21 C -1.159574 3.180020 -0.358617 0
M  V30 22 C 2.686536 0.662610 0.856331 0
M  V30 23 N 2.314894 -2.611613 -0.704798 0
M  V30 24 C 1.210104 -3.327980 -1.055103 0
M  V30 25 C 0.199549 -3.609338 -0.128644 0
M  V30 26 C -0.970522 -4.368243 -0.538134 0
M  V30 27 C -0.738495 -5.536891 -1.240366 0
M  V30 28 N -1.942013 -6.098234 -1.545594 0
M  V30 29 N -2.915748 -5.313058 -1.053755 0
M  V30 30 C -4.354027 -5.542651 -1.159184 0
M  V30 31 C -2.338768 -4.264792 -0.442941 0
M  V30 32 H 0.575470 -2.289769 3.553242 0
M  V30 33 H -0.378176 -3.723236 4.177986 0
M  V30 34 H -1.233806 -2.134427 3.749892 0
M  V30 35 H -1.388853 -3.868477 1.962515 0
M  V30 36 H 4.650166 -1.981922 0.556381 0
M  V30 37 H 5.736493 0.058118 -0.201307 0
M  V30 38 H 0.177209 4.168258 1.765247 0
M  V30 39 H 0.357515 2.728139 2.752042 0
M  V30 40 H -1.672313 2.715958 1.616290 0
M  V30 41 H -0.341580 0.676662 -0.232768 0
M  V30 42 H -0.516284 0.498501 1.600770 0
M  V30 43 H -2.724962 0.184363 1.433985 0
M  V30 44 H -2.504046 0.007826 -0.318305 0
M  V30 45 H -4.098325 1.690496 0.263780 0
M  V30 46 H -2.619669 2.175594 -1.662804 0
M  V30 47 H -3.283529 3.619690 -0.716112 0
M  V30 48 H -1.093474 4.278447 -0.208194 0
M  V30 49 H -0.472083 2.915960 -1.213872 0
M  V30 50 H 1.797471 0.150964 1.182270 0
M  V30 51 H 1.025410 -3.733446 -2.064535 0
M  V30 52 H 0.129007 -6.105147 -1.601614 0
M  V30 53 H -4.826950 -5.797996 -0.205678 0
M  V30 54 H -4.514027 -6.314278 -1.942433 0
M  V30 55 H -4.862948 -4.627162 -1.541417 0
M  V30 56 H -2.768532 -3.425842 0.067424 0
M  V30 END ATOM
M  V30 BEGIN BOND
M  V30 1 1 1 2
M  V30 2 1 2 3
M  V30 3 2 3 4
M  V30 4 1 4 5
M  V30 5 1 5 6
M  V30 6 1 6 7
M  V30 7 2 7 8
M  V30 8 1 8 9
M  V30 9 2 9 10
M  V30 10 1 10 11
M  V30 11 3 11 12
M  V30 12 1 10 13
M  V30 13 1 13 14
M  V30 14 1 14 15
M  V30 15 1 15 16
M  V30 16 1 16 17
M  V30 17 1 17 18
M  V30 18 1 18 19
M  V30 19 1 19 20
M  V30 20 1 20 21
M  V30 21 2 13 22
M  V30 22 2 5 23
M  V30 23 1 23 24
M  V30 24 2 24 25
M  V30 25 1 25 26
M  V30 26 1 26 27
M  V30 27 2 27 28
M  V30 28 1 28 29
M  V30 29 1 29 30
M  V30 30 1 29 31
M  V30 31 1 25 3
M  V30 32 2 31 26
M  V30 33 1 22 7
M  V30 34 1 21 16
M  V30 35 1 1 32
M  V30 36 1 1 33
M  V30 37 1 1 34
M  V30 38 1 2 35
M  V30 39 1 6 36
M  V30 40 1 8 37
M  V30 41 1 15 38
M  V30 42 1 15 39
M  V30 43 1 16 40
M  V30 44 1 17 41
M  V30 45 1 17 42
M  V30 46 1 18 43
M  V30 47 1 18 44
M  V30 48 1 19 45
M  V30 49 1 20 46
M  V30 50 1 20 47
M  V30 51 1 21 48
M  V30 52 1 21 49
M  V30 53 1 22 50
M  V30 54 1 24 51
M  V30 55 1 27 52
M  V30 56 1 30 53
M  V30 57 1 30 54
M  V30 58 1 30 55
M  V30 59 1 31 56
M  V30 END BOND
M  V30 END CTAB
M  END
>  <Dataset>  (226) 
ChEMBL_Kinases

>  <Ligand_Instance>  (226) 
nan

>  <PDB_ID>  (226) 
nan

>  <Standardized_SMILES>  (226) 
CNc1nc(Nc2cnc(C#N)c(OCC3CCNCC3)c2)ncc1-c1cnn(C)c1

>  <Name>  (226) 
nan

>  <Pocket>  (226) 
nan

>  <ATP_Site>  (226) 
nan

>  <Peripheral>  (226) 
nan

>  <Num_H_Atoms_ProtBoundConf>  (226) 
nan

>  <Num_Resolved_Atoms>  (226) 
nan

>  <Num_Not_Resolved_Atoms>  (226) 
nan

$$$$
CHEMBL4638545
     RDKit          3D

  0  0  0  0  0  0  0  0  0  0999 V3000
M  V30 BEGIN CTAB
M  V30 COUNTS 56 59 0 0 0
M  V30 BEGIN ATOM
M  V30 1 C 3.274791 -5.456536 -1.146116 0
M  V30 2 C 2.454831 -5.803003 0.090181 0
M  V30 3 O 1.519049 -4.748139 0.260655 0
M  V30 4 C 1.788252 -3.440976 0.458150 0
M  V30 5 O 1.582523 -4.656485 0.274058 0
M  V30 6 C 2.175958 -2.068563 0.665466 0
M  V30 7 C 3.539410 -1.892450 0.718722 0
M  V30 8 N 3.894168 -0.598680 0.951072 0
M  V30 9 C 2.982814 0.358014 1.103672 0
M  V30 10 C 3.467611 1.622818 1.334884 0
M  V30 11 C 2.583418 2.668100 1.504586 0
M  V30 12 C 1.227840 2.437895 1.441474 0
M  V30 13 C 0.248337 3.502967 1.614039 0
M  V30 14 C 0.581848 4.818027 1.851582 0
M  V30 15 C -0.360256 5.829537 2.015672 0
M  V30 16 Cl 0.119426 7.482756 2.315206 0
M  V30 17 C -1.678406 5.434004 1.925405 0
M  V30 18 O -2.690038 6.401148 2.080572 0
M  V30 19 C -2.111627 4.145468 1.691017 0
M  V30 20 Cl -3.801069 3.712582 1.588692 0
M  V30 21 C -1.099059 3.219948 1.543160 0
M  V30 22 N 0.811766 1.180797 1.212797 0
M  V30 23 C 1.631361 0.129706 1.040966 0
M  V30 24 C 1.164042 -1.146832 0.809014 0
M  V30 25 N -0.218164 -1.350141 0.717039 0
M  V30 26 C -1.133977 -2.425486 0.397511 0 CFG=1
M  V30 27 C -2.501439 -2.114154 0.913326 0
M  V30 28 C -3.664525 -2.446033 0.082452 0
M  V30 29 C -3.457632 -2.285369 -1.401790 0 CFG=2
M  V30 30 N -4.680192 -2.672142 -2.082011 0
M  V30 31 C -2.297996 -3.205586 -1.718371 0
M  V30 32 C -1.073891 -2.587455 -1.092411 0
M  V30 33 H 4.006588 -4.679830 -0.831822 0
M  V30 34 H 3.789081 -6.330656 -1.563902 0
M  V30 35 H 2.614404 -4.974315 -1.901602 0
M  V30 36 H 1.946052 -6.765015 -0.019597 0
M  V30 37 H 3.207175 -5.850290 0.919955 0
M  V30 38 H 4.253109 -2.689654 0.590801 0
M  V30 39 H 4.514222 1.823166 1.387787 0
M  V30 40 H 2.987663 3.650746 1.684790 0
M  V30 41 H 1.616938 5.116656 1.920434 0
M  V30 42 H -2.553615 7.200064 2.686000 0
M  V30 43 H -1.366086 2.188269 1.357111 0
M  V30 44 H -0.808071 -0.489684 0.931101 0
M  V30 45 H -0.745976 -3.340429 0.868220 0
M  V30 46 H -2.638639 -2.547103 1.927432 0
M  V30 47 H -2.547537 -1.001488 1.113745 0
M  V30 48 H -4.552156 -1.829807 0.353894 0
M  V30 49 H -3.993760 -3.509036 0.224212 0
M  V30 50 H -3.171500 -1.249404 -1.622008 0
M  V30 51 H -5.296998 -1.855912 -2.279368 0
M  V30 52 H -5.150449 -3.471370 -1.645492 0
M  V30 53 H -2.104222 -3.224331 -2.810908 0
M  V30 54 H -2.489581 -4.231519 -1.326365 0
M  V30 55 H -0.226020 -3.202900 -1.425197 0
M  V30 56 H -0.946288 -1.587758 -1.577047 0
M  V30 END ATOM
M  V30 BEGIN BOND
M  V30 1 1 1 2
M  V30 2 1 2 3
M  V30 3 1 3 4
M  V30 4 2 4 5
M  V30 5 1 4 6
M  V30 6 2 6 7
M  V30 7 1 7 8
M  V30 8 2 8 9
M  V30 9 1 9 10
M  V30 10 2 10 11
M  V30 11 1 11 12
M  V30 12 1 12 13
M  V30 13 2 13 14
M  V30 14 1 14 15
M  V30 15 1 15 16
M  V30 16 2 15 17
M  V30 17 1 17 18
M  V30 18 1 17 19
M  V30 19 1 19 20
M  V30 20 2 19 21
M  V30 21 2 12 22
M  V30 22 1 22 23
M  V30 23 2 23 24
M  V30 24 1 24 25
M  V30 25 1 25 26
M  V30 26 1 26 27
M  V30 27 1 27 28
M  V30 28 1 28 29
M  V30 29 1 29 30
M  V30 30 1 29 31
M  V30 31 1 31 32
M  V30 32 1 24 6
M  V30 33 1 32 26
M  V30 34 1 23 9
M  V30 35 1 21 13
M  V30 36 1 1 33
M  V30 37 1 1 34
M  V30 38 1 1 35
M  V30 39 1 2 36
M  V30 40 1 2 37
M  V30 41 1 7 38
M  V30 42 1 10 39
M  V30 43 1 11 40
M  V30 44 1 14 41
M  V30 45 1 18 42
M  V30 46 1 21 43
M  V30 47 1 25 44
M  V30 48 1 26 45 CFG=1
M  V30 49 1 27 46
M  V30 50 1 27 47
M  V30 51 1 28 48
M  V30 52 1 28 49
M  V30 53 1 29 50 CFG=1
M  V30 54 1 30 51
M  V30 55 1 30 52
M  V30 56 1 31 53
M  V30 57 1 31 54
M  V30 58 1 32 55
M  V30 59 1 32 56
M  V30 END BOND
M  V30 END CTAB
M  END
>  <Dataset>  (227) 
ChEMBL_Kinases

>  <Ligand_Instance>  (227) 
nan

>  <PDB_ID>  (227) 
nan

>  <Standardized_SMILES>  (227) 
CCOC(=O)c1cnc2ccc(-c3cc(Cl)c(O)c(Cl)c3)nc2c1N[C@H]1CC[C@H](N)CC1

>  <Name>  (227) 
nan

>  <Pocket>  (227) 
nan

>  <ATP_Site>  (227) 
nan

>  <Peripheral>  (227) 
nan

>  <Num_H_Atoms_ProtBoundConf>  (227) 
nan

>  <Num_Resolved_Atoms>  (227) 
nan

>  <Num_Not_Resolved_Atoms>  (227) 
nan

$$$$
CHEMBL4638598
     RDKit          3D

  0  0  0  0  0  0  0  0  0  0999 V3000
M  V30 BEGIN CTAB
M  V30 COUNTS 49 52 0 0 0
M  V30 BEGIN ATOM
M  V30 1 C 1.052674 3.928897 2.333120 0
M  V30 2 O 0.940790 2.735849 1.576310 0
M  V30 3 C 1.961315 2.277523 0.754156 0
M  V30 4 N 3.159639 2.895652 0.576448 0
M  V30 5 N 3.894866 2.184367 -0.275462 0
M  V30 6 C 5.210845 2.429957 -0.765765 0
M  V30 7 C 6.164641 3.103535 -0.068971 0
M  V30 8 N 7.390530 3.299318 -0.595820 0
M  V30 9 C 7.687384 2.822738 -1.835922 0
M  V30 10 N 6.776505 2.142444 -2.579969 0
M  V30 11 C 5.562952 1.963477 -2.026900 0
M  V30 12 C 3.147848 1.116389 -0.629701 0
M  V30 13 C 1.917168 1.131101 -0.004733 0
M  V30 14 C 0.859406 0.137724 -0.152940 0
M  V30 15 O 1.041975 -0.843712 -0.912682 0
M  V30 16 N -0.372104 0.243469 0.534359 0
M  V30 17 C -1.246602 -0.842975 0.231201 0
M  V30 18 C -2.092330 -0.655004 -0.848827 0
M  V30 19 C -2.953612 -1.689916 -1.169681 0
M  V30 20 C -2.975070 -2.865695 -0.447136 0
M  V30 21 C -2.114279 -3.010161 0.622366 0
M  V30 22 C -1.938013 -4.132499 1.535581 0
M  V30 23 N -0.836210 -4.897964 1.627667 0
M  V30 24 N -1.043710 -5.809116 2.558632 0
M  V30 25 C -2.280405 -5.600829 3.040165 0
M  V30 26 N -2.875424 -4.549714 2.417366 0
M  V30 27 C -4.216343 -4.031783 2.676998 0
M  V30 28 C -4.251500 -2.517996 2.704850 0
M  V30 29 C -5.230237 -4.619548 1.741949 0
M  V30 30 N -1.269138 -1.985965 0.931692 0
M  V30 31 H 1.354150 4.731860 1.634163 0
M  V30 32 H 1.773155 3.832077 3.164877 0
M  V30 33 H 0.015474 4.155133 2.683042 0
M  V30 34 H 5.857149 3.455268 0.914239 0
M  V30 35 H 8.699571 3.013591 -2.208942 0
M  V30 36 H 4.877203 1.409195 -2.676496 0
M  V30 37 H 3.473373 0.338909 -1.321982 0
M  V30 38 H -0.582642 1.020444 1.168788 0
M  V30 39 H -2.109594 0.248119 -1.442149 0
M  V30 40 H -3.665250 -1.652858 -2.001532 0
M  V30 41 H -3.590472 -3.728685 -0.597926 0
M  V30 42 H -2.782446 -6.177109 3.829477 0
M  V30 43 H -4.477517 -4.355939 3.706893 0
M  V30 44 H -4.664978 -2.082218 1.775539 0
M  V30 45 H -3.231400 -2.169287 2.958236 0
M  V30 46 H -4.934170 -2.156207 3.514009 0
M  V30 47 H -5.469734 -3.967082 0.879567 0
M  V30 48 H -6.182744 -4.768197 2.290746 0
M  V30 49 H -4.839787 -5.614026 1.426701 0
M  V30 END ATOM
M  V30 BEGIN BOND
M  V30 1 1 1 2
M  V30 2 1 2 3
M  V30 3 2 3 4
M  V30 4 1 4 5
M  V30 5 1 5 6
M  V30 6 2 6 7
M  V30 7 1 7 8
M  V30 8 2 8 9
M  V30 9 1 9 10
M  V30 10 2 10 11
M  V30 11 1 5 12
M  V30 12 2 12 13
M  V30 13 1 13 14
M  V30 14 2 14 15
M  V30 15 1 14 16
M  V30 16 1 16 17
M  V30 17 2 17 18
M  V30 18 1 18 19
M  V30 19 2 19 20
M  V30 20 1 20 21
M  V30 21 1 21 22
M  V30 22 2 22 23
M  V30 23 1 23 24
M  V30 24 2 24 25
M  V30 25 1 25 26
M  V30 26 1 26 27
M  V30 27 1 27 28
M  V30 28 1 27 29
M  V30 29 2 21 30
M  V30 30 1 13 3
M  V30 31 1 30 17
M  V30 32 1 11 6
M  V30 33 1 26 22
M  V30 34 1 1 31
M  V30 35 1 1 32
M  V30 36 1 1 33
M  V30 37 1 7 34
M  V30 38 1 9 35
M  V30 39 1 11 36
M  V30 40 1 12 37
M  V30 41 1 16 38
M  V30 42 1 18 39
M  V30 43 1 19 40
M  V30 44 1 20 41
M  V30 45 1 25 42
M  V30 46 1 27 43
M  V30 47 1 28 44
M  V30 48 1 28 45
M  V30 49 1 28 46
M  V30 50 1 29 47
M  V30 51 1 29 48
M  V30 52 1 29 49
M  V30 END BOND
M  V30 END CTAB
M  END
>  <Dataset>  (228) 
ChEMBL_Kinases

>  <Ligand_Instance>  (228) 
nan

>  <PDB_ID>  (228) 
nan

>  <Standardized_SMILES>  (228) 
COc1nn(-c2cncnc2)cc1C(=O)Nc1cccc(-c2nncn2C(C)C)n1

>  <Name>  (228) 
nan

>  <Pocket>  (228) 
nan

>  <ATP_Site>  (228) 
nan

>  <Peripheral>  (228) 
nan

>  <Num_H_Atoms_ProtBoundConf>  (228) 
nan

>  <Num_Resolved_Atoms>  (228) 
nan

>  <Num_Not_Resolved_Atoms>  (228) 
nan

$$$$
CHEMBL455450
     RDKit          3D

  0  0  0  0  0  0  0  0  0  0999 V3000
M  V30 BEGIN CTAB
M  V30 COUNTS 52 54 0 0 0
M  V30 BEGIN ATOM
M  V30 1 C 4.715110 -5.804085 1.944963 0
M  V30 2 C 4.487344 -5.252906 0.537283 0 CFG=1
M  V30 3 C 3.008199 -5.050064 0.387408 0
M  V30 4 N 2.650647 -4.380575 -0.843912 0
M  V30 5 C 3.828436 -3.888786 -1.549108 0
M  V30 6 C 4.664154 -3.012049 -0.610085 0 CFG=1
M  V30 7 C 3.825404 -2.080809 0.155884 0
M  V30 8 O 3.738474 -2.031588 1.421590 0
M  V30 9 N 3.055129 -1.166931 -0.612080 0
M  V30 10 C 2.185419 -0.194475 0.026923 0
M  V30 11 N 1.422607 0.695786 -0.430333 0
M  V30 12 C 0.744268 1.442531 0.422192 0
M  V30 13 C 0.840358 1.283643 1.790706 0
M  V30 14 S -0.010845 2.216909 2.979350 0
M  V30 15 C -1.603514 1.600994 3.491198 0
M  V30 16 C -2.639251 1.618287 2.425202 0
M  V30 17 N -2.858929 0.580390 1.575121 0
M  V30 18 C -3.861206 0.971864 0.767899 0
M  V30 19 C -4.241598 2.249029 1.137695 0
M  V30 20 C -5.338753 2.876634 0.373399 0
M  V30 21 C -5.656676 4.267977 0.874619 0
M  V30 22 C -6.565338 2.005892 0.520576 0
M  V30 23 C -5.020036 2.967877 -1.105706 0
M  V30 24 O -3.471990 2.593963 2.144200 0
M  V30 25 S 2.043462 -0.095067 1.799208 0
M  V30 26 C 5.308473 -4.017523 0.342691 0
M  V30 27 H 3.999956 -6.624503 2.167067 0
M  V30 28 H 5.788176 -6.111480 2.090244 0
M  V30 29 H 4.549956 -4.952802 2.631414 0
M  V30 30 H 4.763283 -6.085294 -0.157598 0
M  V30 31 H 2.563212 -6.087119 0.427084 0
M  V30 32 H 2.627445 -4.561468 1.300463 0
M  V30 33 H 2.001080 -3.590083 -0.626642 0
M  V30 34 H 3.467807 -3.319256 -2.425763 0
M  V30 35 H 4.446610 -4.766879 -1.822848 0
M  V30 36 H 5.407061 -2.502287 -1.256151 0
M  V30 37 H 3.065849 -1.139020 -1.630295 0
M  V30 38 H 0.110726 2.186611 -0.085770 0
M  V30 39 H -1.475112 0.563074 3.861649 0
M  V30 40 H -1.934558 2.209955 4.364999 0
M  V30 41 H -4.188569 0.258904 0.000403 0
M  V30 42 H -5.538973 4.398651 1.952360 0
M  V30 43 H -5.091942 5.024997 0.260409 0
M  V30 44 H -6.726562 4.462623 0.634571 0
M  V30 45 H -7.052925 1.829437 -0.457149 0
M  V30 46 H -6.279957 0.993673 0.898230 0
M  V30 47 H -7.289191 2.441954 1.262601 0
M  V30 48 H -5.977198 2.889537 -1.692776 0
M  V30 49 H -4.420671 2.104906 -1.424438 0
M  V30 50 H -4.564988 3.953685 -1.378060 0
M  V30 51 H 5.608107 -3.508417 1.286269 0
M  V30 52 H 6.256373 -4.362860 -0.163469 0
M  V30 END ATOM
M  V30 BEGIN BOND
M  V30 1 1 1 2
M  V30 2 1 2 3
M  V30 3 1 3 4
M  V30 4 1 4 5
M  V30 5 1 5 6
M  V30 6 1 6 7
M  V30 7 2 7 8
M  V30 8 1 7 9
M  V30 9 1 9 10
M  V30 10 2 10 11
M  V30 11 1 11 12
M  V30 12 2 12 13
M  V30 13 1 13 14
M  V30 14 1 14 15
M  V30 15 1 15 16
M  V30 16 2 16 17
M  V30 17 1 17 18
M  V30 18 2 18 19
M  V30 19 1 19 20
M  V30 20 1 20 21
M  V30 21 1 20 22
M  V30 22 1 20 23
M  V30 23 1 19 24
M  V30 24 1 13 25
M  V30 25 1 6 26
M  V30 26 1 26 2
M  V30 27 1 25 10
M  V30 28 1 24 16
M  V30 29 1 1 27
M  V30 30 1 1 28
M  V30 31 1 1 29
M  V30 32 1 2 30 CFG=3
M  V30 33 1 3 31
M  V30 34 1 3 32
M  V30 35 1 4 33
M  V30 36 1 5 34
M  V30 37 1 5 35
M  V30 38 1 6 36 CFG=3
M  V30 39 1 9 37
M  V30 40 1 12 38
M  V30 41 1 15 39
M  V30 42 1 15 40
M  V30 43 1 18 41
M  V30 44 1 21 42
M  V30 45 1 21 43
M  V30 46 1 21 44
M  V30 47 1 22 45
M  V30 48 1 22 46
M  V30 49 1 22 47
M  V30 50 1 23 48
M  V30 51 1 23 49
M  V30 52 1 23 50
M  V30 53 1 26 51
M  V30 54 1 26 52
M  V30 END BOND
M  V30 END CTAB
M  END
>  <Dataset>  (229) 
ChEMBL_Kinases

>  <Ligand_Instance>  (229) 
nan

>  <PDB_ID>  (229) 
nan

>  <Standardized_SMILES>  (229) 
C[C@H]1CNC[C@@H](C(=O)Nc2ncc(SCc3ncc(C(C)(C)C)o3)s2)C1

>  <Name>  (229) 
nan

>  <Pocket>  (229) 
nan

>  <ATP_Site>  (229) 
nan

>  <Peripheral>  (229) 
nan

>  <Num_H_Atoms_ProtBoundConf>  (229) 
nan

>  <Num_Resolved_Atoms>  (229) 
nan

>  <Num_Not_Resolved_Atoms>  (229) 
nan

$$$$
CHEMBL4554398
     RDKit          3D

  0  0  0  0  0  0  0  0  0  0999 V3000
M  V30 BEGIN CTAB
M  V30 COUNTS 44 48 0 0 0
M  V30 BEGIN ATOM
M  V30 1 O -0.412198 2.455614 -0.989920 0
M  V30 2 S 1.007335 2.783535 -1.409550 0
M  V30 3 O 1.166180 4.267273 -1.357203 0
M  V30 4 C 1.243216 2.235304 -3.026851 0
M  V30 5 C 1.591883 2.935729 -4.216014 0
M  V30 6 C 1.634845 1.983690 -5.197230 0
M  V30 7 C 1.421347 0.649487 -5.193178 0
M  V30 8 S 1.033904 0.496181 -3.366642 0
M  V30 9 N 2.128092 2.062787 -0.316625 0
M  V30 10 C 2.035242 0.642555 -0.227842 0
M  V30 11 C 1.918236 0.140812 1.209378 0
M  V30 12 C 0.714472 0.659551 1.845155 0
M  V30 13 C 0.886003 2.067112 1.654403 0
M  V30 14 S -0.530403 2.835524 2.351355 0
M  V30 15 C -1.306629 1.277339 2.877618 0
M  V30 16 N -2.483638 1.051279 3.514158 0
M  V30 17 C -2.880479 -0.188607 3.809032 0
M  V30 18 N -2.029883 -1.135045 3.427601 0
M  V30 19 C -0.875024 -0.972731 2.807328 0
M  V30 20 N -0.145837 -2.122671 2.544890 0
M  V30 21 C -0.420267 -3.475945 2.719531 0
M  V30 22 C -1.609437 -3.944716 3.187174 0
M  V30 23 C -2.048499 -5.205693 3.439714 0
M  V30 24 C -1.105477 -6.181991 3.170430 0
M  V30 25 F -1.338714 -7.524642 3.356760 0
M  V30 26 C 0.187843 -5.890811 2.681492 0
M  V30 27 C 0.406064 -4.545536 2.499588 0
M  V30 28 Br 2.167560 -4.129162 1.826019 0
M  V30 29 C -0.428267 0.278600 2.481923 0
M  V30 30 C 2.062738 2.695617 0.993808 0
M  V30 31 H 1.735526 3.980954 -4.102933 0
M  V30 32 H 1.912058 2.491797 -6.146593 0
M  V30 33 H 1.479766 0.001685 -5.995404 0
M  V30 34 H 1.174785 0.292436 -0.819957 0
M  V30 35 H 2.954893 0.194811 -0.645217 0
M  V30 36 H 2.826670 0.505275 1.798713 0
M  V30 37 H 2.064833 -0.928290 1.134594 0
M  V30 38 H -3.824273 -0.250711 4.311596 0
M  V30 39 H 0.791024 -2.101069 2.157039 0
M  V30 40 H -2.448133 -3.278706 3.434106 0
M  V30 41 H -2.988113 -5.524343 3.804471 0
M  V30 42 H 0.926264 -6.638433 2.472890 0
M  V30 43 H 1.815964 3.750289 0.815831 0
M  V30 44 H 2.986415 2.633047 1.562146 0
M  V30 END ATOM
M  V30 BEGIN BOND
M  V30 1 2 1 2
M  V30 2 2 2 3
M  V30 3 1 2 4
M  V30 4 2 4 5
M  V30 5 1 5 6
M  V30 6 2 6 7
M  V30 7 1 7 8
M  V30 8 1 2 9
M  V30 9 1 9 10
M  V30 10 1 10 11
M  V30 11 1 11 12
M  V30 12 2 12 13
M  V30 13 1 13 14
M  V30 14 1 14 15
M  V30 15 2 15 16
M  V30 16 1 16 17
M  V30 17 2 17 18
M  V30 18 1 18 19
M  V30 19 1 19 20
M  V30 20 1 20 21
M  V30 21 2 21 22
M  V30 22 1 22 23
M  V30 23 2 23 24
M  V30 24 1 24 25
M  V30 25 1 24 26
M  V30 26 2 26 27
M  V30 27 1 27 28
M  V30 28 2 19 29
M  V30 29 1 13 30
M  V30 30 1 8 4
M  V30 31 1 30 9
M  V30 32 1 29 12
M  V30 33 1 29 15
M  V30 34 1 27 21
M  V30 35 1 5 31
M  V30 36 1 6 32
M  V30 37 1 7 33
M  V30 38 1 10 34
M  V30 39 1 10 35
M  V30 40 1 11 36
M  V30 41 1 11 37
M  V30 42 1 17 38
M  V30 43 1 20 39
M  V30 44 1 22 40
M  V30 45 1 23 41
M  V30 46 1 26 42
M  V30 47 1 30 43
M  V30 48 1 30 44
M  V30 END BOND
M  V30 END CTAB
M  END
>  <Dataset>  (230) 
ChEMBL_Kinases

>  <Ligand_Instance>  (230) 
nan

>  <PDB_ID>  (230) 
nan

>  <Standardized_SMILES>  (230) 
O=S(=O)(c1cccs1)N1CCc2c(sc3ncnc(Nc4ccc(F)cc4Br)c23)C1

>  <Name>  (230) 
nan

>  <Pocket>  (230) 
nan

>  <ATP_Site>  (230) 
nan

>  <Peripheral>  (230) 
nan

>  <Num_H_Atoms_ProtBoundConf>  (230) 
nan

>  <Num_Resolved_Atoms>  (230) 
nan

>  <Num_Not_Resolved_Atoms>  (230) 
nan

$$$$
CHEMBL4554198
     RDKit          3D

  0  0  0  0  0  0  0  0  0  0999 V3000
M  V30 BEGIN CTAB
M  V30 COUNTS 54 57 0 0 0
M  V30 BEGIN ATOM
M  V30 1 C -0.004179 0.889226 4.437585 0
M  V30 2 C 0.555525 -0.497078 4.597133 0
M  V30 3 C 2.037635 -0.538960 4.646295 0
M  V30 4 C 2.721320 -0.704972 5.857628 0
M  V30 5 N 4.022358 -0.696399 5.577987 0
M  V30 6 N 4.191759 -0.533852 4.254534 0
M  V30 7 C 5.477227 -0.478989 3.612861 0
M  V30 8 C 2.990147 -0.434028 3.654821 0
M  V30 9 C 2.680601 -0.252268 2.231781 0
M  V30 10 C 3.411118 -0.126096 1.118982 0
M  V30 11 C 2.830695 0.033290 -0.088033 0
M  V30 12 C 1.408645 0.056574 -0.086705 0
M  V30 13 C 0.544454 0.226492 -1.324873 0
M  V30 14 O 0.878447 0.372617 -2.550968 0
M  V30 15 N -0.838200 0.210517 -0.986314 0
M  V30 16 C -1.889018 0.353631 -1.974130 0 CFG=2
M  V30 17 C -2.803808 1.514969 -1.662366 0
M  V30 18 N -4.188595 1.194416 -1.836661 0
M  V30 19 C -4.464790 0.385846 -3.004422 0
M  V30 20 C -3.803169 -0.965771 -2.940155 0
M  V30 21 C -2.740285 -0.894511 -1.871715 0 CFG=1
M  V30 22 C -1.947460 -2.129865 -1.749839 0
M  V30 23 C -2.020715 -2.864825 -0.562710 0
M  V30 24 C -1.312160 -4.040142 -0.352685 0
M  V30 25 C -0.492976 -4.512967 -1.360387 0
M  V30 26 C -0.396750 -3.809477 -2.549978 0
M  V30 27 F 0.407698 -4.282878 -3.527940 0
M  V30 28 C -1.121379 -2.627868 -2.736029 0
M  V30 29 S 1.026684 -0.157190 1.685621 0
M  V30 30 H -0.348017 1.308628 5.430172 0
M  V30 31 H -0.880812 0.865260 3.747306 0
M  V30 32 H 0.767042 1.590814 4.096137 0
M  V30 33 H 0.112999 -0.894862 5.548638 0
M  V30 34 H 0.142567 -1.202581 3.817277 0
M  V30 35 H 2.285399 -0.819646 6.840335 0
M  V30 36 H 5.699529 0.498394 3.136824 0
M  V30 37 H 5.581741 -1.344805 2.941341 0
M  V30 38 H 6.279829 -0.600234 4.382449 0
M  V30 39 H 4.489833 -0.153778 1.200839 0
M  V30 40 H 3.330014 0.143309 -1.043747 0
M  V30 41 H -1.254603 0.099374 -0.030518 0
M  V30 42 H -1.517500 0.469393 -3.004846 0
M  V30 43 H -2.681385 1.902768 -0.625997 0
M  V30 44 H -2.533396 2.372278 -2.337960 0
M  V30 45 H -4.648958 0.845366 -0.969443 0
M  V30 46 H -5.584319 0.242469 -2.993649 0
M  V30 47 H -4.222336 0.964717 -3.906688 0
M  V30 48 H -3.430404 -1.340780 -3.894785 0
M  V30 49 H -4.539608 -1.731017 -2.558636 0
M  V30 50 H -3.284384 -0.780827 -0.889099 0
M  V30 51 H -2.650301 -2.541525 0.267307 0
M  V30 52 H -1.398854 -4.579942 0.585372 0
M  V30 53 H 0.057111 -5.435971 -1.180913 0
M  V30 54 H -1.041058 -2.089699 -3.658335 0
M  V30 END ATOM
M  V30 BEGIN BOND
M  V30 1 1 1 2
M  V30 2 1 2 3
M  V30 3 1 3 4
M  V30 4 2 4 5
M  V30 5 1 5 6
M  V30 6 1 6 7
M  V30 7 1 6 8
M  V30 8 1 8 9
M  V30 9 2 9 10
M  V30 10 1 10 11
M  V30 11 2 11 12
M  V30 12 1 12 13
M  V30 13 2 13 14
M  V30 14 1 13 15
M  V30 15 1 15 16
M  V30 16 1 16 17
M  V30 17 1 17 18
M  V30 18 1 18 19
M  V30 19 1 19 20
M  V30 20 1 20 21
M  V30 21 1 21 22
M  V30 22 2 22 23
M  V30 23 1 23 24
M  V30 24 2 24 25
M  V30 25 1 25 26
M  V30 26 1 26 27
M  V30 27 2 26 28
M  V30 28 1 12 29
M  V30 29 2 8 3
M  V30 30 1 29 9
M  V30 31 1 21 16
M  V30 32 1 28 22
M  V30 33 1 1 30
M  V30 34 1 1 31
M  V30 35 1 1 32
M  V30 36 1 2 33
M  V30 37 1 2 34
M  V30 38 1 4 35
M  V30 39 1 7 36
M  V30 40 1 7 37
M  V30 41 1 7 38
M  V30 42 1 10 39
M  V30 43 1 11 40
M  V30 44 1 15 41
M  V30 45 1 16 42 CFG=3
M  V30 46 1 17 43
M  V30 47 1 17 44
M  V30 48 1 18 45
M  V30 49 1 19 46
M  V30 50 1 19 47
M  V30 51 1 20 48
M  V30 52 1 20 49
M  V30 53 1 21 50 CFG=1
M  V30 54 1 23 51
M  V30 55 1 24 52
M  V30 56 1 25 53
M  V30 57 1 28 54
M  V30 END BOND
M  V30 END CTAB
M  END
>  <Dataset>  (231) 
ChEMBL_Kinases

>  <Ligand_Instance>  (231) 
nan

>  <PDB_ID>  (231) 
nan

>  <Standardized_SMILES>  (231) 
CCc1cnn(C)c1-c1ccc(C(=O)N[C@@H]2CNCC[C@H]2c2cccc(F)c2)s1

>  <Name>  (231) 
nan

>  <Pocket>  (231) 
nan

>  <ATP_Site>  (231) 
nan

>  <Peripheral>  (231) 
nan

>  <Num_H_Atoms_ProtBoundConf>  (231) 
nan

>  <Num_Resolved_Atoms>  (231) 
nan

>  <Num_Not_Resolved_Atoms>  (231) 
nan

$$$$
CHEMBL455396
     RDKit          3D

  0  0  0  0  0  0  0  0  0  0999 V3000
M  V30 BEGIN CTAB
M  V30 COUNTS 38 41 0 0 0
M  V30 BEGIN ATOM
M  V30 1 C -0.544636 -5.756754 4.981820 0
M  V30 2 O 0.777858 -5.492236 4.533452 0
M  V30 3 C 1.073411 -4.453047 3.661726 0
M  V30 4 C 2.338420 -4.167136 3.206952 0
M  V30 5 C 2.535006 -3.095627 2.327751 0
M  V30 6 C 1.496538 -2.315474 1.902170 0
M  V30 7 C 1.789976 -1.218934 0.985657 0
M  V30 8 C 0.861875 -0.350768 0.470743 0
M  V30 9 C 1.197511 0.671426 -0.394916 0
M  V30 10 C 0.153461 1.557418 -0.902797 0
M  V30 11 C 0.336874 2.611571 -1.766009 0
M  V30 12 C -0.899298 3.181593 -1.990245 0
M  V30 13 C -1.372279 4.251562 -2.746688 0
M  V30 14 O -0.573668 4.926180 -3.422843 0
M  V30 15 N -2.689542 4.523012 -2.721138 0
M  V30 16 C -3.597840 3.832240 -2.012343 0
M  V30 17 N -3.128176 2.790102 -1.277209 0
M  V30 18 C -1.814171 2.457682 -1.254169 0
M  V30 19 N -1.155560 1.479848 -0.603975 0
M  V30 20 C 2.508822 0.859370 -0.781000 0
M  V30 21 C 3.411456 -0.040153 -0.236775 0
M  V30 22 N 3.072938 -1.048296 0.618346 0
M  V30 23 C 0.226138 -2.601706 2.358177 0
M  V30 24 C 0.007369 -3.660923 3.231730 0
M  V30 25 H -0.460214 -6.486625 5.825348 0
M  V30 26 H -1.039080 -4.857691 5.416551 0
M  V30 27 H -1.171231 -6.226678 4.196894 0
M  V30 28 H 3.150393 -4.805334 3.561910 0
M  V30 29 H 3.560114 -2.937449 2.017094 0
M  V30 30 H -0.162146 -0.475226 0.754679 0
M  V30 31 H 1.245097 2.967121 -2.210882 0
M  V30 32 H -3.065252 5.328594 -3.287106 0
M  V30 33 H -4.641097 4.098797 -2.032709 0
M  V30 34 H -1.628692 0.793164 0.022563 0
M  V30 35 H 2.825766 1.635058 -1.449205 0
M  V30 36 H 4.479421 0.029335 -0.485416 0
M  V30 37 H -0.607333 -1.998316 2.034526 0
M  V30 38 H -1.023511 -3.826833 3.549518 0
M  V30 END ATOM
M  V30 BEGIN BOND
M  V30 1 1 1 2
M  V30 2 1 2 3
M  V30 3 2 3 4
M  V30 4 1 4 5
M  V30 5 2 5 6
M  V30 6 1 6 7
M  V30 7 2 7 8
M  V30 8 1 8 9
M  V30 9 1 9 10
M  V30 10 2 10 11
M  V30 11 1 11 12
M  V30 12 1 12 13
M  V30 13 2 13 14
M  V30 14 1 13 15
M  V30 15 1 15 16
M  V30 16 2 16 17
M  V30 17 1 17 18
M  V30 18 1 18 19
M  V30 19 2 9 20
M  V30 20 1 20 21
M  V30 21 2 21 22
M  V30 22 1 6 23
M  V30 23 2 23 24
M  V30 24 1 24 3
M  V30 25 1 22 7
M  V30 26 1 19 10
M  V30 27 2 18 12
M  V30 28 1 1 25
M  V30 29 1 1 26
M  V30 30 1 1 27
M  V30 31 1 4 28
M  V30 32 1 5 29
M  V30 33 1 8 30
M  V30 34 1 11 31
M  V30 35 1 15 32
M  V30 36 1 16 33
M  V30 37 1 19 34
M  V30 38 1 20 35
M  V30 39 1 21 36
M  V30 40 1 23 37
M  V30 41 1 24 38
M  V30 END BOND
M  V30 END CTAB
M  END
>  <Dataset>  (232) 
ChEMBL_Kinases

>  <Ligand_Instance>  (232) 
nan

>  <PDB_ID>  (232) 
nan

>  <Standardized_SMILES>  (232) 
COc1ccc(-c2cc(-c3cc4c(=O)[nH]cnc4[nH]3)ccn2)cc1

>  <Name>  (232) 
nan

>  <Pocket>  (232) 
nan

>  <ATP_Site>  (232) 
nan

>  <Peripheral>  (232) 
nan

>  <Num_H_Atoms_ProtBoundConf>  (232) 
nan

>  <Num_Resolved_Atoms>  (232) 
nan

>  <Num_Not_Resolved_Atoms>  (232) 
nan

$$$$
CHEMBL4638602
     RDKit          3D

  0  0  0  0  0  0  0  0  0  0999 V3000
M  V30 BEGIN CTAB
M  V30 COUNTS 50 53 0 0 0
M  V30 BEGIN ATOM
M  V30 1 C -1.574738 -4.855218 3.643847 0
M  V30 2 O -1.864399 -5.396693 2.389288 0
M  V30 3 C -1.790869 -4.738549 1.175236 0
M  V30 4 C -1.414294 -3.416255 0.984369 0
M  V30 5 C -1.385951 -2.888771 -0.290354 0
M  V30 6 C -0.989276 -1.493403 -0.502725 0
M  V30 7 C -0.058751 -1.006452 0.395052 0
M  V30 8 N 0.325620 0.271013 0.225856 0
M  V30 9 C -0.125240 1.086739 -0.736638 0
M  V30 10 C 0.231238 2.397652 -0.957227 0
M  V30 11 N 1.175262 3.178930 -0.189973 0
M  V30 12 C 0.664675 3.940487 0.940710 0
M  V30 13 C 1.796196 4.292788 1.889481 0 CFG=1
M  V30 14 C 1.147171 4.456501 3.253952 0
M  V30 15 O 2.716248 3.263660 1.990241 0
M  V30 16 C 3.421619 3.010890 0.835020 0 CFG=1
M  V30 17 C 3.748684 1.530018 0.802389 0
M  V30 18 C 2.603091 3.312141 -0.399690 0
M  V30 19 S -0.624590 2.979823 -2.300109 0
M  V30 20 N -1.553905 1.390733 -2.642765 0
M  V30 21 C -1.050906 0.629352 -1.643119 0
M  V30 22 C -1.475241 -0.679368 -1.507444 0
M  V30 23 C -1.716458 -3.607793 -1.423192 0
M  V30 24 C -2.096339 -4.941629 -1.231755 0
M  V30 25 C -2.121389 -5.459039 0.046218 0
M  V30 26 N -2.514822 -6.809185 0.153541 0
M  V30 27 C -1.365865 -7.642115 0.062396 0
M  V30 28 O -0.108782 -7.571051 -0.082982 0
M  V30 29 H -0.697181 -5.431376 4.041566 0
M  V30 30 H -1.261765 -3.801806 3.651119 0
M  V30 31 H -2.423732 -4.998960 4.358113 0
M  V30 32 H -1.158825 -2.857340 1.849211 0
M  V30 33 H 0.346214 -1.606088 1.192883 0
M  V30 34 H -0.134579 3.350936 1.424981 0
M  V30 35 H 0.202477 4.861828 0.537897 0
M  V30 36 H 2.255978 5.263879 1.622116 0
M  V30 37 H 1.788173 5.018076 3.950712 0
M  V30 38 H 0.133964 4.923039 3.156670 0
M  V30 39 H 0.946670 3.428099 3.647672 0
M  V30 40 H 4.380066 3.597928 0.792469 0
M  V30 41 H 2.882654 1.006308 1.277461 0
M  V30 42 H 3.759037 1.170646 -0.247042 0
M  V30 43 H 4.685839 1.282012 1.327739 0
M  V30 44 H 2.942989 2.655750 -1.255436 0
M  V30 45 H 2.867851 4.339868 -0.749160 0
M  V30 46 H -2.184316 -1.207142 -2.112975 0
M  V30 47 H -1.696104 -3.204462 -2.408193 0
M  V30 48 H -2.356274 -5.509480 -2.119006 0
M  V30 49 H -3.304926 -7.476109 0.273468 0
M  V30 50 H -1.070679 -8.682246 0.077376 0
M  V30 END ATOM
M  V30 BEGIN BOND
M  V30 1 1 1 2
M  V30 2 1 2 3
M  V30 3 2 3 4
M  V30 4 1 4 5
M  V30 5 1 5 6
M  V30 6 1 6 7
M  V30 7 2 7 8
M  V30 8 1 8 9
M  V30 9 2 9 10
M  V30 10 1 10 11
M  V30 11 1 11 12
M  V30 12 1 12 13
M  V30 13 1 13 14
M  V30 14 1 13 15
M  V30 15 1 15 16
M  V30 16 1 16 17
M  V30 17 1 16 18
M  V30 18 1 10 19
M  V30 19 1 19 20
M  V30 20 2 20 21
M  V30 21 1 21 22
M  V30 22 2 5 23
M  V30 23 1 23 24
M  V30 24 2 24 25
M  V30 25 1 25 26
M  V30 26 1 26 27
M  V30 27 2 27 28
M  V30 28 1 25 3
M  V30 29 2 22 6
M  V30 30 1 21 9
M  V30 31 1 18 11
M  V30 32 1 1 29
M  V30 33 1 1 30
M  V30 34 1 1 31
M  V30 35 1 4 32
M  V30 36 1 7 33
M  V30 37 1 12 34
M  V30 38 1 12 35
M  V30 39 1 13 36 CFG=3
M  V30 40 1 14 37
M  V30 41 1 14 38
M  V30 42 1 14 39
M  V30 43 1 16 40 CFG=1
M  V30 44 1 17 41
M  V30 45 1 17 42
M  V30 46 1 17 43
M  V30 47 1 18 44
M  V30 48 1 18 45
M  V30 49 1 22 46
M  V30 50 1 23 47
M  V30 51 1 24 48
M  V30 52 1 26 49
M  V30 53 1 27 50
M  V30 END BOND
M  V30 END CTAB
M  END
>  <Dataset>  (233) 
ChEMBL_Kinases

>  <Ligand_Instance>  (233) 
nan

>  <PDB_ID>  (233) 
nan

>  <Standardized_SMILES>  (233) 
COc1cc(-c2cnc3c(N4C[C@@H](C)O[C@@H](C)C4)snc3c2)ccc1NC=O

>  <Name>  (233) 
nan

>  <Pocket>  (233) 
nan

>  <ATP_Site>  (233) 
nan

>  <Peripheral>  (233) 
nan

>  <Num_H_Atoms_ProtBoundConf>  (233) 
nan

>  <Num_Resolved_Atoms>  (233) 
nan

>  <Num_Not_Resolved_Atoms>  (233) 
nan

$$$$
CHEMBL4638692
     RDKit          3D

  0  0  0  0  0  0  0  0  0  0999 V3000
M  V30 BEGIN CTAB
M  V30 COUNTS 67 72 0 0 0
M  V30 BEGIN ATOM
M  V30 1 C 7.401210 -2.012268 5.295573 0
M  V30 2 O 6.309088 -1.222671 4.878170 0
M  V30 3 C 5.604607 -1.549485 3.746674 0
M  V30 4 C 5.783288 -2.604644 2.873441 0
M  V30 5 C 5.003991 -2.826299 1.770168 0
M  V30 6 S 5.235290 -4.169455 0.705449 0
M  V30 7 C 6.389604 -3.794430 -0.564279 0
M  V30 8 O 5.644397 -5.378509 1.488395 0
M  V30 9 O 3.919756 -4.517670 0.033992 0
M  V30 10 C 3.991849 -1.945607 1.518300 0
M  V30 11 C 3.794427 -0.874627 2.391135 0
M  V30 12 C 4.579717 -0.622166 3.539742 0
M  V30 13 N 4.218107 0.515359 4.380322 0
M  V30 14 C 3.083558 1.261761 3.884120 0
M  V30 15 N 2.691056 2.366393 3.248676 0
M  V30 16 C 1.370260 2.286074 2.959578 0
M  V30 17 C 0.505832 3.068862 2.233392 0
M  V30 18 C -0.789133 2.586910 2.013730 0
M  V30 19 C -1.121145 1.340260 2.550700 0
M  V30 20 C -2.364368 0.824656 1.928986 0
M  V30 21 C -3.312383 1.632924 1.364347 0
M  V30 22 C -4.320790 0.919040 0.687571 0
M  V30 23 C -4.317578 -0.492460 0.626668 0
M  V30 24 N -5.390380 -0.720572 -0.310993 0
M  V30 25 C -4.522080 -1.200755 -1.375049 0
M  V30 26 O -3.281334 -1.292203 -1.011977 0
M  V30 27 C -4.438483 -1.663150 -2.796197 0
M  V30 28 C -5.117019 -0.725356 -3.729697 0
M  V30 29 C -4.561729 0.512919 -3.260361 0
M  V30 30 C -4.872932 1.783228 -3.854722 0
M  V30 31 C -5.739890 1.786972 -4.908758 0
M  V30 32 F -6.054067 2.959407 -5.496425 0
M  V30 33 C -6.245369 0.573161 -5.324856 0
M  V30 34 C -5.968854 -0.658869 -4.783485 0
M  V30 35 C -3.256676 -2.392340 -3.333954 0
M  V30 36 C -4.530060 -3.117938 -3.050462 0
M  V30 37 C -3.367023 -1.258322 1.214021 0
M  V30 38 C -2.380502 -0.579571 1.868810 0
M  V30 39 C -0.306504 0.542903 3.281251 0
M  V30 40 N 0.925380 1.096439 3.435690 0
M  V30 41 N 1.988233 0.494625 3.997588 0
M  V30 42 H 8.209070 -1.327377 5.709377 0
M  V30 43 H 7.142608 -2.766557 6.055910 0
M  V30 44 H 7.891372 -2.553382 4.455484 0
M  V30 45 H 6.578947 -3.265551 3.106315 0
M  V30 46 H 6.130627 -4.308864 -1.524522 0
M  V30 47 H 6.450852 -2.683735 -0.717207 0
M  V30 48 H 7.394293 -4.090037 -0.225889 0
M  V30 49 H 3.372615 -2.108085 0.648368 0
M  V30 50 H 2.969033 -0.255689 2.071782 0
M  V30 51 H 4.824327 0.648103 5.226363 0
M  V30 52 H 0.925552 4.017953 1.900401 0
M  V30 53 H -1.334921 3.292609 1.440862 0
M  V30 54 H -3.228742 2.693475 1.474979 0
M  V30 55 H -5.002862 1.685455 0.279291 0
M  V30 56 H -6.244985 -0.816735 -0.813293 0
M  V30 57 H -3.863984 0.743201 -2.442243 0
M  V30 58 H -4.476629 2.736641 -3.530223 0
M  V30 59 H -6.921230 0.575903 -6.143858 0
M  V30 60 H -6.287492 -1.632196 -4.988206 0
M  V30 61 H -2.417581 -2.505186 -2.578457 0
M  V30 62 H -2.870890 -2.194941 -4.334019 0
M  V30 63 H -5.034789 -3.540695 -3.935083 0
M  V30 64 H -4.507065 -3.809904 -2.188199 0
M  V30 65 H -3.610933 -2.286399 1.039091 0
M  V30 66 H -1.675407 -1.284165 2.300321 0
M  V30 67 H -0.582373 -0.396585 3.702155 0
M  V30 END ATOM
M  V30 BEGIN BOND
M  V30 1 1 1 2
M  V30 2 1 2 3
M  V30 3 2 3 4
M  V30 4 1 4 5
M  V30 5 1 5 6
M  V30 6 1 6 7
M  V30 7 2 6 8
M  V30 8 2 6 9
M  V30 9 2 5 10
M  V30 10 1 10 11
M  V30 11 2 11 12
M  V30 12 1 12 13
M  V30 13 1 13 14
M  V30 14 1 14 15
M  V30 15 2 15 16
M  V30 16 1 16 17
M  V30 17 2 17 18
M  V30 18 1 18 19
M  V30 19 1 19 20
M  V30 20 2 20 21
M  V30 21 1 21 22
M  V30 22 2 22 23
M  V30 23 1 23 24
M  V30 24 1 24 25
M  V30 25 2 25 26
M  V30 26 1 25 27
M  V30 27 1 27 28
M  V30 28 2 28 29
M  V30 29 1 29 30
M  V30 30 2 30 31
M  V30 31 1 31 32
M  V30 32 1 31 33
M  V30 33 2 33 34
M  V30 34 1 27 35
M  V30 35 1 35 36
M  V30 36 1 23 37
M  V30 37 2 37 38
M  V30 38 2 19 39
M  V30 39 1 39 40
M  V30 40 1 40 41
M  V30 41 1 12 3
M  V30 42 2 41 14
M  V30 43 1 40 16
M  V30 44 1 38 20
M  V30 45 1 36 27
M  V30 46 1 34 28
M  V30 47 1 1 42
M  V30 48 1 1 43
M  V30 49 1 1 44
M  V30 50 1 4 45
M  V30 51 1 7 46
M  V30 52 1 7 47
M  V30 53 1 7 48
M  V30 54 1 10 49
M  V30 55 1 11 50
M  V30 56 1 13 51
M  V30 57 1 17 52
M  V30 58 1 18 53
M  V30 59 1 21 54
M  V30 60 1 22 55
M  V30 61 1 24 56
M  V30 62 1 29 57
M  V30 63 1 30 58
M  V30 64 1 33 59
M  V30 65 1 34 60
M  V30 66 1 35 61
M  V30 67 1 35 62
M  V30 68 1 36 63
M  V30 69 1 36 64
M  V30 70 1 37 65
M  V30 71 1 38 66
M  V30 72 1 39 67
M  V30 END BOND
M  V30 END CTAB
M  END
>  <Dataset>  (234) 
ChEMBL_Kinases

>  <Ligand_Instance>  (234) 
nan

>  <PDB_ID>  (234) 
nan

>  <Standardized_SMILES>  (234) 
COc1cc(S(C)(=O)=O)ccc1Nc1nc2ccc(-c3ccc(NC(=O)C4(c5ccc(F)cc5)CC4)cc3)cn2n1

>  <Name>  (234) 
nan

>  <Pocket>  (234) 
nan

>  <ATP_Site>  (234) 
nan

>  <Peripheral>  (234) 
nan

>  <Num_H_Atoms_ProtBoundConf>  (234) 
nan

>  <Num_Resolved_Atoms>  (234) 
nan

>  <Num_Not_Resolved_Atoms>  (234) 
nan

$$$$
CHEMBL4553909
     RDKit          3D

  0  0  0  0  0  0  0  0  0  0999 V3000
M  V30 BEGIN CTAB
M  V30 COUNTS 44 47 0 0 0
M  V30 BEGIN ATOM
M  V30 1 C 2.190660 -3.373715 -2.603707 0
M  V30 2 N 2.433465 -3.056153 -1.209989 0
M  V30 3 C 3.701742 -3.136179 -0.528285 0
M  V30 4 O 4.832885 -3.294209 -1.028631 0
M  V30 5 C 3.468811 -2.996111 0.951375 0
M  V30 6 C 2.004901 -3.274648 1.048053 0
M  V30 7 C 1.470538 -2.597278 -0.218390 0
M  V30 8 C 1.663854 -1.108099 -0.129598 0
M  V30 9 C 2.729580 -0.338845 -0.533341 0
M  V30 10 N 2.477672 0.960970 -0.259436 0
M  V30 11 C 1.271952 0.969298 0.303235 0
M  V30 12 C 0.587999 2.077636 0.755251 0
M  V30 13 C 0.993662 3.476837 0.738616 0
M  V30 14 N 2.240647 3.902604 0.224369 0
M  V30 15 O 0.376868 4.476913 1.137875 0
M  V30 16 C -0.660739 1.909131 1.316216 0
M  V30 17 C -1.235050 0.649313 1.431812 0
M  V30 18 C -2.553653 0.430719 2.018916 0
M  V30 19 C -3.362683 -0.596484 1.600377 0
M  V30 20 C -4.622147 -0.784995 2.178656 0
M  V30 21 C -5.017756 0.088293 3.173330 0
M  V30 22 C -4.229269 1.130955 3.617491 0
M  V30 23 C -2.993441 1.282735 3.021073 0
M  V30 24 C -0.547190 -0.458123 0.978226 0
M  V30 25 C 0.705471 -0.280034 0.416553 0
M  V30 26 H 1.507571 -2.644805 -3.075020 0
M  V30 27 H 3.181764 -3.288500 -3.131541 0
M  V30 28 H 1.756620 -4.391555 -2.721222 0
M  V30 29 H 4.116059 -3.666546 1.537544 0
M  V30 30 H 3.640180 -1.937824 1.238042 0
M  V30 31 H 1.577201 -2.803179 1.969459 0
M  V30 32 H 1.721273 -4.328882 0.995458 0
M  V30 33 H 0.440308 -2.887508 -0.427191 0
M  V30 34 H 3.626511 -0.715478 -0.996587 0
M  V30 35 H 3.116269 1.760503 -0.461238 0
M  V30 36 H 3.171400 4.199667 -0.113535 0
M  V30 37 H 3.066651 3.743807 0.873189 0
M  V30 38 H -1.242601 2.744371 1.687750 0
M  V30 39 H -3.050297 -1.284666 0.816493 0
M  V30 40 H -5.237358 -1.609551 1.822502 0
M  V30 41 H -5.988590 -0.062899 3.613975 0
M  V30 42 H -4.572581 1.799083 4.402586 0
M  V30 43 H -2.410055 2.115240 3.402837 0
M  V30 44 H -0.951217 -1.472629 1.044042 0
M  V30 END ATOM
M  V30 BEGIN BOND
M  V30 1 1 1 2
M  V30 2 1 2 3
M  V30 3 2 3 4
M  V30 4 1 3 5
M  V30 5 1 5 6
M  V30 6 1 6 7
M  V30 7 1 7 8
M  V30 8 2 8 9
M  V30 9 1 9 10
M  V30 10 1 10 11
M  V30 11 2 11 12
M  V30 12 1 12 13
M  V30 13 1 13 14
M  V30 14 2 13 15
M  V30 15 1 12 16
M  V30 16 2 16 17
M  V30 17 1 17 18
M  V30 18 2 18 19
M  V30 19 1 19 20
M  V30 20 2 20 21
M  V30 21 1 21 22
M  V30 22 2 22 23
M  V30 23 1 17 24
M  V30 24 2 24 25
M  V30 25 1 7 2
M  V30 26 1 25 8
M  V30 27 1 25 11
M  V30 28 1 23 18
M  V30 29 1 1 26
M  V30 30 1 1 27
M  V30 31 1 1 28
M  V30 32 1 5 29
M  V30 33 1 5 30
M  V30 34 1 6 31
M  V30 35 1 6 32
M  V30 36 1 7 33
M  V30 37 1 9 34
M  V30 38 1 10 35
M  V30 39 1 14 36
M  V30 40 1 14 37
M  V30 41 1 16 38
M  V30 42 1 19 39
M  V30 43 1 20 40
M  V30 44 1 21 41
M  V30 45 1 22 42
M  V30 46 1 23 43
M  V30 47 1 24 44
M  V30 END BOND
M  V30 END CTAB
M  END
>  <Dataset>  (235) 
ChEMBL_Kinases

>  <Ligand_Instance>  (235) 
nan

>  <PDB_ID>  (235) 
nan

>  <Standardized_SMILES>  (235) 
CN1C(=O)CCC1c1c[nH]c2c(C(N)=O)cc(-c3ccccc3)cc12

>  <Name>  (235) 
nan

>  <Pocket>  (235) 
nan

>  <ATP_Site>  (235) 
nan

>  <Peripheral>  (235) 
nan

>  <Num_H_Atoms_ProtBoundConf>  (235) 
nan

>  <Num_Resolved_Atoms>  (235) 
nan

>  <Num_Not_Resolved_Atoms>  (235) 
nan

$$$$
CHEMBL4638800
     RDKit          3D

  0  0  0  0  0  0  0  0  0  0999 V3000
M  V30 BEGIN CTAB
M  V30 COUNTS 60 63 0 0 0
M  V30 BEGIN ATOM
M  V30 1 C 3.949612 -0.701324 4.664424 0
M  V30 2 N 3.880678 -1.577334 3.558736 0
M  V30 3 C 3.233871 -2.824382 3.766744 0
M  V30 4 C 3.871387 -1.032942 2.259611 0
M  V30 5 C 2.664125 -0.255612 1.849065 0 CFG=1
M  V30 6 C 2.939115 0.208324 0.406636 0
M  V30 7 C 2.233784 -0.709001 -0.549679 0
M  V30 8 C 0.733442 -0.486929 -0.452373 0 CFG=2
M  V30 9 N 0.298897 0.769242 -1.025895 0
M  V30 10 C -0.952033 1.330803 -1.395774 0
M  V30 11 C -1.005587 2.624979 -1.851011 0
M  V30 12 C 0.225661 3.359218 -1.896005 0
M  V30 13 N 0.265855 4.680569 -2.364304 0
M  V30 14 O 1.445529 3.525385 -1.739168 0
M  V30 15 C -2.144396 3.251195 -2.251659 0
M  V30 16 N -3.263951 2.520482 -2.181062 0
M  V30 17 C -3.284174 1.250783 -1.746800 0
M  V30 18 C -4.468311 0.547101 -1.708476 0
M  V30 19 C -4.455736 -0.762624 -1.268550 0
M  V30 20 C -3.300869 -1.390834 -0.866375 0
M  V30 21 C -3.324103 -2.774432 -0.418669 0
M  V30 22 C -2.206263 -3.462146 -0.018174 0
M  V30 23 C -2.180443 -4.770846 0.416994 0
M  V30 24 Cl -0.697744 -5.562818 0.908055 0
M  V30 25 C -3.371522 -5.465415 0.460348 0
M  V30 26 O -3.395635 -6.780336 0.889498 0
M  V30 27 C -4.526194 -4.810768 0.064821 0
M  V30 28 Cl -6.021558 -5.717244 0.131411 0
M  V30 29 C -4.486564 -3.502578 -0.359888 0
M  V30 30 N -2.202393 -0.625840 -0.938460 0
M  V30 31 C -2.133111 0.626158 -1.344951 0
M  V30 32 C 0.318512 -0.440645 1.010920 0
M  V30 33 C 1.405076 -1.079839 1.874932 0
M  V30 34 H 3.524433 -1.207236 5.563133 0
M  V30 35 H 5.004352 -0.448777 4.977296 0
M  V30 36 H 3.411962 0.253087 4.563988 0
M  V30 37 H 3.385342 -3.531444 2.928252 0
M  V30 38 H 3.768528 -3.315939 4.633287 0
M  V30 39 H 2.178077 -2.775030 4.093401 0
M  V30 40 H 4.749447 -0.365891 2.113520 0
M  V30 41 H 3.954012 -1.886746 1.537154 0
M  V30 42 H 2.487707 0.663413 2.430215 0
M  V30 43 H 4.024343 0.165155 0.165467 0
M  V30 44 H 2.592565 1.227712 0.247723 0
M  V30 45 H 2.404032 -1.763270 -0.251866 0
M  V30 46 H 2.563388 -0.511699 -1.573480 0
M  V30 47 H 0.246929 -1.356063 -0.925588 0
M  V30 48 H 1.152533 1.342691 -1.175557 0
M  V30 49 H 0.457471 5.374676 -3.140277 0
M  V30 50 H 0.303258 5.641904 -2.730241 0
M  V30 51 H -2.104304 4.274111 -2.598052 0
M  V30 52 H -5.374301 1.073298 -2.035670 0
M  V30 53 H -5.424808 -1.213767 -1.279463 0
M  V30 54 H -1.239496 -2.989031 -0.025796 0
M  V30 55 H -2.718177 -7.173001 1.526191 0
M  V30 56 H -5.428299 -3.107808 -0.637311 0
M  V30 57 H 0.081337 0.571723 1.335190 0
M  V30 58 H -0.582010 -1.054360 1.190864 0
M  V30 59 H 1.514947 -2.114706 1.545359 0
M  V30 60 H 0.978451 -1.078316 2.902210 0
M  V30 END ATOM
M  V30 BEGIN BOND
M  V30 1 1 1 2
M  V30 2 1 2 3
M  V30 3 1 2 4
M  V30 4 1 4 5
M  V30 5 1 5 6
M  V30 6 1 6 7
M  V30 7 1 7 8
M  V30 8 1 8 9
M  V30 9 1 9 10
M  V30 10 2 10 11
M  V30 11 1 11 12
M  V30 12 1 12 13
M  V30 13 2 12 14
M  V30 14 1 11 15
M  V30 15 2 15 16
M  V30 16 1 16 17
M  V30 17 2 17 18
M  V30 18 1 18 19
M  V30 19 2 19 20
M  V30 20 1 20 21
M  V30 21 2 21 22
M  V30 22 1 22 23
M  V30 23 1 23 24
M  V30 24 2 23 25
M  V30 25 1 25 26
M  V30 26 1 25 27
M  V30 27 1 27 28
M  V30 28 2 27 29
M  V30 29 1 20 30
M  V30 30 2 30 31
M  V30 31 1 8 32
M  V30 32 1 32 33
M  V30 33 1 33 5
M  V30 34 1 31 10
M  V30 35 1 31 17
M  V30 36 1 29 21
M  V30 37 1 1 34
M  V30 38 1 1 35
M  V30 39 1 1 36
M  V30 40 1 3 37
M  V30 41 1 3 38
M  V30 42 1 3 39
M  V30 43 1 4 40
M  V30 44 1 4 41
M  V30 45 1 5 42 CFG=1
M  V30 46 1 6 43
M  V30 47 1 6 44
M  V30 48 1 7 45
M  V30 49 1 7 46
M  V30 50 1 8 47 CFG=3
M  V30 51 1 9 48
M  V30 52 1 13 49
M  V30 53 1 13 50
M  V30 54 1 15 51
M  V30 55 1 18 52
M  V30 56 1 19 53
M  V30 57 1 22 54
M  V30 58 1 26 55
M  V30 59 1 29 56
M  V30 60 1 32 57
M  V30 61 1 32 58
M  V30 62 1 33 59
M  V30 63 1 33 60
M  V30 END BOND
M  V30 END CTAB
M  END
>  <Dataset>  (236) 
ChEMBL_Kinases

>  <Ligand_Instance>  (236) 
nan

>  <PDB_ID>  (236) 
nan

>  <Standardized_SMILES>  (236) 
CN(C)C[C@H]1CC[C@H](Nc2c(C(N)=O)cnc3ccc(-c4cc(Cl)c(O)c(Cl)c4)nc23)CC1

>  <Name>  (236) 
nan

>  <Pocket>  (236) 
nan

>  <ATP_Site>  (236) 
nan

>  <Peripheral>  (236) 
nan

>  <Num_H_Atoms_ProtBoundConf>  (236) 
nan

>  <Num_Resolved_Atoms>  (236) 
nan

>  <Num_Not_Resolved_Atoms>  (236) 
nan

$$$$
CHEMBL4554668
     RDKit          3D

  0  0  0  0  0  0  0  0  0  0999 V3000
M  V30 BEGIN CTAB
M  V30 COUNTS 62 65 0 0 0
M  V30 BEGIN ATOM
M  V30 1 C 4.207653 -1.340288 0.604112 0
M  V30 2 N 5.274523 -0.352282 0.723894 0
M  V30 3 N 6.536746 -0.732108 0.456729 0
M  V30 4 C 7.377103 0.276812 0.612153 0
M  V30 5 C 6.541028 1.298903 0.992635 0
M  V30 6 Cl 7.322595 2.824373 1.293238 0
M  V30 7 C 5.226409 0.940828 1.071786 0
M  V30 8 C 4.057187 1.701076 1.425688 0
M  V30 9 C 2.775953 1.203352 1.464212 0
M  V30 10 C 1.842089 2.150712 1.834979 0
M  V30 11 C 0.390640 2.131559 2.021002 0
M  V30 12 O -0.268631 3.138993 2.372117 0
M  V30 13 N -0.334591 0.928158 1.800595 0
M  V30 14 C -1.761124 0.697606 1.928067 0 CFG=2
M  V30 15 C -1.949038 -0.351016 3.033377 0
M  V30 16 N -1.087754 -1.439196 2.628434 0
M  V30 17 C -1.762176 -2.187135 1.588770 0 CFG=2
M  V30 18 C -0.692184 -2.831821 0.757325 0
M  V30 19 C -1.201801 -3.654555 -0.361239 0
M  V30 20 O -2.366101 -3.968368 -0.777552 0
M  V30 21 N -0.213021 -4.252645 -1.189170 0
M  V30 22 C -0.523197 -5.081706 -2.315493 0
M  V30 23 C -1.299460 -6.316407 -2.020284 0
M  V30 24 O -1.487226 -6.971013 -3.261439 0
M  V30 25 C -2.724289 -1.353651 0.799993 0
M  V30 26 C -2.322697 0.088528 0.686485 0 CFG=1
M  V30 27 C -3.438708 0.916001 0.160403 0
M  V30 28 C -4.603670 1.065348 0.921055 0
M  V30 29 C -5.659025 1.828088 0.461229 0
M  V30 30 C -5.615384 2.474648 -0.761409 0
M  V30 31 Cl -6.933581 3.447017 -1.371697 0
M  V30 32 C -4.465777 2.325017 -1.507928 0
M  V30 33 Cl -4.272475 3.084585 -3.070464 0
M  V30 34 C -3.395053 1.570053 -1.076076 0
M  V30 35 O 2.553035 3.252533 2.029634 0
M  V30 36 C 3.822077 2.995802 1.795377 0
M  V30 37 Cl 4.989327 4.265909 1.973935 0
M  V30 38 H 3.762636 -1.532968 1.590199 0
M  V30 39 H 4.631684 -2.319915 0.289069 0
M  V30 40 H 3.488898 -1.088224 -0.206072 0
M  V30 41 H 8.426992 0.152916 0.440655 0
M  V30 42 H 2.321090 0.256770 1.276592 0
M  V30 43 H 0.217946 0.086448 1.506916 0
M  V30 44 H -2.237541 1.650301 2.237185 0
M  V30 45 H -1.512670 0.073332 3.961533 0
M  V30 46 H -2.987760 -0.608002 3.189636 0
M  V30 47 H -0.921077 -2.041943 3.468360 0
M  V30 48 H -2.337815 -2.990304 2.089965 0
M  V30 49 H -0.032320 -3.448288 1.411079 0
M  V30 50 H 0.011516 -2.064296 0.324041 0
M  V30 51 H 0.815213 -4.097180 -0.989910 0
M  V30 52 H -1.149018 -4.468229 -3.014069 0
M  V30 53 H 0.381734 -5.346276 -2.899598 0
M  V30 54 H -0.746073 -7.054380 -1.405700 0
M  V30 55 H -2.323550 -6.107596 -1.666164 0
M  V30 56 H -2.303067 -6.607231 -3.730520 0
M  V30 57 H -2.752264 -1.753960 -0.234040 0
M  V30 58 H -3.762140 -1.451159 1.191219 0
M  V30 59 H -1.523716 0.136889 -0.111297 0
M  V30 60 H -4.735179 0.599469 1.890879 0
M  V30 61 H -6.589481 1.981975 1.005076 0
M  V30 62 H -2.484620 1.445903 -1.655800 0
M  V30 END ATOM
M  V30 BEGIN BOND
M  V30 1 1 1 2
M  V30 2 1 2 3
M  V30 3 2 3 4
M  V30 4 1 4 5
M  V30 5 1 5 6
M  V30 6 2 5 7
M  V30 7 1 7 8
M  V30 8 1 8 9
M  V30 9 2 9 10
M  V30 10 1 10 11
M  V30 11 2 11 12
M  V30 12 1 11 13
M  V30 13 1 13 14
M  V30 14 1 14 15
M  V30 15 1 15 16
M  V30 16 1 16 17
M  V30 17 1 17 18
M  V30 18 1 18 19
M  V30 19 2 19 20
M  V30 20 1 19 21
M  V30 21 1 21 22
M  V30 22 1 22 23
M  V30 23 1 23 24
M  V30 24 1 17 25
M  V30 25 1 25 26
M  V30 26 1 26 27
M  V30 27 2 27 28
M  V30 28 1 28 29
M  V30 29 2 29 30
M  V30 30 1 30 31
M  V30 31 1 30 32
M  V30 32 1 32 33
M  V30 33 2 32 34
M  V30 34 1 10 35
M  V30 35 1 35 36
M  V30 36 1 36 37
M  V30 37 1 7 2
M  V30 38 2 36 8
M  V30 39 1 26 14
M  V30 40 1 34 27
M  V30 41 1 1 38
M  V30 42 1 1 39
M  V30 43 1 1 40
M  V30 44 1 4 41
M  V30 45 1 9 42
M  V30 46 1 13 43
M  V30 47 1 14 44 CFG=1
M  V30 48 1 15 45
M  V30 49 1 15 46
M  V30 50 1 16 47
M  V30 51 1 17 48 CFG=1
M  V30 52 1 18 49
M  V30 53 1 18 50
M  V30 54 1 21 51
M  V30 55 1 22 52
M  V30 56 1 22 53
M  V30 57 1 23 54
M  V30 58 1 23 55
M  V30 59 1 24 56
M  V30 60 1 25 57
M  V30 61 1 25 58
M  V30 62 1 26 59 CFG=3
M  V30 63 1 28 60
M  V30 64 1 29 61
M  V30 65 1 34 62
M  V30 END BOND
M  V30 END CTAB
M  END
>  <Dataset>  (237) 
ChEMBL_Kinases

>  <Ligand_Instance>  (237) 
nan

>  <PDB_ID>  (237) 
nan

>  <Standardized_SMILES>  (237) 
Cn1ncc(Cl)c1-c1cc(C(=O)N[C@@H]2CN[C@H](CC(=O)NCCO)C[C@H]2c2ccc(Cl)c(Cl)c2)oc1Cl

>  <Name>  (237) 
nan

>  <Pocket>  (237) 
nan

>  <ATP_Site>  (237) 
nan

>  <Peripheral>  (237) 
nan

>  <Num_H_Atoms_ProtBoundConf>  (237) 
nan

>  <Num_Resolved_Atoms>  (237) 
nan

>  <Num_Not_Resolved_Atoms>  (237) 
nan

$$$$
CHEMBL4557048
     RDKit          3D

  0  0  0  0  0  0  0  0  0  0999 V3000
M  V30 BEGIN CTAB
M  V30 COUNTS 48 52 0 0 0
M  V30 BEGIN ATOM
M  V30 1 C 1.830222 -3.801817 -3.211578 0
M  V30 2 O 2.636350 -3.759347 -2.024631 0
M  V30 3 C 2.754927 -2.560806 -1.318469 0
M  V30 4 C 3.561338 -2.649592 -0.184514 0
M  V30 5 C 3.734179 -1.493218 0.583382 0
M  V30 6 C 3.120152 -0.317657 0.214218 0
M  V30 7 C 2.333410 -0.230956 -0.892947 0
M  V30 8 N 1.692225 0.988492 -1.278701 0
M  V30 9 C 1.770865 2.056893 -0.333801 0
M  V30 10 N 2.903733 2.768737 -0.315037 0
M  V30 11 C 3.174851 3.801455 0.485476 0
M  V30 12 N 2.199189 4.139209 1.347304 0
M  V30 13 C 1.076491 3.480354 1.371101 0
M  V30 14 S -0.417748 3.654720 2.361518 0
M  V30 15 C -1.336990 2.321112 1.641980 0
M  V30 16 C -0.452347 1.798916 0.669940 0
M  V30 17 C 0.772032 2.402222 0.546973 0
M  V30 18 C -1.113944 0.668337 -0.022022 0
M  V30 19 C -1.599044 -0.292185 1.048484 0
M  V30 20 N -2.583143 0.299046 1.878468 0
M  V30 21 S -2.672240 -0.392246 3.423069 0
M  V30 22 O -1.406790 -0.213336 4.218222 0
M  V30 23 O -3.779100 0.321948 4.192034 0
M  V30 24 C -3.102492 -2.045385 3.338261 0
M  V30 25 C -3.430688 -3.070416 2.509080 0
M  V30 26 C -3.723053 -4.320641 2.967273 0
M  V30 27 C -3.660922 -4.487290 4.404270 0
M  V30 28 S -3.181395 -2.810036 4.980725 0
M  V30 29 C -2.656205 1.725664 1.821110 0
M  V30 30 C 2.145481 -1.371672 -1.675288 0
M  V30 31 H 0.851287 -3.308548 -2.956359 0
M  V30 32 H 1.678200 -4.844119 -3.536630 0
M  V30 33 H 2.263939 -3.208249 -4.030261 0
M  V30 34 H 4.053518 -3.537216 0.136972 0
M  V30 35 H 4.357717 -1.499507 1.486771 0
M  V30 36 H 3.277605 0.566966 0.837606 0
M  V30 37 H 1.207851 1.053217 -2.197932 0
M  V30 38 H 4.108430 4.346042 0.461143 0
M  V30 39 H -0.515125 0.159086 -0.770058 0
M  V30 40 H -2.044955 1.035318 -0.518441 0
M  V30 41 H -0.773303 -0.688501 1.658725 0
M  V30 42 H -2.045870 -1.140757 0.493315 0
M  V30 43 H -3.431474 -2.764696 1.479029 0
M  V30 44 H -3.978735 -5.111893 2.278944 0
M  V30 45 H -3.907378 -5.541148 4.801621 0
M  V30 46 H -3.364798 1.963319 0.983435 0
M  V30 47 H -3.105797 2.123246 2.725666 0
M  V30 48 H 1.523569 -1.380277 -2.584719 0
M  V30 END ATOM
M  V30 BEGIN BOND
M  V30 1 1 1 2
M  V30 2 1 2 3
M  V30 3 2 3 4
M  V30 4 1 4 5
M  V30 5 2 5 6
M  V30 6 1 6 7
M  V30 7 1 7 8
M  V30 8 1 8 9
M  V30 9 2 9 10
M  V30 10 1 10 11
M  V30 11 2 11 12
M  V30 12 1 12 13
M  V30 13 1 13 14
M  V30 14 1 14 15
M  V30 15 2 15 16
M  V30 16 1 16 17
M  V30 17 1 16 18
M  V30 18 1 18 19
M  V30 19 1 19 20
M  V30 20 1 20 21
M  V30 21 2 21 22
M  V30 22 2 21 23
M  V30 23 1 21 24
M  V30 24 2 24 25
M  V30 25 1 25 26
M  V30 26 2 26 27
M  V30 27 1 27 28
M  V30 28 1 20 29
M  V30 29 2 7 30
M  V30 30 1 30 3
M  V30 31 1 17 9
M  V30 32 1 28 24
M  V30 33 2 17 13
M  V30 34 1 29 15
M  V30 35 1 1 31
M  V30 36 1 1 32
M  V30 37 1 1 33
M  V30 38 1 4 34
M  V30 39 1 5 35
M  V30 40 1 6 36
M  V30 41 1 8 37
M  V30 42 1 11 38
M  V30 43 1 18 39
M  V30 44 1 18 40
M  V30 45 1 19 41
M  V30 46 1 19 42
M  V30 47 1 25 43
M  V30 48 1 26 44
M  V30 49 1 27 45
M  V30 50 1 29 46
M  V30 51 1 29 47
M  V30 52 1 30 48
M  V30 END BOND
M  V30 END CTAB
M  END
>  <Dataset>  (238) 
ChEMBL_Kinases

>  <Ligand_Instance>  (238) 
nan

>  <PDB_ID>  (238) 
nan

>  <Standardized_SMILES>  (238) 
COc1cccc(Nc2ncnc3sc4c(c23)CCN(S(=O)(=O)c2cccs2)C4)c1

>  <Name>  (238) 
nan

>  <Pocket>  (238) 
nan

>  <ATP_Site>  (238) 
nan

>  <Peripheral>  (238) 
nan

>  <Num_H_Atoms_ProtBoundConf>  (238) 
nan

>  <Num_Resolved_Atoms>  (238) 
nan

>  <Num_Not_Resolved_Atoms>  (238) 
nan

$$$$
CHEMBL4557026
     RDKit          3D

  0  0  0  0  0  0  0  0  0  0999 V3000
M  V30 BEGIN CTAB
M  V30 COUNTS 39 41 0 0 0
M  V30 BEGIN ATOM
M  V30 1 C 0.608710 -4.628661 2.018139 0
M  V30 2 C -0.267836 -3.504334 1.572387 0 CFG=2
M  V30 3 N 0.249493 -2.189916 1.908896 0
M  V30 4 C 0.541816 -1.246392 0.917409 0
M  V30 5 O 0.335595 -1.595223 -0.246744 0
M  V30 6 N 1.039263 0.041968 1.096597 0
M  V30 7 C 1.358840 1.048968 0.158396 0
M  V30 8 C 1.253205 1.001095 -1.202488 0
M  V30 9 C 1.580192 2.012529 -2.051483 0
M  V30 10 N 1.547074 2.153819 -3.394455 0
M  V30 11 N 1.989572 3.376423 -3.686554 0
M  V30 12 C 2.319670 4.065571 -2.597614 0
M  V30 13 C 2.060868 3.199145 -1.539324 0
M  V30 14 C 2.168755 3.250800 -0.165638 0
M  V30 15 C 2.682914 4.508539 0.449489 0
M  V30 16 O 2.744749 4.434341 1.844576 0
M  V30 17 N 1.833352 2.225399 0.634517 0
M  V30 18 C -1.630186 -3.563285 2.214495 0
M  V30 19 C -2.722186 -4.058879 1.511278 0
M  V30 20 C -3.947264 -4.093022 2.139811 0
M  V30 21 C -4.109884 -3.654475 3.426744 0
M  V30 22 C -2.996617 -3.163943 4.103693 0
M  V30 23 N -1.795693 -3.133752 3.478650 0
M  V30 24 H 0.465817 -4.889357 3.083680 0
M  V30 25 H 1.674022 -4.320377 1.925711 0
M  V30 26 H 0.480263 -5.512617 1.362505 0
M  V30 27 H -0.368222 -3.584463 0.471351 0
M  V30 28 H 0.415860 -1.919629 2.914136 0
M  V30 29 H 1.172659 0.222500 2.114655 0
M  V30 30 H 0.889128 0.112802 -1.651725 0
M  V30 31 H 1.224651 1.412168 -4.056283 0
M  V30 32 H 2.701084 5.059288 -2.496912 0
M  V30 33 H 3.641165 4.810613 0.005412 0
M  V30 34 H 1.925774 5.314711 0.224633 0
M  V30 35 H 3.070582 3.548604 2.149597 0
M  V30 36 H -2.525083 -4.385255 0.508725 0
M  V30 37 H -4.790579 -4.484126 1.573990 0
M  V30 38 H -5.079124 -3.687813 3.906833 0
M  V30 39 H -3.155434 -2.824564 5.119027 0
M  V30 END ATOM
M  V30 BEGIN BOND
M  V30 1 1 1 2
M  V30 2 1 2 3
M  V30 3 1 3 4
M  V30 4 2 4 5
M  V30 5 1 4 6
M  V30 6 1 6 7
M  V30 7 2 7 8
M  V30 8 1 8 9
M  V30 9 1 9 10
M  V30 10 1 10 11
M  V30 11 2 11 12
M  V30 12 1 12 13
M  V30 13 1 13 14
M  V30 14 1 14 15
M  V30 15 1 15 16
M  V30 16 2 14 17
M  V30 17 1 2 18
M  V30 18 2 18 19
M  V30 19 1 19 20
M  V30 20 2 20 21
M  V30 21 1 21 22
M  V30 22 2 22 23
M  V30 23 1 17 7
M  V30 24 1 23 18
M  V30 25 2 13 9
M  V30 26 1 1 24
M  V30 27 1 1 25
M  V30 28 1 1 26
M  V30 29 1 2 27 CFG=3
M  V30 30 1 3 28
M  V30 31 1 6 29
M  V30 32 1 8 30
M  V30 33 1 10 31
M  V30 34 1 12 32
M  V30 35 1 15 33
M  V30 36 1 15 34
M  V30 37 1 16 35
M  V30 38 1 19 36
M  V30 39 1 20 37
M  V30 40 1 21 38
M  V30 41 1 22 39
M  V30 END BOND
M  V30 END CTAB
M  END
>  <Dataset>  (239) 
ChEMBL_Kinases

>  <Ligand_Instance>  (239) 
nan

>  <PDB_ID>  (239) 
nan

>  <Standardized_SMILES>  (239) 
C[C@H](NC(=O)Nc1cc2[nH]ncc2c(CO)n1)c1ccccn1

>  <Name>  (239) 
ERKi-NC

>  <Pocket>  (239) 
nan

>  <ATP_Site>  (239) 
nan

>  <Peripheral>  (239) 
nan

>  <Num_H_Atoms_ProtBoundConf>  (239) 
nan

>  <Num_Resolved_Atoms>  (239) 
nan

>  <Num_Not_Resolved_Atoms>  (239) 
nan

$$$$
CHEMBL4556909
     RDKit          3D

  0  0  0  0  0  0  0  0  0  0999 V3000
M  V30 BEGIN CTAB
M  V30 COUNTS 68 72 0 0 0
M  V30 BEGIN ATOM
M  V30 1 H 0.981211 -1.984719 4.874209 0 MASS=2
M  V30 2 C -0.033983 -2.346846 5.117531 0
M  V30 3 O -0.735839 -2.504592 3.907133 0
M  V30 4 C -0.219573 -2.232650 2.660996 0
M  V30 5 N 1.031802 -1.772608 2.361346 0
M  V30 6 C 1.392484 -1.552365 1.081703 0
M  V30 7 C 0.568060 -1.760740 -0.010381 0
M  V30 8 C 1.062500 -1.485758 -1.363025 0
M  V30 9 C 1.743085 -0.268738 -1.514123 0
M  V30 10 C 2.212718 0.007290 -2.781817 0
M  V30 11 N 2.930371 1.230423 -3.067070 0
M  V30 12 C 1.978581 2.243118 -3.457523 0
M  V30 13 O 0.811974 1.756584 -3.431795 0
M  V30 14 C 2.382142 3.592322 -3.811069 0
M  V30 15 C 3.664038 4.075810 -3.829033 0
M  V30 16 C 3.853600 5.409237 -4.197920 0
M  V30 17 C 2.768940 6.205351 -4.532470 0
M  V30 18 C 1.485228 5.716469 -4.513165 0
M  V30 19 C 0.353101 6.625203 -4.884596 0
M  V30 20 F 0.043279 6.525651 -6.213445 0
M  V30 21 F 0.658664 7.934888 -4.572927 0
M  V30 22 F -0.733171 6.296610 -4.072335 0
M  V30 23 C 1.295563 4.397661 -4.148539 0
M  V30 24 C 2.036986 -0.845527 -3.854101 0
M  V30 25 N 1.374980 -2.011982 -3.670834 0
M  V30 26 C 0.900385 -2.320244 -2.450293 0
M  V30 27 C 0.179147 -3.594714 -2.250246 0
M  V30 28 C -0.703745 -2.226362 0.266352 0
M  V30 29 C -1.055605 -2.446184 1.582805 0
M  V30 30 N -2.386287 -2.928101 1.781779 0
M  V30 31 C -2.682020 -4.210585 2.420629 0
M  V30 32 C -4.123562 -4.540088 2.074102 0
M  V30 33 O -4.335646 -4.398087 0.706019 0
M  V30 34 C -4.374460 -3.055703 0.353286 0
M  V30 35 C -3.611671 -2.218248 1.381617 0
M  V30 36 C 0.078820 -3.705510 5.774053 0
M  V30 37 C -1.150813 -3.821271 6.685724 0
M  V30 38 O -0.918997 -3.014564 7.772599 0
M  V30 39 C -0.651079 -1.710017 7.463485 0
M  V30 40 C -0.733748 -1.349408 6.010962 0
M  V30 41 H 2.410754 -1.188553 0.984936 0
M  V30 42 H 1.916182 0.447057 -0.714516 0
M  V30 43 H 3.966303 1.473844 -3.034765 0
M  V30 44 H 4.455122 3.386198 -3.553309 0
M  V30 45 H 4.897181 5.743551 -4.195641 0
M  V30 46 H 2.973417 7.240308 -4.813090 0
M  V30 47 H 0.260244 4.083038 -4.156308 0
M  V30 48 H 2.398118 -0.645236 -4.854515 0
M  V30 49 H 0.652205 -4.379931 -2.910355 0
M  V30 50 H 0.268595 -4.000116 -1.232922 0
M  V30 51 H -0.872420 -3.550448 -2.589146 0
M  V30 52 H -1.380591 -2.402225 -0.548720 0
M  V30 53 H -2.590659 -4.093370 3.517236 0
M  V30 54 H -2.046154 -5.031476 2.062911 0
M  V30 55 H -4.847454 -3.945626 2.683905 0
M  V30 56 H -4.345527 -5.600748 2.357509 0
M  V30 57 H -3.939405 -2.878659 -0.669404 0
M  V30 58 H -5.406880 -2.650805 0.307433 0
M  V30 59 H -4.292173 -2.037253 2.214399 0
M  V30 60 H -3.375271 -1.254378 0.906315 0
M  V30 61 H 0.152207 -4.529784 5.065531 0
M  V30 62 H 0.962934 -3.750339 6.450464 0
M  V30 63 H -2.057479 -3.460601 6.124274 0
M  V30 64 H -1.265429 -4.859433 7.034765 0
M  V30 65 H -1.393438 -1.068144 8.000553 0
M  V30 66 H 0.340514 -1.392593 7.897035 0
M  V30 67 H -0.219682 -0.373820 5.881156 0
M  V30 68 H -1.775896 -1.172326 5.669418 0
M  V30 END ATOM
M  V30 BEGIN BOND
M  V30 1 1 1 2
M  V30 2 1 2 3
M  V30 3 1 3 4
M  V30 4 2 4 5
M  V30 5 1 5 6
M  V30 6 2 6 7
M  V30 7 1 7 8
M  V30 8 2 8 9
M  V30 9 1 9 10
M  V30 10 1 10 11
M  V30 11 1 11 12
M  V30 12 2 12 13
M  V30 13 1 12 14
M  V30 14 2 14 15
M  V30 15 1 15 16
M  V30 16 2 16 17
M  V30 17 1 17 18
M  V30 18 1 18 19
M  V30 19 1 19 20
M  V30 20 1 19 21
M  V30 21 1 19 22
M  V30 22 2 18 23
M  V30 23 2 10 24
M  V30 24 1 24 25
M  V30 25 2 25 26
M  V30 26 1 26 27
M  V30 27 1 7 28
M  V30 28 2 28 29
M  V30 29 1 29 30
M  V30 30 1 30 31
M  V30 31 1 31 32
M  V30 32 1 32 33
M  V30 33 1 33 34
M  V30 34 1 34 35
M  V30 35 1 2 36
M  V30 36 1 36 37
M  V30 37 1 37 38
M  V30 38 1 38 39
M  V30 39 1 39 40
M  V30 40 1 40 2
M  V30 41 1 29 4
M  V30 42 1 35 30
M  V30 43 1 26 8
M  V30 44 1 23 14
M  V30 45 1 6 41
M  V30 46 1 9 42
M  V30 47 1 11 43
M  V30 48 1 15 44
M  V30 49 1 16 45
M  V30 50 1 17 46
M  V30 51 1 23 47
M  V30 52 1 24 48
M  V30 53 1 27 49
M  V30 54 1 27 50
M  V30 55 1 27 51
M  V30 56 1 28 52
M  V30 57 1 31 53
M  V30 58 1 31 54
M  V30 59 1 32 55
M  V30 60 1 32 56
M  V30 61 1 34 57
M  V30 62 1 34 58
M  V30 63 1 35 59
M  V30 64 1 35 60
M  V30 65 1 36 61
M  V30 66 1 36 62
M  V30 67 1 37 63
M  V30 68 1 37 64
M  V30 69 1 39 65
M  V30 70 1 39 66
M  V30 71 1 40 67
M  V30 72 1 40 68
M  V30 END BOND
M  V30 END CTAB
M  END
>  <Dataset>  (240) 
ChEMBL_Kinases

>  <Ligand_Instance>  (240) 
nan

>  <PDB_ID>  (240) 
nan

>  <Standardized_SMILES>  (240) 
[2H]C1(Oc2ncc(-c3cc(NC(=O)c4cccc(C(F)(F)F)c4)cnc3C)cc2N2CCOCC2)CCOCC1

>  <Name>  (240) 
nan

>  <Pocket>  (240) 
nan

>  <ATP_Site>  (240) 
nan

>  <Peripheral>  (240) 
nan

>  <Num_H_Atoms_ProtBoundConf>  (240) 
nan

>  <Num_Resolved_Atoms>  (240) 
nan

>  <Num_Not_Resolved_Atoms>  (240) 
nan

$$$$
CHEMBL4556844
     RDKit          3D

  0  0  0  0  0  0  0  0  0  0999 V3000
M  V30 BEGIN CTAB
M  V30 COUNTS 41 44 0 0 0
M  V30 BEGIN ATOM
M  V30 1 C 2.550179 -6.383963 3.387277 0
M  V30 2 C 2.012100 -5.081637 3.936011 0
M  V30 3 N 2.083905 -4.084749 2.860763 0
M  V30 4 C 3.384156 -3.863303 2.388216 0
M  V30 5 O 4.480116 -4.341398 2.698382 0
M  V30 6 C 3.567279 -2.877301 1.304020 0
M  V30 7 C 2.512618 -2.071444 0.636994 0
M  V30 8 C 2.964434 -1.232077 -0.339773 0
M  V30 9 C 2.002312 -0.398882 -1.052964 0
M  V30 10 C 1.985520 -0.230879 -2.422109 0
M  V30 11 N 0.940379 0.612596 -2.665996 0
M  V30 12 N 0.343940 0.949791 -1.530608 0
M  V30 13 C -0.703659 1.730541 -1.201176 0
M  V30 14 C -1.086533 1.880695 0.116316 0
M  V30 15 C -2.204959 2.703343 0.563214 0
M  V30 16 C -2.407585 3.411170 1.729407 0
M  V30 17 N -3.620286 3.996111 1.617674 0
M  V30 18 N -4.175215 3.685406 0.443336 0
M  V30 19 C -5.491086 4.156929 0.005665 0
M  V30 20 C -3.315818 2.879358 -0.237893 0
M  V30 21 C -0.420236 1.242141 1.163751 0
M  V30 22 N 0.638246 0.456877 0.798312 0
M  V30 23 C 0.973498 0.342693 -0.508264 0
M  V30 24 C 4.333242 -1.161836 -0.663717 0
M  V30 25 S 5.082669 -2.423027 0.544156 0
M  V30 26 H 1.810789 -7.217210 3.464000 0
M  V30 27 H 2.900413 -6.276542 2.321801 0
M  V30 28 H 3.427972 -6.729202 3.977325 0
M  V30 29 H 2.574509 -4.740579 4.818775 0
M  V30 30 H 0.972131 -5.274432 4.243127 0
M  V30 31 H 1.257904 -3.585447 2.479213 0
M  V30 32 H 1.507638 -2.223855 0.982163 0
M  V30 33 H 2.631886 -0.647170 -3.202453 0
M  V30 34 H -1.257846 2.248409 -1.954339 0
M  V30 35 H -1.690589 3.448563 2.539483 0
M  V30 36 H -5.571713 3.991071 -1.079968 0
M  V30 37 H -6.239475 3.505877 0.511363 0
M  V30 38 H -5.690954 5.191601 0.298494 0
M  V30 39 H -3.590274 2.520681 -1.216637 0
M  V30 40 H -0.693487 1.337946 2.205311 0
M  V30 41 H 4.774713 -0.542919 -1.403570 0
M  V30 END ATOM
M  V30 BEGIN BOND
M  V30 1 1 1 2
M  V30 2 1 2 3
M  V30 3 1 3 4
M  V30 4 2 4 5
M  V30 5 1 4 6
M  V30 6 2 6 7
M  V30 7 1 7 8
M  V30 8 1 8 9
M  V30 9 1 9 10
M  V30 10 2 10 11
M  V30 11 1 11 12
M  V30 12 1 12 13
M  V30 13 2 13 14
M  V30 14 1 14 15
M  V30 15 1 15 16
M  V30 16 2 16 17
M  V30 17 1 17 18
M  V30 18 1 18 19
M  V30 19 1 18 20
M  V30 20 1 14 21
M  V30 21 2 21 22
M  V30 22 1 22 23
M  V30 23 2 8 24
M  V30 24 1 24 25
M  V30 25 1 25 6
M  V30 26 2 23 9
M  V30 27 1 23 12
M  V30 28 2 20 15
M  V30 29 1 1 26
M  V30 30 1 1 27
M  V30 31 1 1 28
M  V30 32 1 2 29
M  V30 33 1 2 30
M  V30 34 1 3 31
M  V30 35 1 7 32
M  V30 36 1 10 33
M  V30 37 1 13 34
M  V30 38 1 16 35
M  V30 39 1 19 36
M  V30 40 1 19 37
M  V30 41 1 19 38
M  V30 42 1 20 39
M  V30 43 1 21 40
M  V30 44 1 24 41
M  V30 END BOND
M  V30 END CTAB
M  END
>  <Dataset>  (241) 
ChEMBL_Kinases

>  <Ligand_Instance>  (241) 
nan

>  <PDB_ID>  (241) 
nan

>  <Standardized_SMILES>  (241) 
CCNC(=O)c1cc(-c2cnn3cc(-c4cnn(C)c4)cnc23)cs1

>  <Name>  (241) 
nan

>  <Pocket>  (241) 
nan

>  <ATP_Site>  (241) 
nan

>  <Peripheral>  (241) 
nan

>  <Num_H_Atoms_ProtBoundConf>  (241) 
nan

>  <Num_Resolved_Atoms>  (241) 
nan

>  <Num_Not_Resolved_Atoms>  (241) 
nan

$$$$
CHEMBL4556827
     RDKit          3D

  0  0  0  0  0  0  0  0  0  0999 V3000
M  V30 BEGIN CTAB
M  V30 COUNTS 42 44 0 0 0
M  V30 BEGIN ATOM
M  V30 1 C 4.949366 -6.773546 2.944134 0
M  V30 2 C 4.179823 -6.350156 2.094285 0
M  V30 3 C 3.287397 -5.839295 1.076284 0
M  V30 4 O 2.595792 -6.700056 0.482283 0
M  V30 5 C 3.211241 -4.417651 0.775664 0
M  V30 6 C 4.027808 -3.550754 1.500148 0
M  V30 7 C 3.961266 -2.193649 1.219643 0
M  V30 8 C 3.086266 -1.774487 0.234201 0
M  V30 9 N 2.816551 -0.531834 -0.242276 0
M  V30 10 C 1.880177 -0.614033 -1.214509 0
M  V30 11 N 1.389001 0.551420 -1.911987 0
M  V30 12 C 0.247283 1.158230 -1.293603 0
M  V30 13 O -0.271240 0.698751 -0.229621 0
M  V30 14 N -0.325364 2.309337 -1.885569 0
M  V30 15 C -1.485594 3.053795 -1.393363 0
M  V30 16 C -1.985115 2.402175 -0.145832 0
M  V30 17 C -1.457074 2.835782 1.067329 0
M  V30 18 C -1.837296 2.312289 2.289723 0
M  V30 19 C -2.775085 1.326734 2.272893 0
M  V30 20 O -3.235649 0.724754 3.434924 0
M  V30 21 C -2.747703 1.109311 4.716220 0
M  V30 22 C -3.334129 0.856111 1.103167 0
M  V30 23 C -2.943543 1.389787 -0.112020 0
M  V30 24 N 1.549647 -1.924714 -1.358885 0
M  V30 25 C 2.281886 -2.639892 -0.477697 0
M  V30 26 C 2.354644 -3.986369 -0.192298 0
M  V30 27 H 5.606172 -7.146563 3.686220 0
M  V30 28 H 4.706093 -3.891024 2.266415 0
M  V30 29 H 4.549289 -1.436667 1.720762 0
M  V30 30 H 1.754717 1.005153 -2.800549 0
M  V30 31 H 0.047686 2.752043 -2.770484 0
M  V30 32 H -2.278110 3.068201 -2.176446 0
M  V30 33 H -1.195578 4.078847 -1.175376 0
M  V30 34 H -0.701455 3.632414 1.055740 0
M  V30 35 H -1.401923 2.677281 3.215514 0
M  V30 36 H -2.688885 2.236270 4.735550 0
M  V30 37 H -3.433979 0.825476 5.516719 0
M  V30 38 H -1.713058 0.741749 4.875344 0
M  V30 39 H -4.083130 0.077925 1.000808 0
M  V30 40 H -3.299350 1.113376 -1.085936 0
M  V30 41 H 0.849069 -2.263336 -2.043307 0
M  V30 42 H 1.726981 -4.695733 -0.742499 0
M  V30 END ATOM
M  V30 BEGIN BOND
M  V30 1 3 1 2
M  V30 2 1 2 3
M  V30 3 2 3 4
M  V30 4 1 3 5
M  V30 5 2 5 6
M  V30 6 1 6 7
M  V30 7 2 7 8
M  V30 8 1 8 9
M  V30 9 2 9 10
M  V30 10 1 10 11
M  V30 11 1 11 12
M  V30 12 2 12 13
M  V30 13 1 12 14
M  V30 14 1 14 15
M  V30 15 1 15 16
M  V30 16 2 16 17
M  V30 17 1 17 18
M  V30 18 2 18 19
M  V30 19 1 19 20
M  V30 20 1 20 21
M  V30 21 1 19 22
M  V30 22 2 22 23
M  V30 23 1 10 24
M  V30 24 1 24 25
M  V30 25 2 25 26
M  V30 26 1 26 5
M  V30 27 1 25 8
M  V30 28 1 23 16
M  V30 29 1 1 27
M  V30 30 1 6 28
M  V30 31 1 7 29
M  V30 32 1 11 30
M  V30 33 1 14 31
M  V30 34 1 15 32
M  V30 35 1 15 33
M  V30 36 1 17 34
M  V30 37 1 18 35
M  V30 38 1 21 36
M  V30 39 1 21 37
M  V30 40 1 21 38
M  V30 41 1 22 39
M  V30 42 1 23 40
M  V30 43 1 24 41
M  V30 44 1 26 42
M  V30 END BOND
M  V30 END CTAB
M  END
>  <Dataset>  (242) 
ChEMBL_Kinases

>  <Ligand_Instance>  (242) 
nan

>  <PDB_ID>  (242) 
nan

>  <Standardized_SMILES>  (242) 
C#CC(=O)c1ccc2nc(NC(=O)NCc3ccc(OC)cc3)[nH]c2c1

>  <Name>  (242) 
nan

>  <Pocket>  (242) 
nan

>  <ATP_Site>  (242) 
nan

>  <Peripheral>  (242) 
nan

>  <Num_H_Atoms_ProtBoundConf>  (242) 
nan

>  <Num_Resolved_Atoms>  (242) 
nan

>  <Num_Not_Resolved_Atoms>  (242) 
nan

$$$$
CHEMBL4556783
     RDKit          3D

  0  0  0  0  0  0  0  0  0  0999 V3000
M  V30 BEGIN CTAB
M  V30 COUNTS 21 22 0 0 0
M  V30 BEGIN ATOM
M  V30 1 C 0.079877 -1.734769 4.942060 0
M  V30 2 C 0.094737 -1.232458 3.543184 0
M  V30 3 O -0.777141 -1.508235 2.675524 0
M  V30 4 N 1.148040 -0.384307 3.128385 0
M  V30 5 C 0.943847 -0.024131 1.718491 0
M  V30 6 N 0.255540 -0.161705 0.805807 0
M  V30 7 C 0.390802 0.352506 -0.398764 0
M  V30 8 C -0.449203 0.173585 -1.481270 0
M  V30 9 C -0.162303 0.787224 -2.681112 0
M  V30 10 C 0.934605 1.597611 -2.905882 0
M  V30 11 Cl 1.347897 2.399524 -4.401199 0
M  V30 12 C 1.787152 1.790110 -1.838198 0
M  V30 13 C 1.481007 1.161621 -0.632625 0
M  V30 14 S 2.283182 1.122071 0.998853 0
M  V30 15 H 0.144096 -0.912338 5.684038 0
M  V30 16 H -0.859507 -2.282266 5.157645 0
M  V30 17 H 0.945829 -2.430733 5.052003 0
M  V30 18 H 1.927236 -0.068033 3.705462 0
M  V30 19 H -1.369455 -0.429676 -1.510375 0
M  V30 20 H -0.798699 0.672366 -3.560033 0
M  V30 21 H 2.700304 2.397199 -1.833438 0
M  V30 END ATOM
M  V30 BEGIN BOND
M  V30 1 1 1 2
M  V30 2 2 2 3
M  V30 3 1 2 4
M  V30 4 1 4 5
M  V30 5 2 5 6
M  V30 6 1 6 7
M  V30 7 2 7 8
M  V30 8 1 8 9
M  V30 9 2 9 10
M  V30 10 1 10 11
M  V30 11 1 10 12
M  V30 12 2 12 13
M  V30 13 1 13 14
M  V30 14 1 14 5
M  V30 15 1 13 7
M  V30 16 1 1 15
M  V30 17 1 1 16
M  V30 18 1 1 17
M  V30 19 1 4 18
M  V30 20 1 8 19
M  V30 21 1 9 20
M  V30 22 1 12 21
M  V30 END BOND
M  V30 END CTAB
M  END
>  <Dataset>  (243) 
ChEMBL_Kinases

>  <Ligand_Instance>  (243) 
nan

>  <PDB_ID>  (243) 
nan

>  <Standardized_SMILES>  (243) 
CC(=O)Nc1nc2ccc(Cl)cc2s1

>  <Name>  (243) 
nan

>  <Pocket>  (243) 
nan

>  <ATP_Site>  (243) 
nan

>  <Peripheral>  (243) 
nan

>  <Num_H_Atoms_ProtBoundConf>  (243) 
nan

>  <Num_Resolved_Atoms>  (243) 
nan

>  <Num_Not_Resolved_Atoms>  (243) 
nan

$$$$
CHEMBL4637496
     RDKit          3D

  0  0  0  0  0  0  0  0  0  0999 V3000
M  V30 BEGIN CTAB
M  V30 COUNTS 64 68 0 0 0
M  V30 BEGIN ATOM
M  V30 1 C 2.378563 2.656223 4.760008 0
M  V30 2 O 1.789732 2.292256 3.523258 0
M  V30 3 C 2.593606 1.914671 2.440389 0
M  V30 4 C 3.970625 1.890628 2.564581 0
M  V30 5 C 4.775262 1.521263 1.507232 0
M  V30 6 C 4.198051 1.162792 0.283849 0
M  V30 7 C 2.810311 1.213289 0.240992 0
M  V30 8 C 1.965030 1.573365 1.263913 0
M  V30 9 C 0.520816 1.562823 1.045451 0
M  V30 10 C -0.363676 2.542255 1.453241 0
M  V30 11 C -1.726198 2.478785 1.219126 0
M  V30 12 N -2.563598 3.570788 1.658299 0
M  V30 13 C -2.467150 4.806068 2.358689 0
M  V30 14 C -2.523608 4.766818 3.840979 0
M  V30 15 C -1.481057 3.980791 4.535972 0
M  V30 16 F -1.715380 4.095550 5.933389 0
M  V30 17 F -1.541869 2.612665 4.324904 0
M  V30 18 F -0.218135 4.464492 4.348725 0
M  V30 19 C -2.194568 1.374197 0.545655 0
M  V30 20 N -3.467205 1.074390 0.195556 0
M  V30 21 C -3.463429 -0.107882 -0.452858 0
M  V30 22 C -2.136716 -0.470948 -0.457977 0
M  V30 23 C -1.684235 -1.713464 -1.077914 0
M  V30 24 C -0.809582 -2.596195 -0.477509 0
M  V30 25 C -0.387355 -3.775244 -1.108369 0
M  V30 26 C -0.869176 -4.074574 -2.396849 0
M  V30 27 C -0.243939 -5.359695 -2.783721 0
M  V30 28 O 0.339596 -5.092957 -3.867913 0
M  V30 29 N -0.365858 -6.528689 -2.007272 0
M  V30 30 C 0.318902 -7.702830 -2.537820 0
M  V30 31 C 1.465848 -8.237481 -1.640247 0
M  V30 32 C 0.241915 -9.030704 -1.949917 0
M  V30 33 C -1.743133 -3.198340 -3.001252 0
M  V30 34 C -2.114633 -3.703941 -4.323022 0
M  V30 35 C -2.129477 -2.053519 -2.344391 0
M  V30 36 N -1.336297 0.448670 0.163585 0
M  V30 37 C -0.006012 0.477973 0.373459 0
M  V30 38 H 1.621218 2.743161 5.557471 0
M  V30 39 H 3.130404 1.894515 5.028990 0
M  V30 40 H 2.975186 3.611539 4.670520 0
M  V30 41 H 4.453997 2.163911 3.507437 0
M  V30 42 H 5.854586 1.510952 1.632845 0
M  V30 43 H 4.805605 0.871097 -0.555845 0
M  V30 44 H 2.373218 0.931663 -0.724366 0
M  V30 45 H 0.132159 3.361651 1.966261 0
M  V30 46 H -3.577651 3.398694 1.376936 0
M  V30 47 H -1.463340 5.260996 2.097457 0
M  V30 48 H -3.187585 5.532805 1.918475 0
M  V30 49 H -3.567375 4.484611 4.179149 0
M  V30 50 H -2.444544 5.837633 4.206234 0
M  V30 51 H -4.308277 -0.637940 -0.868373 0
M  V30 52 H -0.477947 -2.310666 0.524682 0
M  V30 53 H 0.299281 -4.328433 -0.474310 0
M  V30 54 H -0.920577 -6.491340 -1.126729 0
M  V30 55 H 0.690139 -7.584304 -3.568776 0
M  V30 56 H 1.582723 -7.728544 -0.658705 0
M  V30 57 H 2.415744 -8.511830 -2.099346 0
M  V30 58 H 0.324020 -9.917901 -2.620349 0
M  V30 59 H -0.373249 -9.270121 -1.057204 0
M  V30 60 H -2.857836 -3.026061 -4.790525 0
M  V30 61 H -1.269831 -3.778304 -5.027150 0
M  V30 62 H -2.663826 -4.684707 -4.232585 0
M  V30 63 H -2.814498 -1.449895 -2.921328 0
M  V30 64 H 0.662749 -0.302853 0.038629 0
M  V30 END ATOM
M  V30 BEGIN BOND
M  V30 1 1 1 2
M  V30 2 1 2 3
M  V30 3 2 3 4
M  V30 4 1 4 5
M  V30 5 2 5 6
M  V30 6 1 6 7
M  V30 7 2 7 8
M  V30 8 1 8 9
M  V30 9 1 9 10
M  V30 10 2 10 11
M  V30 11 1 11 12
M  V30 12 1 12 13
M  V30 13 1 13 14
M  V30 14 1 14 15
M  V30 15 1 15 16
M  V30 16 1 15 17
M  V30 17 1 15 18
M  V30 18 1 11 19
M  V30 19 2 19 20
M  V30 20 1 20 21
M  V30 21 2 21 22
M  V30 22 1 22 23
M  V30 23 2 23 24
M  V30 24 1 24 25
M  V30 25 2 25 26
M  V30 26 1 26 27
M  V30 27 2 27 28
M  V30 28 1 27 29
M  V30 29 1 29 30
M  V30 30 1 30 31
M  V30 31 1 31 32
M  V30 32 1 26 33
M  V30 33 1 33 34
M  V30 34 2 33 35
M  V30 35 1 22 36
M  V30 36 1 36 37
M  V30 37 1 8 3
M  V30 38 2 37 9
M  V30 39 1 36 19
M  V30 40 1 35 23
M  V30 41 1 32 30
M  V30 42 1 1 38
M  V30 43 1 1 39
M  V30 44 1 1 40
M  V30 45 1 4 41
M  V30 46 1 5 42
M  V30 47 1 6 43
M  V30 48 1 7 44
M  V30 49 1 10 45
M  V30 50 1 12 46
M  V30 51 1 13 47
M  V30 52 1 13 48
M  V30 53 1 14 49
M  V30 54 1 14 50
M  V30 55 1 21 51
M  V30 56 1 24 52
M  V30 57 1 25 53
M  V30 58 1 29 54
M  V30 59 1 30 55
M  V30 60 1 31 56
M  V30 61 1 31 57
M  V30 62 1 32 58
M  V30 63 1 32 59
M  V30 64 1 34 60
M  V30 65 1 34 61
M  V30 66 1 34 62
M  V30 67 1 35 63
M  V30 68 1 37 64
M  V30 END BOND
M  V30 END CTAB
M  END
>  <Dataset>  (244) 
ChEMBL_Kinases

>  <Ligand_Instance>  (244) 
nan

>  <PDB_ID>  (244) 
nan

>  <Standardized_SMILES>  (244) 
COc1ccccc1-c1cc(NCCC(F)(F)F)c2ncc(-c3ccc(C(=O)NC4CC4)c(C)c3)n2c1

>  <Name>  (244) 
nan

>  <Pocket>  (244) 
nan

>  <ATP_Site>  (244) 
nan

>  <Peripheral>  (244) 
nan

>  <Num_H_Atoms_ProtBoundConf>  (244) 
nan

>  <Num_Resolved_Atoms>  (244) 
nan

>  <Num_Not_Resolved_Atoms>  (244) 
nan

$$$$
CHEMBL4637601
     RDKit          3D

  0  0  0  0  0  0  0  0  0  0999 V3000
M  V30 BEGIN CTAB
M  V30 COUNTS 72 77 0 0 0
M  V30 BEGIN ATOM
M  V30 1 C 4.242418 -1.447127 1.144658 0
M  V30 2 N 3.793114 -1.339151 -0.226483 0
M  V30 3 C 4.253463 -2.528518 -0.893794 0
M  V30 4 C 4.293061 -0.149761 -0.883430 0 CFG=2
M  V30 5 C 3.883597 1.112731 -0.229330 0
M  V30 6 C 2.454851 1.436715 -0.183445 0
M  V30 7 C 1.578868 0.866614 -1.243986 0 CFG=1
M  V30 8 C 1.241065 1.901230 -2.304414 0
M  V30 9 C 2.193151 -0.326224 -1.955237 0 CFG=1
M  V30 10 C 1.316811 -0.615757 -3.134877 0
M  V30 11 C 0.025722 -1.153681 -2.605551 0
M  V30 12 C -0.641601 -0.285465 -1.585657 0 CFG=2
M  V30 13 C 0.344371 0.341253 -0.605536 0 CFG=2
M  V30 14 C -0.437339 1.263404 0.249182 0
M  V30 15 C -1.352592 0.415592 1.148894 0
M  V30 16 C -2.350739 -0.211779 0.236218 0 CFG=2
M  V30 17 C -3.275976 0.697243 -0.469954 0
M  V30 18 C -3.164747 -1.327751 0.838052 0
M  V30 19 C -3.654163 -1.276349 2.200088 0
M  V30 20 C -3.993891 -0.007480 2.700697 0
M  V30 21 C -4.436479 0.237814 3.976206 0
M  V30 22 C -4.582033 -0.787911 4.884305 0
M  V30 23 C -4.263087 -2.056534 4.453841 0
M  V30 24 C -4.349382 -3.126121 5.305068 0
M  V30 25 N -4.009870 -4.394020 4.930250 0
M  V30 26 C -3.566137 -4.598382 3.654399 0
M  V30 27 C -3.492604 -3.507870 2.828510 0
M  V30 28 C -3.828922 -2.225308 3.174200 0
M  V30 29 C -3.275221 -2.326407 -0.026063 0
M  V30 30 C -2.545269 -1.958741 -1.267508 0
M  V30 31 C -1.509910 -1.094318 -0.711538 0 CFG=1
M  V30 32 C 3.630984 -0.134509 -2.272413 0
M  V30 33 H 3.755457 -2.362554 1.554856 0
M  V30 34 H 5.319390 -1.563062 1.271294 0
M  V30 35 H 3.857165 -0.626246 1.783890 0
M  V30 36 H 3.857842 -2.693423 -1.895759 0
M  V30 37 H 5.365789 -2.660960 -0.806267 0
M  V30 38 H 3.849666 -3.382597 -0.273869 0
M  V30 39 H 5.379551 -0.146967 -1.048541 0
M  V30 40 H 4.461449 1.935044 -0.746687 0
M  V30 41 H 4.321147 1.104389 0.800064 0
M  V30 42 H 2.351058 2.558956 -0.257130 0
M  V30 43 H 2.068237 1.228615 0.842052 0
M  V30 44 H 1.174324 2.888361 -1.766418 0
M  V30 45 H 2.035813 1.994245 -3.075248 0
M  V30 46 H 0.274193 1.747821 -2.785294 0
M  V30 47 H 2.102105 -1.187568 -1.259933 0
M  V30 48 H 1.184554 0.241578 -3.824206 0
M  V30 49 H 1.787056 -1.419005 -3.738172 0
M  V30 50 H 0.170820 -2.194511 -2.244476 0
M  V30 51 H -0.680496 -1.230364 -3.466053 0
M  V30 52 H -1.193103 0.508815 -2.097434 0
M  V30 53 H 0.704829 -0.482385 0.080831 0
M  V30 54 H 0.162095 1.966614 0.851398 0
M  V30 55 H -1.097908 1.877162 -0.392055 0
M  V30 56 H -0.760882 -0.398116 1.604740 0
M  V30 57 H -1.764492 1.036342 1.922774 0
M  V30 58 H -4.323802 0.468788 -0.186268 0
M  V30 59 H -3.103003 1.734566 -0.107126 0
M  V30 60 H -3.141620 0.752305 -1.568786 0
M  V30 61 H -3.983584 0.933874 2.142986 0
M  V30 62 H -4.701920 1.206915 4.373957 0
M  V30 63 H -4.921689 -0.646691 5.879182 0
M  V30 64 H -4.705802 -2.932078 6.316233 0
M  V30 65 H -3.305161 -5.611134 3.391850 0
M  V30 66 H -3.100669 -3.763687 1.875324 0
M  V30 67 H -3.769344 -3.269641 -0.051025 0
M  V30 68 H -2.061472 -2.828281 -1.761927 0
M  V30 69 H -3.183780 -1.384889 -1.969516 0
M  V30 70 H -0.826881 -1.647687 0.006299 0
M  V30 71 H 3.983927 -0.934628 -2.919600 0
M  V30 72 H 3.819899 0.870519 -2.710659 0
M  V30 END ATOM
M  V30 BEGIN BOND
M  V30 1 1 1 2
M  V30 2 1 2 3
M  V30 3 1 2 4
M  V30 4 1 4 5
M  V30 5 1 5 6
M  V30 6 1 6 7
M  V30 7 1 7 8 CFG=3
M  V30 8 1 7 9
M  V30 9 1 9 10
M  V30 10 1 10 11
M  V30 11 1 11 12
M  V30 12 1 12 13
M  V30 13 1 13 14
M  V30 14 1 14 15
M  V30 15 1 15 16
M  V30 16 1 16 17 CFG=3
M  V30 17 1 16 18
M  V30 18 1 18 19
M  V30 19 2 19 20
M  V30 20 1 20 21
M  V30 21 2 21 22
M  V30 22 1 22 23
M  V30 23 2 23 24
M  V30 24 1 24 25
M  V30 25 2 25 26
M  V30 26 1 26 27
M  V30 27 2 27 28
M  V30 28 2 18 29
M  V30 29 1 29 30
M  V30 30 1 30 31
M  V30 31 1 9 32
M  V30 32 1 32 4
M  V30 33 1 13 7
M  V30 34 1 31 16
M  V30 35 1 31 12
M  V30 36 1 28 19
M  V30 37 1 28 23
M  V30 38 1 1 33
M  V30 39 1 1 34
M  V30 40 1 1 35
M  V30 41 1 3 36
M  V30 42 1 3 37
M  V30 43 1 3 38
M  V30 44 1 4 39 CFG=3
M  V30 45 1 5 40
M  V30 46 1 5 41
M  V30 47 1 6 42
M  V30 48 1 6 43
M  V30 49 1 8 44
M  V30 50 1 8 45
M  V30 51 1 8 46
M  V30 52 1 9 47 CFG=1
M  V30 53 1 10 48
M  V30 54 1 10 49
M  V30 55 1 11 50
M  V30 56 1 11 51
M  V30 57 1 12 52 CFG=3
M  V30 58 1 13 53 CFG=1
M  V30 59 1 14 54
M  V30 60 1 14 55
M  V30 61 1 15 56
M  V30 62 1 15 57
M  V30 63 1 17 58
M  V30 64 1 17 59
M  V30 65 1 17 60
M  V30 66 1 20 61
M  V30 67 1 21 62
M  V30 68 1 22 63
M  V30 69 1 24 64
M  V30 70 1 26 65
M  V30 71 1 27 66
M  V30 72 1 29 67
M  V30 73 1 30 68
M  V30 74 1 30 69
M  V30 75 1 31 70 CFG=1
M  V30 76 1 32 71
M  V30 77 1 32 72
M  V30 END BOND
M  V30 END CTAB
M  END
>  <Dataset>  (245) 
ChEMBL_Kinases

>  <Ligand_Instance>  (245) 
nan

>  <PDB_ID>  (245) 
nan

>  <Standardized_SMILES>  (245) 
CN(C)[C@@H]1CC[C@@]2(C)[C@@H](CC[C@@H]3[C@@H]2CC[C@]2(C)C(c4cccc5cnccc45)=CC[C@@H]32)C1

>  <Name>  (245) 
nan

>  <Pocket>  (245) 
nan

>  <ATP_Site>  (245) 
nan

>  <Peripheral>  (245) 
nan

>  <Num_H_Atoms_ProtBoundConf>  (245) 
nan

>  <Num_Resolved_Atoms>  (245) 
nan

>  <Num_Not_Resolved_Atoms>  (245) 
nan

$$$$
CHEMBL4556611
     RDKit          3D

  0  0  0  0  0  0  0  0  0  0999 V3000
M  V30 BEGIN CTAB
M  V30 COUNTS 48 50 0 0 0
M  V30 BEGIN ATOM
M  V30 1 C -0.111292 -4.054253 3.777844 0
M  V30 2 N 0.458372 -2.814022 3.321325 0
M  V30 3 C -0.325313 -1.662868 3.663146 0
M  V30 4 C 0.914517 -2.855028 1.965241 0
M  V30 5 C 1.481067 -1.495189 1.632195 0
M  V30 6 C 2.006872 -1.368608 0.235381 0
M  V30 7 C 3.125589 -2.348217 -0.045381 0
M  V30 8 C 2.660589 0.020604 0.174699 0
M  V30 9 N 1.003069 -1.488723 -0.796219 0
M  V30 10 C -0.044549 -0.527077 -0.829080 0
M  V30 11 N -0.124105 0.467915 0.043915 0
M  V30 12 C -1.071972 1.405267 0.072582 0
M  V30 13 C -1.044255 2.462916 1.102660 0
M  V30 14 C -2.034432 3.416755 1.108604 0
M  V30 15 C -1.957047 4.384014 2.097992 0
M  V30 16 N -0.967994 4.371732 2.985630 0
M  V30 17 C -0.016484 3.396398 2.924106 0
M  V30 18 N -0.027626 2.416247 1.982702 0
M  V30 19 N -2.072055 1.388595 -0.852652 0
M  V30 20 C -2.076842 0.409353 -1.787377 0
M  V30 21 C -3.056110 0.319022 -2.763610 0
M  V30 22 N -3.082767 -0.644891 -3.703596 0
M  V30 23 C -2.093257 -1.571645 -3.684312 0
M  V30 24 C -1.119977 -1.487012 -2.718938 0
M  V30 25 C -1.066831 -0.519497 -1.751451 0
M  V30 26 H -1.211296 -4.071631 3.751037 0
M  V30 27 H 0.234101 -4.834229 3.039627 0
M  V30 28 H 0.330623 -4.360014 4.751460 0
M  V30 29 H 0.368309 -0.825176 3.889805 0
M  V30 30 H -0.814802 -1.890435 4.652162 0
M  V30 31 H -1.034867 -1.338805 2.890367 0
M  V30 32 H 1.633750 -3.664742 1.847545 0
M  V30 33 H 0.054383 -3.096041 1.309919 0
M  V30 34 H 0.737703 -0.724034 1.886134 0
M  V30 35 H 2.359522 -1.278724 2.303851 0
M  V30 36 H 2.749394 -3.254577 -0.599931 0
M  V30 37 H 3.912339 -1.911146 -0.702737 0
M  V30 38 H 3.587195 -2.740361 0.891088 0
M  V30 39 H 3.658246 -0.100399 0.675673 0
M  V30 40 H 2.101480 0.700653 0.846608 0
M  V30 41 H 2.759278 0.369996 -0.858338 0
M  V30 42 H 1.093652 -2.276781 -1.469093 0
M  V30 43 H -2.816588 3.401339 0.382762 0
M  V30 44 H -2.743786 5.126294 2.087913 0
M  V30 45 H 0.743021 3.498945 3.712139 0
M  V30 46 H -3.809263 1.088751 -2.717155 0
M  V30 47 H -2.121331 -2.346586 -4.446058 0
M  V30 48 H -0.384205 -2.261296 -2.785460 0
M  V30 END ATOM
M  V30 BEGIN BOND
M  V30 1 1 1 2
M  V30 2 1 2 3
M  V30 3 1 2 4
M  V30 4 1 4 5
M  V30 5 1 5 6
M  V30 6 1 6 7
M  V30 7 1 6 8
M  V30 8 1 6 9
M  V30 9 1 9 10
M  V30 10 2 10 11
M  V30 11 1 11 12
M  V30 12 1 12 13
M  V30 13 2 13 14
M  V30 14 1 14 15
M  V30 15 2 15 16
M  V30 16 1 16 17
M  V30 17 2 17 18
M  V30 18 2 12 19
M  V30 19 1 19 20
M  V30 20 2 20 21
M  V30 21 1 21 22
M  V30 22 2 22 23
M  V30 23 1 23 24
M  V30 24 2 24 25
M  V30 25 1 25 10
M  V30 26 1 18 13
M  V30 27 1 25 20
M  V30 28 1 1 26
M  V30 29 1 1 27
M  V30 30 1 1 28
M  V30 31 1 3 29
M  V30 32 1 3 30
M  V30 33 1 3 31
M  V30 34 1 4 32
M  V30 35 1 4 33
M  V30 36 1 5 34
M  V30 37 1 5 35
M  V30 38 1 7 36
M  V30 39 1 7 37
M  V30 40 1 7 38
M  V30 41 1 8 39
M  V30 42 1 8 40
M  V30 43 1 8 41
M  V30 44 1 9 42
M  V30 45 1 14 43
M  V30 46 1 15 44
M  V30 47 1 17 45
M  V30 48 1 21 46
M  V30 49 1 23 47
M  V30 50 1 24 48
M  V30 END BOND
M  V30 END CTAB
M  END
>  <Dataset>  (246) 
ChEMBL_Kinases

>  <Ligand_Instance>  (246) 
nan

>  <PDB_ID>  (246) 
nan

>  <Standardized_SMILES>  (246) 
CN(C)CCC(C)(C)Nc1nc(-c2ccncn2)nc2cnccc12

>  <Name>  (246) 
nan

>  <Pocket>  (246) 
nan

>  <ATP_Site>  (246) 
nan

>  <Peripheral>  (246) 
nan

>  <Num_H_Atoms_ProtBoundConf>  (246) 
nan

>  <Num_Resolved_Atoms>  (246) 
nan

>  <Num_Not_Resolved_Atoms>  (246) 
nan

$$$$
CHEMBL4556528
     RDKit          3D

  0  0  0  0  0  0  0  0  0  0999 V3000
M  V30 BEGIN CTAB
M  V30 COUNTS 39 42 0 0 0
M  V30 BEGIN ATOM
M  V30 1 O -1.043125 -3.697025 3.741724 0
M  V30 2 C -0.124143 -4.153577 3.040328 0
M  V30 3 O -0.492490 -5.507332 2.892942 0
M  V30 4 C 1.085230 -3.524084 2.462199 0
M  V30 5 C 2.013691 -4.210484 1.696839 0
M  V30 6 C 3.065225 -3.464495 1.200627 0
M  V30 7 C 3.138363 -2.143408 1.476201 0
M  V30 8 N 4.170873 -1.278092 0.952062 0
M  V30 9 C 3.436574 -0.627940 -0.206341 0
M  V30 10 N 2.398177 -0.137539 -0.174146 0
M  V30 11 C 1.659414 0.429081 -1.096006 0
M  V30 12 C 0.340534 0.983019 -0.838112 0
M  V30 13 C -0.390747 1.578404 -1.848205 0
M  V30 14 C -1.649570 2.093071 -1.578483 0
M  V30 15 C -2.200098 2.020818 -0.297096 0
M  V30 16 C -3.456923 2.531210 -0.007588 0
M  V30 17 C -3.962341 2.438053 1.290559 0
M  V30 18 C -3.227925 1.840788 2.303467 0
M  V30 19 C -1.952220 1.315410 2.036799 0
M  V30 20 C -1.511070 1.439993 0.733902 0
M  V30 21 C -0.271718 0.951194 0.396852 0
M  V30 22 C 2.290128 0.420285 -2.356156 0
M  V30 23 S 3.921054 -0.439881 -2.021584 0
M  V30 24 C 2.200954 -1.456154 2.250788 0
M  V30 25 C 1.124987 -2.182625 2.767814 0
M  V30 26 H -1.364762 -5.709528 2.401151 0
M  V30 27 H 1.873112 -5.270421 1.527351 0
M  V30 28 H 3.808885 -3.927973 0.602913 0
M  V30 29 H 5.181168 -1.000876 1.121215 0
M  V30 30 H 0.018824 1.639301 -2.845083 0
M  V30 31 H -2.224608 2.558328 -2.351982 0
M  V30 32 H -4.051472 3.001059 -0.775778 0
M  V30 33 H -4.960706 2.845964 1.493686 0
M  V30 34 H -3.686433 1.798936 3.283819 0
M  V30 35 H -1.408487 0.863693 2.829245 0
M  V30 36 H 0.309998 0.472245 1.181743 0
M  V30 37 H 1.829058 0.879129 -3.369138 0
M  V30 38 H 2.281045 -0.381150 2.463718 0
M  V30 39 H 0.418509 -1.628200 3.363864 0
M  V30 END ATOM
M  V30 BEGIN BOND
M  V30 1 2 1 2
M  V30 2 1 2 3
M  V30 3 1 2 4
M  V30 4 2 4 5
M  V30 5 1 5 6
M  V30 6 2 6 7
M  V30 7 1 7 8
M  V30 8 1 8 9
M  V30 9 2 9 10
M  V30 10 1 10 11
M  V30 11 1 11 12
M  V30 12 2 12 13
M  V30 13 1 13 14
M  V30 14 2 14 15
M  V30 15 1 15 16
M  V30 16 2 16 17
M  V30 17 1 17 18
M  V30 18 2 18 19
M  V30 19 1 19 20
M  V30 20 2 20 21
M  V30 21 2 11 22
M  V30 22 1 22 23
M  V30 23 1 7 24
M  V30 24 2 24 25
M  V30 25 1 25 4
M  V30 26 1 23 9
M  V30 27 1 21 12
M  V30 28 1 20 15
M  V30 29 1 3 26
M  V30 30 1 5 27
M  V30 31 1 6 28
M  V30 32 1 8 29
M  V30 33 1 13 30
M  V30 34 1 14 31
M  V30 35 1 16 32
M  V30 36 1 17 33
M  V30 37 1 18 34
M  V30 38 1 19 35
M  V30 39 1 21 36
M  V30 40 1 22 37
M  V30 41 1 24 38
M  V30 42 1 25 39
M  V30 END BOND
M  V30 END CTAB
M  END
>  <Dataset>  (247) 
ChEMBL_Kinases

>  <Ligand_Instance>  (247) 
nan

>  <PDB_ID>  (247) 
nan

>  <Standardized_SMILES>  (247) 
O=C(O)c1ccc(Nc2nc(-c3ccc4ccccc4c3)cs2)cc1

>  <Name>  (247) 
nan

>  <Pocket>  (247) 
nan

>  <ATP_Site>  (247) 
nan

>  <Peripheral>  (247) 
nan

>  <Num_H_Atoms_ProtBoundConf>  (247) 
nan

>  <Num_Resolved_Atoms>  (247) 
nan

>  <Num_Not_Resolved_Atoms>  (247) 
nan

$$$$
CHEMBL4637746
     RDKit          3D

  0  0  0  0  0  0  0  0  0  0999 V3000
M  V30 BEGIN CTAB
M  V30 COUNTS 60 64 0 0 0
M  V30 BEGIN ATOM
M  V30 1 C 3.990487 -3.797036 1.705950 0
M  V30 2 N 2.993698 -3.419379 2.688604 0
M  V30 3 S 3.501695 -2.067887 3.628367 0
M  V30 4 O 2.374485 -1.807953 4.618842 0
M  V30 5 O 4.702488 -2.433716 4.451436 0
M  V30 6 C 3.757874 -0.652424 2.642071 0
M  V30 7 C 5.008370 -0.437790 2.100751 0
M  V30 8 C 5.306766 0.661885 1.301658 0
M  V30 9 C 4.318082 1.587077 1.030019 0
M  V30 10 C 3.077908 1.344454 1.585942 0
M  V30 11 N 2.054026 2.294123 1.306825 0
M  V30 12 C 0.695367 2.362647 1.728517 0
M  V30 13 C -0.177236 1.704285 0.908970 0
M  V30 14 C -1.533291 1.694465 1.206243 0
M  V30 15 O -2.646312 1.138886 0.602020 0
M  V30 16 C -2.683481 0.359797 -0.510995 0
M  V30 17 C -3.326980 0.641993 -1.705853 0
M  V30 18 N -3.156941 -0.359075 -2.604201 0
M  V30 19 C -3.737995 -0.303627 -3.943986 0
M  V30 20 C -5.019373 -1.022587 -4.103365 0
M  V30 21 C -4.976814 0.487826 -4.124237 0
M  V30 22 N -2.415293 -1.274710 -2.000146 0
M  V30 23 C -2.118267 -0.871120 -0.748035 0
M  V30 24 C -1.307216 -1.702771 0.174632 0
M  V30 25 C -2.297217 -2.634372 0.893504 0
M  V30 26 C -2.344148 -3.910502 0.058125 0
M  V30 27 O -1.177974 -4.606886 0.356388 0
M  V30 28 C -0.037946 -3.858074 0.121082 0
M  V30 29 C -0.323764 -2.564859 -0.594678 0
M  V30 30 C -1.948874 2.375676 2.357879 0
M  V30 31 C -1.027448 3.041086 3.176989 0
M  V30 32 N 0.270574 3.009285 2.828724 0
M  V30 33 C 2.740249 0.268548 2.382617 0
M  V30 34 H 5.012636 -3.720100 2.135104 0
M  V30 35 H 3.827000 -4.871784 1.480953 0
M  V30 36 H 3.878687 -3.253575 0.754400 0
M  V30 37 H 2.862991 -4.218895 3.333771 0
M  V30 38 H 5.829683 -1.122165 2.271589 0
M  V30 39 H 6.278195 0.850823 0.866619 0
M  V30 40 H 4.503584 2.455719 0.415041 0
M  V30 41 H 2.194482 3.134586 0.700103 0
M  V30 42 H -0.017051 1.140934 -0.000828 0
M  V30 43 H -3.889290 1.576949 -1.848231 0
M  V30 44 H -2.981393 -0.322111 -4.753213 0
M  V30 45 H -5.475886 -1.518793 -3.213589 0
M  V30 46 H -5.149603 -1.559743 -5.077814 0
M  V30 47 H -5.423543 1.010083 -3.251443 0
M  V30 48 H -5.137773 0.945476 -5.112869 0
M  V30 49 H -0.768409 -1.095651 0.925773 0
M  V30 50 H -3.307586 -2.203568 0.957095 0
M  V30 51 H -1.911172 -2.936147 1.888021 0
M  V30 52 H -2.383124 -3.703580 -1.012846 0
M  V30 53 H -3.194497 -4.561550 0.349002 0
M  V30 54 H 0.538003 -3.640993 1.056104 0
M  V30 55 H 0.617367 -4.446719 -0.548482 0
M  V30 56 H -0.662048 -2.718068 -1.618673 0
M  V30 57 H 0.649006 -1.991879 -0.577874 0
M  V30 58 H -2.962368 2.484464 2.760507 0
M  V30 59 H -1.278645 3.580466 4.070952 0
M  V30 60 H 1.771933 0.113591 2.795040 0
M  V30 END ATOM
M  V30 BEGIN BOND
M  V30 1 1 1 2
M  V30 2 1 2 3
M  V30 3 2 3 4
M  V30 4 2 3 5
M  V30 5 1 3 6
M  V30 6 2 6 7
M  V30 7 1 7 8
M  V30 8 2 8 9
M  V30 9 1 9 10
M  V30 10 1 10 11
M  V30 11 1 11 12
M  V30 12 2 12 13
M  V30 13 1 13 14
M  V30 14 1 14 15
M  V30 15 1 15 16
M  V30 16 2 16 17
M  V30 17 1 17 18
M  V30 18 1 18 19
M  V30 19 1 19 20
M  V30 20 1 20 21
M  V30 21 1 18 22
M  V30 22 2 22 23
M  V30 23 1 23 24
M  V30 24 1 24 25
M  V30 25 1 25 26
M  V30 26 1 26 27
M  V30 27 1 27 28
M  V30 28 1 28 29
M  V30 29 2 14 30
M  V30 30 1 30 31
M  V30 31 2 31 32
M  V30 32 2 10 33
M  V30 33 1 33 6
M  V30 34 1 32 12
M  V30 35 1 23 16
M  V30 36 1 29 24
M  V30 37 1 21 19
M  V30 38 1 1 34
M  V30 39 1 1 35
M  V30 40 1 1 36
M  V30 41 1 2 37
M  V30 42 1 7 38
M  V30 43 1 8 39
M  V30 44 1 9 40
M  V30 45 1 11 41
M  V30 46 1 13 42
M  V30 47 1 17 43
M  V30 48 1 19 44
M  V30 49 1 20 45
M  V30 50 1 20 46
M  V30 51 1 21 47
M  V30 52 1 21 48
M  V30 53 1 24 49
M  V30 54 1 25 50
M  V30 55 1 25 51
M  V30 56 1 26 52
M  V30 57 1 26 53
M  V30 58 1 28 54
M  V30 59 1 28 55
M  V30 60 1 29 56
M  V30 61 1 29 57
M  V30 62 1 30 58
M  V30 63 1 31 59
M  V30 64 1 33 60
M  V30 END BOND
M  V30 END CTAB
M  END
>  <Dataset>  (248) 
ChEMBL_Kinases

>  <Ligand_Instance>  (248) 
nan

>  <PDB_ID>  (248) 
nan

>  <Standardized_SMILES>  (248) 
CNS(=O)(=O)c1cccc(Nc2cc(Oc3cn(C4CC4)nc3C3CCOCC3)ccn2)c1

>  <Name>  (248) 
nan

>  <Pocket>  (248) 
nan

>  <ATP_Site>  (248) 
nan

>  <Peripheral>  (248) 
nan

>  <Num_H_Atoms_ProtBoundConf>  (248) 
nan

>  <Num_Resolved_Atoms>  (248) 
nan

>  <Num_Not_Resolved_Atoms>  (248) 
nan

$$$$
CHEMBL4638374
     RDKit          3D

  0  0  0  0  0  0  0  0  0  0999 V3000
M  V30 BEGIN CTAB
M  V30 COUNTS 54 57 0 0 0
M  V30 BEGIN ATOM
M  V30 1 O 1.581094 -1.432441 -1.096495 0
M  V30 2 C 2.613597 -2.325608 -0.812605 0
M  V30 3 C 3.167358 -2.129827 0.576760 0
M  V30 4 N 2.193014 -2.312699 1.610653 0
M  V30 5 C 1.016903 -1.512652 1.693985 0
M  V30 6 N 0.957848 -0.362800 2.383099 0
M  V30 7 C -0.169668 0.364303 2.438370 0
M  V30 8 N -0.233889 1.574565 3.163270 0
M  V30 9 C 0.897742 2.110383 3.888823 0
M  V30 10 C 2.077454 2.402274 2.975557 0
M  V30 11 C 1.666470 3.399802 1.954267 0
M  V30 12 C 1.837356 4.751189 2.271053 0
M  V30 13 C 1.513620 5.810276 1.446885 0
M  V30 14 C 0.979884 5.508128 0.214890 0
M  V30 15 C 0.798051 4.196225 -0.130047 0
M  V30 16 C 1.129819 3.162189 0.711336 0
M  V30 17 C -1.273974 -0.132928 1.746042 0
M  V30 18 C -2.543374 0.361356 1.608078 0
M  V30 19 N -3.214305 -0.496092 0.844668 0
M  V30 20 N -2.451424 -1.511841 0.483983 0
M  V30 21 C -2.849486 -2.606071 -0.330298 0
M  V30 22 C -2.095891 -3.613252 -0.688812 0
M  V30 23 C -2.489053 -4.742180 -1.522789 0
M  V30 24 C -1.606219 -5.761301 -1.843494 0
M  V30 25 C -1.946485 -6.825498 -2.619022 0
M  V30 26 C -3.218006 -6.948515 -3.138853 0
M  V30 27 C -4.132794 -5.961169 -2.848914 0
M  V30 28 C -3.737670 -4.902495 -2.057640 0
M  V30 29 C -1.241100 -1.306449 1.033183 0
M  V30 30 N -0.073732 -1.957885 1.038526 0
M  V30 31 H 1.918547 -0.529922 -0.833475 0
M  V30 32 H 2.297006 -3.353872 -1.015657 0
M  V30 33 H 3.433808 -2.083165 -1.519707 0
M  V30 34 H 3.960333 -2.888280 0.710771 0
M  V30 35 H 3.610894 -1.133686 0.645833 0
M  V30 36 H 2.245004 -3.029314 2.384243 0
M  V30 37 H -1.152482 2.098519 3.166389 0
M  V30 38 H 0.596591 3.028459 4.421066 0
M  V30 39 H 1.199284 1.391863 4.677427 0
M  V30 40 H 2.443668 1.492521 2.479227 0
M  V30 41 H 2.899602 2.824342 3.553927 0
M  V30 42 H 2.262376 5.013153 3.250755 0
M  V30 43 H 1.678590 6.822673 1.770785 0
M  V30 44 H 0.710529 6.303472 -0.465461 0
M  V30 45 H 0.378423 3.924308 -1.096526 0
M  V30 46 H 0.995653 2.122082 0.458823 0
M  V30 47 H -2.940088 1.289383 2.042418 0
M  V30 48 H -3.867997 -2.641933 -0.707997 0
M  V30 49 H -1.070870 -3.609584 -0.328709 0
M  V30 50 H -0.582459 -5.723217 -1.462573 0
M  V30 51 H -1.198174 -7.601081 -2.836387 0
M  V30 52 H -3.448718 -7.807804 -3.749681 0
M  V30 53 H -5.128270 -6.057230 -3.255749 0
M  V30 54 H -4.503434 -4.174127 -1.875502 0
M  V30 END ATOM
M  V30 BEGIN BOND
M  V30 1 1 1 2
M  V30 2 1 2 3
M  V30 3 1 3 4
M  V30 4 1 4 5
M  V30 5 2 5 6
M  V30 6 1 6 7
M  V30 7 1 7 8
M  V30 8 1 8 9
M  V30 9 1 9 10
M  V30 10 1 10 11
M  V30 11 2 11 12
M  V30 12 1 12 13
M  V30 13 2 13 14
M  V30 14 1 14 15
M  V30 15 2 15 16
M  V30 16 2 7 17
M  V30 17 1 17 18
M  V30 18 2 18 19
M  V30 19 1 19 20
M  V30 20 1 20 21
M  V30 21 2 21 22
M  V30 22 1 22 23
M  V30 23 2 23 24
M  V30 24 1 24 25
M  V30 25 2 25 26
M  V30 26 1 26 27
M  V30 27 2 27 28
M  V30 28 1 20 29
M  V30 29 2 29 30
M  V30 30 1 30 5
M  V30 31 1 16 11
M  V30 32 1 29 17
M  V30 33 1 28 23
M  V30 34 1 1 31
M  V30 35 1 2 32
M  V30 36 1 2 33
M  V30 37 1 3 34
M  V30 38 1 3 35
M  V30 39 1 4 36
M  V30 40 1 8 37
M  V30 41 1 9 38
M  V30 42 1 9 39
M  V30 43 1 10 40
M  V30 44 1 10 41
M  V30 45 1 12 42
M  V30 46 1 13 43
M  V30 47 1 14 44
M  V30 48 1 15 45
M  V30 49 1 16 46
M  V30 50 1 18 47
M  V30 51 1 21 48
M  V30 52 1 22 49
M  V30 53 1 24 50
M  V30 54 1 25 51
M  V30 55 1 26 52
M  V30 56 1 27 53
M  V30 57 1 28 54
M  V30 END BOND
M  V30 END CTAB
M  END
>  <Dataset>  (249) 
ChEMBL_Kinases

>  <Ligand_Instance>  (249) 
nan

>  <PDB_ID>  (249) 
nan

>  <Standardized_SMILES>  (249) 
OCCNc1nc(NCCc2ccccc2)c2cnn(/C=C/c3ccccc3)c2n1

>  <Name>  (249) 
nan

>  <Pocket>  (249) 
nan

>  <ATP_Site>  (249) 
nan

>  <Peripheral>  (249) 
nan

>  <Num_H_Atoms_ProtBoundConf>  (249) 
nan

>  <Num_Resolved_Atoms>  (249) 
nan

>  <Num_Not_Resolved_Atoms>  (249) 
nan

$$$$
CHEMBL4556378
     RDKit          3D

  0  0  0  0  0  0  0  0  0  0999 V3000
M  V30 BEGIN CTAB
M  V30 COUNTS 52 55 0 0 0
M  V30 BEGIN ATOM
M  V30 1 C 2.070742 -4.404536 5.733657 0
M  V30 2 N 1.494332 -3.071071 5.725337 0
M  V30 3 C 0.813038 -2.516453 6.887408 0
M  V30 4 C 1.560673 -2.202276 4.581813 0
M  V30 5 C 2.395894 -1.092122 4.601470 0
M  V30 6 C 2.489661 -0.245092 3.521416 0
M  V30 7 C 1.736017 -0.507428 2.395446 0
M  V30 8 C 1.748981 0.332642 1.188937 0
M  V30 9 C 2.491854 1.473373 1.039319 0
M  V30 10 C 2.436460 2.231297 -0.141431 0
M  V30 11 N 3.172364 3.350670 -0.260756 0
M  V30 12 C 3.135930 4.112159 -1.394813 0
M  V30 13 C 2.301946 3.649833 -2.381778 0
M  V30 14 N 1.557599 2.528744 -2.274610 0
M  V30 15 C 1.606087 1.789212 -1.149127 0
M  V30 16 C 0.858007 0.645283 -1.001244 0
M  V30 17 N -0.060195 0.199254 -2.016644 0
M  V30 18 C -0.777393 -1.015708 -1.769245 0
M  V30 19 C -2.013609 -1.181457 -2.636853 0 CFG=1
M  V30 20 C -2.632604 -2.496034 -2.251573 0
M  V30 21 N -4.026943 -2.473252 -1.980488 0
M  V30 22 C -4.843581 -1.644486 -2.798106 0
M  V30 23 C -4.268642 -0.259493 -3.030512 0
M  V30 24 C -3.012042 -0.084748 -2.217830 0
M  V30 25 F -2.482286 1.153900 -2.479387 0
M  V30 26 F -3.242349 -0.297279 -0.863595 0
M  V30 27 N 0.966881 -0.024935 0.155917 0
M  V30 28 C 0.908160 -1.623347 2.398560 0
M  V30 29 N 0.832583 -2.451212 3.487201 0
M  V30 30 H 1.606185 -4.995221 6.571904 0
M  V30 31 H 1.680237 -4.891787 4.792298 0
M  V30 32 H 3.158749 -4.435847 5.743981 0
M  V30 33 H 0.238400 -3.257914 7.459616 0
M  V30 34 H 0.092256 -1.743011 6.559156 0
M  V30 35 H 1.555707 -1.990736 7.546336 0
M  V30 36 H 2.994367 -0.862031 5.461434 0
M  V30 37 H 3.125318 0.621830 3.520147 0
M  V30 38 H 3.128407 1.786079 1.852293 0
M  V30 39 H 3.769314 4.984475 -1.351583 0
M  V30 40 H 2.293984 4.279110 -3.272005 0
M  V30 41 H -0.169169 0.765972 -2.888003 0
M  V30 42 H -0.072255 -1.858409 -2.051621 0
M  V30 43 H -1.023490 -1.103838 -0.707746 0
M  V30 44 H -1.754384 -1.102280 -3.706950 0
M  V30 45 H -2.350395 -3.254035 -3.038060 0
M  V30 46 H -2.141569 -2.917097 -1.320421 0
M  V30 47 H -4.316123 -2.619087 -1.009909 0
M  V30 48 H -5.157958 -2.134696 -3.734027 0
M  V30 49 H -5.798312 -1.479073 -2.213926 0
M  V30 50 H -4.991677 0.552421 -2.770663 0
M  V30 51 H -3.998848 -0.186957 -4.104993 0
M  V30 52 H 0.278031 -1.929853 1.577940 0
M  V30 END ATOM
M  V30 BEGIN BOND
M  V30 1 1 1 2
M  V30 2 1 2 3
M  V30 3 1 2 4
M  V30 4 2 4 5
M  V30 5 1 5 6
M  V30 6 2 6 7
M  V30 7 1 7 8
M  V30 8 2 8 9
M  V30 9 1 9 10
M  V30 10 2 10 11
M  V30 11 1 11 12
M  V30 12 2 12 13
M  V30 13 1 13 14
M  V30 14 2 14 15
M  V30 15 1 15 16
M  V30 16 1 16 17
M  V30 17 1 17 18
M  V30 18 1 18 19
M  V30 19 1 19 20
M  V30 20 1 20 21
M  V30 21 1 21 22
M  V30 22 1 22 23
M  V30 23 1 23 24
M  V30 24 1 24 25
M  V30 25 1 24 26
M  V30 26 2 16 27
M  V30 27 1 7 28
M  V30 28 2 28 29
M  V30 29 1 29 4
M  V30 30 1 27 8
M  V30 31 1 15 10
M  V30 32 1 24 19
M  V30 33 1 1 30
M  V30 34 1 1 31
M  V30 35 1 1 32
M  V30 36 1 3 33
M  V30 37 1 3 34
M  V30 38 1 3 35
M  V30 39 1 5 36
M  V30 40 1 6 37
M  V30 41 1 9 38
M  V30 42 1 12 39
M  V30 43 1 13 40
M  V30 44 1 17 41
M  V30 45 1 18 42
M  V30 46 1 18 43
M  V30 47 1 19 44 CFG=3
M  V30 48 1 20 45
M  V30 49 1 20 46
M  V30 50 1 21 47
M  V30 51 1 22 48
M  V30 52 1 22 49
M  V30 53 1 23 50
M  V30 54 1 23 51
M  V30 55 1 28 52
M  V30 END BOND
M  V30 END CTAB
M  END
>  <Dataset>  (250) 
ChEMBL_Kinases

>  <Ligand_Instance>  (250) 
nan

>  <PDB_ID>  (250) 
nan

>  <Standardized_SMILES>  (250) 
CN(C)c1ccc(-c2cc3nccnc3c(NC[C@H]3CNCCC3(F)F)n2)cn1

>  <Name>  (250) 
nan

>  <Pocket>  (250) 
nan

>  <ATP_Site>  (250) 
nan

>  <Peripheral>  (250) 
nan

>  <Num_H_Atoms_ProtBoundConf>  (250) 
nan

>  <Num_Resolved_Atoms>  (250) 
nan

>  <Num_Not_Resolved_Atoms>  (250) 
nan

$$$$
CHEMBL4637847
     RDKit          3D

  0  0  0  0  0  0  0  0  0  0999 V3000
M  V30 BEGIN CTAB
M  V30 COUNTS 46 49 0 0 0
M  V30 BEGIN ATOM
M  V30 1 C -1.028421 -6.660616 -2.352259 0
M  V30 2 O -1.175983 -6.027640 -1.094511 0
M  V30 3 C -0.247790 -5.132958 -0.593093 0
M  V30 4 C 0.891176 -4.817105 -1.326857 0
M  V30 5 C 1.793491 -3.905386 -0.767133 0
M  V30 6 C 1.576605 -3.322651 0.481456 0
M  V30 7 C 2.643949 -2.382103 0.909085 0
M  V30 8 N 2.356545 -1.016366 0.441807 0
M  V30 9 C 2.855174 -0.720564 -0.771592 0
M  V30 10 N 2.591154 0.527210 -1.197902 0
M  V30 11 C 1.875841 1.403122 -0.446728 0
M  V30 12 S 1.351088 3.100281 -0.698253 0
M  V30 13 C 0.502625 3.236330 0.879845 0
M  V30 14 C -0.166508 4.499693 1.244861 0
M  V30 15 C -0.138228 5.570480 0.375884 0
M  V30 16 C -0.805083 6.683018 0.850530 0
M  V30 17 N -1.426958 6.731420 2.044142 0
M  V30 18 C -1.426458 5.645242 2.867919 0
M  V30 19 N -2.100747 5.757979 4.116325 0
M  V30 20 C -0.785554 4.489390 2.477518 0
M  V30 21 C 0.672446 2.061433 1.437424 0
M  V30 22 C 1.379584 1.088081 0.776650 0
M  V30 23 C 1.644742 -0.193854 1.226724 0
M  V30 24 O 1.254940 -0.623169 2.326391 0
M  V30 25 C 0.432763 -3.668574 1.168830 0
M  V30 26 C -0.471778 -4.564305 0.639223 0
M  V30 27 O -1.603010 -4.901548 1.327490 0
M  V30 28 C -2.012828 -4.442726 2.578013 0
M  V30 29 H -1.737818 -7.483931 -2.469604 0
M  V30 30 H 0.029677 -6.964515 -2.477205 0
M  V30 31 H -1.257077 -5.895630 -3.121090 0
M  V30 32 H 1.095979 -5.236701 -2.280562 0
M  V30 33 H 2.683141 -3.678967 -1.375229 0
M  V30 34 H 2.579395 -2.363988 2.027179 0
M  V30 35 H 3.624506 -2.688062 0.545474 0
M  V30 36 H 3.427906 -1.366010 -1.415644 0
M  V30 37 H 0.359758 5.536302 -0.583345 0
M  V30 38 H -0.841628 7.585817 0.237482 0
M  V30 39 H -1.648923 5.645617 5.051560 0
M  V30 40 H -3.119727 5.964222 4.275604 0
M  V30 41 H -0.775985 3.618564 3.119783 0
M  V30 42 H 0.212888 1.973423 2.415258 0
M  V30 43 H 0.313746 -3.193524 2.123130 0
M  V30 44 H -1.571990 -3.467714 2.849026 0
M  V30 45 H -3.121115 -4.276211 2.638702 0
M  V30 46 H -1.797215 -5.169274 3.405596 0
M  V30 END ATOM
M  V30 BEGIN BOND
M  V30 1 1 1 2
M  V30 2 1 2 3
M  V30 3 2 3 4
M  V30 4 1 4 5
M  V30 5 2 5 6
M  V30 6 1 6 7
M  V30 7 1 7 8
M  V30 8 1 8 9
M  V30 9 2 9 10
M  V30 10 1 10 11
M  V30 11 1 11 12
M  V30 12 1 12 13
M  V30 13 1 13 14
M  V30 14 2 14 15
M  V30 15 1 15 16
M  V30 16 2 16 17
M  V30 17 1 17 18
M  V30 18 1 18 19
M  V30 19 2 18 20
M  V30 20 2 13 21
M  V30 21 1 21 22
M  V30 22 1 22 23
M  V30 23 2 23 24
M  V30 24 1 6 25
M  V30 25 2 25 26
M  V30 26 1 26 27
M  V30 27 1 27 28
M  V30 28 1 26 3
M  V30 29 1 23 8
M  V30 30 2 22 11
M  V30 31 1 20 14
M  V30 32 1 1 29
M  V30 33 1 1 30
M  V30 34 1 1 31
M  V30 35 1 4 32
M  V30 36 1 5 33
M  V30 37 1 7 34
M  V30 38 1 7 35
M  V30 39 1 9 36
M  V30 40 1 15 37
M  V30 41 1 16 38
M  V30 42 1 19 39
M  V30 43 1 19 40
M  V30 44 1 20 41
M  V30 45 1 21 42
M  V30 46 1 25 43
M  V30 47 1 28 44
M  V30 48 1 28 45
M  V30 49 1 28 46
M  V30 END BOND
M  V30 END CTAB
M  END
>  <Dataset>  (251) 
ChEMBL_Kinases

>  <Ligand_Instance>  (251) 
nan

>  <PDB_ID>  (251) 
nan

>  <Standardized_SMILES>  (251) 
COc1ccc(Cn2cnc3sc(-c4ccnc(N)c4)cc3c2=O)cc1OC

>  <Name>  (251) 
nan

>  <Pocket>  (251) 
nan

>  <ATP_Site>  (251) 
nan

>  <Peripheral>  (251) 
nan

>  <Num_H_Atoms_ProtBoundConf>  (251) 
nan

>  <Num_Resolved_Atoms>  (251) 
nan

>  <Num_Not_Resolved_Atoms>  (251) 
nan

$$$$
CHEMBL4637961
     RDKit          3D

  0  0  0  0  0  0  0  0  0  0999 V3000
M  V30 BEGIN CTAB
M  V30 COUNTS 29 31 0 0 0
M  V30 BEGIN ATOM
M  V30 1 N -0.894250 -3.414577 4.848342 0
M  V30 2 C -0.491188 -2.517014 3.820417 0
M  V30 3 C -1.443488 -1.894322 3.038756 0
M  V30 4 C -1.137058 -1.012751 2.024143 0
M  V30 5 C 0.180239 -0.713670 1.746635 0
M  V30 6 C 0.769353 0.155624 0.736957 0
M  V30 7 C 1.669198 1.108387 1.233702 0
M  V30 8 N 2.288370 2.010341 0.432995 0
M  V30 9 C 2.070048 2.036189 -0.880268 0
M  V30 10 C 1.202591 1.126520 -1.404175 0
M  V30 11 C 0.893587 1.045617 -2.764809 0
M  V30 12 C 0.011658 0.104722 -3.268603 0
M  V30 13 C -0.603838 -0.801762 -2.432138 0
M  V30 14 C -0.317806 -0.744007 -1.089620 0
M  V30 15 C 0.562445 0.204406 -0.626049 0
M  V30 16 C 1.145315 -1.346118 2.540847 0
M  V30 17 C 0.832141 -2.227334 3.555044 0
M  V30 18 H -1.145536 -4.384165 4.515849 0
M  V30 19 H -0.958676 -3.196270 5.871463 0
M  V30 20 H -2.494989 -2.060574 3.174834 0
M  V30 21 H -1.836161 -0.496185 1.395916 0
M  V30 22 H 1.959549 1.224496 2.281258 0
M  V30 23 H 2.554246 2.750338 -1.544877 0
M  V30 24 H 1.375807 1.760872 -3.445180 0
M  V30 25 H -0.175775 0.104595 -4.325850 0
M  V30 26 H -1.274822 -1.497137 -2.914889 0
M  V30 27 H -0.803693 -1.464187 -0.467885 0
M  V30 28 H 2.219637 -1.198690 2.428136 0
M  V30 29 H 1.565993 -2.715745 4.167740 0
M  V30 END ATOM
M  V30 BEGIN BOND
M  V30 1 1 1 2
M  V30 2 2 2 3
M  V30 3 1 3 4
M  V30 4 2 4 5
M  V30 5 1 5 6
M  V30 6 2 6 7
M  V30 7 1 7 8
M  V30 8 2 8 9
M  V30 9 1 9 10
M  V30 10 2 10 11
M  V30 11 1 11 12
M  V30 12 2 12 13
M  V30 13 1 13 14
M  V30 14 2 14 15
M  V30 15 1 5 16
M  V30 16 2 16 17
M  V30 17 1 17 2
M  V30 18 1 15 6
M  V30 19 1 15 10
M  V30 20 1 1 18
M  V30 21 1 1 19
M  V30 22 1 3 20
M  V30 23 1 4 21
M  V30 24 1 7 22
M  V30 25 1 9 23
M  V30 26 1 11 24
M  V30 27 1 12 25
M  V30 28 1 13 26
M  V30 29 1 14 27
M  V30 30 1 16 28
M  V30 31 1 17 29
M  V30 END BOND
M  V30 END CTAB
M  END
>  <Dataset>  (252) 
ChEMBL_Kinases

>  <Ligand_Instance>  (252) 
nan

>  <PDB_ID>  (252) 
nan

>  <Standardized_SMILES>  (252) 
Nc1ccc(-c2cncc3ccccc23)cc1

>  <Name>  (252) 
nan

>  <Pocket>  (252) 
nan

>  <ATP_Site>  (252) 
nan

>  <Peripheral>  (252) 
nan

>  <Num_H_Atoms_ProtBoundConf>  (252) 
nan

>  <Num_Resolved_Atoms>  (252) 
nan

>  <Num_Not_Resolved_Atoms>  (252) 
nan

$$$$
CHEMBL4638150
     RDKit          3D

  0  0  0  0  0  0  0  0  0  0999 V3000
M  V30 BEGIN CTAB
M  V30 COUNTS 68 73 0 0 0
M  V30 BEGIN ATOM
M  V30 1 O 5.765023 0.283737 3.491574 0
M  V30 2 C 5.764266 -0.935184 3.792060 0
M  V30 3 C 7.162886 -1.393941 3.996311 0
M  V30 4 C 7.835588 -0.600815 5.067435 0
M  V30 5 C 8.539874 0.568172 4.805065 0
M  V30 6 C 9.141181 1.240886 5.847815 0
M  V30 7 C 9.077580 0.805901 7.155467 0
M  V30 8 F 9.674998 1.472354 8.188774 0
M  V30 9 C 8.382426 -0.358278 7.457562 0
M  V30 10 C 7.780154 -1.023380 6.379373 0
M  V30 11 N 4.750095 -1.903347 3.965332 0
M  V30 12 C 3.302760 -1.855861 3.856671 0
M  V30 13 C 2.791921 -2.271721 2.627886 0
M  V30 14 C 1.416251 -2.205735 2.507728 0
M  V30 15 C 0.581223 -1.764681 3.509978 0
M  V30 16 C -0.867062 -1.723216 3.343838 0
M  V30 17 C -1.822098 -1.866945 4.337766 0
M  V30 18 C -3.177667 -1.820490 4.008274 0
M  V30 19 C -3.570227 -1.632933 2.699696 0
M  V30 20 N -4.789401 -1.560497 2.145502 0
M  V30 21 C -4.614091 -1.373102 0.803606 0
M  V30 22 N -5.677266 -1.242607 -0.125630 0
M  V30 23 C -5.552886 -1.146759 -1.533507 0
M  V30 24 C -4.364147 -1.225474 -2.224516 0
M  V30 25 C -4.242383 -1.144316 -3.593818 0
M  V30 26 C -5.373524 -0.971145 -4.372367 0
M  V30 27 C -5.210820 -0.894071 -5.811090 0
M  V30 28 O -5.729029 -1.610410 -6.715349 0
M  V30 29 N -4.367360 0.101858 -6.322491 0
M  V30 30 C -4.329848 0.020665 -7.778873 0
M  V30 31 C -3.648506 1.298870 -8.273973 0
M  V30 32 O -4.200115 2.423195 -7.695171 0
M  V30 33 C -4.120148 2.459697 -6.319772 0
M  V30 34 C -3.549026 1.157784 -5.764120 0
M  V30 35 C -6.600218 -0.885555 -3.707572 0
M  V30 36 C -6.656438 -0.973822 -2.337066 0
M  V30 37 N -3.286276 -1.343097 0.630188 0
M  V30 38 N -2.622312 -1.497839 1.761846 0
M  V30 39 C -1.312529 -1.537192 2.045616 0
M  V30 40 C 1.170177 -1.366890 4.706221 0
M  V30 41 C 2.550976 -1.399606 4.920199 0
M  V30 42 H 7.185613 -2.453669 4.314969 0
M  V30 43 H 7.743584 -1.338100 3.042438 0
M  V30 44 H 8.603897 0.931468 3.781193 0
M  V30 45 H 9.687475 2.150470 5.620267 0
M  V30 46 H 8.308197 -0.733368 8.467739 0
M  V30 47 H 7.248412 -1.936236 6.688900 0
M  V30 48 H 4.992867 -2.881245 4.227820 0
M  V30 49 H 3.426950 -2.619911 1.832434 0
M  V30 50 H 1.031409 -2.531233 1.550851 0
M  V30 51 H -1.428566 -2.011216 5.340732 0
M  V30 52 H -3.885944 -1.937610 4.820858 0
M  V30 53 H -6.662088 -1.211502 0.247072 0
M  V30 54 H -3.439097 -1.360461 -1.697716 0
M  V30 55 H -3.274214 -1.213151 -4.095890 0
M  V30 56 H -3.673410 -0.827231 -8.074828 0
M  V30 57 H -5.322549 -0.011787 -8.233706 0
M  V30 58 H -2.549200 1.234427 -8.142553 0
M  V30 59 H -3.816520 1.388741 -9.371585 0
M  V30 60 H -3.535456 3.293124 -5.926992 0
M  V30 61 H -5.176174 2.511952 -5.938526 0
M  V30 62 H -2.491421 1.023305 -6.063976 0
M  V30 63 H -3.581411 1.198613 -4.674480 0
M  V30 64 H -7.466693 -0.751137 -4.327288 0
M  V30 65 H -7.667489 -0.893370 -1.918912 0
M  V30 66 H -0.635067 -1.413003 1.187883 0
M  V30 67 H 0.573263 -1.003584 5.550193 0
M  V30 68 H 2.982410 -1.089360 5.851399 0
M  V30 END ATOM
M  V30 BEGIN BOND
M  V30 1 2 1 2
M  V30 2 1 2 3
M  V30 3 1 3 4
M  V30 4 2 4 5
M  V30 5 1 5 6
M  V30 6 2 6 7
M  V30 7 1 7 8
M  V30 8 1 7 9
M  V30 9 2 9 10
M  V30 10 1 2 11
M  V30 11 1 11 12
M  V30 12 2 12 13
M  V30 13 1 13 14
M  V30 14 2 14 15
M  V30 15 1 15 16
M  V30 16 1 16 17
M  V30 17 2 17 18
M  V30 18 1 18 19
M  V30 19 2 19 20
M  V30 20 1 20 21
M  V30 21 1 21 22
M  V30 22 1 22 23
M  V30 23 2 23 24
M  V30 24 1 24 25
M  V30 25 2 25 26
M  V30 26 1 26 27
M  V30 27 2 27 28
M  V30 28 1 27 29
M  V30 29 1 29 30
M  V30 30 1 30 31
M  V30 31 1 31 32
M  V30 32 1 32 33
M  V30 33 1 33 34
M  V30 34 1 26 35
M  V30 35 2 35 36
M  V30 36 2 21 37
M  V30 37 1 37 38
M  V30 38 1 38 39
M  V30 39 1 15 40
M  V30 40 2 40 41
M  V30 41 1 10 4
M  V30 42 1 41 12
M  V30 43 2 39 16
M  V30 44 1 38 19
M  V30 45 1 36 23
M  V30 46 1 34 29
M  V30 47 1 3 42
M  V30 48 1 3 43
M  V30 49 1 5 44
M  V30 50 1 6 45
M  V30 51 1 9 46
M  V30 52 1 10 47
M  V30 53 1 11 48
M  V30 54 1 13 49
M  V30 55 1 14 50
M  V30 56 1 17 51
M  V30 57 1 18 52
M  V30 58 1 22 53
M  V30 59 1 24 54
M  V30 60 1 25 55
M  V30 61 1 30 56
M  V30 62 1 30 57
M  V30 63 1 31 58
M  V30 64 1 31 59
M  V30 65 1 33 60
M  V30 66 1 33 61
M  V30 67 1 34 62
M  V30 68 1 34 63
M  V30 69 1 35 64
M  V30 70 1 36 65
M  V30 71 1 39 66
M  V30 72 1 40 67
M  V30 73 1 41 68
M  V30 END BOND
M  V30 END CTAB
M  END
>  <Dataset>  (253) 
ChEMBL_Kinases

>  <Ligand_Instance>  (253) 
nan

>  <PDB_ID>  (253) 
nan

>  <Standardized_SMILES>  (253) 
O=C(Cc1ccc(F)cc1)Nc1ccc(-c2ccc3nc(Nc4ccc(C(=O)N5CCOCC5)cc4)nn3c2)cc1

>  <Name>  (253) 
nan

>  <Pocket>  (253) 
nan

>  <ATP_Site>  (253) 
nan

>  <Peripheral>  (253) 
nan

>  <Num_H_Atoms_ProtBoundConf>  (253) 
nan

>  <Num_Resolved_Atoms>  (253) 
nan

>  <Num_Not_Resolved_Atoms>  (253) 
nan

$$$$
CHEMBL4556210
     RDKit          3D

  0  0  0  0  0  0  0  0  0  0999 V3000
M  V30 BEGIN CTAB
M  V30 COUNTS 59 61 0 0 0
M  V30 BEGIN ATOM
M  V30 1 C 5.649623 0.567117 4.597273 0
M  V30 2 C 4.692144 0.065400 3.539104 0
M  V30 3 C 5.239917 0.213381 2.151151 0
M  V30 4 C 5.554073 1.612737 1.756259 0
M  V30 5 C 4.351519 2.528384 1.789996 0 CFG=2
M  V30 6 N 3.306560 2.115021 0.914904 0
M  V30 7 C 1.970213 1.640675 1.037263 0
M  V30 8 O 1.576719 1.550388 2.202991 0
M  V30 9 C 1.252108 1.328829 -0.193616 0
M  V30 10 C 1.684668 1.433196 -1.499608 0
M  V30 11 C 0.845978 1.083502 -2.536658 0
M  V30 12 C -0.442922 0.620151 -2.331917 0
M  V30 13 C -1.304716 0.256744 -3.491421 0
M  V30 14 C -0.848903 0.526048 -1.011717 0
M  V30 15 N -2.201201 0.033767 -0.875654 0
M  V30 16 C -2.161338 -1.374981 -0.774114 0
M  V30 17 O -1.062261 -1.981170 -0.808913 0
M  V30 18 C -3.434364 -2.125313 -0.626041 0
M  V30 19 C -4.706941 -1.866225 -0.554873 0
M  V30 20 C -5.613708 -2.852738 -0.417148 0
M  V30 21 C -5.149887 -4.110998 -0.356598 0
M  V30 22 C -5.959389 -5.408577 -0.203554 0
M  V30 23 C -7.333367 -5.337395 -0.113971 0
M  V30 24 C -7.950043 -6.564667 0.020127 0
M  V30 25 C -7.257672 -7.756322 0.061262 0
M  V30 26 C -5.860667 -7.756670 -0.035110 0
M  V30 27 C -5.205147 -6.550868 -0.170394 0
M  V30 28 Cl -3.446037 -6.497713 -0.294585 0
M  V30 29 S -3.399300 -3.908036 -0.495978 0
M  V30 30 C -0.043192 0.864885 0.052191 0
M  V30 31 C 4.750771 3.954098 1.653049 0
M  V30 32 N 5.797480 4.383934 2.525927 0
M  V30 33 O 4.194023 4.727061 0.815629 0
M  V30 34 H 5.069165 1.220348 5.280868 0
M  V30 35 H 6.477732 1.182281 4.194046 0
M  V30 36 H 6.054776 -0.265394 5.238684 0
M  V30 37 H 4.549827 -1.022386 3.724551 0
M  V30 38 H 3.679358 0.524721 3.647393 0
M  V30 39 H 6.174845 -0.371726 2.092867 0
M  V30 40 H 4.472357 -0.171136 1.451762 0
M  V30 41 H 6.409683 2.068671 2.287394 0
M  V30 42 H 5.873119 1.573538 0.680988 0
M  V30 43 H 3.947354 2.433027 2.837475 0
M  V30 44 H 3.838862 2.267326 0.019036 0
M  V30 45 H 2.694512 1.798607 -1.595923 0
M  V30 46 H 1.253740 1.192079 -3.527112 0
M  V30 47 H -2.052321 -0.516813 -3.200716 0
M  V30 48 H -0.699433 -0.010467 -4.356401 0
M  V30 49 H -1.861226 1.199496 -3.754751 0
M  V30 50 H -3.133197 0.517412 -0.842714 0
M  V30 51 H -4.960748 -0.790479 -0.616484 0
M  V30 52 H -6.690835 -2.685544 -0.352560 0
M  V30 53 H -7.818101 -4.372518 -0.152272 0
M  V30 54 H -9.038825 -6.547420 0.093830 0
M  V30 55 H -7.734516 -8.703970 0.164849 0
M  V30 56 H -5.239928 -8.638364 -0.012021 0
M  V30 57 H -0.501539 0.735883 0.998647 0
M  V30 58 H 5.812943 4.801334 3.504557 0
M  V30 59 H 6.606524 4.152913 1.878300 0
M  V30 END ATOM
M  V30 BEGIN BOND
M  V30 1 1 1 2
M  V30 2 1 2 3
M  V30 3 1 3 4
M  V30 4 1 4 5
M  V30 5 1 5 6
M  V30 6 1 6 7
M  V30 7 2 7 8
M  V30 8 1 7 9
M  V30 9 2 9 10
M  V30 10 1 10 11
M  V30 11 2 11 12
M  V30 12 1 12 13
M  V30 13 1 12 14
M  V30 14 1 14 15
M  V30 15 1 15 16
M  V30 16 2 16 17
M  V30 17 1 16 18
M  V30 18 2 18 19
M  V30 19 1 19 20
M  V30 20 2 20 21
M  V30 21 1 21 22
M  V30 22 2 22 23
M  V30 23 1 23 24
M  V30 24 2 24 25
M  V30 25 1 25 26
M  V30 26 2 26 27
M  V30 27 1 27 28
M  V30 28 1 21 29
M  V30 29 2 14 30
M  V30 30 1 5 31
M  V30 31 1 31 32
M  V30 32 2 31 33
M  V30 33 1 30 9
M  V30 34 1 29 18
M  V30 35 1 27 22
M  V30 36 1 1 34
M  V30 37 1 1 35
M  V30 38 1 1 36
M  V30 39 1 2 37
M  V30 40 1 2 38
M  V30 41 1 3 39
M  V30 42 1 3 40
M  V30 43 1 4 41
M  V30 44 1 4 42
M  V30 45 1 5 43 CFG=1
M  V30 46 1 6 44
M  V30 47 1 10 45
M  V30 48 1 11 46
M  V30 49 1 13 47
M  V30 50 1 13 48
M  V30 51 1 13 49
M  V30 52 1 15 50
M  V30 53 1 19 51
M  V30 54 1 20 52
M  V30 55 1 23 53
M  V30 56 1 24 54
M  V30 57 1 25 55
M  V30 58 1 26 56
M  V30 59 1 30 57
M  V30 60 1 32 58
M  V30 61 1 32 59
M  V30 END BOND
M  V30 END CTAB
M  END
>  <Dataset>  (254) 
ChEMBL_Kinases

>  <Ligand_Instance>  (254) 
nan

>  <PDB_ID>  (254) 
nan

>  <Standardized_SMILES>  (254) 
CCCC[C@H](NC(=O)c1ccc(C)c(NC(=O)c2ccc(-c3ccccc3Cl)s2)c1)C(N)=O

>  <Name>  (254) 
nan

>  <Pocket>  (254) 
nan

>  <ATP_Site>  (254) 
nan

>  <Peripheral>  (254) 
nan

>  <Num_H_Atoms_ProtBoundConf>  (254) 
nan

>  <Num_Resolved_Atoms>  (254) 
nan

>  <Num_Not_Resolved_Atoms>  (254) 
nan

$$$$
CHEMBL4638152
     RDKit          3D

  0  0  0  0  0  0  0  0  0  0999 V3000
M  V30 BEGIN CTAB
M  V30 COUNTS 56 59 0 0 0
M  V30 BEGIN ATOM
M  V30 1 C 3.325983 -6.149884 -0.817505 0
M  V30 2 C 1.997801 -5.383782 -0.693797 0
M  V30 3 O 2.336702 -4.097067 -0.299405 0
M  V30 4 C 1.474287 -3.061078 -0.074514 0
M  V30 5 O 0.826405 -4.026512 -0.404955 0
M  V30 6 C 1.908015 -1.744180 0.338803 0
M  V30 7 C 3.273613 -1.635748 0.487522 0
M  V30 8 N 3.685478 -0.423013 0.873123 0
M  V30 9 C 2.899145 0.602939 1.101556 0
M  V30 10 C 3.440167 1.792394 1.490930 0
M  V30 11 C 2.690675 2.919218 1.750621 0
M  V30 12 C 1.340627 2.747895 1.584668 0
M  V30 13 C 0.443701 3.869259 1.830951 0
M  V30 14 C 0.852377 5.123750 2.226843 0
M  V30 15 C -0.022501 6.162046 2.452513 0
M  V30 16 Cl 0.586965 7.739932 2.958429 0
M  V30 17 C -1.375988 5.971267 2.283763 0
M  V30 18 O -2.297884 7.006657 2.504489 0
M  V30 19 C -1.881716 4.728095 1.882912 0
M  V30 20 Cl -3.577878 4.407211 1.647869 0
M  V30 21 C -0.929913 3.745351 1.679712 0
M  V30 22 N 0.810455 1.580891 1.202908 0
M  V30 23 C 1.544331 0.485549 0.950791 0
M  V30 24 C 0.974215 -0.729007 0.551156 0
M  V30 25 N -0.408431 -0.846297 0.394540 0
M  V30 26 C -1.573276 -1.583060 0.074645 0
M  V30 27 C -1.828098 -2.814301 0.903415 0
M  V30 28 C -2.519302 -3.907285 0.118311 0
M  V30 29 N -3.611781 -3.354966 -0.662972 0
M  V30 30 C -4.301009 -4.420194 -1.364807 0
M  V30 31 C -3.177132 -2.377333 -1.630292 0
M  V30 32 C -1.714928 -1.965126 -1.387545 0
M  V30 33 H 3.534098 -6.664344 0.138456 0
M  V30 34 H 4.171086 -5.444029 -0.990729 0
M  V30 35 H 3.328544 -6.834334 -1.687120 0
M  V30 36 H 1.541158 -5.456996 -1.708792 0
M  V30 37 H 1.320087 -5.944728 -0.005633 0
M  V30 38 H 3.964721 -2.444838 0.313551 0
M  V30 39 H 4.513265 1.850917 1.601180 0
M  V30 40 H 3.178191 3.815676 2.051245 0
M  V30 41 H 1.883906 5.325451 2.371097 0
M  V30 42 H -1.984512 7.805175 3.077145 0
M  V30 43 H -1.325639 2.784839 1.370025 0
M  V30 44 H -0.850059 0.097388 0.628674 0
M  V30 45 H -2.493887 -0.935419 0.259328 0
M  V30 46 H -2.571838 -2.530004 1.707589 0
M  V30 47 H -0.961660 -3.184169 1.452517 0
M  V30 48 H -2.988195 -4.581441 0.882431 0
M  V30 49 H -1.861659 -4.524222 -0.492695 0
M  V30 50 H -3.526550 -4.845296 -2.064853 0
M  V30 51 H -5.121688 -3.980418 -1.976963 0
M  V30 52 H -4.627728 -5.246769 -0.718139 0
M  V30 53 H -3.834701 -1.491098 -1.671664 0
M  V30 54 H -3.191466 -2.854244 -2.629199 0
M  V30 55 H -1.539496 -1.077030 -2.023465 0
M  V30 56 H -1.123576 -2.809553 -1.715819 0
M  V30 END ATOM
M  V30 BEGIN BOND
M  V30 1 1 1 2
M  V30 2 1 2 3
M  V30 3 1 3 4
M  V30 4 2 4 5
M  V30 5 1 4 6
M  V30 6 2 6 7
M  V30 7 1 7 8
M  V30 8 2 8 9
M  V30 9 1 9 10
M  V30 10 2 10 11
M  V30 11 1 11 12
M  V30 12 1 12 13
M  V30 13 2 13 14
M  V30 14 1 14 15
M  V30 15 1 15 16
M  V30 16 2 15 17
M  V30 17 1 17 18
M  V30 18 1 17 19
M  V30 19 1 19 20
M  V30 20 2 19 21
M  V30 21 2 12 22
M  V30 22 1 22 23
M  V30 23 2 23 24
M  V30 24 1 24 25
M  V30 25 1 25 26
M  V30 26 1 26 27
M  V30 27 1 27 28
M  V30 28 1 28 29
M  V30 29 1 29 30
M  V30 30 1 29 31
M  V30 31 1 31 32
M  V30 32 1 24 6
M  V30 33 1 32 26
M  V30 34 1 23 9
M  V30 35 1 21 13
M  V30 36 1 1 33
M  V30 37 1 1 34
M  V30 38 1 1 35
M  V30 39 1 2 36
M  V30 40 1 2 37
M  V30 41 1 7 38
M  V30 42 1 10 39
M  V30 43 1 11 40
M  V30 44 1 14 41
M  V30 45 1 18 42
M  V30 46 1 21 43
M  V30 47 1 25 44
M  V30 48 1 26 45
M  V30 49 1 27 46
M  V30 50 1 27 47
M  V30 51 1 28 48
M  V30 52 1 28 49
M  V30 53 1 30 50
M  V30 54 1 30 51
M  V30 55 1 30 52
M  V30 56 1 31 53
M  V30 57 1 31 54
M  V30 58 1 32 55
M  V30 59 1 32 56
M  V30 END BOND
M  V30 END CTAB
M  END
>  <Dataset>  (255) 
ChEMBL_Kinases

>  <Ligand_Instance>  (255) 
nan

>  <PDB_ID>  (255) 
nan

>  <Standardized_SMILES>  (255) 
CCOC(=O)c1cnc2ccc(-c3cc(Cl)c(O)c(Cl)c3)nc2c1NC1CCN(C)CC1

>  <Name>  (255) 
nan

>  <Pocket>  (255) 
nan

>  <ATP_Site>  (255) 
nan

>  <Peripheral>  (255) 
nan

>  <Num_H_Atoms_ProtBoundConf>  (255) 
nan

>  <Num_Resolved_Atoms>  (255) 
nan

>  <Num_Not_Resolved_Atoms>  (255) 
nan

$$$$
CHEMBL4556033
     RDKit          3D

  0  0  0  0  0  0  0  0  0  0999 V3000
M  V30 BEGIN CTAB
M  V30 COUNTS 45 48 0 0 0
M  V30 BEGIN ATOM
M  V30 1 C 5.160967 -4.149551 -0.665782 0
M  V30 2 C 4.687867 -2.961049 0.082491 0
M  V30 3 N 5.221280 -2.721762 1.294964 0
M  V30 4 C 4.831710 -1.649400 2.033113 0
M  V30 5 N 5.452085 -1.479401 3.302246 0
M  V30 6 N 3.883437 -0.807134 1.528042 0
M  V30 7 C 3.346771 -1.044273 0.312873 0
M  V30 8 C 3.727133 -2.134862 -0.464561 0
M  V30 9 C 3.016901 -2.108059 -1.629246 0
M  V30 10 C 2.201832 -0.987564 -1.547101 0
M  V30 11 N 2.411832 -0.350022 -0.362375 0
M  V30 12 C 1.711929 0.842006 0.007432 0
M  V30 13 C 2.295395 2.109378 -0.060213 0
M  V30 14 C 1.594849 3.248533 0.304194 0
M  V30 15 N 0.308879 3.142885 0.739328 0
M  V30 16 C -0.276794 1.933147 0.813872 0
M  V30 17 C -1.633818 1.749625 1.265389 0
M  V30 18 C -2.777057 1.580599 1.630072 0
M  V30 19 C -4.163276 1.352109 2.062167 0
M  V30 20 O -4.622354 2.519513 2.612593 0
M  V30 21 C -4.225111 0.162331 3.028508 0
M  V30 22 C -3.853503 -0.966930 2.071405 0
M  V30 23 N -4.525383 -0.539793 0.855505 0
M  V30 24 C -4.572717 -1.569918 -0.175915 0
M  V30 25 C -4.994957 0.820888 0.953218 0
M  V30 26 O -5.902883 1.057794 0.098646 0
M  V30 27 C 0.402511 0.799107 0.457382 0
M  V30 28 H 6.206359 -4.424301 -0.348837 0
M  V30 29 H 4.486496 -4.988267 -0.386244 0
M  V30 30 H 5.099000 -4.013368 -1.762492 0
M  V30 31 H 4.970769 -2.027104 4.027129 0
M  V30 32 H 6.203681 -0.818407 2.969024 0
M  V30 33 H 3.121042 -2.845850 -2.413903 0
M  V30 34 H 1.531330 -0.746517 -2.365765 0
M  V30 35 H 3.312770 2.165355 -0.407397 0
M  V30 36 H 2.104591 4.201166 0.228644 0
M  V30 37 H -5.553206 2.483494 2.932433 0
M  V30 38 H -3.439129 0.296650 3.799516 0
M  V30 39 H -5.239954 0.065130 3.404608 0
M  V30 40 H -2.766918 -0.944184 1.934091 0
M  V30 41 H -4.218249 -1.942834 2.449947 0
M  V30 42 H -4.960690 -2.536921 0.198142 0
M  V30 43 H -3.538433 -1.745236 -0.556693 0
M  V30 44 H -5.170420 -1.216094 -1.032411 0
M  V30 45 H -0.027729 -0.183915 0.502106 0
M  V30 END ATOM
M  V30 BEGIN BOND
M  V30 1 1 1 2
M  V30 2 2 2 3
M  V30 3 1 3 4
M  V30 4 1 4 5
M  V30 5 2 4 6
M  V30 6 1 6 7
M  V30 7 2 7 8
M  V30 8 1 8 9
M  V30 9 2 9 10
M  V30 10 1 10 11
M  V30 11 1 11 12
M  V30 12 2 12 13
M  V30 13 1 13 14
M  V30 14 2 14 15
M  V30 15 1 15 16
M  V30 16 1 16 17
M  V30 17 3 17 18
M  V30 18 1 18 19
M  V30 19 1 19 20
M  V30 20 1 19 21
M  V30 21 1 21 22
M  V30 22 1 22 23
M  V30 23 1 23 24
M  V30 24 1 23 25
M  V30 25 2 25 26
M  V30 26 2 16 27
M  V30 27 1 8 2
M  V30 28 1 27 12
M  V30 29 1 11 7
M  V30 30 1 25 19
M  V30 31 1 1 28
M  V30 32 1 1 29
M  V30 33 1 1 30
M  V30 34 1 5 31
M  V30 35 1 5 32
M  V30 36 1 9 33
M  V30 37 1 10 34
M  V30 38 1 13 35
M  V30 39 1 14 36
M  V30 40 1 20 37
M  V30 41 1 21 38
M  V30 42 1 21 39
M  V30 43 1 22 40
M  V30 44 1 22 41
M  V30 45 1 24 42
M  V30 46 1 24 43
M  V30 47 1 24 44
M  V30 48 1 27 45
M  V30 END BOND
M  V30 END CTAB
M  END
>  <Dataset>  (256) 
ChEMBL_Kinases

>  <Ligand_Instance>  (256) 
nan

>  <PDB_ID>  (256) 
nan

>  <Standardized_SMILES>  (256) 
Cc1nc(N)nc2c1ccn2-c1ccnc(C#CC2(O)CCN(C)C2=O)c1

>  <Name>  (256) 
nan

>  <Pocket>  (256) 
nan

>  <ATP_Site>  (256) 
nan

>  <Peripheral>  (256) 
nan

>  <Num_H_Atoms_ProtBoundConf>  (256) 
nan

>  <Num_Resolved_Atoms>  (256) 
nan

>  <Num_Not_Resolved_Atoms>  (256) 
nan

$$$$
CHEMBL4555743
     RDKit          3D

  0  0  0  0  0  0  0  0  0  0999 V3000
M  V30 BEGIN CTAB
M  V30 COUNTS 41 44 0 0 0
M  V30 BEGIN ATOM
M  V30 1 C 1.309224 -4.079467 2.656943 0
M  V30 2 C 1.542755 -4.207594 1.173670 0
M  V30 3 O 2.686039 -4.855095 0.823053 0
M  V30 4 C 1.631690 -2.867267 0.538345 0
M  V30 5 C 1.688294 -1.770087 0.033767 0
M  V30 6 C 1.735153 -0.454572 -0.555975 0
M  V30 7 C 2.232105 -0.297864 -1.835665 0
M  V30 8 C 2.265641 0.991547 -2.383173 0
M  V30 9 C 1.792126 2.014267 -1.586477 0
M  V30 10 F 1.828959 3.270750 -2.130227 0
M  V30 11 C 1.293914 1.868269 -0.307553 0
M  V30 12 N 0.823135 2.978527 0.450870 0
M  V30 13 C 1.191624 4.255463 0.521894 0
M  V30 14 C 0.412629 4.950814 1.423222 0
M  V30 15 C -0.486472 4.046503 1.934851 0
M  V30 16 C -1.495070 4.182539 2.865122 0
M  V30 17 N -2.234425 3.100660 3.181082 0
M  V30 18 C -1.987296 1.915595 2.596420 0
M  V30 19 N -2.670586 0.688282 2.817966 0
M  V30 20 N -1.003505 1.805916 1.696156 0
M  V30 21 C -0.208765 2.837131 1.315734 0
M  V30 22 C 1.264163 0.578190 0.230882 0
M  V30 23 C 0.285633 -4.905934 0.635974 0
M  V30 24 N -0.786863 -4.654572 0.203653 0
M  V30 25 C -1.678075 -5.539356 -0.188456 0
M  V30 26 C -1.322696 -6.887395 -0.083208 0
M  V30 27 S 0.422394 -6.727635 0.637323 0
M  V30 28 H 2.253947 -3.738193 3.142208 0
M  V30 29 H 0.932727 -5.022464 3.050176 0
M  V30 30 H 0.602809 -3.219089 2.776405 0
M  V30 31 H 3.201774 -5.121111 1.634511 0
M  V30 32 H 2.595169 -1.125543 -2.430836 0
M  V30 33 H 2.638180 1.199204 -3.375005 0
M  V30 34 H 1.999740 4.652141 -0.066841 0
M  V30 35 H 0.476324 6.004114 1.693374 0
M  V30 36 H -1.726243 5.116081 3.357832 0
M  V30 37 H -2.380670 -0.154077 3.368260 0
M  V30 38 H -3.576692 0.235672 2.556415 0
M  V30 39 H 0.882158 0.418802 1.228606 0
M  V30 40 H -2.585889 -5.019743 -0.545173 0
M  V30 41 H -2.292224 -7.559460 -0.501046 0
M  V30 END ATOM
M  V30 BEGIN BOND
M  V30 1 1 1 2
M  V30 2 1 2 3
M  V30 3 1 2 4
M  V30 4 3 4 5
M  V30 5 1 5 6
M  V30 6 2 6 7
M  V30 7 1 7 8
M  V30 8 2 8 9
M  V30 9 1 9 10
M  V30 10 1 9 11
M  V30 11 1 11 12
M  V30 12 1 12 13
M  V30 13 2 13 14
M  V30 14 1 14 15
M  V30 15 2 15 16
M  V30 16 1 16 17
M  V30 17 2 17 18
M  V30 18 1 18 19
M  V30 19 1 18 20
M  V30 20 2 20 21
M  V30 21 2 11 22
M  V30 22 1 2 23
M  V30 23 2 23 24
M  V30 24 1 24 25
M  V30 25 2 25 26
M  V30 26 1 26 27
M  V30 27 1 22 6
M  V30 28 1 27 23
M  V30 29 1 21 12
M  V30 30 1 21 15
M  V30 31 1 1 28
M  V30 32 1 1 29
M  V30 33 1 1 30
M  V30 34 1 3 31
M  V30 35 1 7 32
M  V30 36 1 8 33
M  V30 37 1 13 34
M  V30 38 1 14 35
M  V30 39 1 16 36
M  V30 40 1 19 37
M  V30 41 1 19 38
M  V30 42 1 22 39
M  V30 43 1 25 40
M  V30 44 1 26 41
M  V30 END BOND
M  V30 END CTAB
M  END
>  <Dataset>  (257) 
ChEMBL_Kinases

>  <Ligand_Instance>  (257) 
nan

>  <PDB_ID>  (257) 
nan

>  <Standardized_SMILES>  (257) 
CC(O)(C#Cc1ccc(F)c(-n2ccc3cnc(N)nc32)c1)c1nccs1

>  <Name>  (257) 
nan

>  <Pocket>  (257) 
nan

>  <ATP_Site>  (257) 
nan

>  <Peripheral>  (257) 
nan

>  <Num_H_Atoms_ProtBoundConf>  (257) 
nan

>  <Num_Resolved_Atoms>  (257) 
nan

>  <Num_Not_Resolved_Atoms>  (257) 
nan

$$$$
CHEMBL4555703
     RDKit          3D

  0  0  0  0  0  0  0  0  0  0999 V3000
M  V30 BEGIN CTAB
M  V30 COUNTS 38 42 0 0 0
M  V30 BEGIN ATOM
M  V30 1 O 0.968127 -3.568321 2.768290 0
M  V30 2 C 1.863318 -2.895845 2.178315 0
M  V30 3 N 3.201739 -3.007472 2.326055 0
M  V30 4 C 3.827819 -2.109410 1.519097 0
M  V30 5 C 5.160917 -1.816905 1.294084 0
M  V30 6 N 5.498280 -0.845853 0.410163 0
M  V30 7 C 4.514739 -0.175839 -0.240468 0
M  V30 8 C 3.161395 -0.441085 -0.041263 0
M  V30 9 C 2.809091 -1.431057 0.859600 0
M  V30 10 N 1.625002 -1.923210 1.273655 0
M  V30 11 C 0.351327 -1.501906 0.842581 0
M  V30 12 C -0.070073 -0.204118 1.037693 0
M  V30 13 C -1.292989 0.281482 0.647421 0
M  V30 14 C -1.831133 1.616843 0.802691 0
M  V30 15 C -3.098221 1.869234 0.325163 0
M  V30 16 C -3.694289 3.103203 0.425667 0
M  V30 17 C -3.051204 4.164422 1.014767 0
M  V30 18 F -3.681464 5.360975 1.089488 0
M  V30 19 C -1.786601 3.949524 1.502144 0
M  V30 20 C -1.223635 2.699789 1.382650 0
M  V30 21 F 0.016112 2.567160 1.883261 0
M  V30 22 N -2.067466 -0.635201 0.043332 0
M  V30 23 C -1.704084 -1.911972 -0.170883 0
M  V30 24 N -2.416284 -2.886744 -0.764828 0
M  V30 25 C -1.648538 -3.991804 -0.753121 0
M  V30 26 C -0.424120 -3.737955 -0.146602 0
M  V30 27 C -0.478893 -2.408083 0.217313 0
M  V30 28 H 3.710701 -3.668779 2.952765 0
M  V30 29 H 5.934414 -2.362702 1.823164 0
M  V30 30 H 4.781782 0.599377 -0.946196 0
M  V30 31 H 2.389599 0.106830 -0.572238 0
M  V30 32 H 0.606530 0.473690 1.529567 0
M  V30 33 H -3.704112 1.095794 -0.163854 0
M  V30 34 H -4.690269 3.269385 0.040918 0
M  V30 35 H -1.259974 4.767557 1.969689 0
M  V30 36 H -3.378426 -2.863860 -1.176600 0
M  V30 37 H -1.873619 -4.981540 -1.139575 0
M  V30 38 H 0.429222 -4.376738 0.038275 0
M  V30 END ATOM
M  V30 BEGIN BOND
M  V30 1 2 1 2
M  V30 2 1 2 3
M  V30 3 1 3 4
M  V30 4 2 4 5
M  V30 5 1 5 6
M  V30 6 2 6 7
M  V30 7 1 7 8
M  V30 8 2 8 9
M  V30 9 1 9 10
M  V30 10 1 10 11
M  V30 11 2 11 12
M  V30 12 1 12 13
M  V30 13 1 13 14
M  V30 14 2 14 15
M  V30 15 1 15 16
M  V30 16 2 16 17
M  V30 17 1 17 18
M  V30 18 1 17 19
M  V30 19 2 19 20
M  V30 20 1 20 21
M  V30 21 2 13 22
M  V30 22 1 22 23
M  V30 23 1 23 24
M  V30 24 1 24 25
M  V30 25 2 25 26
M  V30 26 1 26 27
M  V30 27 1 10 2
M  V30 28 1 27 11
M  V30 29 1 9 4
M  V30 30 1 20 14
M  V30 31 2 27 23
M  V30 32 1 3 28
M  V30 33 1 5 29
M  V30 34 1 7 30
M  V30 35 1 8 31
M  V30 36 1 12 32
M  V30 37 1 15 33
M  V30 38 1 16 34
M  V30 39 1 19 35
M  V30 40 1 24 36
M  V30 41 1 25 37
M  V30 42 1 26 38
M  V30 END BOND
M  V30 END CTAB
M  END
>  <Dataset>  (258) 
ChEMBL_Kinases

>  <Ligand_Instance>  (258) 
nan

>  <PDB_ID>  (258) 
nan

>  <Standardized_SMILES>  (258) 
O=c1[nH]c2cnccc2n1-c1cc(-c2ccc(F)cc2F)nc2[nH]ccc12

>  <Name>  (258) 
nan

>  <Pocket>  (258) 
nan

>  <ATP_Site>  (258) 
nan

>  <Peripheral>  (258) 
nan

>  <Num_H_Atoms_ProtBoundConf>  (258) 
nan

>  <Num_Resolved_Atoms>  (258) 
nan

>  <Num_Not_Resolved_Atoms>  (258) 
nan

$$$$
CHEMBL4638321
     RDKit          3D

  0  0  0  0  0  0  0  0  0  0999 V3000
M  V30 BEGIN CTAB
M  V30 COUNTS 45 48 0 0 0
M  V30 BEGIN ATOM
M  V30 1 O 2.011850 -0.850087 3.216457 0
M  V30 2 C 0.978627 -0.662024 2.511879 0
M  V30 3 N 0.943071 -1.682043 1.553574 0
M  V30 4 C 1.907322 -2.746275 1.399161 0
M  V30 5 C 3.291333 -2.228897 1.103438 0
M  V30 6 C 3.253763 -1.424414 -0.192693 0
M  V30 7 C 4.536103 -1.630688 -0.966597 0
M  V30 8 O 5.642353 -1.661359 -0.127328 0
M  V30 9 C 5.648085 -2.766433 0.689572 0
M  V30 10 C 4.267037 -3.367283 0.864078 0
M  V30 11 C 0.123794 0.453447 2.802779 0
M  V30 12 N 0.506545 1.222100 3.847435 0
M  V30 13 N -0.379862 2.215675 3.998204 0
M  V30 14 C -1.368479 2.164515 3.092025 0
M  V30 15 C -2.499088 2.880018 2.772201 0
M  V30 16 C -3.266005 2.439517 1.696985 0
M  V30 17 C -2.912746 1.308973 0.956109 0
M  V30 18 C -3.745210 0.883328 -0.162712 0
M  V30 19 C -3.073412 0.253129 -1.215397 0
M  V30 20 C -3.757783 -0.188814 -2.320441 0
M  V30 21 C -5.120518 -0.016396 -2.406537 0
M  V30 22 N -5.739687 0.587126 -1.390697 0
M  V30 23 C -5.110492 1.035142 -0.291117 0
M  V30 24 C -1.790299 0.627259 1.300164 0
M  V30 25 C -1.026321 1.052010 2.358337 0
M  V30 26 H 0.140535 -1.657265 0.899273 0
M  V30 27 H 1.576650 -3.489428 0.662192 0
M  V30 28 H 1.979961 -3.228252 2.408826 0
M  V30 29 H 3.733756 -1.599798 1.868763 0
M  V30 30 H 3.123358 -0.352525 0.076491 0
M  V30 31 H 2.397133 -1.789421 -0.769208 0
M  V30 32 H 4.482296 -2.511978 -1.638990 0
M  V30 33 H 4.674830 -0.734198 -1.620820 0
M  V30 34 H 6.076183 -2.469365 1.667066 0
M  V30 35 H 6.350188 -3.534341 0.263835 0
M  V30 36 H 3.998274 -3.870922 -0.066590 0
M  V30 37 H 4.258297 -4.085828 1.704444 0
M  V30 38 H -0.307174 2.952960 4.744716 0
M  V30 39 H -2.733136 3.741434 3.367119 0
M  V30 40 H -4.144925 3.026942 1.477776 0
M  V30 41 H -2.015012 0.069760 -1.247792 0
M  V30 42 H -3.279743 -0.680536 -3.156509 0
M  V30 43 H -5.670898 -0.359442 -3.270150 0
M  V30 44 H -5.582941 1.522193 0.537360 0
M  V30 45 H -1.548778 -0.220521 0.723464 0
M  V30 END ATOM
M  V30 BEGIN BOND
M  V30 1 2 1 2
M  V30 2 1 2 3
M  V30 3 1 3 4
M  V30 4 1 4 5
M  V30 5 1 5 6
M  V30 6 1 6 7
M  V30 7 1 7 8
M  V30 8 1 8 9
M  V30 9 1 9 10
M  V30 10 1 2 11
M  V30 11 2 11 12
M  V30 12 1 12 13
M  V30 13 1 13 14
M  V30 14 2 14 15
M  V30 15 1 15 16
M  V30 16 2 16 17
M  V30 17 1 17 18
M  V30 18 2 18 19
M  V30 19 1 19 20
M  V30 20 2 20 21
M  V30 21 1 21 22
M  V30 22 2 22 23
M  V30 23 1 17 24
M  V30 24 2 24 25
M  V30 25 1 10 5
M  V30 26 1 25 11
M  V30 27 1 25 14
M  V30 28 1 23 18
M  V30 29 1 3 26
M  V30 30 1 4 27
M  V30 31 1 4 28
M  V30 32 1 5 29
M  V30 33 1 6 30
M  V30 34 1 6 31
M  V30 35 1 7 32
M  V30 36 1 7 33
M  V30 37 1 9 34
M  V30 38 1 9 35
M  V30 39 1 10 36
M  V30 40 1 10 37
M  V30 41 1 13 38
M  V30 42 1 15 39
M  V30 43 1 16 40
M  V30 44 1 19 41
M  V30 45 1 20 42
M  V30 46 1 21 43
M  V30 47 1 23 44
M  V30 48 1 24 45
M  V30 END BOND
M  V30 END CTAB
M  END
>  <Dataset>  (259) 
ChEMBL_Kinases

>  <Ligand_Instance>  (259) 
nan

>  <PDB_ID>  (259) 
nan

>  <Standardized_SMILES>  (259) 
O=C(NCC1CCOCC1)c1n[nH]c2ccc(-c3cccnc3)cc12

>  <Name>  (259) 
nan

>  <Pocket>  (259) 
nan

>  <ATP_Site>  (259) 
nan

>  <Peripheral>  (259) 
nan

>  <Num_H_Atoms_ProtBoundConf>  (259) 
nan

>  <Num_Resolved_Atoms>  (259) 
nan

>  <Num_Not_Resolved_Atoms>  (259) 
nan

$$$$
CHEMBL4638361
     RDKit          3D

  0  0  0  0  0  0  0  0  0  0999 V3000
M  V30 BEGIN CTAB
M  V30 COUNTS 49 52 0 0 0
M  V30 BEGIN ATOM
M  V30 1 C -1.068935 -7.488962 1.351169 0
M  V30 2 C -1.298753 -6.411834 0.352682 0
M  V30 3 C -0.557975 -5.225984 0.386986 0
M  V30 4 C -0.720281 -4.179643 -0.513285 0
M  V30 5 C 0.117467 -2.991895 -0.368320 0
M  V30 6 C 1.409473 -3.180951 0.139173 0
M  V30 7 C 2.254440 -2.083380 0.300436 0
M  V30 8 C 1.789080 -0.831362 -0.048183 0
M  V30 9 N 2.280182 0.443565 -0.043426 0
M  V30 10 C 1.357846 1.308524 -0.508009 0
M  V30 11 N 1.885234 2.632738 -0.495892 0
M  V30 12 C 1.732089 3.512914 0.638400 0
M  V30 13 C 2.273920 4.790462 0.616460 0
M  V30 14 C 2.098426 5.598567 1.731554 0
M  V30 15 C 1.401972 5.158820 2.850525 0
M  V30 16 S 1.209362 6.220211 4.239767 0
M  V30 17 C -0.239647 7.200004 4.097235 0
M  V30 18 O 2.395241 7.129319 4.404360 0
M  V30 19 O 1.104966 5.427172 5.512399 0
M  V30 20 C 0.861664 3.869436 2.859112 0
M  V30 21 C 1.037320 3.062080 1.743793 0
M  V30 22 N 0.275047 0.567731 -0.807806 0
M  V30 23 N 0.538861 -0.719051 -0.529646 0
M  V30 24 C -0.336973 -1.723061 -0.715160 0
M  V30 25 C -1.679501 -4.349283 -1.491260 0
M  V30 26 C -2.442114 -5.496198 -1.577386 0
M  V30 27 C -3.470265 -5.661784 -2.636923 0
M  V30 28 C -2.233479 -6.498698 -0.654254 0
M  V30 29 O -2.953592 -7.691157 -0.660624 0
M  V30 30 H -0.095576 -7.327932 1.852604 0
M  V30 31 H -1.828892 -7.470481 2.152136 0
M  V30 32 H -1.027761 -8.498065 0.874366 0
M  V30 33 H 0.193141 -5.125696 1.175693 0
M  V30 34 H 1.818801 -4.140190 0.425327 0
M  V30 35 H 3.263093 -2.163453 0.687582 0
M  V30 36 H 2.400359 2.979807 -1.335129 0
M  V30 37 H 2.807535 5.092644 -0.272817 0
M  V30 38 H 2.520684 6.604405 1.722729 0
M  V30 39 H -0.807682 6.866311 3.193577 0
M  V30 40 H 0.027091 8.259436 3.926222 0
M  V30 41 H -0.919559 7.108758 4.991535 0
M  V30 42 H 0.307566 3.501329 3.733556 0
M  V30 43 H 0.616380 2.053444 1.743839 0
M  V30 44 H -1.325977 -1.592726 -1.101509 0
M  V30 45 H -1.802759 -3.525818 -2.194205 0
M  V30 46 H -3.959484 -4.672310 -2.871622 0
M  V30 47 H -4.224428 -6.382011 -2.284270 0
M  V30 48 H -3.026013 -6.052980 -3.575143 0
M  V30 49 H -3.364696 -8.010221 0.227252 0
M  V30 END ATOM
M  V30 BEGIN BOND
M  V30 1 1 1 2
M  V30 2 2 2 3
M  V30 3 1 3 4
M  V30 4 1 4 5
M  V30 5 1 5 6
M  V30 6 2 6 7
M  V30 7 1 7 8
M  V30 8 2 8 9
M  V30 9 1 9 10
M  V30 10 1 10 11
M  V30 11 1 11 12
M  V30 12 2 12 13
M  V30 13 1 13 14
M  V30 14 2 14 15
M  V30 15 1 15 16
M  V30 16 1 16 17
M  V30 17 2 16 18
M  V30 18 2 16 19
M  V30 19 1 15 20
M  V30 20 2 20 21
M  V30 21 2 10 22
M  V30 22 1 22 23
M  V30 23 1 23 24
M  V30 24 2 4 25
M  V30 25 1 25 26
M  V30 26 1 26 27
M  V30 27 2 26 28
M  V30 28 1 28 29
M  V30 29 1 28 2
M  V30 30 2 24 5
M  V30 31 1 23 8
M  V30 32 1 21 12
M  V30 33 1 1 30
M  V30 34 1 1 31
M  V30 35 1 1 32
M  V30 36 1 3 33
M  V30 37 1 6 34
M  V30 38 1 7 35
M  V30 39 1 11 36
M  V30 40 1 13 37
M  V30 41 1 14 38
M  V30 42 1 17 39
M  V30 43 1 17 40
M  V30 44 1 17 41
M  V30 45 1 20 42
M  V30 46 1 21 43
M  V30 47 1 24 44
M  V30 48 1 25 45
M  V30 49 1 27 46
M  V30 50 1 27 47
M  V30 51 1 27 48
M  V30 52 1 29 49
M  V30 END BOND
M  V30 END CTAB
M  END
>  <Dataset>  (260) 
ChEMBL_Kinases

>  <Ligand_Instance>  (260) 
nan

>  <PDB_ID>  (260) 
nan

>  <Standardized_SMILES>  (260) 
Cc1cc(-c2ccc3nc(Nc4ccc(S(C)(=O)=O)cc4)nn3c2)cc(C)c1O

>  <Name>  (260) 
nan

>  <Pocket>  (260) 
nan

>  <ATP_Site>  (260) 
nan

>  <Peripheral>  (260) 
nan

>  <Num_H_Atoms_ProtBoundConf>  (260) 
nan

>  <Num_Resolved_Atoms>  (260) 
nan

>  <Num_Not_Resolved_Atoms>  (260) 
nan

$$$$
CHEMBL4555291
     RDKit          3D

  0  0  0  0  0  0  0  0  0  0999 V3000
M  V30 BEGIN CTAB
M  V30 COUNTS 38 40 0 0 0
M  V30 BEGIN ATOM
M  V30 1 C 0.289359 -2.582059 3.818110 0
M  V30 2 C 0.166700 -2.915309 2.313033 0
M  V30 3 C -1.054527 -3.872052 2.314355 0
M  V30 4 N 0.011978 -1.814485 1.467793 0
M  V30 5 C -0.097673 -0.674002 0.624102 0
M  V30 6 N 0.775896 0.337278 0.500673 0
M  V30 7 C 0.670753 1.403447 -0.282750 0
M  V30 8 C 1.704310 2.430998 -0.315224 0
M  V30 9 C 1.465617 3.482907 -1.174013 0
M  V30 10 C 2.414725 4.481601 -1.240878 0
M  V30 11 N 3.524429 4.396395 -0.477178 0
M  V30 12 C 3.711130 3.348450 0.345848 0
M  V30 13 C 2.810118 2.286832 0.485616 0
M  V30 14 F 3.020679 1.255059 1.312966 0
M  V30 15 N -0.445753 1.421000 -1.005424 0
M  V30 16 C -1.406203 0.492166 -0.992855 0
M  V30 17 C -2.469405 0.737420 -1.836161 0
M  V30 18 N -3.458989 -0.203527 -1.835893 0
M  V30 19 C -3.373052 -1.293540 -1.049108 0
M  V30 20 C -2.280233 -1.471027 -0.232374 0
M  V30 21 C -1.228824 -0.585722 -0.155620 0
M  V30 22 C 1.329010 -3.854059 2.009883 0
M  V30 23 F 2.548933 -3.302013 2.260514 0
M  V30 24 F 1.157479 -4.933706 2.852432 0
M  V30 25 F 1.215098 -4.344230 0.713531 0
M  V30 26 H 0.232902 -3.560473 4.342327 0
M  V30 27 H 1.261068 -2.116079 4.035279 0
M  V30 28 H -0.588016 -1.993091 4.154763 0
M  V30 29 H -1.904159 -3.223660 2.605028 0
M  V30 30 H -1.161786 -4.400970 1.368782 0
M  V30 31 H -0.875522 -4.586720 3.126388 0
M  V30 32 H 0.959100 -1.588024 1.894276 0
M  V30 33 H 0.550037 3.520130 -1.781886 0
M  V30 34 H 2.260125 5.327111 -1.907444 0
M  V30 35 H 4.632794 3.340553 0.937890 0
M  V30 36 H -2.518261 1.617684 -2.458481 0
M  V30 37 H -4.156800 -2.043142 -1.046029 0
M  V30 38 H -2.218318 -2.342276 0.389910 0
M  V30 END ATOM
M  V30 BEGIN BOND
M  V30 1 1 1 2
M  V30 2 1 2 3
M  V30 3 1 2 4
M  V30 4 1 4 5
M  V30 5 2 5 6
M  V30 6 1 6 7
M  V30 7 1 7 8
M  V30 8 2 8 9
M  V30 9 1 9 10
M  V30 10 2 10 11
M  V30 11 1 11 12
M  V30 12 2 12 13
M  V30 13 1 13 14
M  V30 14 2 7 15
M  V30 15 1 15 16
M  V30 16 2 16 17
M  V30 17 1 17 18
M  V30 18 2 18 19
M  V30 19 1 19 20
M  V30 20 2 20 21
M  V30 21 1 2 22
M  V30 22 1 22 23
M  V30 23 1 22 24
M  V30 24 1 22 25
M  V30 25 1 21 5
M  V30 26 1 13 8
M  V30 27 1 21 16
M  V30 28 1 1 26
M  V30 29 1 1 27
M  V30 30 1 1 28
M  V30 31 1 3 29
M  V30 32 1 3 30
M  V30 33 1 3 31
M  V30 34 1 4 32
M  V30 35 1 9 33
M  V30 36 1 10 34
M  V30 37 1 12 35
M  V30 38 1 17 36
M  V30 39 1 19 37
M  V30 40 1 20 38
M  V30 END BOND
M  V30 END CTAB
M  END
>  <Dataset>  (261) 
ChEMBL_Kinases

>  <Ligand_Instance>  (261) 
nan

>  <PDB_ID>  (261) 
nan

>  <Standardized_SMILES>  (261) 
CC(C)(Nc1nc(-c2ccncc2F)nc2cnccc12)C(F)(F)F

>  <Name>  (261) 
nan

>  <Pocket>  (261) 
nan

>  <ATP_Site>  (261) 
nan

>  <Peripheral>  (261) 
nan

>  <Num_H_Atoms_ProtBoundConf>  (261) 
nan

>  <Num_Resolved_Atoms>  (261) 
nan

>  <Num_Not_Resolved_Atoms>  (261) 
nan

$$$$
CHEMBL4556527
     RDKit          3D

  0  0  0  0  0  0  0  0  0  0999 V3000
M  V30 BEGIN CTAB
M  V30 COUNTS 46 49 0 0 0
M  V30 BEGIN ATOM
M  V30 1 N -2.378429 -7.530982 -2.309338 0
M  V30 2 C -2.229265 -6.387261 -2.487201 0
M  V30 3 C -2.032055 -4.962961 -2.685950 0
M  V30 4 C -1.336789 -4.546511 -3.817652 0
M  V30 5 C -1.197344 -3.162542 -3.921947 0
M  V30 6 C -1.700376 -2.275798 -2.991468 0
M  V30 7 C -1.470442 -0.840445 -3.243982 0
M  V30 8 C -1.633847 -0.174441 -4.445530 0
M  V30 9 N -1.320434 1.094881 -4.225402 0
M  V30 10 C -0.961667 1.304709 -2.955989 0
M  V30 11 N -0.566295 2.384748 -2.251532 0
M  V30 12 C -0.262051 2.288454 -0.949581 0
M  V30 13 C -0.326029 1.111541 -0.242918 0
M  V30 14 C -0.001830 0.977971 1.169881 0
M  V30 15 C 0.395990 1.944848 1.975252 0
M  V30 16 C 0.734545 1.875973 3.391738 0
M  V30 17 O 1.101604 2.910163 4.026748 0
M  V30 18 N 0.684461 0.682754 4.161642 0
M  V30 19 C 1.003509 0.527906 5.567171 0
M  V30 20 C 2.460301 0.519136 5.836040 0
M  V30 21 C 3.251776 1.627781 6.130640 0
M  V30 22 C 4.592398 1.513813 6.361815 0
M  V30 23 N 5.196445 0.320135 6.312568 0
M  V30 24 C 4.528997 -0.805038 6.038638 0
M  V30 25 C 3.181878 -0.679326 5.807648 0
M  V30 26 C -0.728372 0.002560 -0.952297 0
M  V30 27 C -1.044666 0.089123 -2.294306 0
M  V30 28 C -2.376273 -2.778834 -1.900861 0
M  V30 29 C -2.554875 -4.132565 -1.727431 0
M  V30 30 H -0.941654 -5.238121 -4.548425 0
M  V30 31 H -0.659750 -2.815631 -4.794870 0
M  V30 32 H -1.961438 -0.659814 -5.365436 0
M  V30 33 H -1.358314 1.817559 -4.968529 0
M  V30 34 H 0.043644 3.189529 -0.457220 0
M  V30 35 H -0.081449 0.013080 1.642481 0
M  V30 36 H 0.478742 2.926628 1.501003 0
M  V30 37 H 0.373577 -0.166875 3.603282 0
M  V30 38 H 0.518474 1.340554 6.150965 0
M  V30 39 H 0.593423 -0.428910 5.905754 0
M  V30 40 H 2.763009 2.568510 6.169161 0
M  V30 41 H 5.162164 2.403361 6.586205 0
M  V30 42 H 4.975260 -1.788168 5.989032 0
M  V30 43 H 2.605360 -1.574533 5.581213 0
M  V30 44 H -0.787526 -0.934075 -0.425116 0
M  V30 45 H -2.762103 -2.068025 -1.184734 0
M  V30 46 H -3.083986 -4.531328 -0.873261 0
M  V30 END ATOM
M  V30 BEGIN BOND
M  V30 1 3 1 2
M  V30 2 1 2 3
M  V30 3 2 3 4
M  V30 4 1 4 5
M  V30 5 2 5 6
M  V30 6 1 6 7
M  V30 7 2 7 8
M  V30 8 1 8 9
M  V30 9 1 9 10
M  V30 10 2 10 11
M  V30 11 1 11 12
M  V30 12 2 12 13
M  V30 13 1 13 14
M  V30 14 2 14 15
M  V30 15 1 15 16
M  V30 16 2 16 17
M  V30 17 1 16 18
M  V30 18 1 18 19
M  V30 19 1 19 20
M  V30 20 2 20 21
M  V30 21 1 21 22
M  V30 22 2 22 23
M  V30 23 1 23 24
M  V30 24 2 24 25
M  V30 25 1 13 26
M  V30 26 2 26 27
M  V30 27 1 6 28
M  V30 28 2 28 29
M  V30 29 1 29 3
M  V30 30 1 27 7
M  V30 31 1 27 10
M  V30 32 1 25 20
M  V30 33 1 4 30
M  V30 34 1 5 31
M  V30 35 1 8 32
M  V30 36 1 9 33
M  V30 37 1 12 34
M  V30 38 1 14 35
M  V30 39 1 15 36
M  V30 40 1 18 37
M  V30 41 1 19 38
M  V30 42 1 19 39
M  V30 43 1 21 40
M  V30 44 1 22 41
M  V30 45 1 24 42
M  V30 46 1 25 43
M  V30 47 1 26 44
M  V30 48 1 28 45
M  V30 49 1 29 46
M  V30 END BOND
M  V30 END CTAB
M  END
>  <Dataset>  (262) 
ChEMBL_Kinases

>  <Ligand_Instance>  (262) 
nan

>  <PDB_ID>  (262) 
nan

>  <Standardized_SMILES>  (262) 
N#Cc1ccc(-c2c[nH]c3ncc(/C=C/C(=O)NCc4ccncc4)cc23)cc1

>  <Name>  (262) 
nan

>  <Pocket>  (262) 
nan

>  <ATP_Site>  (262) 
nan

>  <Peripheral>  (262) 
nan

>  <Num_H_Atoms_ProtBoundConf>  (262) 
nan

>  <Num_Resolved_Atoms>  (262) 
nan

>  <Num_Not_Resolved_Atoms>  (262) 
nan

$$$$
CHEMBL4567295
     RDKit          3D

  0  0  0  0  0  0  0  0  0  0999 V3000
M  V30 BEGIN CTAB
M  V30 COUNTS 59 62 0 0 0
M  V30 BEGIN ATOM
M  V30 1 C 4.191673 0.189148 6.732121 0
M  V30 2 N 5.103351 0.020172 5.622767 0
M  V30 3 N 6.427189 -0.075093 5.832694 0
M  V30 4 C 7.026339 -0.234220 4.634330 0
M  V30 5 C 5.987113 -0.225566 3.729716 0
M  V30 6 Cl 6.631054 -0.426068 2.095276 0
M  V30 7 C 4.769198 -0.065140 4.347073 0
M  V30 8 C 3.578811 -0.037750 3.564756 0
M  V30 9 C 3.534370 -0.171773 2.194900 0
M  V30 10 C 2.258702 -0.101676 1.683994 0
M  V30 11 C 1.772140 -0.193827 0.318280 0
M  V30 12 O 2.553080 -0.369075 -0.652704 0
M  V30 13 N 0.386117 -0.086383 0.048116 0
M  V30 14 C -0.306625 -0.146401 -1.194821 0 CFG=2
M  V30 15 C -1.168011 1.051257 -1.470484 0
M  V30 16 N -2.586075 0.748469 -1.343889 0
M  V30 17 C -3.007845 -0.235056 -2.307619 0 CFG=2
M  V30 18 C -4.364280 -0.777971 -1.964142 0
M  V30 19 C -5.484115 0.192284 -1.937721 0
M  V30 20 O -5.725142 0.851844 -3.136405 0
M  V30 21 C -5.373645 1.145725 -0.776026 0
M  V30 22 O -6.582552 1.853416 -0.598590 0
M  V30 23 C -2.042291 -1.396012 -2.381407 0
M  V30 24 C -1.194876 -1.369996 -1.145020 0 CFG=1
M  V30 25 C -0.391904 -2.616239 -0.990945 0
M  V30 26 C 0.461823 -2.800162 -2.040076 0
M  V30 27 C 1.309904 -3.909940 -2.100099 0
M  V30 28 C 1.237525 -4.810281 -1.040782 0
M  V30 29 F 2.027646 -5.914971 -1.024151 0
M  V30 30 C 0.379628 -4.627871 0.016004 0
M  V30 31 F 0.282360 -5.480007 1.059874 0
M  V30 32 C -0.447385 -3.532765 0.060883 0
M  V30 33 O 1.494604 0.078108 2.741068 0
M  V30 34 C 2.248251 0.114729 3.815163 0
M  V30 35 Cl 1.404369 0.346505 5.304904 0
M  V30 36 H 4.788793 0.149492 7.704594 0
M  V30 37 H 3.485397 -0.651268 6.861933 0
M  V30 38 H 3.668514 1.138216 6.735094 0
M  V30 39 H 8.092051 -0.318418 4.714196 0
M  V30 40 H 4.298334 -0.323918 1.415419 0
M  V30 41 H -0.350863 0.063615 0.801487 0
M  V30 42 H 0.432871 -0.316367 -2.008300 0
M  V30 43 H -0.961447 1.932331 -0.861478 0
M  V30 44 H -1.002925 1.333570 -2.536673 0
M  V30 45 H -2.823311 0.473496 -0.359357 0
M  V30 46 H -3.012166 0.296110 -3.293708 0
M  V30 47 H -4.268515 -1.314272 -0.982207 0
M  V30 48 H -4.654617 -1.611966 -2.673234 0
M  V30 49 H -6.463236 -0.367220 -1.726956 0
M  V30 50 H -5.630466 0.191921 -3.872243 0
M  V30 51 H -5.142267 0.644273 0.176665 0
M  V30 52 H -4.575541 1.920285 -0.937416 0
M  V30 53 H -7.195796 1.314592 -0.006662 0
M  V30 54 H -1.374195 -1.338833 -3.261461 0
M  V30 55 H -2.594308 -2.380344 -2.352005 0
M  V30 56 H -1.862556 -1.288599 -0.264587 0
M  V30 57 H 0.586796 -2.154293 -2.905325 0
M  V30 58 H 2.005593 -4.129013 -2.882302 0
M  V30 59 H -1.167775 -3.265735 0.827038 0
M  V30 END ATOM
M  V30 BEGIN BOND
M  V30 1 1 1 2
M  V30 2 1 2 3
M  V30 3 2 3 4
M  V30 4 1 4 5
M  V30 5 1 5 6
M  V30 6 2 5 7
M  V30 7 1 7 8
M  V30 8 1 8 9
M  V30 9 2 9 10
M  V30 10 1 10 11
M  V30 11 2 11 12
M  V30 12 1 11 13
M  V30 13 1 13 14
M  V30 14 1 14 15
M  V30 15 1 15 16
M  V30 16 1 16 17
M  V30 17 1 17 18
M  V30 18 1 18 19
M  V30 19 1 19 20
M  V30 20 1 19 21
M  V30 21 1 21 22
M  V30 22 1 17 23
M  V30 23 1 23 24
M  V30 24 1 24 25
M  V30 25 2 25 26
M  V30 26 1 26 27
M  V30 27 2 27 28
M  V30 28 1 28 29
M  V30 29 1 28 30
M  V30 30 1 30 31
M  V30 31 2 30 32
M  V30 32 1 10 33
M  V30 33 1 33 34
M  V30 34 1 34 35
M  V30 35 1 7 2
M  V30 36 2 34 8
M  V30 37 1 24 14
M  V30 38 1 32 25
M  V30 39 1 1 36
M  V30 40 1 1 37
M  V30 41 1 1 38
M  V30 42 1 4 39
M  V30 43 1 9 40
M  V30 44 1 13 41
M  V30 45 1 14 42 CFG=3
M  V30 46 1 15 43
M  V30 47 1 15 44
M  V30 48 1 16 45
M  V30 49 1 17 46 CFG=3
M  V30 50 1 18 47
M  V30 51 1 18 48
M  V30 52 1 19 49
M  V30 53 1 20 50
M  V30 54 1 21 51
M  V30 55 1 21 52
M  V30 56 1 22 53
M  V30 57 1 23 54
M  V30 58 1 23 55
M  V30 59 1 24 56 CFG=1
M  V30 60 1 26 57
M  V30 61 1 27 58
M  V30 62 1 32 59
M  V30 END BOND
M  V30 END CTAB
M  END
>  <Dataset>  (263) 
ChEMBL_Kinases

>  <Ligand_Instance>  (263) 
nan

>  <PDB_ID>  (263) 
nan

>  <Standardized_SMILES>  (263) 
Cn1ncc(Cl)c1-c1cc(C(=O)N[C@@H]2CN[C@H](CC(O)CO)C[C@H]2c2ccc(F)c(F)c2)oc1Cl

>  <Name>  (263) 
nan

>  <Pocket>  (263) 
nan

>  <ATP_Site>  (263) 
nan

>  <Peripheral>  (263) 
nan

>  <Num_H_Atoms_ProtBoundConf>  (263) 
nan

>  <Num_Resolved_Atoms>  (263) 
nan

>  <Num_Not_Resolved_Atoms>  (263) 
nan

$$$$
CHEMBL4636075
     RDKit          3D

  0  0  0  0  0  0  0  0  0  0999 V3000
M  V30 BEGIN CTAB
M  V30 COUNTS 46 49 0 0 0
M  V30 BEGIN ATOM
M  V30 1 O 5.727545 -1.861672 1.957800 0
M  V30 2 C 5.327693 -0.649948 1.876787 0
M  V30 3 N 6.213908 0.363300 1.425770 0
M  V30 4 C 5.386369 1.534955 1.486749 0
M  V30 5 O 5.728922 2.721330 1.177682 0
M  V30 6 C 4.060503 1.166948 1.965913 0
M  V30 7 C 2.901943 2.025227 2.185141 0
M  V30 8 C 1.996052 1.877106 3.210825 0
M  V30 9 C 0.981112 2.798762 3.226432 0
M  V30 10 C 0.818861 3.817042 2.321504 0
M  V30 11 C 1.751879 3.949934 1.286096 0
M  V30 12 C 2.789351 3.025932 1.250949 0
M  V30 13 C 3.986797 -0.143615 2.211907 0
M  V30 14 N 2.976853 -1.015790 2.677825 0
M  V30 15 C 1.758834 -1.378066 2.044391 0
M  V30 16 C 1.356312 -0.827577 0.844541 0
M  V30 17 C 0.167422 -1.206082 0.255687 0
M  V30 18 C -0.659223 -2.142866 0.838438 0
M  V30 19 C -1.962698 -2.620644 0.317613 0
M  V30 20 O -2.559370 -3.564893 0.887491 0
M  V30 21 N -2.507867 -1.989040 -0.825628 0
M  V30 22 C -3.747750 -2.338444 -1.438878 0
M  V30 23 C -3.710406 -3.295704 -2.448562 0
M  V30 24 C -4.880927 -3.665727 -3.068106 0
M  V30 25 C -6.122548 -3.116906 -2.725487 0
M  V30 26 C -6.108175 -2.162174 -1.708610 0
M  V30 27 C -4.948987 -1.771874 -1.069655 0
M  V30 28 C -0.219711 -2.681354 2.055437 0
M  V30 29 C 0.964698 -2.317555 2.662236 0
M  V30 30 H 7.193792 0.285710 1.131522 0
M  V30 31 H 2.144467 1.069457 3.908740 0
M  V30 32 H 0.242272 2.704221 4.035099 0
M  V30 33 H -0.010118 4.505085 2.401505 0
M  V30 34 H 1.639477 4.742573 0.567178 0
M  V30 35 H 3.466727 3.191987 0.426946 0
M  V30 36 H 3.246201 -1.391578 3.611586 0
M  V30 37 H 1.959847 -0.091729 0.342788 0
M  V30 38 H -0.182381 -0.801254 -0.680943 0
M  V30 39 H -2.065147 -1.199113 -1.344413 0
M  V30 40 H -2.741200 -3.730177 -2.722478 0
M  V30 41 H -4.834937 -4.414625 -3.854734 0
M  V30 42 H -6.995044 -3.452525 -3.250488 0
M  V30 43 H -7.084613 -1.758030 -1.467400 0
M  V30 44 H -4.978704 -1.028008 -0.285444 0
M  V30 45 H -0.824160 -3.436957 2.583873 0
M  V30 46 H 1.244427 -2.772111 3.602276 0
M  V30 END ATOM
M  V30 BEGIN BOND
M  V30 1 2 1 2
M  V30 2 1 2 3
M  V30 3 1 3 4
M  V30 4 2 4 5
M  V30 5 1 4 6
M  V30 6 1 6 7
M  V30 7 2 7 8
M  V30 8 1 8 9
M  V30 9 2 9 10
M  V30 10 1 10 11
M  V30 11 2 11 12
M  V30 12 2 6 13
M  V30 13 1 13 14
M  V30 14 1 14 15
M  V30 15 2 15 16
M  V30 16 1 16 17
M  V30 17 2 17 18
M  V30 18 1 18 19
M  V30 19 2 19 20
M  V30 20 1 19 21
M  V30 21 1 21 22
M  V30 22 2 22 23
M  V30 23 1 23 24
M  V30 24 2 24 25
M  V30 25 1 25 26
M  V30 26 2 26 27
M  V30 27 1 18 28
M  V30 28 2 28 29
M  V30 29 1 13 2
M  V30 30 1 29 15
M  V30 31 1 12 7
M  V30 32 1 27 22
M  V30 33 1 3 30
M  V30 34 1 8 31
M  V30 35 1 9 32
M  V30 36 1 10 33
M  V30 37 1 11 34
M  V30 38 1 12 35
M  V30 39 1 14 36
M  V30 40 1 16 37
M  V30 41 1 17 38
M  V30 42 1 21 39
M  V30 43 1 23 40
M  V30 44 1 24 41
M  V30 45 1 25 42
M  V30 46 1 26 43
M  V30 47 1 27 44
M  V30 48 1 28 45
M  V30 49 1 29 46
M  V30 END BOND
M  V30 END CTAB
M  END
>  <Dataset>  (264) 
ChEMBL_Kinases

>  <Ligand_Instance>  (264) 
nan

>  <PDB_ID>  (264) 
nan

>  <Standardized_SMILES>  (264) 
O=C1NC(=O)C(c2ccccc2)=C1Nc1ccc(C(=O)Nc2ccccc2)cc1

>  <Name>  (264) 
nan

>  <Pocket>  (264) 
nan

>  <ATP_Site>  (264) 
nan

>  <Peripheral>  (264) 
nan

>  <Num_H_Atoms_ProtBoundConf>  (264) 
nan

>  <Num_Resolved_Atoms>  (264) 
nan

>  <Num_Not_Resolved_Atoms>  (264) 
nan

$$$$
CHEMBL4567137
     RDKit          3D

  0  0  0  0  0  0  0  0  0  0999 V3000
M  V30 BEGIN CTAB
M  V30 COUNTS 59 63 0 0 0
M  V30 BEGIN ATOM
M  V30 1 C 6.779589 -2.453138 5.449532 0
M  V30 2 C 6.188284 -1.356287 4.629317 0
M  V30 3 C 6.702766 -0.093171 4.514180 0
M  V30 4 C 6.078258 0.869199 3.721186 0
M  V30 5 C 4.925390 0.490875 3.062694 0
M  V30 6 C 4.240138 1.470632 2.221059 0
M  V30 7 C 3.082695 1.266155 1.494429 0
M  V30 8 C 2.781684 2.445576 0.844764 0
M  V30 9 C 1.641687 2.692891 -0.038620 0
M  V30 10 C 1.496309 3.941904 -0.606332 0
M  V30 11 C 0.402284 4.166215 -1.449211 0
M  V30 12 C -0.492281 3.133660 -1.683924 0
M  V30 13 C -0.322549 1.891173 -1.101756 0
M  V30 14 N -1.189895 0.775538 -1.286533 0
M  V30 15 C -1.160887 -0.262290 -2.254916 0
M  V30 16 O -0.224398 -0.203319 -3.093829 0
M  V30 17 C -2.191056 -1.295382 -2.209733 0
M  V30 18 C -3.233496 -1.400150 -1.311399 0
M  V30 19 C -4.125746 -2.445487 -1.408747 0
M  V30 20 N -5.175680 -2.492968 -0.451362 0
M  V30 21 C -6.149749 -1.619422 -0.102061 0
M  V30 22 N -6.894681 -2.179404 0.886294 0
M  V30 23 C -6.380405 -3.393298 1.143928 0
M  V30 24 C -6.883866 -4.366766 2.161328 0
M  V30 25 C -5.305562 -3.600151 0.313867 0
M  V30 26 C -4.047855 -3.428730 -2.374217 0
M  V30 27 C -2.986806 -3.310490 -3.278068 0
M  V30 28 C -2.896830 -4.379399 -4.332725 0
M  V30 29 F -1.558354 -4.393882 -4.708690 0
M  V30 30 F -3.287818 -5.600397 -3.852032 0
M  V30 31 F -3.608168 -3.998247 -5.465598 0
M  V30 32 C -2.085014 -2.265137 -3.189801 0
M  V30 33 C 0.746784 1.669773 -0.277094 0
M  V30 34 N 3.741098 3.329680 1.179980 0
M  V30 35 N 4.621982 2.745596 2.009459 0
M  V30 36 C 4.402377 -0.781039 3.175198 0
M  V30 37 C 5.035607 -1.721053 3.965889 0
M  V30 38 H 6.919233 -3.381389 4.858565 0
M  V30 39 H 7.732238 -2.181142 5.922005 0
M  V30 40 H 6.021552 -2.700566 6.230418 0
M  V30 41 H 7.625079 0.111508 5.077609 0
M  V30 42 H 6.515608 1.864516 3.652627 0
M  V30 43 H 2.515402 0.342588 1.446018 0
M  V30 44 H 2.196927 4.755490 -0.424337 0
M  V30 45 H 0.223546 5.132680 -1.934463 0
M  V30 46 H -1.363364 3.228496 -2.323734 0
M  V30 47 H -1.886662 0.872826 -0.534404 0
M  V30 48 H -3.274320 -0.622103 -0.567245 0
M  V30 49 H -6.191358 -0.679275 -0.617368 0
M  V30 50 H -6.193383 -4.467698 3.023624 0
M  V30 51 H -7.903137 -4.102270 2.501642 0
M  V30 52 H -6.969435 -5.379791 1.696538 0
M  V30 53 H -4.709574 -4.524118 0.328887 0
M  V30 54 H -4.778018 -4.211659 -2.388154 0
M  V30 55 H -1.303908 -2.275952 -3.943882 0
M  V30 56 H 0.926762 0.725482 0.200731 0
M  V30 57 H 3.837743 4.331611 0.872553 0
M  V30 58 H 3.490196 -1.008202 2.627206 0
M  V30 59 H 4.571904 -2.695228 4.008256 0
M  V30 END ATOM
M  V30 BEGIN BOND
M  V30 1 1 1 2
M  V30 2 2 2 3
M  V30 3 1 3 4
M  V30 4 2 4 5
M  V30 5 1 5 6
M  V30 6 1 6 7
M  V30 7 2 7 8
M  V30 8 1 8 9
M  V30 9 2 9 10
M  V30 10 1 10 11
M  V30 11 2 11 12
M  V30 12 1 12 13
M  V30 13 1 13 14
M  V30 14 1 14 15
M  V30 15 2 15 16
M  V30 16 1 15 17
M  V30 17 2 17 18
M  V30 18 1 18 19
M  V30 19 1 19 20
M  V30 20 1 20 21
M  V30 21 2 21 22
M  V30 22 1 22 23
M  V30 23 1 23 24
M  V30 24 2 23 25
M  V30 25 2 19 26
M  V30 26 1 26 27
M  V30 27 1 27 28
M  V30 28 1 28 29
M  V30 29 1 28 30
M  V30 30 1 28 31
M  V30 31 2 27 32
M  V30 32 2 13 33
M  V30 33 1 8 34
M  V30 34 1 34 35
M  V30 35 1 5 36
M  V30 36 2 36 37
M  V30 37 1 37 2
M  V30 38 2 35 6
M  V30 39 1 33 9
M  V30 40 1 32 17
M  V30 41 1 25 20
M  V30 42 1 1 38
M  V30 43 1 1 39
M  V30 44 1 1 40
M  V30 45 1 3 41
M  V30 46 1 4 42
M  V30 47 1 7 43
M  V30 48 1 10 44
M  V30 49 1 11 45
M  V30 50 1 12 46
M  V30 51 1 14 47
M  V30 52 1 18 48
M  V30 53 1 21 49
M  V30 54 1 24 50
M  V30 55 1 24 51
M  V30 56 1 24 52
M  V30 57 1 25 53
M  V30 58 1 26 54
M  V30 59 1 32 55
M  V30 60 1 33 56
M  V30 61 1 34 57
M  V30 62 1 36 58
M  V30 63 1 37 59
M  V30 END BOND
M  V30 END CTAB
M  END
>  <Dataset>  (265) 
ChEMBL_Kinases

>  <Ligand_Instance>  (265) 
nan

>  <PDB_ID>  (265) 
nan

>  <Standardized_SMILES>  (265) 
Cc1ccc(-c2cc(-c3cccc(NC(=O)c4cc(-n5cnc(C)c5)cc(C(F)(F)F)c4)c3)[nH]n2)cc1

>  <Name>  (265) 
nan

>  <Pocket>  (265) 
nan

>  <ATP_Site>  (265) 
nan

>  <Peripheral>  (265) 
nan

>  <Num_H_Atoms_ProtBoundConf>  (265) 
nan

>  <Num_Resolved_Atoms>  (265) 
nan

>  <Num_Not_Resolved_Atoms>  (265) 
nan

$$$$
CHEMBL4636294
     RDKit          3D

  0  0  0  0  0  0  0  0  0  0999 V3000
M  V30 BEGIN CTAB
M  V30 COUNTS 45 48 0 0 0
M  V30 BEGIN ATOM
M  V30 1 C -0.834840 -5.767533 1.938145 0
M  V30 2 C -0.822883 -5.158174 0.587578 0
M  V30 3 C -0.305035 -3.907497 0.329025 0
M  V30 4 C -0.296833 -3.341887 -0.938249 0
M  V30 5 C 0.290422 -2.009684 -1.032057 0
M  V30 6 C 0.948136 -1.538220 -2.151890 0
M  V30 7 C 1.501561 -0.276918 -2.232784 0
M  V30 8 C 1.403997 0.577878 -1.145595 0
M  V30 9 N 1.809533 1.849729 -0.857298 0
M  V30 10 C 1.408843 2.147099 0.408085 0
M  V30 11 N 1.590094 3.341206 1.162281 0
M  V30 12 C 1.102382 3.475417 2.478181 0
M  V30 13 O 0.494071 2.456940 2.934488 0
M  V30 14 C 1.279867 4.699643 3.270534 0
M  V30 15 C 1.925420 5.846698 2.853123 0
M  V30 16 C 2.030199 6.941345 3.692551 0
M  V30 17 C 1.489701 6.902860 4.962283 0
M  V30 18 C 0.836428 5.777174 5.419314 0
M  V30 19 C 0.743376 4.690583 4.559888 0
M  V30 20 N 0.770423 1.051249 0.858142 0
M  V30 21 N 0.757297 0.098752 -0.060384 0
M  V30 22 C 0.208436 -1.125642 0.046290 0
M  V30 23 C -0.822787 -4.050911 -1.974479 0
M  V30 24 C -1.346815 -5.310188 -1.727461 0
M  V30 25 C -1.924772 -6.097591 -2.847106 0
M  V30 26 C -1.362809 -5.889506 -0.467968 0
M  V30 27 O -1.899487 -7.155936 -0.268420 0
M  V30 28 H 0.014704 -6.484928 2.053980 0
M  V30 29 H -0.795550 -4.947231 2.687064 0
M  V30 30 H -1.745242 -6.368280 2.103704 0
M  V30 31 H 0.088552 -3.421920 1.207811 0
M  V30 32 H 1.011145 -2.221281 -2.984540 0
M  V30 33 H 2.015630 0.086545 -3.112208 0
M  V30 34 H 2.105999 4.157726 0.727899 0
M  V30 35 H 2.330705 5.835269 1.860691 0
M  V30 36 H 2.542431 7.836538 3.347253 0
M  V30 37 H 1.577111 7.770253 5.615281 0
M  V30 38 H 0.395435 5.711681 6.421135 0
M  V30 39 H 0.226400 3.794377 4.916770 0
M  V30 40 H -0.296417 -1.437307 0.955874 0
M  V30 41 H -0.805354 -3.595467 -2.941682 0
M  V30 42 H -3.016764 -5.894865 -2.919443 0
M  V30 43 H -1.781365 -7.192588 -2.636980 0
M  V30 44 H -1.406950 -5.921295 -3.813725 0
M  V30 45 H -2.605562 -7.307118 0.435046 0
M  V30 END ATOM
M  V30 BEGIN BOND
M  V30 1 1 1 2
M  V30 2 2 2 3
M  V30 3 1 3 4
M  V30 4 1 4 5
M  V30 5 1 5 6
M  V30 6 2 6 7
M  V30 7 1 7 8
M  V30 8 2 8 9
M  V30 9 1 9 10
M  V30 10 1 10 11
M  V30 11 1 11 12
M  V30 12 2 12 13
M  V30 13 1 12 14
M  V30 14 2 14 15
M  V30 15 1 15 16
M  V30 16 2 16 17
M  V30 17 1 17 18
M  V30 18 2 18 19
M  V30 19 2 10 20
M  V30 20 1 20 21
M  V30 21 1 21 22
M  V30 22 2 4 23
M  V30 23 1 23 24
M  V30 24 1 24 25
M  V30 25 2 24 26
M  V30 26 1 26 27
M  V30 27 1 26 2
M  V30 28 2 22 5
M  V30 29 1 21 8
M  V30 30 1 19 14
M  V30 31 1 1 28
M  V30 32 1 1 29
M  V30 33 1 1 30
M  V30 34 1 3 31
M  V30 35 1 6 32
M  V30 36 1 7 33
M  V30 37 1 11 34
M  V30 38 1 15 35
M  V30 39 1 16 36
M  V30 40 1 17 37
M  V30 41 1 18 38
M  V30 42 1 19 39
M  V30 43 1 22 40
M  V30 44 1 23 41
M  V30 45 1 25 42
M  V30 46 1 25 43
M  V30 47 1 25 44
M  V30 48 1 27 45
M  V30 END BOND
M  V30 END CTAB
M  END
>  <Dataset>  (266) 
ChEMBL_Kinases

>  <Ligand_Instance>  (266) 
nan

>  <PDB_ID>  (266) 
nan

>  <Standardized_SMILES>  (266) 
Cc1cc(-c2ccc3nc(NC(=O)c4ccccc4)nn3c2)cc(C)c1O

>  <Name>  (266) 
nan

>  <Pocket>  (266) 
nan

>  <ATP_Site>  (266) 
nan

>  <Peripheral>  (266) 
nan

>  <Num_H_Atoms_ProtBoundConf>  (266) 
nan

>  <Num_Resolved_Atoms>  (266) 
nan

>  <Num_Not_Resolved_Atoms>  (266) 
nan

$$$$
CHEMBL4636306
     RDKit          3D

  0  0  0  0  0  0  0  0  0  0999 V3000
M  V30 BEGIN CTAB
M  V30 COUNTS 52 55 0 0 0
M  V30 BEGIN ATOM
M  V30 1 C 0.745551 -0.843394 4.307722 0
M  V30 2 O 1.974086 -0.283114 3.899061 0
M  V30 3 C 2.516746 -1.218244 3.015756 0
M  V30 4 C 3.815295 -0.823579 2.462603 0
M  V30 5 C 4.979296 -1.410293 2.917542 0
M  V30 6 C 6.239049 -1.091347 2.463312 0
M  V30 7 N 6.282522 -0.141172 1.515713 0
M  V30 8 C 5.166470 0.453792 1.047170 0
M  V30 9 C 3.885594 0.146178 1.492337 0
M  V30 10 C 2.794724 0.857594 0.877859 0
M  V30 11 C 2.977713 2.228128 0.983387 0
M  V30 12 C 2.080359 3.159089 0.465916 0
M  V30 13 C 0.942063 2.732722 -0.190662 0
M  V30 14 N -0.107988 3.318455 -0.794177 0
M  V30 15 N -0.916040 2.384961 -1.259472 0
M  V30 16 C -0.416570 1.147608 -0.973089 0
M  V30 17 C -1.030499 -0.150742 -1.324962 0
M  V30 18 O -0.470228 -1.236631 -1.023320 0
M  V30 19 N -2.273105 -0.136691 -2.013504 0
M  V30 20 C -2.965157 -1.325210 -2.407299 0
M  V30 21 C -3.286630 -2.154060 -1.194368 0
M  V30 22 C -4.155841 -1.425753 -0.206032 0
M  V30 23 C -4.400725 -2.357127 0.964960 0
M  V30 24 O -4.886269 -3.587053 0.583305 0
M  V30 25 C -4.086385 -4.259998 -0.313201 0
M  V30 26 C -4.047218 -3.418959 -1.581747 0
M  V30 27 C 0.763338 1.368902 -0.294167 0
M  V30 28 C 1.656604 0.455481 0.220515 0
M  V30 29 H 1.011582 -1.811900 4.792787 0
M  V30 30 H 0.215631 -1.148388 3.362928 0
M  V30 31 H 0.148962 -0.175202 4.925935 0
M  V30 32 H 2.654344 -2.141740 3.645849 0
M  V30 33 H 1.761829 -1.494786 2.264667 0
M  V30 34 H 4.864990 -2.178341 3.691942 0
M  V30 35 H 7.077228 -1.621413 2.897413 0
M  V30 36 H 5.425992 1.186918 0.290567 0
M  V30 37 H 3.806362 2.742517 1.462314 0
M  V30 38 H 2.185416 4.227864 0.527522 0
M  V30 39 H -0.203524 4.361560 -0.849648 0
M  V30 40 H -2.698472 0.812041 -2.239891 0
M  V30 41 H -3.920860 -1.076634 -2.887819 0
M  V30 42 H -2.393505 -1.933715 -3.116361 0
M  V30 43 H -2.401893 -2.506342 -0.654524 0
M  V30 44 H -3.676532 -0.515142 0.198952 0
M  V30 45 H -5.132480 -1.244544 -0.675053 0
M  V30 46 H -3.429658 -2.505727 1.516845 0
M  V30 47 H -5.154947 -1.921045 1.668755 0
M  V30 48 H -4.498583 -5.258597 -0.487006 0
M  V30 49 H -3.052083 -4.259130 0.098202 0
M  V30 50 H -3.473274 -3.992313 -2.356029 0
M  V30 51 H -5.081039 -3.228812 -1.878793 0
M  V30 52 H 1.552102 -0.603217 0.142974 0
M  V30 END ATOM
M  V30 BEGIN BOND
M  V30 1 1 1 2
M  V30 2 1 2 3
M  V30 3 1 3 4
M  V30 4 2 4 5
M  V30 5 1 5 6
M  V30 6 2 6 7
M  V30 7 1 7 8
M  V30 8 2 8 9
M  V30 9 1 9 10
M  V30 10 2 10 11
M  V30 11 1 11 12
M  V30 12 2 12 13
M  V30 13 1 13 14
M  V30 14 1 14 15
M  V30 15 2 15 16
M  V30 16 1 16 17
M  V30 17 2 17 18
M  V30 18 1 17 19
M  V30 19 1 19 20
M  V30 20 1 20 21
M  V30 21 1 21 22
M  V30 22 1 22 23
M  V30 23 1 23 24
M  V30 24 1 24 25
M  V30 25 1 25 26
M  V30 26 1 16 27
M  V30 27 2 27 28
M  V30 28 1 9 4
M  V30 29 1 28 10
M  V30 30 1 27 13
M  V30 31 1 26 21
M  V30 32 1 1 29
M  V30 33 1 1 30
M  V30 34 1 1 31
M  V30 35 1 3 32
M  V30 36 1 3 33
M  V30 37 1 5 34
M  V30 38 1 6 35
M  V30 39 1 8 36
M  V30 40 1 11 37
M  V30 41 1 12 38
M  V30 42 1 14 39
M  V30 43 1 19 40
M  V30 44 1 20 41
M  V30 45 1 20 42
M  V30 46 1 21 43
M  V30 47 1 22 44
M  V30 48 1 22 45
M  V30 49 1 23 46
M  V30 50 1 23 47
M  V30 51 1 25 48
M  V30 52 1 25 49
M  V30 53 1 26 50
M  V30 54 1 26 51
M  V30 55 1 28 52
M  V30 END BOND
M  V30 END CTAB
M  END
>  <Dataset>  (267) 
ChEMBL_Kinases

>  <Ligand_Instance>  (267) 
nan

>  <PDB_ID>  (267) 
nan

>  <Standardized_SMILES>  (267) 
COCc1ccncc1-c1ccc2[nH]nc(C(=O)NCC3CCOCC3)c2c1

>  <Name>  (267) 
nan

>  <Pocket>  (267) 
nan

>  <ATP_Site>  (267) 
nan

>  <Peripheral>  (267) 
nan

>  <Num_H_Atoms_ProtBoundConf>  (267) 
nan

>  <Num_Resolved_Atoms>  (267) 
nan

>  <Num_Not_Resolved_Atoms>  (267) 
nan

$$$$
CHEMBL4636314
     RDKit          3D

  0  0  0  0  0  0  0  0  0  0999 V3000
M  V30 BEGIN CTAB
M  V30 COUNTS 63 67 0 0 0
M  V30 BEGIN ATOM
M  V30 1 C -2.462374 1.724380 4.290262 0
M  V30 2 O -3.012083 0.570009 3.708022 0
M  V30 3 C -2.097510 -0.199786 2.893093 0
M  V30 4 C -0.798493 0.086087 2.658524 0
M  V30 5 C -0.190528 -0.829667 1.833427 0
M  V30 6 C 1.192070 -0.452861 1.582673 0
M  V30 7 C 1.506231 -0.915742 0.323505 0
M  V30 8 N 2.771743 -0.618548 -0.037008 0
M  V30 9 C 3.672632 0.043103 0.695145 0
M  V30 10 C 4.952779 0.360927 0.363101 0
M  V30 11 N 5.543769 -0.027165 -0.964613 0
M  V30 12 C 5.497250 0.915842 -2.098654 0
M  V30 13 C 4.449925 0.332885 -3.005403 0 CFG=1
M  V30 14 C 4.286705 1.259536 -4.206873 0
M  V30 15 O 4.653079 -0.951286 -3.372326 0
M  V30 16 C 5.626508 -1.683811 -2.780100 0 CFG=1
M  V30 17 C 6.729308 -1.931476 -3.820099 0
M  V30 18 C 6.202578 -1.213043 -1.497526 0
M  V30 19 S 5.696023 1.212041 1.621725 0
M  V30 20 N 4.189409 1.173116 2.741254 0
M  V30 21 C 3.304800 0.482344 1.947393 0
M  V30 22 C 2.006273 0.228136 2.424556 0
M  V30 23 C -0.952293 -1.902472 1.358039 0
M  V30 24 C -2.329361 -1.949356 1.784393 0
M  V30 25 C -3.125221 -1.013237 2.681039 0
M  V30 26 C -4.192037 -1.869832 2.451841 0
M  V30 27 O -4.652673 -1.047934 3.301265 0
M  V30 28 N -4.932589 -2.894855 1.954027 0
M  V30 29 C -6.297552 -3.122383 2.375167 0
M  V30 30 C -7.263182 -2.159961 1.826087 0
M  V30 31 C -7.629589 -1.010535 2.530087 0
M  V30 32 C -8.545504 -0.230951 1.827407 0
M  V30 33 C -9.088635 -0.475238 0.590623 0
M  V30 34 C -8.687710 -1.628839 -0.052236 0
M  V30 35 C -7.788250 -2.429871 0.591650 0
M  V30 36 H -2.000446 2.336496 3.478893 0
M  V30 37 H -3.272021 2.322156 4.805310 0
M  V30 38 H -1.665184 1.571310 5.022426 0
M  V30 39 H -0.531297 0.979793 3.182023 0
M  V30 40 H 1.010603 -1.451087 -0.469062 0
M  V30 41 H 5.149818 1.914631 -1.748174 0
M  V30 42 H 6.477613 1.060767 -2.572658 0
M  V30 43 H 3.469694 0.398964 -2.476005 0
M  V30 44 H 5.187740 1.247320 -4.849753 0
M  V30 45 H 4.148418 2.305391 -3.857898 0
M  V30 46 H 3.437627 0.933384 -4.819771 0
M  V30 47 H 5.186402 -2.711875 -2.597729 0
M  V30 48 H 6.313085 -1.706131 -4.839277 0
M  V30 49 H 7.013916 -3.018473 -3.856995 0
M  V30 50 H 7.629059 -1.363031 -3.606409 0
M  V30 51 H 6.156706 -2.050367 -0.731873 0
M  V30 52 H 7.289888 -1.011423 -1.617067 0
M  V30 53 H 1.616845 0.519681 3.370043 0
M  V30 54 H -0.236037 -2.461917 0.747339 0
M  V30 55 H -2.436818 -2.919934 1.166197 0
M  V30 56 H -4.278623 -3.349568 1.291297 0
M  V30 57 H -6.430296 -3.237974 3.460811 0
M  V30 58 H -6.540089 -4.174114 1.975541 0
M  V30 59 H -7.280834 -0.728080 3.498721 0
M  V30 60 H -8.847882 0.679368 2.359760 0
M  V30 61 H -9.797989 0.236089 0.164963 0
M  V30 62 H -9.151402 -1.759351 -1.016166 0
M  V30 63 H -7.509460 -3.324153 0.036335 0
M  V30 END ATOM
M  V30 BEGIN BOND
M  V30 1 1 1 2
M  V30 2 1 2 3
M  V30 3 2 3 4
M  V30 4 1 4 5
M  V30 5 1 5 6
M  V30 6 1 6 7
M  V30 7 2 7 8
M  V30 8 1 8 9
M  V30 9 2 9 10
M  V30 10 1 10 11
M  V30 11 1 11 12
M  V30 12 1 12 13
M  V30 13 1 13 14
M  V30 14 1 13 15
M  V30 15 1 15 16
M  V30 16 1 16 17
M  V30 17 1 16 18
M  V30 18 1 10 19
M  V30 19 1 19 20
M  V30 20 2 20 21
M  V30 21 1 21 22
M  V30 22 2 5 23
M  V30 23 1 23 24
M  V30 24 2 24 25
M  V30 25 1 25 26
M  V30 26 2 26 27
M  V30 27 1 26 28
M  V30 28 1 28 29
M  V30 29 1 29 30
M  V30 30 2 30 31
M  V30 31 1 31 32
M  V30 32 2 32 33
M  V30 33 1 33 34
M  V30 34 2 34 35
M  V30 35 1 25 3
M  V30 36 1 35 30
M  V30 37 2 22 6
M  V30 38 1 21 9
M  V30 39 1 18 11
M  V30 40 1 1 36
M  V30 41 1 1 37
M  V30 42 1 1 38
M  V30 43 1 4 39
M  V30 44 1 7 40
M  V30 45 1 12 41
M  V30 46 1 12 42
M  V30 47 1 13 43 CFG=1
M  V30 48 1 14 44
M  V30 49 1 14 45
M  V30 50 1 14 46
M  V30 51 1 16 47 CFG=1
M  V30 52 1 17 48
M  V30 53 1 17 49
M  V30 54 1 17 50
M  V30 55 1 18 51
M  V30 56 1 18 52
M  V30 57 1 22 53
M  V30 58 1 23 54
M  V30 59 1 24 55
M  V30 60 1 28 56
M  V30 61 1 29 57
M  V30 62 1 29 58
M  V30 63 1 31 59
M  V30 64 1 32 60
M  V30 65 1 33 61
M  V30 66 1 34 62
M  V30 67 1 35 63
M  V30 END BOND
M  V30 END CTAB
M  END
>  <Dataset>  (268) 
ChEMBL_Kinases

>  <Ligand_Instance>  (268) 
nan

>  <PDB_ID>  (268) 
nan

>  <Standardized_SMILES>  (268) 
COc1cc(-c2cnc3c(N4C[C@@H](C)O[C@@H](C)C4)snc3c2)ccc1C(=O)NCc1ccccc1

>  <Name>  (268) 
nan

>  <Pocket>  (268) 
nan

>  <ATP_Site>  (268) 
nan

>  <Peripheral>  (268) 
nan

>  <Num_H_Atoms_ProtBoundConf>  (268) 
nan

>  <Num_Resolved_Atoms>  (268) 
nan

>  <Num_Not_Resolved_Atoms>  (268) 
nan

$$$$
CHEMBL4636337
     RDKit          3D

  0  0  0  0  0  0  0  0  0  0999 V3000
M  V30 BEGIN CTAB
M  V30 COUNTS 49 52 0 0 0
M  V30 BEGIN ATOM
M  V30 1 N 2.563865 -6.334437 2.133672 0
M  V30 2 C 1.590956 -5.393724 1.667944 0
M  V30 3 C 2.084649 -4.209574 1.145545 0
M  V30 4 C 1.201377 -3.241913 0.670470 0
M  V30 5 C -0.176455 -3.481797 0.728441 0
M  V30 6 C -0.957224 -2.378525 0.194536 0
M  V30 7 C -0.684798 -1.062130 0.514442 0
M  V30 8 C -1.429541 -0.023756 0.003056 0
M  V30 9 N -1.121681 1.320937 0.347721 0
M  V30 10 C -0.003025 1.600449 1.228177 0 CFG=1
M  V30 11 C 1.328389 1.191940 0.656572 0
M  V30 12 C 2.173426 2.399981 0.296909 0
M  V30 13 C 2.857364 2.992167 1.484736 0
M  V30 14 C 2.141468 2.745561 2.795974 0
M  V30 15 N 0.822191 3.278825 2.827086 0
M  V30 16 C -0.028581 3.006192 1.737688 0
M  V30 17 C -2.449625 -0.402800 -0.838127 0
M  V30 18 C -3.249856 0.568335 -1.398905 0
M  V30 19 C -4.295367 0.285146 -2.252926 0
M  V30 20 N -4.547726 -1.019358 -2.555748 0
M  V30 21 C -3.793864 -2.009671 -2.033375 0
M  V30 22 C -2.750275 -1.702963 -1.179074 0
M  V30 23 C -1.986843 -2.723111 -0.651620 0
M  V30 24 C -0.643769 -4.669713 1.253548 0
M  V30 25 F -1.973241 -4.812365 1.268888 0
M  V30 26 C 0.233478 -5.626507 1.723438 0
M  V30 27 F -0.229634 -6.769426 2.228177 0
M  V30 28 H 3.030570 -7.039230 1.530994 0
M  V30 29 H 2.909289 -6.411937 3.134458 0
M  V30 30 H 3.168313 -4.013245 1.096399 0
M  V30 31 H 1.650332 -2.343233 0.276857 0
M  V30 32 H 0.145910 -0.938158 1.190399 0
M  V30 33 H -1.635142 2.161765 0.021124 0
M  V30 34 H -0.183117 0.950631 2.138634 0
M  V30 35 H 1.242359 0.599164 -0.263289 0
M  V30 36 H 1.922736 0.637361 1.410953 0
M  V30 37 H 1.645843 3.177092 -0.251452 0
M  V30 38 H 2.982295 2.025974 -0.377391 0
M  V30 39 H 3.895367 2.565932 1.611137 0
M  V30 40 H 2.983096 4.071609 1.327972 0
M  V30 41 H 2.731475 3.325263 3.564170 0
M  V30 42 H 2.240951 1.690733 3.127672 0
M  V30 43 H 0.421240 3.150301 3.764011 0
M  V30 44 H 0.053265 3.727616 0.891031 0
M  V30 45 H -1.085315 3.165321 2.109362 0
M  V30 46 H -3.105569 1.602557 -1.203486 0
M  V30 47 H -4.920038 1.072110 -2.688428 0
M  V30 48 H -3.967779 -3.069427 -2.254586 0
M  V30 49 H -2.208838 -3.743412 -0.908187 0
M  V30 END ATOM
M  V30 BEGIN BOND
M  V30 1 1 1 2
M  V30 2 2 2 3
M  V30 3 1 3 4
M  V30 4 2 4 5
M  V30 5 1 5 6
M  V30 6 2 6 7
M  V30 7 1 7 8
M  V30 8 1 8 9
M  V30 9 1 9 10
M  V30 10 1 10 11
M  V30 11 1 11 12
M  V30 12 1 12 13
M  V30 13 1 13 14
M  V30 14 1 14 15
M  V30 15 1 15 16
M  V30 16 2 8 17
M  V30 17 1 17 18
M  V30 18 2 18 19
M  V30 19 1 19 20
M  V30 20 2 20 21
M  V30 21 1 21 22
M  V30 22 2 22 23
M  V30 23 1 5 24
M  V30 24 1 24 25
M  V30 25 2 24 26
M  V30 26 1 26 27
M  V30 27 1 26 2
M  V30 28 1 23 6
M  V30 29 1 16 10
M  V30 30 1 22 17
M  V30 31 1 1 28
M  V30 32 1 1 29
M  V30 33 1 3 30
M  V30 34 1 4 31
M  V30 35 1 7 32
M  V30 36 1 9 33
M  V30 37 1 10 34 CFG=1
M  V30 38 1 11 35
M  V30 39 1 11 36
M  V30 40 1 12 37
M  V30 41 1 12 38
M  V30 42 1 13 39
M  V30 43 1 13 40
M  V30 44 1 14 41
M  V30 45 1 14 42
M  V30 46 1 15 43
M  V30 47 1 16 44
M  V30 48 1 16 45
M  V30 49 1 18 46
M  V30 50 1 19 47
M  V30 51 1 21 48
M  V30 52 1 23 49
M  V30 END BOND
M  V30 END CTAB
M  END
>  <Dataset>  (269) 
ChEMBL_Kinases

>  <Ligand_Instance>  (269) 
nan

>  <PDB_ID>  (269) 
nan

>  <Standardized_SMILES>  (269) 
Nc1ccc(-c2cc(N[C@H]3CCCCNC3)c3ccncc3c2)c(F)c1F

>  <Name>  (269) 
nan

>  <Pocket>  (269) 
nan

>  <ATP_Site>  (269) 
nan

>  <Peripheral>  (269) 
nan

>  <Num_H_Atoms_ProtBoundConf>  (269) 
nan

>  <Num_Resolved_Atoms>  (269) 
nan

>  <Num_Not_Resolved_Atoms>  (269) 
nan

$$$$
CHEMBL4636367
     RDKit          3D

  0  0  0  0  0  0  0  0  0  0999 V3000
M  V30 BEGIN CTAB
M  V30 COUNTS 37 39 0 0 0
M  V30 BEGIN ATOM
M  V30 1 C 2.537647 -3.965138 0.303674 0
M  V30 2 O 1.970193 -2.721198 0.682620 0
M  V30 3 C 2.670674 -1.893358 1.514588 0
M  V30 4 O 3.812143 -2.321649 1.892889 0
M  V30 5 C 2.060868 -0.610042 1.892422 0
M  V30 6 N 0.770099 -0.365312 1.332856 0
M  V30 7 C 0.540709 0.251977 0.148086 0
M  V30 8 C 1.507145 0.793738 -0.804264 0
M  V30 9 C 2.090721 0.118029 -1.857638 0
M  V30 10 C 2.992838 0.792604 -2.666069 0
M  V30 11 N 3.314579 2.091734 -2.449534 0
M  V30 12 C 2.736281 2.743386 -1.414248 0
M  V30 13 C 1.825615 2.124584 -0.568505 0
M  V30 14 N -0.802285 0.292945 -0.029989 0
M  V30 15 C -1.395769 -0.300136 1.047363 0
M  V30 16 C -2.724694 -0.517434 1.358839 0
M  V30 17 C -3.736954 -0.057937 0.413912 0
M  V30 18 N -5.113828 -0.257617 0.688352 0
M  V30 19 O -3.390065 0.518149 -0.649638 0
M  V30 20 C -3.110941 -1.148540 2.523624 0
M  V30 21 C -2.099989 -1.555680 3.369437 0
M  V30 22 C -0.764524 -1.354067 3.088123 0
M  V30 23 C -0.386348 -0.721614 1.920181 0
M  V30 24 H 2.021921 -4.801876 0.824761 0
M  V30 25 H 3.625036 -4.033324 0.588924 0
M  V30 26 H 2.487876 -4.139334 -0.780508 0
M  V30 27 H 2.760849 0.181678 1.559597 0
M  V30 28 H 2.072727 -0.577313 3.016701 0
M  V30 29 H 1.775644 -0.893810 -1.945487 0
M  V30 30 H 3.389067 0.167912 -3.460408 0
M  V30 31 H 3.047578 3.788332 -1.305861 0
M  V30 32 H 1.419002 2.714114 0.222064 0
M  V30 33 H -5.760972 -0.660493 0.004364 0
M  V30 34 H -5.973067 -0.621628 0.229806 0
M  V30 35 H -4.170477 -1.282922 2.698438 0
M  V30 36 H -2.410047 -2.051828 4.284652 0
M  V30 37 H 0.008397 -1.683355 3.768848 0
M  V30 END ATOM
M  V30 BEGIN BOND
M  V30 1 1 1 2
M  V30 2 1 2 3
M  V30 3 2 3 4
M  V30 4 1 3 5
M  V30 5 1 5 6
M  V30 6 1 6 7
M  V30 7 1 7 8
M  V30 8 2 8 9
M  V30 9 1 9 10
M  V30 10 2 10 11
M  V30 11 1 11 12
M  V30 12 2 12 13
M  V30 13 2 7 14
M  V30 14 1 14 15
M  V30 15 2 15 16
M  V30 16 1 16 17
M  V30 17 1 17 18
M  V30 18 2 17 19
M  V30 19 1 16 20
M  V30 20 2 20 21
M  V30 21 1 21 22
M  V30 22 2 22 23
M  V30 23 1 23 6
M  V30 24 1 13 8
M  V30 25 1 23 15
M  V30 26 1 1 24
M  V30 27 1 1 25
M  V30 28 1 1 26
M  V30 29 1 5 27
M  V30 30 1 5 28
M  V30 31 1 9 29
M  V30 32 1 10 30
M  V30 33 1 12 31
M  V30 34 1 13 32
M  V30 35 1 18 33
M  V30 36 1 18 34
M  V30 37 1 20 35
M  V30 38 1 21 36
M  V30 39 1 22 37
M  V30 END BOND
M  V30 END CTAB
M  END
>  <Dataset>  (270) 
ChEMBL_Kinases

>  <Ligand_Instance>  (270) 
nan

>  <PDB_ID>  (270) 
nan

>  <Standardized_SMILES>  (270) 
COC(=O)Cn1c(-c2ccncc2)nc2c(C(N)=O)cccc21

>  <Name>  (270) 
nan

>  <Pocket>  (270) 
nan

>  <ATP_Site>  (270) 
nan

>  <Peripheral>  (270) 
nan

>  <Num_H_Atoms_ProtBoundConf>  (270) 
nan

>  <Num_Resolved_Atoms>  (270) 
nan

>  <Num_Not_Resolved_Atoms>  (270) 
nan

$$$$
CHEMBL4636396
     RDKit          3D

  0  0  0  0  0  0  0  0  0  0999 V3000
M  V30 BEGIN CTAB
M  V30 COUNTS 69 72 0 0 0
M  V30 BEGIN ATOM
M  V30 1 C 7.232757 -3.179800 2.197119 0
M  V30 2 C 6.528043 -4.048576 1.179521 0
M  V30 3 C 5.036983 -3.744002 1.195133 0
M  V30 4 N 4.853353 -2.348073 0.860046 0
M  V30 5 C 3.502915 -1.911350 0.836987 0
M  V30 6 O 3.006897 -3.043956 1.151600 0
M  V30 7 C 3.111312 -0.546566 0.521259 0
M  V30 8 C 4.161221 0.262624 0.197350 0
M  V30 9 N 3.905119 1.533001 -0.125123 0
M  V30 10 C 2.655718 2.030144 -0.138809 0
M  V30 11 C 2.407596 3.366928 -0.474959 0
M  V30 12 C 1.031831 3.693748 -0.422156 0
M  V30 13 C -0.039339 2.815913 -0.075505 0
M  V30 14 C -1.033278 3.799515 -0.206888 0
M  V30 15 C -1.956152 4.712515 -0.328795 0
M  V30 16 C -3.230973 5.112268 -0.198818 0
M  V30 17 Cl -3.535924 6.754229 -0.703948 0
M  V30 18 C -4.053500 4.125959 0.316836 0
M  V30 19 O -5.333955 4.645005 0.408221 0
M  V30 20 C -3.460003 2.883102 0.622616 0
M  V30 21 Cl -4.718439 1.840486 1.249426 0
M  V30 22 C -2.050570 2.839360 0.340934 0
M  V30 23 N 0.331989 1.587544 0.217828 0
M  V30 24 C 1.609454 1.201386 0.190750 0
M  V30 25 C 1.806069 -0.117254 0.531389 0
M  V30 26 N 0.823836 -1.064710 0.902735 0
M  V30 27 C -0.645715 -1.040095 0.966957 0 CFG=1
M  V30 28 C -1.120399 -0.999712 -0.423864 0
M  V30 29 C -1.879985 -2.183024 -0.949669 0
M  V30 30 C -2.596281 -2.999863 0.058498 0 CFG=2
M  V30 31 C -3.976297 -2.448925 0.397437 0
M  V30 32 N -4.708807 -2.459273 -0.872085 0
M  V30 33 C -4.973736 -3.796784 -1.316427 0
M  V30 34 C -5.865494 -1.619309 -0.805373 0
M  V30 35 C -1.787877 -3.292215 1.278472 0
M  V30 36 C -1.079563 -2.137738 1.855844 0
M  V30 37 H 6.510166 -2.432978 2.592884 0
M  V30 38 H 8.064253 -2.597103 1.741042 0
M  V30 39 H 7.646003 -3.753839 3.033366 0
M  V30 40 H 6.932422 -3.774844 0.185838 0
M  V30 41 H 6.714268 -5.121787 1.342480 0
M  V30 42 H 4.572661 -4.441863 0.477085 0
M  V30 43 H 4.685997 -4.015176 2.204984 0
M  V30 44 H 5.688883 -1.715190 0.651184 0
M  V30 45 H 5.218254 0.103713 0.137599 0
M  V30 46 H 3.313798 3.897712 -0.710848 0
M  V30 47 H 1.109236 4.774584 -0.717109 0
M  V30 48 H -1.134552 5.382582 -0.735142 0
M  V30 49 H -5.624572 4.949104 1.345999 0
M  V30 50 H -2.063797 1.756343 0.730765 0
M  V30 51 H 1.125130 -2.005784 1.206535 0
M  V30 52 H -0.925342 -0.051332 1.471395 0
M  V30 53 H -0.254645 -0.770623 -1.121155 0
M  V30 54 H -1.795665 -0.128852 -0.573601 0
M  V30 55 H -1.129211 -2.826323 -1.492191 0
M  V30 56 H -2.617669 -1.883261 -1.733302 0
M  V30 57 H -2.804474 -3.998557 -0.429591 0
M  V30 58 H -3.943657 -1.461540 0.851107 0
M  V30 59 H -4.490521 -3.159498 1.068847 0
M  V30 60 H -4.254013 -4.153203 -2.102523 0
M  V30 61 H -4.951665 -4.510526 -0.470545 0
M  V30 62 H -5.967801 -3.785774 -1.825769 0
M  V30 63 H -6.116926 -1.333954 -1.849750 0
M  V30 64 H -5.638133 -0.696372 -0.225719 0
M  V30 65 H -6.744317 -2.116884 -0.356384 0
M  V30 66 H -2.476360 -3.760063 2.037893 0
M  V30 67 H -1.074153 -4.124919 1.005685 0
M  V30 68 H -1.718157 -1.705725 2.682651 0
M  V30 69 H -0.205413 -2.566348 2.446077 0
M  V30 END ATOM
M  V30 BEGIN BOND
M  V30 1 1 1 2
M  V30 2 1 2 3
M  V30 3 1 3 4
M  V30 4 1 4 5
M  V30 5 2 5 6
M  V30 6 1 5 7
M  V30 7 2 7 8
M  V30 8 1 8 9
M  V30 9 2 9 10
M  V30 10 1 10 11
M  V30 11 2 11 12
M  V30 12 1 12 13
M  V30 13 1 13 14
M  V30 14 2 14 15
M  V30 15 1 15 16
M  V30 16 1 16 17
M  V30 17 2 16 18
M  V30 18 1 18 19
M  V30 19 1 18 20
M  V30 20 1 20 21
M  V30 21 2 20 22
M  V30 22 2 13 23
M  V30 23 1 23 24
M  V30 24 2 24 25
M  V30 25 1 25 26
M  V30 26 1 26 27
M  V30 27 1 27 28
M  V30 28 1 28 29
M  V30 29 1 29 30
M  V30 30 1 30 31
M  V30 31 1 31 32
M  V30 32 1 32 33
M  V30 33 1 32 34
M  V30 34 1 30 35
M  V30 35 1 35 36
M  V30 36 1 25 7
M  V30 37 1 36 27
M  V30 38 1 24 10
M  V30 39 1 22 14
M  V30 40 1 1 37
M  V30 41 1 1 38
M  V30 42 1 1 39
M  V30 43 1 2 40
M  V30 44 1 2 41
M  V30 45 1 3 42
M  V30 46 1 3 43
M  V30 47 1 4 44
M  V30 48 1 8 45
M  V30 49 1 11 46
M  V30 50 1 12 47
M  V30 51 1 15 48
M  V30 52 1 19 49
M  V30 53 1 22 50
M  V30 54 1 26 51
M  V30 55 1 27 52 CFG=1
M  V30 56 1 28 53
M  V30 57 1 28 54
M  V30 58 1 29 55
M  V30 59 1 29 56
M  V30 60 1 30 57 CFG=3
M  V30 61 1 31 58
M  V30 62 1 31 59
M  V30 63 1 33 60
M  V30 64 1 33 61
M  V30 65 1 33 62
M  V30 66 1 34 63
M  V30 67 1 34 64
M  V30 68 1 34 65
M  V30 69 1 35 66
M  V30 70 1 35 67
M  V30 71 1 36 68
M  V30 72 1 36 69
M  V30 END BOND
M  V30 END CTAB
M  END
>  <Dataset>  (271) 
ChEMBL_Kinases

>  <Ligand_Instance>  (271) 
nan

>  <PDB_ID>  (271) 
nan

>  <Standardized_SMILES>  (271) 
CCCNC(=O)c1cnc2ccc(-c3cc(Cl)c(O)c(Cl)c3)nc2c1N[C@H]1CC[C@H](CN(C)C)CC1

>  <Name>  (271) 
nan

>  <Pocket>  (271) 
nan

>  <ATP_Site>  (271) 
nan

>  <Peripheral>  (271) 
nan

>  <Num_H_Atoms_ProtBoundConf>  (271) 
nan

>  <Num_Resolved_Atoms>  (271) 
nan

>  <Num_Not_Resolved_Atoms>  (271) 
nan

$$$$
CHEMBL4566901
     RDKit          3D

  0  0  0  0  0  0  0  0  0  0999 V3000
M  V30 BEGIN CTAB
M  V30 COUNTS 37 40 0 0 0
M  V30 BEGIN ATOM
M  V30 1 C -1.283113 -2.439770 4.331003 0
M  V30 2 C -0.365354 -2.016492 3.163282 0
M  V30 3 N -0.982048 -1.123437 2.220862 0
M  V30 4 C -0.642428 -0.477144 1.008064 0
M  V30 5 C 0.559203 -0.586442 0.348840 0
M  V30 6 C 0.931852 0.022722 -0.825030 0
M  V30 7 C 2.224277 -0.136343 -1.471200 0
M  V30 8 C 3.278857 -0.906852 -1.032506 0
M  V30 9 C 4.470766 -0.992156 -1.720979 0
M  V30 10 N 4.657089 -0.312000 -2.874121 0
M  V30 11 C 3.647252 0.448989 -3.329134 0
M  V30 12 C 2.450413 0.543035 -2.650459 0
M  V30 13 N -0.019413 0.811093 -1.361487 0
M  V30 14 C -1.216966 0.979056 -0.793832 0
M  V30 15 C -2.118922 1.800584 -1.415489 0
M  V30 16 N -3.362375 2.040207 -0.925855 0
M  V30 17 C -3.737073 1.436109 0.241593 0
M  V30 18 C -2.804509 0.617381 0.838119 0
M  V30 19 C -1.538350 0.347078 0.379356 0
M  V30 20 C 1.090295 -1.877716 3.486989 0
M  V30 21 C 0.575389 -3.087092 2.767944 0
M  V30 22 H -0.670236 -2.582905 5.235092 0
M  V30 23 H -1.718728 -3.400099 4.048316 0
M  V30 24 H -2.038308 -1.659130 4.553507 0
M  V30 25 H -1.940526 -0.923005 2.564921 0
M  V30 26 H 1.349241 -1.206514 0.736260 0
M  V30 27 H 3.152393 -1.452500 -0.123165 0
M  V30 28 H 5.268189 -1.627256 -1.310148 0
M  V30 29 H 3.810871 0.993088 -4.261585 0
M  V30 30 H 1.704610 1.187920 -3.111425 0
M  V30 31 H -1.839153 2.285905 -2.338881 0
M  V30 32 H -4.723020 1.625584 0.630557 0
M  V30 33 H -3.175384 0.181164 1.747992 0
M  V30 34 H 1.419117 -2.075534 4.551708 0
M  V30 35 H 1.660937 -1.081652 3.022607 0
M  V30 36 H 0.955098 -3.251090 1.761891 0
M  V30 37 H 0.567702 -4.061209 3.349362 0
M  V30 END ATOM
M  V30 BEGIN BOND
M  V30 1 1 1 2
M  V30 2 1 2 3
M  V30 3 1 3 4
M  V30 4 2 4 5
M  V30 5 1 5 6
M  V30 6 1 6 7
M  V30 7 2 7 8
M  V30 8 1 8 9
M  V30 9 2 9 10
M  V30 10 1 10 11
M  V30 11 2 11 12
M  V30 12 2 6 13
M  V30 13 1 13 14
M  V30 14 2 14 15
M  V30 15 1 15 16
M  V30 16 2 16 17
M  V30 17 1 17 18
M  V30 18 2 18 19
M  V30 19 1 2 20
M  V30 20 1 20 21
M  V30 21 1 21 2
M  V30 22 1 19 4
M  V30 23 1 12 7
M  V30 24 1 19 14
M  V30 25 1 1 22
M  V30 26 1 1 23
M  V30 27 1 1 24
M  V30 28 1 3 25
M  V30 29 1 5 26
M  V30 30 1 8 27
M  V30 31 1 9 28
M  V30 32 1 11 29
M  V30 33 1 12 30
M  V30 34 1 15 31
M  V30 35 1 17 32
M  V30 36 1 18 33
M  V30 37 1 20 34
M  V30 38 1 20 35
M  V30 39 1 21 36
M  V30 40 1 21 37
M  V30 END BOND
M  V30 END CTAB
M  END
>  <Dataset>  (272) 
ChEMBL_Kinases

>  <Ligand_Instance>  (272) 
nan

>  <PDB_ID>  (272) 
nan

>  <Standardized_SMILES>  (272) 
CC1(Nc2cc(-c3ccncc3)nc3cnccc23)CC1

>  <Name>  (272) 
nan

>  <Pocket>  (272) 
nan

>  <ATP_Site>  (272) 
nan

>  <Peripheral>  (272) 
nan

>  <Num_H_Atoms_ProtBoundConf>  (272) 
nan

>  <Num_Resolved_Atoms>  (272) 
nan

>  <Num_Not_Resolved_Atoms>  (272) 
nan

$$$$
CHEMBL4566878
     RDKit          3D

  0  0  0  0  0  0  0  0  0  0999 V3000
M  V30 BEGIN CTAB
M  V30 COUNTS 38 40 0 0 0
M  V30 BEGIN ATOM
M  V30 1 C 0.359504 -3.810018 -0.529217 0
M  V30 2 C -0.413912 -3.310627 0.713230 0 CFG=1
M  V30 3 N -0.688785 -1.892380 0.572501 0
M  V30 4 C -1.728532 -1.594753 -0.429932 0
M  V30 5 C -0.110442 -0.723414 1.187988 0
M  V30 6 N 0.372150 0.125941 0.250799 0
M  V30 7 C 0.956071 1.292488 0.583506 0
M  V30 8 C 1.470955 2.193637 -0.469416 0
M  V30 9 C 1.312573 1.762845 -1.765846 0
M  V30 10 C 1.797666 2.611715 -2.759553 0
M  V30 11 N 2.387853 3.786264 -2.472902 0
M  V30 12 C 2.517496 4.160217 -1.186735 0
M  V30 13 C 2.062114 3.373534 -0.146308 0
M  V30 14 F 2.181019 3.726738 1.141128 0
M  V30 15 N 1.088575 1.672657 1.878752 0
M  V30 16 C 0.627140 0.865817 2.835481 0
M  V30 17 C 0.682429 1.095976 4.199064 0
M  V30 18 N 0.190953 0.219527 5.102535 0
M  V30 19 C -0.396378 -0.957927 4.735390 0
M  V30 20 C -0.469268 -1.220241 3.393168 0
M  V30 21 C 0.031506 -0.324588 2.493879 0
M  V30 22 C -1.695897 -4.145652 0.811549 0
M  V30 23 F -2.452718 -3.987578 -0.326659 0
M  V30 24 F -1.327799 -5.499415 0.881299 0
M  V30 25 F -2.407815 -3.898595 1.950231 0
M  V30 26 H -0.070602 -4.778919 -0.811164 0
M  V30 27 H 0.361605 -3.061709 -1.322150 0
M  V30 28 H 1.438496 -3.999444 -0.252923 0
M  V30 29 H 0.203732 -3.575867 1.573942 0
M  V30 30 H -2.742786 -1.755260 -0.042017 0
M  V30 31 H -1.592216 -0.529422 -0.772855 0
M  V30 32 H -1.477296 -2.208857 -1.318500 0
M  V30 33 H 0.847261 0.829695 -2.066681 0
M  V30 34 H 1.704624 2.332172 -3.800490 0
M  V30 35 H 2.988474 5.101292 -0.918317 0
M  V30 36 H 1.149110 2.034027 4.519541 0
M  V30 37 H -0.760911 -1.596785 5.533679 0
M  V30 38 H -0.921230 -2.134220 3.116181 0
M  V30 END ATOM
M  V30 BEGIN BOND
M  V30 1 1 1 2
M  V30 2 1 2 3
M  V30 3 1 3 4
M  V30 4 1 3 5
M  V30 5 2 5 6
M  V30 6 1 6 7
M  V30 7 1 7 8
M  V30 8 2 8 9
M  V30 9 1 9 10
M  V30 10 2 10 11
M  V30 11 1 11 12
M  V30 12 2 12 13
M  V30 13 1 13 14
M  V30 14 2 7 15
M  V30 15 1 15 16
M  V30 16 2 16 17
M  V30 17 1 17 18
M  V30 18 2 18 19
M  V30 19 1 19 20
M  V30 20 2 20 21
M  V30 21 1 2 22
M  V30 22 1 22 23
M  V30 23 1 22 24
M  V30 24 1 22 25
M  V30 25 1 21 5
M  V30 26 1 13 8
M  V30 27 1 21 16
M  V30 28 1 1 26
M  V30 29 1 1 27
M  V30 30 1 1 28
M  V30 31 1 2 29 CFG=1
M  V30 32 1 4 30
M  V30 33 1 4 31
M  V30 34 1 4 32
M  V30 35 1 9 33
M  V30 36 1 10 34
M  V30 37 1 12 35
M  V30 38 1 17 36
M  V30 39 1 19 37
M  V30 40 1 20 38
M  V30 END BOND
M  V30 END CTAB
M  END
>  <Dataset>  (273) 
ChEMBL_Kinases

>  <Ligand_Instance>  (273) 
nan

>  <PDB_ID>  (273) 
nan

>  <Standardized_SMILES>  (273) 
C[C@@H](N(C)c1nc(-c2ccncc2F)nc2cnccc12)C(F)(F)F

>  <Name>  (273) 
nan

>  <Pocket>  (273) 
nan

>  <ATP_Site>  (273) 
nan

>  <Peripheral>  (273) 
nan

>  <Num_H_Atoms_ProtBoundConf>  (273) 
nan

>  <Num_Resolved_Atoms>  (273) 
nan

>  <Num_Not_Resolved_Atoms>  (273) 
nan

$$$$
CHEMBL456219
     RDKit          3D

  0  0  0  0  0  0  0  0  0  0999 V3000
M  V30 BEGIN CTAB
M  V30 COUNTS 36 39 0 0 0
M  V30 BEGIN ATOM
M  V30 1 C 2.730191 -6.748355 2.511699 0
M  V30 2 C 2.141898 -6.668963 1.261815 0
M  V30 3 C 1.744141 -5.490579 0.712652 0
M  V30 4 C 1.929221 -4.305098 1.424344 0
M  V30 5 C 1.543914 -2.941684 0.950775 0
M  V30 6 S 2.901192 -2.147529 0.031726 0
M  V30 7 C 2.335506 -0.516962 -0.492181 0
M  V30 8 N 3.074460 0.358530 -1.197438 0
M  V30 9 N 2.302043 1.422127 -1.375143 0
M  V30 10 C 1.087499 1.226791 -0.790989 0
M  V30 11 C -0.016559 2.187237 -0.786152 0
M  V30 12 C 0.108207 3.417412 -1.405668 0
M  V30 13 C -0.945929 4.328129 -1.398109 0
M  V30 14 C -2.104537 3.914538 -0.735765 0
M  V30 15 C -2.233998 2.676622 -0.110764 0
M  V30 16 C -1.175104 1.803722 -0.137741 0
M  V30 17 C -3.623671 2.637779 0.472256 0
M  V30 18 C -3.868091 4.138390 0.669272 0
M  V30 19 O -3.315231 4.615376 -0.567501 0
M  V30 20 O 1.145434 0.025573 -0.259145 0
M  V30 21 C 2.520864 -4.430364 2.669392 0
M  V30 22 C 2.936205 -5.616481 3.254504 0
M  V30 23 H 3.047191 -7.694167 2.947586 0
M  V30 24 H 1.986269 -7.580713 0.685763 0
M  V30 25 H 1.284142 -5.390072 -0.254562 0
M  V30 26 H 1.300479 -2.344539 1.853537 0
M  V30 27 H 0.615958 -2.998041 0.345570 0
M  V30 28 H 1.037581 3.711025 -1.919325 0
M  V30 29 H -0.872939 5.285376 -1.870388 0
M  V30 30 H -1.258543 0.840462 0.341566 0
M  V30 31 H -4.370760 2.313804 -0.260836 0
M  V30 32 H -3.649628 2.091857 1.431775 0
M  V30 33 H -3.258038 4.512802 1.532563 0
M  V30 34 H -4.934157 4.375709 0.775830 0
M  V30 35 H 2.677977 -3.521578 3.247866 0
M  V30 36 H 3.390478 -5.615007 4.236200 0
M  V30 END ATOM
M  V30 BEGIN BOND
M  V30 1 2 1 2
M  V30 2 1 2 3
M  V30 3 2 3 4
M  V30 4 1 4 5
M  V30 5 1 5 6
M  V30 6 1 6 7
M  V30 7 2 7 8
M  V30 8 1 8 9
M  V30 9 2 9 10
M  V30 10 1 10 11
M  V30 11 2 11 12
M  V30 12 1 12 13
M  V30 13 2 13 14
M  V30 14 1 14 15
M  V30 15 2 15 16
M  V30 16 1 15 17
M  V30 17 1 17 18
M  V30 18 1 18 19
M  V30 19 1 10 20
M  V30 20 1 4 21
M  V30 21 2 21 22
M  V30 22 1 22 1
M  V30 23 1 20 7
M  V30 24 1 16 11
M  V30 25 1 19 14
M  V30 26 1 1 23
M  V30 27 1 2 24
M  V30 28 1 3 25
M  V30 29 1 5 26
M  V30 30 1 5 27
M  V30 31 1 12 28
M  V30 32 1 13 29
M  V30 33 1 16 30
M  V30 34 1 17 31
M  V30 35 1 17 32
M  V30 36 1 18 33
M  V30 37 1 18 34
M  V30 38 1 21 35
M  V30 39 1 22 36
M  V30 END BOND
M  V30 END CTAB
M  END
>  <Dataset>  (274) 
ChEMBL_Kinases

>  <Ligand_Instance>  (274) 
nan

>  <PDB_ID>  (274) 
nan

>  <Standardized_SMILES>  (274) 
c1ccc(CSc2nnc(-c3ccc4c(c3)CCO4)o2)cc1

>  <Name>  (274) 
nan

>  <Pocket>  (274) 
nan

>  <ATP_Site>  (274) 
nan

>  <Peripheral>  (274) 
nan

>  <Num_H_Atoms_ProtBoundConf>  (274) 
nan

>  <Num_Resolved_Atoms>  (274) 
nan

>  <Num_Not_Resolved_Atoms>  (274) 
nan

$$$$
CHEMBL4566869
     RDKit          3D

  0  0  0  0  0  0  0  0  0  0999 V3000
M  V30 BEGIN CTAB
M  V30 COUNTS 45 47 0 0 0
M  V30 BEGIN ATOM
M  V30 1 C -1.311428 -3.995823 1.861880 0
M  V30 2 C -0.000190 -3.792694 1.156488 0
M  V30 3 C 1.084095 -4.512070 1.919251 0
M  V30 4 O -0.048549 -4.328625 -0.145020 0
M  V30 5 C 0.343578 -2.308229 1.074492 0
M  V30 6 C 0.327219 -1.802680 2.500731 0
M  V30 7 C 1.744093 -2.177957 0.563096 0
M  V30 8 N -0.644348 -1.575655 0.307647 0
M  V30 9 C -0.557893 -0.172486 0.090185 0
M  V30 10 N 0.441705 0.578530 0.577544 0
M  V30 11 C 0.592327 1.891734 0.418591 0
M  V30 12 C 1.738315 2.582390 1.009587 0
M  V30 13 C 1.879489 3.943443 0.834311 0
M  V30 14 C 2.998373 4.536923 1.426055 0
M  V30 15 N 3.905386 3.817808 2.139052 0
M  V30 16 C 3.701366 2.493131 2.267491 0
M  V30 17 C 2.631899 1.807039 1.724977 0
M  V30 18 N -0.342567 2.546311 -0.299947 0
M  V30 19 C -1.400000 1.913058 -0.846643 0
M  V30 20 C -2.369955 2.562682 -1.585931 0
M  V30 21 N -3.428383 1.909570 -2.129104 0
M  V30 22 C -3.531955 0.562664 -1.933998 0
M  V30 23 C -2.561856 -0.082208 -1.195469 0
M  V30 24 C -1.478741 0.553448 -0.633278 0
M  V30 25 H -1.113393 -4.011023 2.955748 0
M  V30 26 H -2.037353 -3.224338 1.575114 0
M  V30 27 H -1.658165 -5.028420 1.608454 0
M  V30 28 H 2.097593 -4.261187 1.549562 0
M  V30 29 H 0.962657 -4.370104 3.014984 0
M  V30 30 H 0.956287 -5.601891 1.646890 0
M  V30 31 H -0.073708 -3.584830 -0.814475 0
M  V30 32 H 0.645907 -0.742026 2.530499 0
M  V30 33 H -0.684251 -1.879835 2.937658 0
M  V30 34 H 1.093720 -2.341910 3.113486 0
M  V30 35 H 2.432065 -2.253174 1.435470 0
M  V30 36 H 1.941597 -1.190235 0.121375 0
M  V30 37 H 2.046590 -3.015649 -0.099194 0
M  V30 38 H -1.415221 -2.163474 -0.065801 0
M  V30 39 H 1.162724 4.541623 0.265333 0
M  V30 40 H 3.154543 5.620720 1.314227 0
M  V30 41 H 4.403243 1.860795 2.833900 0
M  V30 42 H 2.509352 0.732534 1.856239 0
M  V30 43 H -2.186639 3.632838 -1.677109 0
M  V30 44 H -4.390388 0.080746 -2.383792 0
M  V30 45 H -2.730306 -1.124469 -1.100408 0
M  V30 END ATOM
M  V30 BEGIN BOND
M  V30 1 1 1 2
M  V30 2 1 2 3
M  V30 3 1 2 4
M  V30 4 1 2 5
M  V30 5 1 5 6
M  V30 6 1 5 7
M  V30 7 1 5 8
M  V30 8 1 8 9
M  V30 9 2 9 10
M  V30 10 1 10 11
M  V30 11 1 11 12
M  V30 12 2 12 13
M  V30 13 1 13 14
M  V30 14 2 14 15
M  V30 15 1 15 16
M  V30 16 2 16 17
M  V30 17 2 11 18
M  V30 18 1 18 19
M  V30 19 2 19 20
M  V30 20 1 20 21
M  V30 21 2 21 22
M  V30 22 1 22 23
M  V30 23 2 23 24
M  V30 24 1 24 9
M  V30 25 1 17 12
M  V30 26 1 24 19
M  V30 27 1 1 25
M  V30 28 1 1 26
M  V30 29 1 1 27
M  V30 30 1 3 28
M  V30 31 1 3 29
M  V30 32 1 3 30
M  V30 33 1 4 31
M  V30 34 1 6 32
M  V30 35 1 6 33
M  V30 36 1 6 34
M  V30 37 1 7 35
M  V30 38 1 7 36
M  V30 39 1 7 37
M  V30 40 1 8 38
M  V30 41 1 13 39
M  V30 42 1 14 40
M  V30 43 1 16 41
M  V30 44 1 17 42
M  V30 45 1 20 43
M  V30 46 1 22 44
M  V30 47 1 23 45
M  V30 END BOND
M  V30 END CTAB
M  END
>  <Dataset>  (275) 
ChEMBL_Kinases

>  <Ligand_Instance>  (275) 
nan

>  <PDB_ID>  (275) 
nan

>  <Standardized_SMILES>  (275) 
CC(C)(O)C(C)(C)Nc1nc(-c2ccncc2)nc2cnccc12

>  <Name>  (275) 
nan

>  <Pocket>  (275) 
nan

>  <ATP_Site>  (275) 
nan

>  <Peripheral>  (275) 
nan

>  <Num_H_Atoms_ProtBoundConf>  (275) 
nan

>  <Num_Resolved_Atoms>  (275) 
nan

>  <Num_Not_Resolved_Atoms>  (275) 
nan

$$$$
CHEMBL4566843
     RDKit          3D

  0  0  0  0  0  0  0  0  0  0999 V3000
M  V30 BEGIN CTAB
M  V30 COUNTS 39 42 0 0 0
M  V30 BEGIN ATOM
M  V30 1 N -1.964269 -2.456112 1.424635 0
M  V30 2 C -0.982822 -3.291963 2.078541 0
M  V30 3 C 0.232437 -2.395616 2.287640 0
M  V30 4 C 0.795895 -1.857354 1.029910 0
M  V30 5 C 1.780241 -2.481387 0.279785 0
M  V30 6 C 2.223033 -1.888694 -0.865586 0
M  V30 7 C 1.686100 -0.681110 -1.258597 0
M  V30 8 C 0.697142 -0.041732 -0.516439 0
M  V30 9 C 0.266092 1.221166 -1.103658 0
M  V30 10 C 0.018681 1.265814 -2.474497 0
M  V30 11 C -0.392904 2.426530 -3.102573 0
M  V30 12 N -0.566452 3.565395 -2.379640 0
M  V30 13 C -0.335006 3.560629 -1.041003 0
M  V30 14 N -0.420284 4.519092 -0.079539 0
M  V30 15 N -0.078132 3.969079 1.073326 0
M  V30 16 C 0.236821 2.665789 0.922804 0
M  V30 17 C 0.073755 2.404763 -0.421994 0
M  V30 18 C 0.256819 -0.650132 0.640119 0
M  V30 19 C -0.040671 -1.381105 3.360547 0
M  V30 20 C 0.540134 -2.362424 4.360062 0
M  V30 21 C 1.279658 -3.007662 3.194255 0
M  V30 22 H -2.840918 -2.324102 1.933876 0
M  V30 23 H -2.028795 -2.598721 0.401165 0
M  V30 24 H -1.300352 -3.651006 3.062011 0
M  V30 25 H -0.662012 -4.143698 1.474833 0
M  V30 26 H 2.122411 -3.422850 0.689255 0
M  V30 27 H 2.991313 -2.411624 -1.417886 0
M  V30 28 H 2.126486 -0.310949 -2.194876 0
M  V30 29 H 0.134371 0.395346 -3.125673 0
M  V30 30 H -0.607898 2.571439 -4.132394 0
M  V30 31 H -0.710438 5.521277 -0.242663 0
M  V30 32 H 0.547222 1.986691 1.694447 0
M  V30 33 H -0.501027 -0.103415 1.156153 0
M  V30 34 H -1.082067 -1.143233 3.584026 0
M  V30 35 H 0.646827 -0.487127 3.324147 0
M  V30 36 H -0.268456 -3.041807 4.719502 0
M  V30 37 H 1.168172 -1.925334 5.147469 0
M  V30 38 H 2.253611 -2.539767 3.036197 0
M  V30 39 H 1.292244 -4.114893 3.228429 0
M  V30 END ATOM
M  V30 BEGIN BOND
M  V30 1 1 1 2
M  V30 2 1 2 3
M  V30 3 1 3 4
M  V30 4 2 4 5
M  V30 5 1 5 6
M  V30 6 2 6 7
M  V30 7 1 7 8
M  V30 8 1 8 9
M  V30 9 2 9 10
M  V30 10 1 10 11
M  V30 11 2 11 12
M  V30 12 1 12 13
M  V30 13 1 13 14
M  V30 14 1 14 15
M  V30 15 2 15 16
M  V30 16 1 16 17
M  V30 17 2 8 18
M  V30 18 1 3 19
M  V30 19 1 19 20
M  V30 20 1 20 21
M  V30 21 1 21 3
M  V30 22 1 18 4
M  V30 23 1 17 9
M  V30 24 2 17 13
M  V30 25 1 1 22
M  V30 26 1 1 23
M  V30 27 1 2 24
M  V30 28 1 2 25
M  V30 29 1 5 26
M  V30 30 1 6 27
M  V30 31 1 7 28
M  V30 32 1 10 29
M  V30 33 1 11 30
M  V30 34 1 14 31
M  V30 35 1 16 32
M  V30 36 1 18 33
M  V30 37 1 19 34
M  V30 38 1 19 35
M  V30 39 1 20 36
M  V30 40 1 20 37
M  V30 41 1 21 38
M  V30 42 1 21 39
M  V30 END BOND
M  V30 END CTAB
M  END
>  <Dataset>  (276) 
ChEMBL_Kinases

>  <Ligand_Instance>  (276) 
nan

>  <PDB_ID>  (276) 
nan

>  <Standardized_SMILES>  (276) 
NCC1(c2cccc(-c3ccnc4[nH]ncc34)c2)CCC1

>  <Name>  (276) 
nan

>  <Pocket>  (276) 
nan

>  <ATP_Site>  (276) 
nan

>  <Peripheral>  (276) 
nan

>  <Num_H_Atoms_ProtBoundConf>  (276) 
nan

>  <Num_Resolved_Atoms>  (276) 
nan

>  <Num_Not_Resolved_Atoms>  (276) 
nan

$$$$
CHEMBL4566717
     RDKit          3D

  0  0  0  0  0  0  0  0  0  0999 V3000
M  V30 BEGIN CTAB
M  V30 COUNTS 58 60 0 0 0
M  V30 BEGIN ATOM
M  V30 1 C -0.409971 -0.116418 1.732884 0
M  V30 2 C 0.623175 -1.178949 1.425718 0
M  V30 3 C 0.393539 -1.707736 0.055802 0
M  V30 4 C 2.013302 -0.642045 1.664236 0
M  V30 5 C 2.385392 0.550842 0.848061 0
M  V30 6 N 2.362183 0.368278 -0.570994 0
M  V30 7 C 2.742505 1.611286 -1.198753 0
M  V30 8 O 3.050188 2.694731 -0.625085 0
M  V30 9 O 2.851183 1.883222 -2.534681 0
M  V30 10 C 3.217132 3.077220 -3.152611 0
M  V30 11 C 4.602173 3.544670 -2.768712 0
M  V30 12 C 2.270071 4.211796 -2.874754 0
M  V30 13 C 3.187632 2.812121 -4.650511 0
M  V30 14 N 0.329556 -2.267604 2.380120 0
M  V30 15 C -0.933788 -2.873440 2.496823 0
M  V30 16 N -2.000440 -2.525883 1.775255 0
M  V30 17 C -3.205141 -3.064799 1.861151 0
M  V30 18 C -4.317703 -2.645725 1.052791 0
M  V30 19 C -5.563907 -3.228202 1.168993 0
M  V30 20 C -6.622356 -2.791523 0.363263 0
M  V30 21 N -6.437547 -1.802598 -0.530335 0
M  V30 22 C -5.216678 -1.208063 -0.667387 0
M  V30 23 C -4.191618 -1.638289 0.120008 0
M  V30 24 N -3.399707 -4.070535 2.763551 0
M  V30 25 C -2.391010 -4.499954 3.543326 0
M  V30 26 C -2.616006 -5.514481 4.443090 0
M  V30 27 N -1.596562 -5.954760 5.237003 0
M  V30 28 C -0.362654 -5.384806 5.131569 0
M  V30 29 C -0.190408 -4.373297 4.215742 0
M  V30 30 C -1.161462 -3.881882 3.389823 0
M  V30 31 H -1.366721 -0.322171 1.173940 0
M  V30 32 H -0.107485 0.890162 1.454151 0
M  V30 33 H -0.704153 -0.134620 2.803003 0
M  V30 34 H 0.007200 -0.900233 -0.568508 0
M  V30 35 H 1.282724 -2.242780 -0.342834 0
M  V30 36 H -0.402525 -2.475407 0.086585 0
M  V30 37 H 2.786934 -1.418158 1.627354 0
M  V30 38 H 2.010095 -0.295488 2.739236 0
M  V30 39 H 3.458501 0.798941 1.101200 0
M  V30 40 H 1.803912 1.445423 1.165428 0
M  V30 41 H 2.184745 -0.292488 -1.330876 0
M  V30 42 H 5.225630 2.714799 -2.397335 0
M  V30 43 H 4.565462 4.423495 -2.072625 0
M  V30 44 H 5.091225 3.939471 -3.682689 0
M  V30 45 H 1.694979 4.073454 -1.935137 0
M  V30 46 H 1.508339 4.237066 -3.679428 0
M  V30 47 H 2.782819 5.195152 -2.854753 0
M  V30 48 H 3.151417 3.758851 -5.216552 0
M  V30 49 H 4.053277 2.170348 -4.859396 0
M  V30 50 H 2.285001 2.159438 -4.829769 0
M  V30 51 H 1.146514 -2.542057 2.955356 0
M  V30 52 H -5.703870 -4.021858 1.888992 0
M  V30 53 H -7.596953 -3.259057 0.465892 0
M  V30 54 H -5.186123 -0.427652 -1.414417 0
M  V30 55 H -3.269269 -1.119321 -0.051768 0
M  V30 56 H -3.576322 -6.005441 4.570972 0
M  V30 57 H 0.400550 -5.777275 5.787178 0
M  V30 58 H 0.807627 -3.993616 4.208677 0
M  V30 END ATOM
M  V30 BEGIN BOND
M  V30 1 1 1 2
M  V30 2 1 2 3
M  V30 3 1 2 4
M  V30 4 1 4 5
M  V30 5 1 5 6
M  V30 6 1 6 7
M  V30 7 2 7 8
M  V30 8 1 7 9
M  V30 9 1 9 10
M  V30 10 1 10 11
M  V30 11 1 10 12
M  V30 12 1 10 13
M  V30 13 1 2 14
M  V30 14 1 14 15
M  V30 15 2 15 16
M  V30 16 1 16 17
M  V30 17 1 17 18
M  V30 18 2 18 19
M  V30 19 1 19 20
M  V30 20 2 20 21
M  V30 21 1 21 22
M  V30 22 2 22 23
M  V30 23 2 17 24
M  V30 24 1 24 25
M  V30 25 2 25 26
M  V30 26 1 26 27
M  V30 27 2 27 28
M  V30 28 1 28 29
M  V30 29 2 29 30
M  V30 30 1 30 15
M  V30 31 1 23 18
M  V30 32 1 30 25
M  V30 33 1 1 31
M  V30 34 1 1 32
M  V30 35 1 1 33
M  V30 36 1 3 34
M  V30 37 1 3 35
M  V30 38 1 3 36
M  V30 39 1 4 37
M  V30 40 1 4 38
M  V30 41 1 5 39
M  V30 42 1 5 40
M  V30 43 1 6 41
M  V30 44 1 11 42
M  V30 45 1 11 43
M  V30 46 1 11 44
M  V30 47 1 12 45
M  V30 48 1 12 46
M  V30 49 1 12 47
M  V30 50 1 13 48
M  V30 51 1 13 49
M  V30 52 1 13 50
M  V30 53 1 14 51
M  V30 54 1 19 52
M  V30 55 1 20 53
M  V30 56 1 22 54
M  V30 57 1 23 55
M  V30 58 1 26 56
M  V30 59 1 28 57
M  V30 60 1 29 58
M  V30 END BOND
M  V30 END CTAB
M  END
>  <Dataset>  (277) 
ChEMBL_Kinases

>  <Ligand_Instance>  (277) 
nan

>  <PDB_ID>  (277) 
nan

>  <Standardized_SMILES>  (277) 
CC(C)(CCNC(=O)OC(C)(C)C)Nc1nc(-c2ccncc2)nc2cnccc12

>  <Name>  (277) 
nan

>  <Pocket>  (277) 
nan

>  <ATP_Site>  (277) 
nan

>  <Peripheral>  (277) 
nan

>  <Num_H_Atoms_ProtBoundConf>  (277) 
nan

>  <Num_Resolved_Atoms>  (277) 
nan

>  <Num_Not_Resolved_Atoms>  (277) 
nan

$$$$
CHEMBL4566610
     RDKit          3D

  0  0  0  0  0  0  0  0  0  0999 V3000
M  V30 BEGIN CTAB
M  V30 COUNTS 35 37 0 0 0
M  V30 BEGIN ATOM
M  V30 1 C -1.263116 -2.338194 2.648308 0
M  V30 2 C 0.143010 -2.110036 3.060720 0
M  V30 3 N 0.713799 -2.444076 4.254491 0
M  V30 4 N 1.985139 -2.093754 4.282167 0
M  V30 5 C 2.270866 -1.521459 3.101664 0
M  V30 6 C 3.465675 -1.007700 2.684670 0
M  V30 7 N 3.476121 -0.482796 1.429841 0
M  V30 8 C 2.378554 -0.472194 0.652738 0
M  V30 9 C 1.183712 -0.980432 1.057387 0
M  V30 10 N 0.064161 -0.933149 0.204883 0
M  V30 11 C 0.206240 -0.284843 -1.100359 0
M  V30 12 C -1.016220 -0.470916 -1.973229 0
M  V30 13 C -2.250046 0.135363 -1.336843 0
M  V30 14 C -1.898661 1.433282 -0.627058 0
M  V30 15 C -0.666339 1.996964 -1.327110 0
M  V30 16 C 0.541965 1.185461 -0.926359 0
M  V30 17 C 1.139807 -1.519994 2.324079 0
M  V30 18 H -1.322023 -3.034103 1.813546 0
M  V30 19 H -1.767678 -2.849248 3.523451 0
M  V30 20 H -1.839121 -1.428278 2.454480 0
M  V30 21 H 2.617994 -2.254631 5.102061 0
M  V30 22 H 4.344960 -1.024804 3.327907 0
M  V30 23 H 2.603544 -0.027660 -0.286277 0
M  V30 24 H -0.896126 -1.285232 0.322220 0
M  V30 25 H 1.059999 -0.752958 -1.623727 0
M  V30 26 H -0.872868 -0.003305 -2.960003 0
M  V30 27 H -1.200107 -1.541410 -2.071975 0
M  V30 28 H -2.759085 -0.521608 -0.631205 0
M  V30 29 H -2.948215 0.382829 -2.162759 0
M  V30 30 H -1.646849 1.253247 0.423245 0
M  V30 31 H -2.720122 2.162316 -0.685230 0
M  V30 32 H -0.854531 1.943979 -2.412543 0
M  V30 33 H -0.558597 3.062448 -1.025092 0
M  V30 34 H 0.805249 1.449235 0.122544 0
M  V30 35 H 1.373071 1.506201 -1.611342 0
M  V30 END ATOM
M  V30 BEGIN BOND
M  V30 1 1 1 2
M  V30 2 2 2 3
M  V30 3 1 3 4
M  V30 4 1 4 5
M  V30 5 2 5 6
M  V30 6 1 6 7
M  V30 7 2 7 8
M  V30 8 1 8 9
M  V30 9 1 9 10
M  V30 10 1 10 11
M  V30 11 1 11 12
M  V30 12 1 12 13
M  V30 13 1 13 14
M  V30 14 1 14 15
M  V30 15 1 15 16
M  V30 16 2 9 17
M  V30 17 1 17 2
M  V30 18 1 17 5
M  V30 19 1 16 11
M  V30 20 1 1 18
M  V30 21 1 1 19
M  V30 22 1 1 20
M  V30 23 1 4 21
M  V30 24 1 6 22
M  V30 25 1 8 23
M  V30 26 1 10 24
M  V30 27 1 11 25
M  V30 28 1 12 26
M  V30 29 1 12 27
M  V30 30 1 13 28
M  V30 31 1 13 29
M  V30 32 1 14 30
M  V30 33 1 14 31
M  V30 34 1 15 32
M  V30 35 1 15 33
M  V30 36 1 16 34
M  V30 37 1 16 35
M  V30 END BOND
M  V30 END CTAB
M  END
>  <Dataset>  (278) 
ChEMBL_Kinases

>  <Ligand_Instance>  (278) 
nan

>  <PDB_ID>  (278) 
nan

>  <Standardized_SMILES>  (278) 
Cc1n[nH]c2cncc(NC3CCCCC3)c12

>  <Name>  (278) 
nan

>  <Pocket>  (278) 
nan

>  <ATP_Site>  (278) 
nan

>  <Peripheral>  (278) 
nan

>  <Num_H_Atoms_ProtBoundConf>  (278) 
nan

>  <Num_Resolved_Atoms>  (278) 
nan

>  <Num_Not_Resolved_Atoms>  (278) 
nan

$$$$
CHEMBL4566594
     RDKit          3D

  0  0  0  0  0  0  0  0  0  0999 V3000
M  V30 BEGIN CTAB
M  V30 COUNTS 51 53 0 0 0
M  V30 BEGIN ATOM
M  V30 1 C 1.824698 -3.493776 3.099158 0
M  V30 2 N 1.287113 -2.200930 3.540133 0
M  V30 3 C -0.059907 -2.458864 4.049831 0
M  V30 4 C 1.216002 -1.311693 2.381589 0
M  V30 5 C 2.584132 -0.971271 1.933129 0
M  V30 6 C 2.712854 -0.035747 0.764559 0
M  V30 7 C 2.061633 1.318187 1.103195 0
M  V30 8 C 4.190736 0.226912 0.570831 0
M  V30 9 N 2.152102 -0.544234 -0.468227 0
M  V30 10 C 0.771363 -0.555073 -0.817588 0
M  V30 11 N -0.194261 -0.033791 -0.046269 0
M  V30 12 C -1.497770 0.010741 -0.338381 0
M  V30 13 C -2.486127 0.602782 0.557879 0
M  V30 14 C -2.118082 1.160247 1.764445 0
M  V30 15 C -3.058162 1.722975 2.609535 0
M  V30 16 N -4.348863 1.718730 2.233954 0
M  V30 17 C -4.753583 1.182670 1.059083 0
M  V30 18 N -6.135892 1.207986 0.714272 0
M  V30 19 C -3.819356 0.615130 0.203037 0
M  V30 20 N -1.893844 -0.511342 -1.509818 0
M  V30 21 C -1.008222 -1.069835 -2.379350 0
M  V30 22 C -1.416677 -1.606036 -3.582283 0
M  V30 23 N -0.537385 -2.166907 -4.457800 0
M  V30 24 C 0.785050 -2.195278 -4.127863 0
M  V30 25 C 1.164156 -1.649005 -2.913164 0
M  V30 26 C 0.316959 -1.077130 -2.006040 0
M  V30 27 H 1.690239 -3.596246 2.000269 0
M  V30 28 H 1.302543 -4.345871 3.576015 0
M  V30 29 H 2.911667 -3.556913 3.362295 0
M  V30 30 H -0.414379 -3.463172 3.757099 0
M  V30 31 H -0.729159 -1.667092 3.656453 0
M  V30 32 H -0.031478 -2.379434 5.164585 0
M  V30 33 H 0.750017 -1.971492 1.589022 0
M  V30 34 H 0.549327 -0.490598 2.602710 0
M  V30 35 H 3.192737 -1.877884 1.684874 0
M  V30 36 H 3.156027 -0.512328 2.787678 0
M  V30 37 H 2.829011 2.094780 1.297782 0
M  V30 38 H 1.459521 1.676177 0.238323 0
M  V30 39 H 1.389385 1.252317 1.969830 0
M  V30 40 H 4.585103 -0.591178 -0.085363 0
M  V30 41 H 4.701029 0.117660 1.551344 0
M  V30 42 H 4.377923 1.214837 0.103220 0
M  V30 43 H 2.859693 -0.926863 -1.123555 0
M  V30 44 H -1.091211 1.173813 2.080226 0
M  V30 45 H -2.713418 2.149767 3.551604 0
M  V30 46 H -6.778369 1.843676 1.221151 0
M  V30 47 H -6.513163 0.595247 -0.042366 0
M  V30 48 H -4.154479 0.197068 -0.719199 0
M  V30 49 H -2.484227 -1.577537 -3.836418 0
M  V30 50 H 1.450160 -2.644808 -4.840611 0
M  V30 51 H 2.214537 -1.726080 -2.760156 0
M  V30 END ATOM
M  V30 BEGIN BOND
M  V30 1 1 1 2
M  V30 2 1 2 3
M  V30 3 1 2 4
M  V30 4 1 4 5
M  V30 5 1 5 6
M  V30 6 1 6 7
M  V30 7 1 6 8
M  V30 8 1 6 9
M  V30 9 1 9 10
M  V30 10 2 10 11
M  V30 11 1 11 12
M  V30 12 1 12 13
M  V30 13 2 13 14
M  V30 14 1 14 15
M  V30 15 2 15 16
M  V30 16 1 16 17
M  V30 17 1 17 18
M  V30 18 2 17 19
M  V30 19 2 12 20
M  V30 20 1 20 21
M  V30 21 2 21 22
M  V30 22 1 22 23
M  V30 23 2 23 24
M  V30 24 1 24 25
M  V30 25 2 25 26
M  V30 26 1 26 10
M  V30 27 1 19 13
M  V30 28 1 26 21
M  V30 29 1 1 27
M  V30 30 1 1 28
M  V30 31 1 1 29
M  V30 32 1 3 30
M  V30 33 1 3 31
M  V30 34 1 3 32
M  V30 35 1 4 33
M  V30 36 1 4 34
M  V30 37 1 5 35
M  V30 38 1 5 36
M  V30 39 1 7 37
M  V30 40 1 7 38
M  V30 41 1 7 39
M  V30 42 1 8 40
M  V30 43 1 8 41
M  V30 44 1 8 42
M  V30 45 1 9 43
M  V30 46 1 14 44
M  V30 47 1 15 45
M  V30 48 1 18 46
M  V30 49 1 18 47
M  V30 50 1 19 48
M  V30 51 1 22 49
M  V30 52 1 24 50
M  V30 53 1 25 51
M  V30 END BOND
M  V30 END CTAB
M  END
>  <Dataset>  (279) 
ChEMBL_Kinases

>  <Ligand_Instance>  (279) 
nan

>  <PDB_ID>  (279) 
nan

>  <Standardized_SMILES>  (279) 
CN(C)CCC(C)(C)Nc1nc(-c2ccnc(N)c2)nc2cnccc12

>  <Name>  (279) 
nan

>  <Pocket>  (279) 
nan

>  <ATP_Site>  (279) 
nan

>  <Peripheral>  (279) 
nan

>  <Num_H_Atoms_ProtBoundConf>  (279) 
nan

>  <Num_Resolved_Atoms>  (279) 
nan

>  <Num_Not_Resolved_Atoms>  (279) 
nan

$$$$
CHEMBL4566588
     RDKit          3D

  0  0  0  0  0  0  0  0  0  0999 V3000
M  V30 BEGIN CTAB
M  V30 COUNTS 48 52 0 0 0
M  V30 BEGIN ATOM
M  V30 1 F -1.108377 -5.407386 4.215558 0
M  V30 2 C -0.696716 -4.249010 3.619703 0
M  V30 3 C 0.025082 -4.294107 2.443965 0
M  V30 4 C 0.407630 -3.095072 1.898747 0
M  V30 5 C 0.099357 -1.872606 2.477221 0
M  V30 6 C 0.629468 -0.737850 1.687018 0
M  V30 7 N 1.882574 -0.465090 1.416539 0
M  V30 8 C 2.290509 0.454669 0.776076 0
M  V30 9 C 3.629730 1.010504 0.335018 0
M  V30 10 C 3.861897 0.539759 -1.075721 0
M  V30 11 C 3.020357 1.378899 -2.002047 0
M  V30 12 N 3.479036 2.748900 -1.881598 0
M  V30 13 C 3.207037 3.309750 -0.585993 0
M  V30 14 C 3.749642 2.476188 0.544455 0
M  V30 15 S 0.669560 1.289628 0.335945 0
M  V30 16 C -0.296952 0.095277 1.199018 0
M  V30 17 C -1.782321 0.191647 1.239546 0
M  V30 18 C -2.283438 1.316534 1.878000 0
M  V30 19 C -3.674359 1.404599 1.909988 0
M  V30 20 N -4.513286 0.476276 1.366517 0
M  V30 21 C -3.925718 -0.577497 0.769906 0
M  V30 22 N -4.775730 -1.557280 0.194308 0
M  V30 23 C -4.358925 -2.687068 -0.446467 0
M  V30 24 N -4.835735 -3.764480 -1.075007 0
M  V30 25 N -4.099508 -4.640466 -1.562499 0
M  V30 26 C -2.789625 -4.641122 -1.535826 0
M  V30 27 S -2.492616 -3.013154 -0.595019 0
M  V30 28 N -2.590271 -0.712515 0.710264 0
M  V30 29 C -0.622323 -1.838947 3.652188 0
M  V30 30 C -1.009013 -3.046132 4.203803 0
M  V30 31 H 0.239702 -5.267271 2.034246 0
M  V30 32 H 0.977276 -3.220460 0.964887 0
M  V30 33 H 4.355843 0.511407 1.036628 0
M  V30 34 H 4.916594 0.650816 -1.386930 0
M  V30 35 H 3.528556 -0.522548 -1.101903 0
M  V30 36 H 1.938565 1.303787 -1.833818 0
M  V30 37 H 3.253095 1.045118 -3.042347 0
M  V30 38 H 2.916325 3.318556 -2.571932 0
M  V30 39 H 3.722998 4.297612 -0.539943 0
M  V30 40 H 2.122917 3.508649 -0.495511 0
M  V30 41 H 3.181342 2.749629 1.457462 0
M  V30 42 H 4.825294 2.741588 0.763321 0
M  V30 43 H -1.721349 2.125956 2.349854 0
M  V30 44 H -4.172369 2.248304 2.387596 0
M  V30 45 H -5.812690 -1.490353 0.215731 0
M  V30 46 H -2.250521 -5.451243 -1.990026 0
M  V30 47 H -0.802388 -0.841321 4.009775 0
M  V30 48 H -1.572132 -2.968289 5.124027 0
M  V30 END ATOM
M  V30 BEGIN BOND
M  V30 1 1 1 2
M  V30 2 2 2 3
M  V30 3 1 3 4
M  V30 4 2 4 5
M  V30 5 1 5 6
M  V30 6 1 6 7
M  V30 7 2 7 8
M  V30 8 1 8 9
M  V30 9 1 9 10
M  V30 10 1 10 11
M  V30 11 1 11 12
M  V30 12 1 12 13
M  V30 13 1 13 14
M  V30 14 1 8 15
M  V30 15 1 15 16
M  V30 16 1 16 17
M  V30 17 2 17 18
M  V30 18 1 18 19
M  V30 19 2 19 20
M  V30 20 1 20 21
M  V30 21 1 21 22
M  V30 22 1 22 23
M  V30 23 2 23 24
M  V30 24 1 24 25
M  V30 25 2 25 26
M  V30 26 1 26 27
M  V30 27 2 21 28
M  V30 28 1 5 29
M  V30 29 2 29 30
M  V30 30 1 30 2
M  V30 31 2 16 6
M  V30 32 1 28 17
M  V30 33 1 14 9
M  V30 34 1 27 23
M  V30 35 1 3 31
M  V30 36 1 4 32
M  V30 37 1 9 33
M  V30 38 1 10 34
M  V30 39 1 10 35
M  V30 40 1 11 36
M  V30 41 1 11 37
M  V30 42 1 12 38
M  V30 43 1 13 39
M  V30 44 1 13 40
M  V30 45 1 14 41
M  V30 46 1 14 42
M  V30 47 1 18 43
M  V30 48 1 19 44
M  V30 49 1 22 45
M  V30 50 1 26 46
M  V30 51 1 29 47
M  V30 52 1 30 48
M  V30 END BOND
M  V30 END CTAB
M  END
>  <Dataset>  (280) 
ChEMBL_Kinases

>  <Ligand_Instance>  (280) 
nan

>  <PDB_ID>  (280) 
nan

>  <Standardized_SMILES>  (280) 
Fc1ccc(-c2nc(C3CCNCC3)sc2-c2ccnc(Nc3nncs3)n2)cc1

>  <Name>  (280) 
nan

>  <Pocket>  (280) 
nan

>  <ATP_Site>  (280) 
nan

>  <Peripheral>  (280) 
nan

>  <Num_H_Atoms_ProtBoundConf>  (280) 
nan

>  <Num_Resolved_Atoms>  (280) 
nan

>  <Num_Not_Resolved_Atoms>  (280) 
nan

$$$$
CHEMBL4566553
     RDKit          3D

  0  0  0  0  0  0  0  0  0  0999 V3000
M  V30 BEGIN CTAB
M  V30 COUNTS 32 34 0 0 0
M  V30 BEGIN ATOM
M  V30 1 C -3.970262 -2.125560 2.944567 0
M  V30 2 C -2.570578 -1.863022 2.555632 0
M  V30 3 C -2.291164 -1.930050 1.180837 0
M  V30 4 C -0.967181 -1.693642 0.786367 0
M  V30 5 C 0.037118 -1.402676 1.715777 0
M  V30 6 N 1.373659 -1.170573 1.272537 0
M  V30 7 C 1.661351 -1.014846 -0.109857 0
M  V30 8 N 1.822994 -2.033637 -0.994326 0
M  V30 9 C 2.090793 -1.866718 -2.295906 0
M  V30 10 C 2.213737 -0.561541 -2.781796 0
M  V30 11 C 2.058652 0.508253 -1.922059 0
M  V30 12 N 2.139638 1.818777 -2.178790 0
M  V30 13 N 1.925183 2.475520 -1.045471 0
M  V30 14 C 1.705047 1.560936 -0.056943 0
M  V30 15 C 1.434098 1.876854 1.382552 0
M  V30 16 C 1.781081 0.293031 -0.577251 0
M  V30 17 C -0.267488 -1.342973 3.060831 0
M  V30 18 C -1.578593 -1.572439 3.502502 0
M  V30 19 H -4.263317 -3.105188 2.512879 0
M  V30 20 H -4.040937 -2.118533 4.064511 0
M  V30 21 H -4.685828 -1.377665 2.574158 0
M  V30 22 H -3.082314 -2.158246 0.472962 0
M  V30 23 H -0.756678 -1.751611 -0.294532 0
M  V30 24 H 2.165461 -1.113938 1.959740 0
M  V30 25 H 2.192833 -2.785931 -2.880404 0
M  V30 26 H 2.434318 -0.493983 -3.853956 0
M  V30 27 H 2.334158 2.294635 -3.083867 0
M  V30 28 H 0.378717 1.693492 1.586194 0
M  V30 29 H 1.617245 2.974568 1.538263 0
M  V30 30 H 2.141503 1.285916 2.008428 0
M  V30 31 H 0.512908 -1.114955 3.794525 0
M  V30 32 H -1.848268 -1.528549 4.569271 0
M  V30 END ATOM
M  V30 BEGIN BOND
M  V30 1 1 1 2
M  V30 2 2 2 3
M  V30 3 1 3 4
M  V30 4 2 4 5
M  V30 5 1 5 6
M  V30 6 1 6 7
M  V30 7 2 7 8
M  V30 8 1 8 9
M  V30 9 2 9 10
M  V30 10 1 10 11
M  V30 11 1 11 12
M  V30 12 1 12 13
M  V30 13 2 13 14
M  V30 14 1 14 15
M  V30 15 1 14 16
M  V30 16 1 5 17
M  V30 17 2 17 18
M  V30 18 1 18 2
M  V30 19 1 16 7
M  V30 20 2 16 11
M  V30 21 1 1 19
M  V30 22 1 1 20
M  V30 23 1 1 21
M  V30 24 1 3 22
M  V30 25 1 4 23
M  V30 26 1 6 24
M  V30 27 1 9 25
M  V30 28 1 10 26
M  V30 29 1 12 27
M  V30 30 1 15 28
M  V30 31 1 15 29
M  V30 32 1 15 30
M  V30 33 1 17 31
M  V30 34 1 18 32
M  V30 END BOND
M  V30 END CTAB
M  END
>  <Dataset>  (281) 
ChEMBL_Kinases

>  <Ligand_Instance>  (281) 
nan

>  <PDB_ID>  (281) 
nan

>  <Standardized_SMILES>  (281) 
Cc1ccc(Nc2nccc3[nH]nc(C)c23)cc1

>  <Name>  (281) 
nan

>  <Pocket>  (281) 
nan

>  <ATP_Site>  (281) 
nan

>  <Peripheral>  (281) 
nan

>  <Num_H_Atoms_ProtBoundConf>  (281) 
nan

>  <Num_Resolved_Atoms>  (281) 
nan

>  <Num_Not_Resolved_Atoms>  (281) 
nan

$$$$
CHEMBL456634
     RDKit          3D

  0  0  0  0  0  0  0  0  0  0999 V3000
M  V30 BEGIN CTAB
M  V30 COUNTS 24 25 0 0 0
M  V30 BEGIN ATOM
M  V30 1 O 0.078181 -4.378464 1.607925 0
M  V30 2 C -0.498993 -3.536263 0.686650 0
M  V30 3 C -0.449252 -2.075972 1.095830 0
M  V30 4 C 0.994489 -1.623948 1.271379 0
M  V30 5 N 0.959708 -0.233249 1.653189 0
M  V30 6 N 0.879533 0.112435 2.935721 0
M  V30 7 N 0.853227 1.426292 3.073965 0
M  V30 8 C 0.916404 2.008941 1.863627 0
M  V30 9 C 0.929126 3.294611 1.362975 0
M  V30 10 Br 0.834828 4.729545 2.620005 0
M  V30 11 C 1.008247 3.520154 -0.011748 0
M  V30 12 Br 1.021615 5.323036 -0.640703 0
M  V30 13 C 1.072846 2.423105 -0.846165 0
M  V30 14 Br 1.179491 2.825516 -2.718759 0
M  V30 15 C 1.060079 1.148565 -0.347782 0
M  V30 16 Br 1.160923 -0.241301 -1.629186 0
M  V30 17 C 0.981655 0.927805 1.009983 0
M  V30 18 H 0.490950 -5.178256 1.224901 0
M  V30 19 H -0.031857 -3.608683 -0.331185 0
M  V30 20 H -1.575544 -3.778600 0.555410 0
M  V30 21 H -1.035967 -1.912659 2.025308 0
M  V30 22 H -0.891326 -1.485507 0.273605 0
M  V30 23 H 1.510137 -1.832066 0.322339 0
M  V30 24 H 1.403639 -2.263292 2.096726 0
M  V30 END ATOM
M  V30 BEGIN BOND
M  V30 1 1 1 2
M  V30 2 1 2 3
M  V30 3 1 3 4
M  V30 4 1 4 5
M  V30 5 1 5 6
M  V30 6 2 6 7
M  V30 7 1 7 8
M  V30 8 2 8 9
M  V30 9 1 9 10
M  V30 10 1 9 11
M  V30 11 1 11 12
M  V30 12 2 11 13
M  V30 13 1 13 14
M  V30 14 1 13 15
M  V30 15 1 15 16
M  V30 16 2 15 17
M  V30 17 1 17 5
M  V30 18 1 17 8
M  V30 19 1 1 18
M  V30 20 1 2 19
M  V30 21 1 2 20
M  V30 22 1 3 21
M  V30 23 1 3 22
M  V30 24 1 4 23
M  V30 25 1 4 24
M  V30 END BOND
M  V30 END CTAB
M  END
>  <Dataset>  (282) 
ChEMBL_Kinases

>  <Ligand_Instance>  (282) 
nan

>  <PDB_ID>  (282) 
nan

>  <Standardized_SMILES>  (282) 
OCCCn1nnc2c(Br)c(Br)c(Br)c(Br)c21

>  <Name>  (282) 
nan

>  <Pocket>  (282) 
nan

>  <ATP_Site>  (282) 
nan

>  <Peripheral>  (282) 
nan

>  <Num_H_Atoms_ProtBoundConf>  (282) 
nan

>  <Num_Resolved_Atoms>  (282) 
nan

>  <Num_Not_Resolved_Atoms>  (282) 
nan

$$$$
CHEMBL4565968
     RDKit          3D

  0  0  0  0  0  0  0  0  0  0999 V3000
M  V30 BEGIN CTAB
M  V30 COUNTS 60 63 0 0 0
M  V30 BEGIN ATOM
M  V30 1 C 0.640132 -5.311933 4.044661 0
M  V30 2 O 1.632565 -5.745561 3.168272 0
M  V30 3 C 2.265567 -4.977890 2.202766 0
M  V30 4 C 1.908139 -3.673646 2.071507 0
M  V30 5 C 2.497785 -2.853155 1.130867 0
M  V30 6 C 2.247169 -1.441962 0.839113 0
M  V30 7 C 3.376581 -0.623834 0.703725 0
M  V30 8 N 3.160522 0.695142 0.433773 0
M  V30 9 C 1.885472 1.154465 0.309341 0
M  V30 10 C 0.749558 0.344514 0.442886 0
M  V30 11 C -0.520811 1.042813 0.272826 0
M  V30 12 C -0.596373 1.897616 -0.827462 0
M  V30 13 C -1.704365 2.649441 -1.162393 0
M  V30 14 C -2.828776 2.562737 -0.362859 0
M  V30 15 N -4.027309 3.290016 -0.609483 0
M  V30 16 C -5.261808 3.298354 0.151795 0
M  V30 17 C -5.758976 4.722072 0.311255 0
M  V30 18 N -6.158531 5.162730 -0.984793 0
M  V30 19 C -5.300486 4.840233 -2.065370 0
M  V30 20 C -4.035267 4.131782 -1.758931 0
M  V30 21 C -2.773181 1.721527 0.731324 0
M  V30 22 C -1.658214 0.975581 1.054224 0
M  V30 23 C 0.959449 -0.974880 0.712747 0
M  V30 24 C -0.228368 -1.813147 0.844843 0
M  V30 25 C 3.477148 -3.427687 0.323187 0
M  V30 26 C 3.843576 -4.745917 0.450473 0
M  V30 27 O 4.803421 -5.408068 -0.302398 0
M  V30 28 C 5.572072 -4.859149 -1.325801 0
M  V30 29 C 3.236741 -5.542567 1.399596 0
M  V30 30 C 3.565058 -6.948006 1.600856 0
M  V30 31 N 4.565716 -7.520165 0.768342 0
M  V30 32 O 2.968731 -7.587444 2.479027 0
M  V30 33 H 0.703682 -5.939818 4.971082 0
M  V30 34 H 0.727013 -4.263598 4.347401 0
M  V30 35 H -0.399223 -5.483647 3.654512 0
M  V30 36 H 1.167456 -3.182599 2.664284 0
M  V30 37 H 4.379766 -1.020504 0.808765 0
M  V30 38 H 1.830346 2.207355 0.096698 0
M  V30 39 H 0.257617 2.013335 -1.501440 0
M  V30 40 H -1.714309 3.296217 -2.023667 0
M  V30 41 H -5.136097 2.819589 1.134814 0
M  V30 42 H -6.017210 2.754476 -0.446969 0
M  V30 43 H -5.053989 5.393897 0.803025 0
M  V30 44 H -6.666096 4.657506 0.946235 0
M  V30 45 H -7.166388 5.036496 -1.161512 0
M  V30 46 H -5.128733 5.751536 -2.699131 0
M  V30 47 H -5.889914 4.163024 -2.751319 0
M  V30 48 H -3.644361 3.539680 -2.629175 0
M  V30 49 H -3.243980 4.925359 -1.614885 0
M  V30 50 H -3.573840 1.559327 1.434894 0
M  V30 51 H -1.572219 0.308083 1.899467 0
M  V30 52 H -0.665498 -1.898818 1.841146 0
M  V30 53 H 0.092410 -2.856061 0.546395 0
M  V30 54 H -1.023067 -1.588764 0.105090 0
M  V30 55 H 4.000598 -2.889864 -0.437045 0
M  V30 56 H 5.637946 -5.654403 -2.124978 0
M  V30 57 H 6.585363 -4.666367 -0.897615 0
M  V30 58 H 5.121105 -3.957399 -1.761664 0
M  V30 59 H 5.526657 -7.332748 1.099070 0
M  V30 60 H 4.318705 -8.070266 -0.086525 0
M  V30 END ATOM
M  V30 BEGIN BOND
M  V30 1 1 1 2
M  V30 2 1 2 3
M  V30 3 2 3 4
M  V30 4 1 4 5
M  V30 5 1 5 6
M  V30 6 2 6 7
M  V30 7 1 7 8
M  V30 8 2 8 9
M  V30 9 1 9 10
M  V30 10 1 10 11
M  V30 11 2 11 12
M  V30 12 1 12 13
M  V30 13 2 13 14
M  V30 14 1 14 15
M  V30 15 1 15 16
M  V30 16 1 16 17
M  V30 17 1 17 18
M  V30 18 1 18 19
M  V30 19 1 19 20
M  V30 20 1 14 21
M  V30 21 2 21 22
M  V30 22 2 10 23
M  V30 23 1 23 24
M  V30 24 2 5 25
M  V30 25 1 25 26
M  V30 26 1 26 27
M  V30 27 1 27 28
M  V30 28 2 26 29
M  V30 29 1 29 30
M  V30 30 1 30 31
M  V30 31 2 30 32
M  V30 32 1 29 3
M  V30 33 1 23 6
M  V30 34 1 22 11
M  V30 35 1 20 15
M  V30 36 1 1 33
M  V30 37 1 1 34
M  V30 38 1 1 35
M  V30 39 1 4 36
M  V30 40 1 7 37
M  V30 41 1 9 38
M  V30 42 1 12 39
M  V30 43 1 13 40
M  V30 44 1 16 41
M  V30 45 1 16 42
M  V30 46 1 17 43
M  V30 47 1 17 44
M  V30 48 1 18 45
M  V30 49 1 19 46
M  V30 50 1 19 47
M  V30 51 1 20 48
M  V30 52 1 20 49
M  V30 53 1 21 50
M  V30 54 1 22 51
M  V30 55 1 24 52
M  V30 56 1 24 53
M  V30 57 1 24 54
M  V30 58 1 25 55
M  V30 59 1 28 56
M  V30 60 1 28 57
M  V30 61 1 28 58
M  V30 62 1 31 59
M  V30 63 1 31 60
M  V30 END BOND
M  V30 END CTAB
M  END
>  <Dataset>  (283) 
ChEMBL_Kinases

>  <Ligand_Instance>  (283) 
nan

>  <PDB_ID>  (283) 
nan

>  <Standardized_SMILES>  (283) 
COc1cc(-c2cncc(-c3ccc(N4CCNCC4)cc3)c2C)cc(OC)c1C(N)=O

>  <Name>  (283) 
nan

>  <Pocket>  (283) 
nan

>  <ATP_Site>  (283) 
nan

>  <Peripheral>  (283) 
nan

>  <Num_H_Atoms_ProtBoundConf>  (283) 
nan

>  <Num_Resolved_Atoms>  (283) 
nan

>  <Num_Not_Resolved_Atoms>  (283) 
nan

$$$$
CHEMBL4565959
     RDKit          3D

  0  0  0  0  0  0  0  0  0  0999 V3000
M  V30 BEGIN CTAB
M  V30 COUNTS 31 32 0 0 0
M  V30 BEGIN ATOM
M  V30 1 C 2.487930 -2.345197 2.102301 0
M  V30 2 C 1.126570 -2.941527 1.761355 0
M  V30 3 C 0.025774 -2.061666 2.299456 0 CFG=2
M  V30 4 C -1.321196 -2.686491 1.937746 0
M  V30 5 N 0.052125 -0.713777 1.758328 0
M  V30 6 C -0.154795 -0.523032 0.363941 0
M  V30 7 N -0.379734 -1.590337 -0.415590 0
M  V30 8 C -0.589232 -1.496841 -1.732183 0
M  V30 9 C -0.594547 -0.298629 -2.414957 0
M  V30 10 C -0.364548 0.810175 -1.627367 0
M  V30 11 N -0.305754 2.107989 -1.976956 0
M  V30 12 N -0.061938 2.787251 -0.872577 0
M  V30 13 C 0.043129 1.975727 0.203019 0
M  V30 14 C 0.314179 2.400202 1.610172 0
M  V30 15 C -0.150486 0.699385 -0.273782 0
M  V30 16 H 2.379581 -1.612347 2.924775 0
M  V30 17 H 3.191211 -3.147253 2.363594 0
M  V30 18 H 2.927143 -1.831879 1.213774 0
M  V30 19 H 1.063465 -3.895917 2.347278 0
M  V30 20 H 0.982475 -3.134408 0.700856 0
M  V30 21 H 0.091244 -2.086062 3.390418 0
M  V30 22 H -2.035446 -1.877858 1.729318 0
M  V30 23 H -1.216389 -3.356193 1.052261 0
M  V30 24 H -1.741784 -3.268472 2.802841 0
M  V30 25 H 0.230247 -0.038590 2.513549 0
M  V30 26 H -0.766467 -2.414814 -2.304544 0
M  V30 27 H -0.763052 -0.206547 -3.483100 0
M  V30 28 H -0.415908 2.579184 -2.898401 0
M  V30 29 H 1.255692 1.978052 1.985966 0
M  V30 30 H 0.368112 3.523121 1.581032 0
M  V30 31 H -0.522963 2.142437 2.272942 0
M  V30 END ATOM
M  V30 BEGIN BOND
M  V30 1 1 1 2
M  V30 2 1 2 3
M  V30 3 1 3 4
M  V30 4 1 3 5
M  V30 5 1 5 6
M  V30 6 2 6 7
M  V30 7 1 7 8
M  V30 8 2 8 9
M  V30 9 1 9 10
M  V30 10 1 10 11
M  V30 11 1 11 12
M  V30 12 2 12 13
M  V30 13 1 13 14
M  V30 14 1 13 15
M  V30 15 1 15 6
M  V30 16 2 15 10
M  V30 17 1 1 16
M  V30 18 1 1 17
M  V30 19 1 1 18
M  V30 20 1 2 19
M  V30 21 1 2 20
M  V30 22 1 3 21 CFG=1
M  V30 23 1 4 22
M  V30 24 1 4 23
M  V30 25 1 4 24
M  V30 26 1 5 25
M  V30 27 1 8 26
M  V30 28 1 9 27
M  V30 29 1 11 28
M  V30 30 1 14 29
M  V30 31 1 14 30
M  V30 32 1 14 31
M  V30 END BOND
M  V30 END CTAB
M  END
>  <Dataset>  (284) 
ChEMBL_Kinases

>  <Ligand_Instance>  (284) 
nan

>  <PDB_ID>  (284) 
nan

>  <Standardized_SMILES>  (284) 
CC[C@H](C)Nc1nccc2[nH]nc(C)c12

>  <Name>  (284) 
nan

>  <Pocket>  (284) 
nan

>  <ATP_Site>  (284) 
nan

>  <Peripheral>  (284) 
nan

>  <Num_H_Atoms_ProtBoundConf>  (284) 
nan

>  <Num_Resolved_Atoms>  (284) 
nan

>  <Num_Not_Resolved_Atoms>  (284) 
nan

$$$$
CHEMBL4565825
     RDKit          3D

  0  0  0  0  0  0  0  0  0  0999 V3000
M  V30 BEGIN CTAB
M  V30 COUNTS 47 51 0 0 0
M  V30 BEGIN ATOM
M  V30 1 C 2.085582 -4.650517 3.497449 0
M  V30 2 C 2.112053 -3.565115 2.482623 0
M  V30 3 C 1.810062 -3.894358 1.176845 0
M  V30 4 C 1.806698 -2.950694 0.148888 0
M  V30 5 C 2.127667 -1.667456 0.538273 0
M  V30 6 C 2.438522 -1.271767 1.821824 0
M  V30 7 N 2.762292 0.101346 2.129235 0
M  V30 8 C 2.735788 0.964445 1.001983 0
M  V30 9 N 3.870521 1.014610 0.336624 0
M  V30 10 C 4.126218 1.735872 -0.759682 0
M  V30 11 N 3.114461 2.465221 -1.198204 0
M  V30 12 C 1.896778 2.456060 -0.543349 0
M  V30 13 S 0.238133 3.309600 -0.806439 0
M  V30 14 C -0.507984 2.617964 0.509661 0
M  V30 15 C 0.413677 1.777779 1.144249 0
M  V30 16 C 1.638207 1.692484 0.611141 0
M  V30 17 C -0.203914 1.137545 2.335424 0
M  V30 18 C -1.513252 0.444833 1.958026 0
M  V30 19 N -2.313671 1.336596 1.226071 0
M  V30 20 S -3.741683 0.825538 0.549006 0
M  V30 21 O -4.400209 1.982401 -0.186111 0
M  V30 22 O -4.718665 0.291539 1.559095 0
M  V30 23 C -3.499805 -0.446537 -0.634104 0
M  V30 24 C -3.821698 -1.742682 -0.933700 0
M  V30 25 C -3.358820 -2.337173 -2.043602 0
M  V30 26 C -2.492855 -1.520058 -2.911345 0
M  V30 27 S -2.442214 0.116792 -1.966126 0
M  V30 28 C -1.931923 2.691786 1.152216 0
M  V30 29 C 2.425415 -2.253502 2.800216 0
M  V30 30 H 2.807580 -5.447989 3.314628 0
M  V30 31 H 2.187366 -4.164935 4.505827 0
M  V30 32 H 1.030546 -5.038882 3.483041 0
M  V30 33 H 1.560163 -4.915316 0.896381 0
M  V30 34 H 1.572687 -3.204751 -0.865863 0
M  V30 35 H 2.120579 -0.939953 -0.278263 0
M  V30 36 H 2.977941 0.315072 3.127652 0
M  V30 37 H 4.968797 1.887653 -1.406219 0
M  V30 38 H 0.469057 0.512190 2.916128 0
M  V30 39 H -0.504546 1.973435 3.031408 0
M  V30 40 H -1.249770 -0.414385 1.295960 0
M  V30 41 H -1.943734 0.026669 2.879963 0
M  V30 42 H -4.451450 -2.034040 -0.113312 0
M  V30 43 H -3.696356 -3.357199 -2.144074 0
M  V30 44 H -2.189598 -2.265333 -3.861278 0
M  V30 45 H -2.569608 3.233786 0.430731 0
M  V30 46 H -1.813015 3.223915 2.110225 0
M  V30 47 H 2.658063 -1.996763 3.802476 0
M  V30 END ATOM
M  V30 BEGIN BOND
M  V30 1 1 1 2
M  V30 2 2 2 3
M  V30 3 1 3 4
M  V30 4 2 4 5
M  V30 5 1 5 6
M  V30 6 1 6 7
M  V30 7 1 7 8
M  V30 8 2 8 9
M  V30 9 1 9 10
M  V30 10 2 10 11
M  V30 11 1 11 12
M  V30 12 1 12 13
M  V30 13 1 13 14
M  V30 14 2 14 15
M  V30 15 1 15 16
M  V30 16 1 15 17
M  V30 17 1 17 18
M  V30 18 1 18 19
M  V30 19 1 19 20
M  V30 20 2 20 21
M  V30 21 2 20 22
M  V30 22 1 20 23
M  V30 23 2 23 24
M  V30 24 1 24 25
M  V30 25 2 25 26
M  V30 26 1 26 27
M  V30 27 1 19 28
M  V30 28 2 6 29
M  V30 29 1 29 2
M  V30 30 1 16 8
M  V30 31 1 27 23
M  V30 32 2 16 12
M  V30 33 1 28 14
M  V30 34 1 1 30
M  V30 35 1 1 31
M  V30 36 1 1 32
M  V30 37 1 3 33
M  V30 38 1 4 34
M  V30 39 1 5 35
M  V30 40 1 7 36
M  V30 41 1 10 37
M  V30 42 1 17 38
M  V30 43 1 17 39
M  V30 44 1 18 40
M  V30 45 1 18 41
M  V30 46 1 24 42
M  V30 47 1 25 43
M  V30 48 1 26 44
M  V30 49 1 28 45
M  V30 50 1 28 46
M  V30 51 1 29 47
M  V30 END BOND
M  V30 END CTAB
M  END
>  <Dataset>  (285) 
ChEMBL_Kinases

>  <Ligand_Instance>  (285) 
nan

>  <PDB_ID>  (285) 
nan

>  <Standardized_SMILES>  (285) 
Cc1cccc(Nc2ncnc3sc4c(c23)CCN(S(=O)(=O)c2cccs2)C4)c1

>  <Name>  (285) 
nan

>  <Pocket>  (285) 
nan

>  <ATP_Site>  (285) 
nan

>  <Peripheral>  (285) 
nan

>  <Num_H_Atoms_ProtBoundConf>  (285) 
nan

>  <Num_Resolved_Atoms>  (285) 
nan

>  <Num_Not_Resolved_Atoms>  (285) 
nan

$$$$
CHEMBL4566871
     RDKit          3D

  0  0  0  0  0  0  0  0  0  0999 V3000
M  V30 BEGIN CTAB
M  V30 COUNTS 51 54 0 0 0
M  V30 BEGIN ATOM
M  V30 1 C 2.379494 -4.078510 2.086873 0
M  V30 2 N 1.029656 -3.855076 2.474527 0
M  V30 3 C 0.235729 -4.988151 2.253845 0
M  V30 4 C 0.512219 -2.557125 2.127428 0
M  V30 5 C 0.738957 -2.431690 0.644076 0
M  V30 6 N 0.329301 -1.254055 -0.002466 0
M  V30 7 C -0.071675 -0.074388 -0.640166 0
M  V30 8 N 0.294269 1.202829 -0.482663 0
M  V30 9 C -0.172517 2.233068 -1.172901 0
M  V30 10 C 0.326212 3.579121 -0.879617 0
M  V30 11 C 1.276224 3.739478 0.137876 0
M  V30 12 C 1.643890 5.058619 0.300999 0
M  V30 13 N 1.142192 6.084284 -0.440087 0
M  V30 14 C 0.234194 5.843796 -1.396701 0
M  V30 15 C -0.208676 4.563225 -1.649742 0
M  V30 16 N -1.084379 1.952481 -2.099479 0
M  V30 17 C -1.529892 0.724324 -2.351666 0
M  V30 18 C -2.479957 0.678257 -3.358939 0
M  V30 19 N -2.970169 -0.565994 -3.649824 0
M  V30 20 C -2.523256 -1.637603 -2.971356 0
M  V30 21 C -1.578558 -1.548519 -1.978176 0
M  V30 22 C -1.035518 -0.332212 -1.625817 0
M  V30 23 C 1.216990 -1.451095 2.853464 0
M  V30 24 C 0.868455 -1.468895 4.341596 0
M  V30 25 O -0.495119 -1.216479 4.400380 0
M  V30 26 C -1.296359 -2.158693 3.821984 0
M  V30 27 C -0.975061 -2.505154 2.389651 0
M  V30 28 H 2.328197 -4.518939 1.043748 0
M  V30 29 H 3.009097 -3.183604 1.961383 0
M  V30 30 H 2.863974 -4.890092 2.676756 0
M  V30 31 H 0.874156 -5.873487 2.562208 0
M  V30 32 H -0.050034 -5.211872 1.230262 0
M  V30 33 H -0.643969 -5.105631 2.951418 0
M  V30 34 H 0.210350 -3.336210 0.131243 0
M  V30 35 H 1.802722 -2.680886 0.342546 0
M  V30 36 H 1.038162 -0.779405 0.647289 0
M  V30 37 H 1.652772 2.902689 0.705124 0
M  V30 38 H 2.390571 5.253026 1.087960 0
M  V30 39 H -0.119423 6.709447 -1.947296 0
M  V30 40 H -0.936464 4.369876 -2.418679 0
M  V30 41 H -2.830640 1.546897 -3.895078 0
M  V30 42 H -2.947706 -2.586185 -3.247025 0
M  V30 43 H -1.230176 -2.412047 -1.441860 0
M  V30 44 H 2.294517 -1.456405 2.754333 0
M  V30 45 H 0.724495 -0.485742 2.522845 0
M  V30 46 H 1.200167 -2.353350 4.870320 0
M  V30 47 H 1.381434 -0.588141 4.777366 0
M  V30 48 H -1.294995 -3.047871 4.501176 0
M  V30 49 H -2.333736 -1.763627 3.870739 0
M  V30 50 H -1.497546 -3.449881 2.145229 0
M  V30 51 H -1.444870 -1.721113 1.759555 0
M  V30 END ATOM
M  V30 BEGIN BOND
M  V30 1 1 1 2
M  V30 2 1 2 3
M  V30 3 1 2 4
M  V30 4 1 4 5
M  V30 5 1 5 6
M  V30 6 1 6 7
M  V30 7 2 7 8
M  V30 8 1 8 9
M  V30 9 1 9 10
M  V30 10 2 10 11
M  V30 11 1 11 12
M  V30 12 2 12 13
M  V30 13 1 13 14
M  V30 14 2 14 15
M  V30 15 2 9 16
M  V30 16 1 16 17
M  V30 17 2 17 18
M  V30 18 1 18 19
M  V30 19 2 19 20
M  V30 20 1 20 21
M  V30 21 2 21 22
M  V30 22 1 4 23
M  V30 23 1 23 24
M  V30 24 1 24 25
M  V30 25 1 25 26
M  V30 26 1 26 27
M  V30 27 1 27 4
M  V30 28 1 22 7
M  V30 29 1 15 10
M  V30 30 1 22 17
M  V30 31 1 1 28
M  V30 32 1 1 29
M  V30 33 1 1 30
M  V30 34 1 3 31
M  V30 35 1 3 32
M  V30 36 1 3 33
M  V30 37 1 5 34
M  V30 38 1 5 35
M  V30 39 1 6 36
M  V30 40 1 11 37
M  V30 41 1 12 38
M  V30 42 1 14 39
M  V30 43 1 15 40
M  V30 44 1 18 41
M  V30 45 1 20 42
M  V30 46 1 21 43
M  V30 47 1 23 44
M  V30 48 1 23 45
M  V30 49 1 24 46
M  V30 50 1 24 47
M  V30 51 1 26 48
M  V30 52 1 26 49
M  V30 53 1 27 50
M  V30 54 1 27 51
M  V30 END BOND
M  V30 END CTAB
M  END
>  <Dataset>  (286) 
ChEMBL_Kinases

>  <Ligand_Instance>  (286) 
nan

>  <PDB_ID>  (286) 
nan

>  <Standardized_SMILES>  (286) 
CN(C)C1(CNc2nc(-c3ccncc3)nc3cnccc23)CCOCC1

>  <Name>  (286) 
nan

>  <Pocket>  (286) 
nan

>  <ATP_Site>  (286) 
nan

>  <Peripheral>  (286) 
nan

>  <Num_H_Atoms_ProtBoundConf>  (286) 
nan

>  <Num_Resolved_Atoms>  (286) 
nan

>  <Num_Not_Resolved_Atoms>  (286) 
nan

$$$$
CHEMBL4568867
     RDKit          3D

  0  0  0  0  0  0  0  0  0  0999 V3000
M  V30 BEGIN CTAB
M  V30 COUNTS 56 61 0 0 0
M  V30 BEGIN ATOM
M  V30 1 O -1.317241 -4.171165 1.663329 0
M  V30 2 C -1.221960 -3.967819 0.444903 0
M  V30 3 N -0.702865 -2.848138 -0.262729 0
M  V30 4 C -0.137056 -1.624925 0.181289 0
M  V30 5 C 1.231946 -1.646318 0.354607 0
M  V30 6 C 1.857390 -0.499563 0.784561 0
M  V30 7 S 3.636848 -0.139756 1.126186 0
M  V30 8 C 3.202249 1.645222 1.610619 0
M  V30 9 N 4.143664 2.753661 2.069090 0
M  V30 10 C 3.843654 4.118446 2.456891 0
M  V30 11 C 4.681865 4.324482 3.729073 0
M  V30 12 O 5.992776 4.319915 3.289734 0
M  V30 13 C 6.445526 3.105131 2.852632 0
M  V30 14 C 5.488328 2.269494 2.080982 0
M  V30 15 N 2.090529 1.663607 1.470818 0
M  V30 16 C 1.274424 0.691809 1.069481 0
M  V30 17 C -0.093381 0.695530 0.891114 0
M  V30 18 C -0.757424 -0.425719 0.463701 0
M  V30 19 N -2.189421 -0.458139 0.266042 0
M  V30 20 C -3.256131 -1.248048 0.847209 0
M  V30 21 C -4.346021 -0.365274 1.452608 0
M  V30 22 O -4.231891 0.948309 0.980097 0
M  V30 23 C -4.108043 0.850147 -0.411158 0
M  V30 24 C -2.679331 0.497426 -0.721963 0
M  V30 25 C -1.732577 -5.072249 -0.376946 0
M  V30 26 C -1.705942 -6.432672 -0.134161 0
M  V30 27 N -2.294607 -7.081573 -1.169228 0
M  V30 28 N -2.701009 -6.201946 -2.071139 0
M  V30 29 C -3.335442 -6.267882 -3.276863 0
M  V30 30 C -3.614764 -5.111807 -3.975147 0
M  V30 31 C -3.277072 -3.856601 -3.505746 0
M  V30 32 N -2.644623 -3.845672 -2.296315 0
M  V30 33 C -2.373570 -4.979044 -1.617020 0
M  V30 34 H -0.695549 -2.834974 -1.306955 0
M  V30 35 H 1.908822 -2.476199 0.192155 0
M  V30 36 H 4.292581 4.798214 1.696094 0
M  V30 37 H 2.783738 4.303546 2.638859 0
M  V30 38 H 4.424586 5.247100 4.235883 0
M  V30 39 H 4.449914 3.413144 4.346637 0
M  V30 40 H 7.306695 3.331152 2.155531 0
M  V30 41 H 6.956343 2.551334 3.693808 0
M  V30 42 H 5.520984 1.242576 2.551977 0
M  V30 43 H 5.825231 2.064458 1.024337 0
M  V30 44 H -0.751292 1.536372 1.059541 0
M  V30 45 H -2.840441 -1.884015 1.667888 0
M  V30 46 H -3.720832 -1.931812 0.110657 0
M  V30 47 H -4.195378 -0.312754 2.552436 0
M  V30 48 H -5.352444 -0.744950 1.221359 0
M  V30 49 H -4.835671 0.084899 -0.775701 0
M  V30 50 H -4.418841 1.801842 -0.890458 0
M  V30 51 H -2.090866 1.454845 -0.681456 0
M  V30 52 H -2.627191 0.106488 -1.761179 0
M  V30 53 H -1.272340 -6.892057 0.761471 0
M  V30 54 H -3.612257 -7.236727 -3.669801 0
M  V30 55 H -4.119731 -5.137896 -4.939258 0
M  V30 56 H -3.481384 -2.929322 -4.027531 0
M  V30 END ATOM
M  V30 BEGIN BOND
M  V30 1 2 1 2
M  V30 2 1 2 3
M  V30 3 1 3 4
M  V30 4 2 4 5
M  V30 5 1 5 6
M  V30 6 1 6 7
M  V30 7 1 7 8
M  V30 8 1 8 9
M  V30 9 1 9 10
M  V30 10 1 10 11
M  V30 11 1 11 12
M  V30 12 1 12 13
M  V30 13 1 13 14
M  V30 14 2 8 15
M  V30 15 1 15 16
M  V30 16 1 16 17
M  V30 17 2 17 18
M  V30 18 1 18 19
M  V30 19 1 19 20
M  V30 20 1 20 21
M  V30 21 1 21 22
M  V30 22 1 22 23
M  V30 23 1 23 24
M  V30 24 1 2 25
M  V30 25 1 25 26
M  V30 26 2 26 27
M  V30 27 1 27 28
M  V30 28 1 28 29
M  V30 29 2 29 30
M  V30 30 1 30 31
M  V30 31 2 31 32
M  V30 32 1 32 33
M  V30 33 1 18 4
M  V30 34 1 24 19
M  V30 35 2 33 25
M  V30 36 2 16 6
M  V30 37 1 33 28
M  V30 38 1 14 9
M  V30 39 1 3 34
M  V30 40 1 5 35
M  V30 41 1 10 36
M  V30 42 1 10 37
M  V30 43 1 11 38
M  V30 44 1 11 39
M  V30 45 1 13 40
M  V30 46 1 13 41
M  V30 47 1 14 42
M  V30 48 1 14 43
M  V30 49 1 17 44
M  V30 50 1 20 45
M  V30 51 1 20 46
M  V30 52 1 21 47
M  V30 53 1 21 48
M  V30 54 1 23 49
M  V30 55 1 23 50
M  V30 56 1 24 51
M  V30 57 1 24 52
M  V30 58 1 26 53
M  V30 59 1 29 54
M  V30 60 1 30 55
M  V30 61 1 31 56
M  V30 END BOND
M  V30 END CTAB
M  END
>  <Dataset>  (287) 
ChEMBL_Kinases

>  <Ligand_Instance>  (287) 
nan

>  <PDB_ID>  (287) 
nan

>  <Standardized_SMILES>  (287) 
O=C(Nc1cc2sc(N3CCOCC3)nc2cc1N1CCOCC1)c1cnn2cccnc12

>  <Name>  (287) 
nan

>  <Pocket>  (287) 
nan

>  <ATP_Site>  (287) 
nan

>  <Peripheral>  (287) 
nan

>  <Num_H_Atoms_ProtBoundConf>  (287) 
nan

>  <Num_Resolved_Atoms>  (287) 
nan

>  <Num_Not_Resolved_Atoms>  (287) 
nan

$$$$
CHEMBL4568743
     RDKit          3D

  0  0  0  0  0  0  0  0  0  0999 V3000
M  V30 BEGIN CTAB
M  V30 COUNTS 43 46 0 0 0
M  V30 BEGIN ATOM
M  V30 1 C 4.801037 -2.917502 2.181940 0
M  V30 2 C 3.357613 -3.171350 1.873255 0
M  V30 3 C 2.864597 -4.459021 1.922834 0
M  V30 4 C 1.509316 -4.646780 1.626515 0
M  V30 5 N 0.675411 -3.617046 1.296380 0
M  V30 6 C 1.187196 -2.372958 1.256865 0
M  V30 7 C 2.515388 -2.130982 1.539778 0
M  V30 8 N 2.729327 -0.831975 1.422711 0
M  V30 9 C 1.604117 -0.187464 1.073389 0
M  V30 10 C 1.560764 1.246179 0.878018 0
M  V30 11 C 0.480654 2.014367 0.523437 0
M  V30 12 C 0.510535 3.380331 0.354133 0
M  V30 13 C 1.712209 4.007215 0.557337 0
M  V30 14 N 2.789437 3.315766 0.901333 0
M  V30 15 C 2.711765 1.984235 1.054887 0
M  V30 16 N 3.960608 1.367972 1.429746 0
M  V30 17 N 0.686428 -1.156372 0.981399 0
M  V30 18 C -0.671452 -0.982646 0.637828 0
M  V30 19 C -1.017337 -1.062244 -0.718148 0
M  V30 20 C -2.358962 -0.897018 -1.000026 0
M  V30 21 C -3.297716 -0.669159 -0.018453 0
M  V30 22 C -4.707354 -0.503266 -0.395345 0
M  V30 23 N -5.094428 0.852071 -0.670688 0
M  V30 24 C -2.907475 -0.597228 1.323654 0
M  V30 25 C -1.583086 -0.753097 1.677908 0
M  V30 26 H 5.097703 -1.913106 1.829636 0
M  V30 27 H 4.922370 -2.870775 3.300358 0
M  V30 28 H 5.476365 -3.653549 1.727481 0
M  V30 29 H 3.471206 -5.319859 2.177402 0
M  V30 30 H 1.033502 -5.636556 1.641717 0
M  V30 31 H -0.458796 1.525656 0.364413 0
M  V30 32 H -0.384877 3.919681 0.072776 0
M  V30 33 H 1.783199 5.093464 0.433866 0
M  V30 34 H 4.403437 1.368605 2.380730 0
M  V30 35 H 4.684403 0.809017 0.893720 0
M  V30 36 H -0.228807 -1.243523 -1.436364 0
M  V30 37 H -2.638100 -0.955959 -2.038768 0
M  V30 38 H -5.052345 -1.181005 -1.203688 0
M  V30 39 H -5.314657 -0.806633 0.507360 0
M  V30 40 H -5.687536 0.876618 -1.526497 0
M  V30 41 H -4.313657 1.526244 -0.743478 0
M  V30 42 H -3.633209 -0.418702 2.107454 0
M  V30 43 H -1.203824 -0.711025 2.689985 0
M  V30 END ATOM
M  V30 BEGIN BOND
M  V30 1 1 1 2
M  V30 2 2 2 3
M  V30 3 1 3 4
M  V30 4 2 4 5
M  V30 5 1 5 6
M  V30 6 2 6 7
M  V30 7 1 7 8
M  V30 8 2 8 9
M  V30 9 1 9 10
M  V30 10 2 10 11
M  V30 11 1 11 12
M  V30 12 2 12 13
M  V30 13 1 13 14
M  V30 14 2 14 15
M  V30 15 1 15 16
M  V30 16 1 9 17
M  V30 17 1 17 18
M  V30 18 2 18 19
M  V30 19 1 19 20
M  V30 20 2 20 21
M  V30 21 1 21 22
M  V30 22 1 22 23
M  V30 23 1 21 24
M  V30 24 2 24 25
M  V30 25 1 7 2
M  V30 26 1 15 10
M  V30 27 1 25 18
M  V30 28 1 17 6
M  V30 29 1 1 26
M  V30 30 1 1 27
M  V30 31 1 1 28
M  V30 32 1 3 29
M  V30 33 1 4 30
M  V30 34 1 11 31
M  V30 35 1 12 32
M  V30 36 1 13 33
M  V30 37 1 16 34
M  V30 38 1 16 35
M  V30 39 1 19 36
M  V30 40 1 20 37
M  V30 41 1 22 38
M  V30 42 1 22 39
M  V30 43 1 23 40
M  V30 44 1 23 41
M  V30 45 1 24 42
M  V30 46 1 25 43
M  V30 END BOND
M  V30 END CTAB
M  END
>  <Dataset>  (288) 
ChEMBL_Kinases

>  <Ligand_Instance>  (288) 
nan

>  <PDB_ID>  (288) 
nan

>  <Standardized_SMILES>  (288) 
Cc1ccnc2c1nc(-c1cccnc1N)n2-c1ccc(CN)cc1

>  <Name>  (288) 
nan

>  <Pocket>  (288) 
nan

>  <ATP_Site>  (288) 
nan

>  <Peripheral>  (288) 
nan

>  <Num_H_Atoms_ProtBoundConf>  (288) 
nan

>  <Num_Resolved_Atoms>  (288) 
nan

>  <Num_Not_Resolved_Atoms>  (288) 
nan

$$$$
CHEMBL4568629
     RDKit          3D

  0  0  0  0  0  0  0  0  0  0999 V3000
M  V30 BEGIN CTAB
M  V30 COUNTS 62 65 0 0 0
M  V30 BEGIN ATOM
M  V30 1 C 6.347984 0.420443 3.978492 0
M  V30 2 C 5.859721 1.688662 4.593632 0
M  V30 3 C 5.038515 1.316279 5.834059 0
M  V30 4 C 5.021690 2.475911 3.663589 0
M  V30 5 C 3.903410 1.904497 3.067208 0
M  V30 6 C 3.363884 2.899808 2.275178 0
M  V30 7 C 2.173848 2.831868 1.427012 0
M  V30 8 C 1.818110 3.962462 0.720079 0
M  V30 9 C 0.702873 3.944977 -0.093046 0
M  V30 10 C -0.024497 2.773467 -0.166356 0
M  V30 11 C 0.361432 1.638699 0.564272 0
M  V30 12 N -0.510242 0.530659 0.359412 0
M  V30 13 C -1.685300 0.123511 1.045359 0
M  V30 14 O -1.985749 0.879751 1.983240 0
M  V30 15 C -2.393122 -1.072849 0.615878 0
M  V30 16 C -2.046039 -1.898051 -0.433694 0
M  V30 17 C -2.814844 -2.981878 -0.706995 0
M  V30 18 N -2.483204 -3.850882 -1.780698 0
M  V30 19 C -3.258484 -5.012760 -2.170760 0
M  V30 20 C -3.041177 -5.334043 -3.655326 0
M  V30 21 N -3.027912 -4.070064 -4.354798 0
M  V30 22 C -4.263531 -3.370861 -4.308397 0
M  V30 23 C -1.867913 -3.272052 -4.021480 0
M  V30 24 C -1.333826 -3.731393 -2.657034 0
M  V30 25 C -3.930028 -3.288446 0.025949 0
M  V30 26 C -4.304039 -2.470671 1.093139 0
M  V30 27 C -5.503099 -2.741828 1.932850 0
M  V30 28 F -6.360255 -3.622069 1.289311 0
M  V30 29 F -6.175237 -1.580368 2.226696 0
M  V30 30 F -5.149071 -3.351312 3.123885 0
M  V30 31 C -3.526365 -1.353392 1.388253 0
M  V30 32 C 1.466595 1.653404 1.371104 0
M  V30 33 N 4.138027 4.007656 2.405406 0
M  V30 34 N 5.138494 3.750618 3.243790 0
M  V30 35 H 5.752190 0.103698 3.081319 0
M  V30 36 H 7.414560 0.512668 3.693463 0
M  V30 37 H 6.276785 -0.441984 4.703856 0
M  V30 38 H 6.724108 2.277458 4.989696 0
M  V30 39 H 4.829193 2.220569 6.449468 0
M  V30 40 H 4.082961 0.830030 5.552602 0
M  V30 41 H 5.631940 0.599943 6.414125 0
M  V30 42 H 3.472210 0.901306 3.148016 0
M  V30 43 H 2.371610 4.900166 0.757524 0
M  V30 44 H 0.413913 4.828352 -0.653548 0
M  V30 45 H -0.897262 2.801206 -0.818878 0
M  V30 46 H -0.094489 0.027549 -0.456061 0
M  V30 47 H -1.158686 -1.620481 -0.987409 0
M  V30 48 H -2.784290 -5.889385 -1.638436 0
M  V30 49 H -4.317893 -4.955141 -1.925492 0
M  V30 50 H -2.126150 -5.912183 -3.834147 0
M  V30 51 H -3.930255 -5.898387 -3.979197 0
M  V30 52 H -4.915509 -3.503426 -5.183934 0
M  V30 53 H -4.012815 -2.275691 -4.190653 0
M  V30 54 H -4.816354 -3.616039 -3.379066 0
M  V30 55 H -2.173041 -2.223733 -3.970042 0
M  V30 56 H -1.111641 -3.408744 -4.812929 0
M  V30 57 H -0.820611 -4.703545 -2.844432 0
M  V30 58 H -0.549791 -3.056386 -2.283019 0
M  V30 59 H -4.602204 -4.116215 -0.105017 0
M  V30 60 H -3.844876 -0.729046 2.232682 0
M  V30 61 H 1.706028 0.765826 1.896814 0
M  V30 62 H 4.028540 4.959620 1.947191 0
M  V30 END ATOM
M  V30 BEGIN BOND
M  V30 1 1 1 2
M  V30 2 1 2 3
M  V30 3 1 2 4
M  V30 4 1 4 5
M  V30 5 2 5 6
M  V30 6 1 6 7
M  V30 7 2 7 8
M  V30 8 1 8 9
M  V30 9 2 9 10
M  V30 10 1 10 11
M  V30 11 1 11 12
M  V30 12 1 12 13
M  V30 13 2 13 14
M  V30 14 1 13 15
M  V30 15 2 15 16
M  V30 16 1 16 17
M  V30 17 1 17 18
M  V30 18 1 18 19
M  V30 19 1 19 20
M  V30 20 1 20 21
M  V30 21 1 21 22
M  V30 22 1 21 23
M  V30 23 1 23 24
M  V30 24 2 17 25
M  V30 25 1 25 26
M  V30 26 1 26 27
M  V30 27 1 27 28
M  V30 28 1 27 29
M  V30 29 1 27 30
M  V30 30 2 26 31
M  V30 31 2 11 32
M  V30 32 1 6 33
M  V30 33 1 33 34
M  V30 34 2 34 4
M  V30 35 1 32 7
M  V30 36 1 31 15
M  V30 37 1 24 18
M  V30 38 1 1 35
M  V30 39 1 1 36
M  V30 40 1 1 37
M  V30 41 1 2 38
M  V30 42 1 3 39
M  V30 43 1 3 40
M  V30 44 1 3 41
M  V30 45 1 5 42
M  V30 46 1 8 43
M  V30 47 1 9 44
M  V30 48 1 10 45
M  V30 49 1 12 46
M  V30 50 1 16 47
M  V30 51 1 19 48
M  V30 52 1 19 49
M  V30 53 1 20 50
M  V30 54 1 20 51
M  V30 55 1 22 52
M  V30 56 1 22 53
M  V30 57 1 22 54
M  V30 58 1 23 55
M  V30 59 1 23 56
M  V30 60 1 24 57
M  V30 61 1 24 58
M  V30 62 1 25 59
M  V30 63 1 31 60
M  V30 64 1 32 61
M  V30 65 1 33 62
M  V30 END BOND
M  V30 END CTAB
M  END
>  <Dataset>  (289) 
ChEMBL_Kinases

>  <Ligand_Instance>  (289) 
nan

>  <PDB_ID>  (289) 
nan

>  <Standardized_SMILES>  (289) 
CC(C)c1cc(-c2cccc(NC(=O)c3cc(N4CCN(C)CC4)cc(C(F)(F)F)c3)c2)[nH]n1

>  <Name>  (289) 
nan

>  <Pocket>  (289) 
nan

>  <ATP_Site>  (289) 
nan

>  <Peripheral>  (289) 
nan

>  <Num_H_Atoms_ProtBoundConf>  (289) 
nan

>  <Num_Resolved_Atoms>  (289) 
nan

>  <Num_Not_Resolved_Atoms>  (289) 
nan

$$$$
CHEMBL4568513
     RDKit          3D

  0  0  0  0  0  0  0  0  0  0999 V3000
M  V30 BEGIN CTAB
M  V30 COUNTS 68 72 0 0 0
M  V30 BEGIN ATOM
M  V30 1 C 3.835516 -0.745946 7.761725 0
M  V30 2 O 2.724603 -0.246549 7.084822 0
M  V30 3 C 2.600925 -0.065108 5.721670 0
M  V30 4 C 3.598078 -0.374652 4.791003 0
M  V30 5 C 3.304466 -0.122769 3.452462 0
M  V30 6 C 2.087238 0.410543 3.033358 0
M  V30 7 O 2.008967 0.581106 1.679082 0
M  V30 8 C 1.528076 -0.201426 0.696625 0
M  V30 9 N 1.582933 0.188351 -0.590117 0
M  V30 10 C 1.104497 -0.589573 -1.588316 0
M  V30 11 N 1.166425 -0.150035 -2.941397 0
M  V30 12 C 0.157830 0.319532 -3.827490 0
M  V30 13 C 0.541851 0.795890 -5.065157 0
M  V30 14 C -0.460353 1.217923 -5.902617 0
M  V30 15 C -1.785528 1.173689 -5.537736 0
M  V30 16 N -2.872788 1.591029 -6.385321 0
M  V30 17 C -4.271994 1.646235 -6.009128 0
M  V30 18 C -4.948627 0.489496 -6.761843 0
M  V30 19 O -4.477000 0.410833 -8.051801 0
M  V30 20 C -3.896873 1.564393 -8.539840 0
M  V30 21 C -2.667813 1.992737 -7.739198 0
M  V30 22 C -2.181873 0.699327 -4.300533 0
M  V30 23 C -1.160686 0.266827 -3.441172 0
M  V30 24 N 0.552609 -1.791970 -1.310333 0
M  V30 25 C 0.480386 -2.218962 -0.012690 0
M  V30 26 C 0.976471 -1.411649 1.018698 0
M  V30 27 N 0.767028 -2.052133 2.259876 0
M  V30 28 C 1.576090 -3.034725 2.892969 0
M  V30 29 O 2.629163 -3.486987 2.432947 0
M  V30 30 C 1.105051 -3.534584 4.176693 0
M  V30 31 C 1.669621 -4.685443 4.747859 0
M  V30 32 C 1.230204 -5.165268 5.963270 0
M  V30 33 C 0.232659 -4.567407 6.686960 0
M  V30 34 C -0.329324 -3.419941 6.116620 0
M  V30 35 O -1.346741 -2.851963 6.906581 0
M  V30 36 C -1.943268 -1.673438 6.371706 0
M  V30 37 C 0.089994 -2.928514 4.916154 0
M  V30 38 C 1.112746 0.710458 3.956551 0
M  V30 39 C 1.403209 0.460088 5.292372 0
M  V30 40 H 4.800522 -0.453851 7.297291 0
M  V30 41 H 3.828955 -1.821925 7.953298 0
M  V30 42 H 3.847519 -0.243913 8.771874 0
M  V30 43 H 4.494690 -0.778417 5.203525 0
M  V30 44 H 4.163713 -0.406960 2.833734 0
M  V30 45 H 2.169779 -0.233014 -3.205947 0
M  V30 46 H 1.574158 0.834053 -5.358515 0
M  V30 47 H -0.188693 1.591205 -6.860639 0
M  V30 48 H -4.465366 1.627001 -4.937941 0
M  V30 49 H -4.780065 2.559508 -6.434277 0
M  V30 50 H -6.062698 0.605897 -6.689022 0
M  V30 51 H -4.716632 -0.445066 -6.204414 0
M  V30 52 H -3.646749 1.371889 -9.606672 0
M  V30 53 H -4.699207 2.358791 -8.464694 0
M  V30 54 H -1.728782 1.630899 -8.184205 0
M  V30 55 H -2.690962 3.119264 -7.792835 0
M  V30 56 H -3.154084 0.590622 -3.851017 0
M  V30 57 H -1.364616 -0.126826 -2.437510 0
M  V30 58 H 0.008382 -3.206096 0.047355 0
M  V30 59 H -0.124678 -1.621863 2.582132 0
M  V30 60 H 2.465441 -5.146844 4.149061 0
M  V30 61 H 1.705978 -6.053980 6.344682 0
M  V30 62 H -0.093102 -4.965130 7.635170 0
M  V30 63 H -2.497780 -1.858226 5.425964 0
M  V30 64 H -1.143449 -0.899429 6.175917 0
M  V30 65 H -2.645149 -1.205924 7.083610 0
M  V30 66 H -0.389286 -2.038058 4.539565 0
M  V30 67 H 0.188713 1.118836 3.583710 0
M  V30 68 H 0.602459 0.717278 5.980252 0
M  V30 END ATOM
M  V30 BEGIN BOND
M  V30 1 1 1 2
M  V30 2 1 2 3
M  V30 3 2 3 4
M  V30 4 1 4 5
M  V30 5 2 5 6
M  V30 6 1 6 7
M  V30 7 1 7 8
M  V30 8 2 8 9
M  V30 9 1 9 10
M  V30 10 1 10 11
M  V30 11 1 11 12
M  V30 12 2 12 13
M  V30 13 1 13 14
M  V30 14 2 14 15
M  V30 15 1 15 16
M  V30 16 1 16 17
M  V30 17 1 17 18
M  V30 18 1 18 19
M  V30 19 1 19 20
M  V30 20 1 20 21
M  V30 21 1 15 22
M  V30 22 2 22 23
M  V30 23 2 10 24
M  V30 24 1 24 25
M  V30 25 2 25 26
M  V30 26 1 26 27
M  V30 27 1 27 28
M  V30 28 2 28 29
M  V30 29 1 28 30
M  V30 30 2 30 31
M  V30 31 1 31 32
M  V30 32 2 32 33
M  V30 33 1 33 34
M  V30 34 1 34 35
M  V30 35 1 35 36
M  V30 36 2 34 37
M  V30 37 1 6 38
M  V30 38 2 38 39
M  V30 39 1 39 3
M  V30 40 1 26 8
M  V30 41 1 37 30
M  V30 42 1 23 12
M  V30 43 1 21 16
M  V30 44 1 1 40
M  V30 45 1 1 41
M  V30 46 1 1 42
M  V30 47 1 4 43
M  V30 48 1 5 44
M  V30 49 1 11 45
M  V30 50 1 13 46
M  V30 51 1 14 47
M  V30 52 1 17 48
M  V30 53 1 17 49
M  V30 54 1 18 50
M  V30 55 1 18 51
M  V30 56 1 20 52
M  V30 57 1 20 53
M  V30 58 1 21 54
M  V30 59 1 21 55
M  V30 60 1 22 56
M  V30 61 1 23 57
M  V30 62 1 25 58
M  V30 63 1 27 59
M  V30 64 1 31 60
M  V30 65 1 32 61
M  V30 66 1 33 62
M  V30 67 1 36 63
M  V30 68 1 36 64
M  V30 69 1 36 65
M  V30 70 1 37 66
M  V30 71 1 38 67
M  V30 72 1 39 68
M  V30 END BOND
M  V30 END CTAB
M  END
>  <Dataset>  (290) 
ChEMBL_Kinases

>  <Ligand_Instance>  (290) 
nan

>  <PDB_ID>  (290) 
nan

>  <Standardized_SMILES>  (290) 
COc1ccc(Oc2nc(Nc3ccc(N4CCOCC4)cc3)ncc2NC(=O)c2cccc(OC)c2)cc1

>  <Name>  (290) 
nan

>  <Pocket>  (290) 
nan

>  <ATP_Site>  (290) 
nan

>  <Peripheral>  (290) 
nan

>  <Num_H_Atoms_ProtBoundConf>  (290) 
nan

>  <Num_Resolved_Atoms>  (290) 
nan

>  <Num_Not_Resolved_Atoms>  (290) 
nan

$$$$
CHEMBL456850
     RDKit          3D

  0  0  0  0  0  0  0  0  0  0999 V3000
M  V30 BEGIN CTAB
M  V30 COUNTS 27 29 0 0 0
M  V30 BEGIN ATOM
M  V30 1 O 2.510196 -4.767659 -0.951029 0
M  V30 2 C 2.457301 -3.919439 0.020795 0
M  V30 3 N 3.181395 -4.369476 1.156776 0
M  V30 4 C 3.174353 -3.484793 2.276616 0
M  V30 5 S 3.275899 -3.339938 3.898448 0
M  V30 6 S 2.922651 -1.888525 1.402757 0
M  V30 7 C 1.829182 -2.647014 0.173425 0
M  V30 8 C 0.744826 -2.358955 -0.491049 0
M  V30 9 C 0.275314 -0.990571 -0.166591 0
M  V30 10 C 1.189816 0.073358 -0.136357 0
M  V30 11 C 0.824940 1.361429 0.202733 0
M  V30 12 C -0.502928 1.525270 0.510438 0
M  V30 13 C -0.884372 2.809174 0.860504 0
M  V30 14 C -2.229363 3.022415 1.184945 0
M  V30 15 C -3.207062 2.018700 1.178225 0
M  V30 16 C -2.788812 0.764310 0.827627 0
M  V30 17 C -1.471721 0.549879 0.507435 0
M  V30 18 C -1.061312 -0.730001 0.158446 0
M  V30 19 H 3.774255 -5.215487 1.465521 0
M  V30 20 H 0.252031 -3.034337 -1.172698 0
M  V30 21 H 2.232748 -0.168907 -0.399279 0
M  V30 22 H 1.562157 2.169424 0.214514 0
M  V30 23 H -0.179684 3.626120 0.886942 0
M  V30 24 H -2.486652 4.042599 1.455019 0
M  V30 25 H -4.213033 2.325647 1.456504 0
M  V30 26 H -3.551342 0.017615 0.827066 0
M  V30 27 H -1.785122 -1.535202 0.130501 0
M  V30 END ATOM
M  V30 BEGIN BOND
M  V30 1 2 1 2
M  V30 2 1 2 3
M  V30 3 1 3 4
M  V30 4 2 4 5
M  V30 5 1 4 6
M  V30 6 1 6 7
M  V30 7 2 7 8
M  V30 8 1 8 9
M  V30 9 2 9 10
M  V30 10 1 10 11
M  V30 11 2 11 12
M  V30 12 1 12 13
M  V30 13 2 13 14
M  V30 14 1 14 15
M  V30 15 2 15 16
M  V30 16 1 16 17
M  V30 17 2 17 18
M  V30 18 1 7 2
M  V30 19 1 18 9
M  V30 20 1 17 12
M  V30 21 1 3 19
M  V30 22 1 8 20
M  V30 23 1 10 21
M  V30 24 1 11 22
M  V30 25 1 13 23
M  V30 26 1 14 24
M  V30 27 1 15 25
M  V30 28 1 16 26
M  V30 29 1 18 27
M  V30 END BOND
M  V30 END CTAB
M  END
>  <Dataset>  (291) 
ChEMBL_Kinases

>  <Ligand_Instance>  (291) 
nan

>  <PDB_ID>  (291) 
nan

>  <Standardized_SMILES>  (291) 
O=C1NC(=S)S/C1=C\c1ccc2ccccc2c1

>  <Name>  (291) 
nan

>  <Pocket>  (291) 
nan

>  <ATP_Site>  (291) 
nan

>  <Peripheral>  (291) 
nan

>  <Num_H_Atoms_ProtBoundConf>  (291) 
nan

>  <Num_Resolved_Atoms>  (291) 
nan

>  <Num_Not_Resolved_Atoms>  (291) 
nan

$$$$
CHEMBL4635819
     RDKit          3D

  0  0  0  0  0  0  0  0  0  0999 V3000
M  V30 BEGIN CTAB
M  V30 COUNTS 52 55 0 0 0
M  V30 BEGIN ATOM
M  V30 1 C 1.534388 -2.356812 5.915748 0
M  V30 2 C 1.540820 -2.453918 4.430321 0
M  V30 3 C 2.696791 -2.111943 3.736215 0
M  V30 4 C 2.770907 -2.179961 2.355609 0
M  V30 5 C 1.665414 -2.600428 1.632055 0
M  V30 6 N 1.585003 -2.727241 0.216679 0
M  V30 7 C 1.657856 -1.726991 -0.677167 0
M  V30 8 C 1.538916 -2.280631 -1.932665 0
M  V30 9 C 1.535263 -1.776984 -3.328773 0
M  V30 10 S -0.163590 -1.394372 -3.825911 0
M  V30 11 C -0.830061 -0.025352 -2.920601 0
M  V30 12 N -0.294118 0.680917 -2.018940 0
M  V30 13 C -0.826356 1.779468 -1.291543 0
M  V30 14 C -0.548955 1.722150 0.177449 0
M  V30 15 C -0.093258 2.848794 0.859563 0
M  V30 16 C 0.176359 2.859097 2.225976 0
M  V30 17 C -0.035285 1.669503 2.886731 0
M  V30 18 C -0.484025 0.552135 2.226996 0
M  V30 19 C -0.749874 0.552102 0.863936 0
M  V30 20 C -2.284633 2.073944 -1.539435 0
M  V30 21 C -2.870351 1.360674 -2.673267 0
M  V30 22 O -4.006253 1.745183 -3.057215 0
M  V30 23 N -2.178482 0.281714 -3.307069 0
M  V30 24 C -2.949668 -0.420514 -4.320981 0
M  V30 25 N 1.395152 -3.624619 -1.749516 0
M  V30 26 N 1.428738 -3.850795 -0.433437 0
M  V30 27 C 0.496963 -2.948586 2.292566 0
M  V30 28 C 0.449520 -2.872383 3.662921 0
M  V30 29 C -0.803947 -3.242770 4.402686 0
M  V30 30 H 1.540412 -1.285300 6.241865 0
M  V30 31 H 0.682216 -2.910880 6.350571 0
M  V30 32 H 2.484516 -2.771613 6.347261 0
M  V30 33 H 3.591731 -1.774719 4.281066 0
M  V30 34 H 3.647574 -1.925051 1.776066 0
M  V30 35 H 1.782349 -0.672833 -0.556760 0
M  V30 36 H 2.035615 -2.456138 -4.024069 0
M  V30 37 H 2.115617 -0.812066 -3.302376 0
M  V30 38 H -0.279324 2.691922 -1.673069 0
M  V30 39 H 0.041532 3.730037 0.257029 0
M  V30 40 H 0.528316 3.760611 2.706454 0
M  V30 41 H 0.177142 1.690117 3.946829 0
M  V30 42 H -0.606147 -0.304368 2.867764 0
M  V30 43 H -1.100451 -0.354087 0.395933 0
M  V30 44 H -2.485068 3.168950 -1.644028 0
M  V30 45 H -2.828964 1.782474 -0.610824 0
M  V30 46 H -3.822282 -0.901421 -3.827810 0
M  V30 47 H -3.354149 0.278980 -5.079537 0
M  V30 48 H -2.348363 -1.203070 -4.836525 0
M  V30 49 H -0.402287 -3.283328 1.807592 0
M  V30 50 H -0.935609 -2.468602 5.196945 0
M  V30 51 H -0.747857 -4.267390 4.809862 0
M  V30 52 H -1.705413 -3.140150 3.744520 0
M  V30 END ATOM
M  V30 BEGIN BOND
M  V30 1 1 1 2
M  V30 2 2 2 3
M  V30 3 1 3 4
M  V30 4 2 4 5
M  V30 5 1 5 6
M  V30 6 1 6 7
M  V30 7 2 7 8
M  V30 8 1 8 9
M  V30 9 1 9 10
M  V30 10 1 10 11
M  V30 11 2 11 12
M  V30 12 1 12 13
M  V30 13 1 13 14
M  V30 14 2 14 15
M  V30 15 1 15 16
M  V30 16 2 16 17
M  V30 17 1 17 18
M  V30 18 2 18 19
M  V30 19 1 13 20
M  V30 20 1 20 21
M  V30 21 2 21 22
M  V30 22 1 21 23
M  V30 23 1 23 24
M  V30 24 1 8 25
M  V30 25 2 25 26
M  V30 26 1 5 27
M  V30 27 2 27 28
M  V30 28 1 28 29
M  V30 29 1 28 2
M  V30 30 1 26 6
M  V30 31 1 23 11
M  V30 32 1 19 14
M  V30 33 1 1 30
M  V30 34 1 1 31
M  V30 35 1 1 32
M  V30 36 1 3 33
M  V30 37 1 4 34
M  V30 38 1 7 35
M  V30 39 1 9 36
M  V30 40 1 9 37
M  V30 41 1 13 38
M  V30 42 1 15 39
M  V30 43 1 16 40
M  V30 44 1 17 41
M  V30 45 1 18 42
M  V30 46 1 19 43
M  V30 47 1 20 44
M  V30 48 1 20 45
M  V30 49 1 24 46
M  V30 50 1 24 47
M  V30 51 1 24 48
M  V30 52 1 27 49
M  V30 53 1 29 50
M  V30 54 1 29 51
M  V30 55 1 29 52
M  V30 END BOND
M  V30 END CTAB
M  END
>  <Dataset>  (292) 
ChEMBL_Kinases

>  <Ligand_Instance>  (292) 
nan

>  <PDB_ID>  (292) 
nan

>  <Standardized_SMILES>  (292) 
Cc1ccc(-n2cc(CSC3=NC(c4ccccc4)CC(=O)N3C)nn2)cc1C

>  <Name>  (292) 
nan

>  <Pocket>  (292) 
nan

>  <ATP_Site>  (292) 
nan

>  <Peripheral>  (292) 
nan

>  <Num_H_Atoms_ProtBoundConf>  (292) 
nan

>  <Num_Resolved_Atoms>  (292) 
nan

>  <Num_Not_Resolved_Atoms>  (292) 
nan

$$$$
CHEMBL4568440
     RDKit          3D

  0  0  0  0  0  0  0  0  0  0999 V3000
M  V30 BEGIN CTAB
M  V30 COUNTS 55 58 0 0 0
M  V30 BEGIN ATOM
M  V30 1 C 2.855484 -4.183406 2.982906 0
M  V30 2 C 1.449639 -4.628277 3.171861 0
M  V30 3 C 0.573693 -4.518078 1.938618 0
M  V30 4 O 0.504246 -3.222377 1.511475 0
M  V30 5 C -0.478852 -2.314149 1.390696 0
M  V30 6 C 0.028933 -1.104527 0.886412 0
M  V30 7 C -0.765358 0.010736 0.660049 0
M  V30 8 C -0.272398 1.279217 0.140157 0
M  V30 9 C 0.979538 1.859609 0.331226 0
M  V30 10 N 1.016429 3.043205 -0.331963 0
M  V30 11 N -0.166243 3.226532 -0.931899 0
M  V30 12 C -0.407108 4.412229 -1.712807 0
M  V30 13 C 0.057411 5.679727 -1.026758 0
M  V30 14 C -0.696947 5.856899 0.273442 0
M  V30 15 N -2.089124 6.105311 -0.088831 0
M  V30 16 C -2.573722 4.828752 -0.625396 0
M  V30 17 C -1.902124 4.544529 -1.937190 0
M  V30 18 C -0.949170 2.162577 -0.649552 0
M  V30 19 C -2.109189 -0.062043 0.938643 0
M  V30 20 N -2.608575 -1.213094 1.421613 0
M  V30 21 C -1.834500 -2.288023 1.638264 0
M  V30 22 N -2.321861 -3.521295 2.147584 0
M  V30 23 C 0.977606 -5.502100 0.899352 0
M  V30 24 C 0.476670 -6.806371 0.893831 0
M  V30 25 Cl -0.661056 -7.318111 2.142824 0
M  V30 26 C 0.863482 -7.706424 -0.083805 0
M  V30 27 C 1.761695 -7.339448 -1.089247 0
M  V30 28 C 2.238779 -6.036137 -1.053050 0
M  V30 29 F 3.118444 -5.690504 -2.045808 0
M  V30 30 C 1.860230 -5.129104 -0.082762 0
M  V30 31 Cl 2.554379 -3.525402 -0.189444 0
M  V30 32 H 3.435251 -4.889612 2.326923 0
M  V30 33 H 2.993037 -3.128631 2.748049 0
M  V30 34 H 3.357499 -4.321910 3.986629 0
M  V30 35 H 0.992152 -3.958978 3.949459 0
M  V30 36 H 1.451678 -5.669977 3.547163 0
M  V30 37 H -0.423150 -4.864855 2.271839 0
M  V30 38 H 1.070505 -0.896571 0.619314 0
M  V30 39 H 1.796262 1.442130 0.912787 0
M  V30 40 H 0.140582 4.315030 -2.678211 0
M  V30 41 H 1.157450 5.695869 -0.867117 0
M  V30 42 H -0.213575 6.527906 -1.672154 0
M  V30 43 H -0.569436 5.006681 0.948481 0
M  V30 44 H -0.338682 6.764675 0.802958 0
M  V30 45 H -2.633040 6.287886 0.785682 0
M  V30 46 H -3.678728 4.868521 -0.808355 0
M  V30 47 H -2.412417 4.091027 0.160835 0
M  V30 48 H -2.138956 5.395348 -2.611837 0
M  V30 49 H -2.272193 3.583472 -2.337037 0
M  V30 50 H -1.959167 2.049957 -1.008234 0
M  V30 51 H -2.773823 0.750078 0.790192 0
M  V30 52 H -2.667683 -4.318407 1.536824 0
M  V30 53 H -2.420707 -3.843940 3.148334 0
M  V30 54 H 0.481644 -8.706695 -0.089980 0
M  V30 55 H 2.090150 -8.020393 -1.875737 0
M  V30 END ATOM
M  V30 BEGIN BOND
M  V30 1 1 1 2
M  V30 2 1 2 3
M  V30 3 1 3 4
M  V30 4 1 4 5
M  V30 5 2 5 6
M  V30 6 1 6 7
M  V30 7 1 7 8
M  V30 8 1 8 9
M  V30 9 2 9 10
M  V30 10 1 10 11
M  V30 11 1 11 12
M  V30 12 1 12 13
M  V30 13 1 13 14
M  V30 14 1 14 15
M  V30 15 1 15 16
M  V30 16 1 16 17
M  V30 17 1 11 18
M  V30 18 2 7 19
M  V30 19 1 19 20
M  V30 20 2 20 21
M  V30 21 1 21 22
M  V30 22 1 3 23
M  V30 23 2 23 24
M  V30 24 1 24 25
M  V30 25 1 24 26
M  V30 26 2 26 27
M  V30 27 1 27 28
M  V30 28 1 28 29
M  V30 29 2 28 30
M  V30 30 1 30 31
M  V30 31 1 21 5
M  V30 32 1 30 23
M  V30 33 2 18 8
M  V30 34 1 17 12
M  V30 35 1 1 32
M  V30 36 1 1 33
M  V30 37 1 1 34
M  V30 38 1 2 35
M  V30 39 1 2 36
M  V30 40 1 3 37
M  V30 41 1 6 38
M  V30 42 1 9 39
M  V30 43 1 12 40
M  V30 44 1 13 41
M  V30 45 1 13 42
M  V30 46 1 14 43
M  V30 47 1 14 44
M  V30 48 1 15 45
M  V30 49 1 16 46
M  V30 50 1 16 47
M  V30 51 1 17 48
M  V30 52 1 17 49
M  V30 53 1 18 50
M  V30 54 1 19 51
M  V30 55 1 22 52
M  V30 56 1 22 53
M  V30 57 1 26 54
M  V30 58 1 27 55
M  V30 END BOND
M  V30 END CTAB
M  END
>  <Dataset>  (293) 
ChEMBL_Kinases

>  <Ligand_Instance>  (293) 
nan

>  <PDB_ID>  (293) 
nan

>  <Standardized_SMILES>  (293) 
CCC(Oc1cc(-c2cnn(C3CCNCC3)c2)cnc1N)c1c(Cl)ccc(F)c1Cl

>  <Name>  (293) 
nan

>  <Pocket>  (293) 
nan

>  <ATP_Site>  (293) 
nan

>  <Peripheral>  (293) 
nan

>  <Num_H_Atoms_ProtBoundConf>  (293) 
nan

>  <Num_Resolved_Atoms>  (293) 
nan

>  <Num_Not_Resolved_Atoms>  (293) 
nan

$$$$
CHEMBL4635820
     RDKit          3D

  0  0  0  0  0  0  0  0  0  0999 V3000
M  V30 BEGIN CTAB
M  V30 COUNTS 63 68 0 0 0
M  V30 BEGIN ATOM
M  V30 1 N -1.595278 -3.607450 5.962081 0
M  V30 2 C -0.829005 -3.508854 5.102728 0
M  V30 3 C 0.126425 -3.398841 4.035278 0
M  V30 4 C 1.134441 -4.322623 3.775218 0
M  V30 5 C 1.988239 -4.115952 2.721609 0
M  V30 6 C 1.897675 -3.000964 1.872555 0
M  V30 7 N 2.844614 -2.885052 0.805212 0
M  V30 8 C 2.707999 -2.454072 -0.544930 0
M  V30 9 C 2.223112 -1.294002 -1.077554 0
M  V30 10 C 2.150691 -1.080433 -2.449465 0
M  V30 11 O 1.616687 0.172874 -2.811632 0
M  V30 12 C 1.000814 0.969916 -1.855849 0
M  V30 13 C 1.402729 2.199795 -1.388455 0
M  V30 14 N 0.438130 2.470593 -0.501649 0
M  V30 15 C 0.390167 3.718237 0.287108 0
M  V30 16 C 0.771619 4.950665 -0.409039 0
M  V30 17 C -0.655730 4.717368 -0.028182 0
M  V30 18 N -0.456244 1.526991 -0.424341 0
M  V30 19 C -0.164597 0.496238 -1.285012 0
M  V30 20 C -1.188476 -0.543213 -1.246335 0
M  V30 21 C -2.466275 0.123984 -1.804647 0
M  V30 22 C -3.587896 -0.853236 -1.463544 0
M  V30 23 O -3.384339 -1.904609 -2.385801 0
M  V30 24 C -2.244140 -2.590918 -2.105709 0
M  V30 25 C -0.960580 -1.730298 -2.106398 0
M  V30 26 C 2.578319 -2.059171 -3.301684 0
M  V30 27 C 3.058440 -3.208395 -2.727855 0
M  V30 28 N 3.126235 -3.410609 -1.404199 0
M  V30 29 C 0.865984 -2.126307 2.197692 0
M  V30 30 C -0.014367 -2.276707 3.234653 0
M  V30 31 N -0.983974 -1.245813 3.385196 0
M  V30 32 C -1.265698 -0.388096 4.494614 0
M  V30 33 C -2.709042 -0.289818 4.006680 0
M  V30 34 O -3.533384 -1.340123 4.399193 0
M  V30 35 C -2.060869 -0.545693 2.669131 0
M  V30 36 H 1.194160 -5.184693 4.440088 0
M  V30 37 H 2.736749 -4.884624 2.587940 0
M  V30 38 H 3.823365 -3.166662 1.092306 0
M  V30 39 H 1.916051 -0.567735 -0.342839 0
M  V30 40 H 2.267780 2.719062 -1.715470 0
M  V30 41 H 0.757215 3.595340 1.305590 0
M  V30 42 H 0.928555 4.986477 -1.516292 0
M  V30 43 H 1.359785 5.737205 0.123390 0
M  V30 44 H -1.416697 4.523371 -0.810878 0
M  V30 45 H -1.021198 5.326812 0.822079 0
M  V30 46 H -1.345716 -0.902302 -0.203244 0
M  V30 47 H -2.369918 0.137510 -2.901739 0
M  V30 48 H -2.619230 1.131258 -1.372448 0
M  V30 49 H -4.571332 -0.417801 -1.569629 0
M  V30 50 H -3.409448 -1.230244 -0.416701 0
M  V30 51 H -2.280556 -3.197789 -1.162379 0
M  V30 52 H -2.129376 -3.362076 -2.925391 0
M  V30 53 H -0.644997 -1.558240 -3.128423 0
M  V30 54 H -0.218439 -2.455042 -1.647644 0
M  V30 55 H 2.496379 -1.838316 -4.352143 0
M  V30 56 H 3.386490 -3.957675 -3.448172 0
M  V30 57 H 0.780549 -1.270080 1.564877 0
M  V30 58 H -0.822971 0.637389 4.472968 0
M  V30 59 H -1.246420 -0.852155 5.497568 0
M  V30 60 H -3.197557 0.681608 4.144844 0
M  V30 61 H -3.919982 -1.819200 3.622064 0
M  V30 62 H -1.680024 0.359846 2.150436 0
M  V30 63 H -2.631107 -1.269224 2.082864 0
M  V30 END ATOM
M  V30 BEGIN BOND
M  V30 1 3 1 2
M  V30 2 1 2 3
M  V30 3 2 3 4
M  V30 4 1 4 5
M  V30 5 2 5 6
M  V30 6 1 6 7
M  V30 7 1 7 8
M  V30 8 2 8 9
M  V30 9 1 9 10
M  V30 10 1 10 11
M  V30 11 1 11 12
M  V30 12 2 12 13
M  V30 13 1 13 14
M  V30 14 1 14 15
M  V30 15 1 15 16
M  V30 16 1 16 17
M  V30 17 1 14 18
M  V30 18 2 18 19
M  V30 19 1 19 20
M  V30 20 1 20 21
M  V30 21 1 21 22
M  V30 22 1 22 23
M  V30 23 1 23 24
M  V30 24 1 24 25
M  V30 25 2 10 26
M  V30 26 1 26 27
M  V30 27 2 27 28
M  V30 28 1 6 29
M  V30 29 2 29 30
M  V30 30 1 30 31
M  V30 31 1 31 32
M  V30 32 1 32 33
M  V30 33 1 33 34
M  V30 34 1 33 35
M  V30 35 1 30 3
M  V30 36 1 35 31
M  V30 37 1 28 8
M  V30 38 1 19 12
M  V30 39 1 25 20
M  V30 40 1 17 15
M  V30 41 1 4 36
M  V30 42 1 5 37
M  V30 43 1 7 38
M  V30 44 1 9 39
M  V30 45 1 13 40
M  V30 46 1 15 41
M  V30 47 1 16 42
M  V30 48 1 16 43
M  V30 49 1 17 44
M  V30 50 1 17 45
M  V30 51 1 20 46
M  V30 52 1 21 47
M  V30 53 1 21 48
M  V30 54 1 22 49
M  V30 55 1 22 50
M  V30 56 1 24 51
M  V30 57 1 24 52
M  V30 58 1 25 53
M  V30 59 1 25 54
M  V30 60 1 26 55
M  V30 61 1 27 56
M  V30 62 1 29 57
M  V30 63 1 32 58
M  V30 64 1 32 59
M  V30 65 1 33 60
M  V30 66 1 34 61
M  V30 67 1 35 62
M  V30 68 1 35 63
M  V30 END BOND
M  V30 END CTAB
M  END
>  <Dataset>  (294) 
ChEMBL_Kinases

>  <Ligand_Instance>  (294) 
nan

>  <PDB_ID>  (294) 
nan

>  <Standardized_SMILES>  (294) 
N#Cc1ccc(Nc2cc(Oc3cn(C4CC4)nc3C3CCOCC3)ccn2)cc1N1CC(O)C1

>  <Name>  (294) 
nan

>  <Pocket>  (294) 
nan

>  <ATP_Site>  (294) 
nan

>  <Peripheral>  (294) 
nan

>  <Num_H_Atoms_ProtBoundConf>  (294) 
nan

>  <Num_Resolved_Atoms>  (294) 
nan

>  <Num_Not_Resolved_Atoms>  (294) 
nan

$$$$
CHEMBL4568402
     RDKit          3D

  0  0  0  0  0  0  0  0  0  0999 V3000
M  V30 BEGIN CTAB
M  V30 COUNTS 48 51 0 0 0
M  V30 BEGIN ATOM
M  V30 1 C -0.614182 -3.125387 3.732283 0
M  V30 2 C 0.222327 -3.208355 2.490614 0
M  V30 3 O 1.568150 -3.105878 2.858679 0
M  V30 4 C -0.033676 -2.069419 1.576134 0
M  V30 5 C -0.225354 -1.148718 0.821543 0
M  V30 6 C -0.428821 -0.049887 -0.079666 0
M  V30 7 C 0.584708 0.870510 -0.302740 0
M  V30 8 C 0.443227 1.959777 -1.169058 0
M  V30 9 N 1.614205 2.796214 -1.259530 0
M  V30 10 C 2.429229 3.140886 -2.268430 0
M  V30 11 C 3.411633 3.983890 -1.781674 0
M  V30 12 C 3.180985 4.152857 -0.434711 0
M  V30 13 C 3.888252 4.902429 0.483935 0
M  V30 14 N 3.411238 4.871687 1.755437 0
M  V30 15 C 2.328490 4.162567 2.095145 0
M  V30 16 N 1.814404 4.119626 3.426367 0
M  V30 17 N 1.664662 3.442690 1.167833 0
M  V30 18 C 2.060857 3.408319 -0.126839 0
M  V30 19 C -0.761919 2.117687 -1.826742 0
M  V30 20 C -1.754862 1.190326 -1.589285 0
M  V30 21 N -1.573885 0.160552 -0.749074 0
M  V30 22 C -0.040223 -4.507226 1.806993 0
M  V30 23 O 0.580842 -5.538617 1.460795 0
M  V30 24 N -1.408154 -4.619824 1.428861 0
M  V30 25 C -1.901435 -5.787666 0.753229 0
M  V30 26 C -2.602492 -5.163241 -0.456206 0
M  V30 27 C -3.339704 -4.006980 0.213570 0
M  V30 28 C -2.638848 -3.821559 1.519021 0
M  V30 29 H -0.018870 -3.155380 4.668004 0
M  V30 30 H -1.318740 -4.003546 3.805151 0
M  V30 31 H -1.211600 -2.173065 3.788149 0
M  V30 32 H 1.666326 -3.117752 3.856336 0
M  V30 33 H 1.519780 0.690610 0.249849 0
M  V30 34 H 2.255018 2.760711 -3.273505 0
M  V30 35 H 4.208489 4.416381 -2.387686 0
M  V30 36 H 4.765392 5.482372 0.230604 0
M  V30 37 H 2.109865 3.802987 4.376274 0
M  V30 38 H 0.835153 4.524192 3.518383 0
M  V30 39 H -0.793546 2.979293 -2.475935 0
M  V30 40 H -2.686230 1.359828 -2.132529 0
M  V30 41 H -2.678524 -6.225766 1.385727 0
M  V30 42 H -1.133418 -6.497786 0.424177 0
M  V30 43 H -1.875203 -4.742814 -1.180656 0
M  V30 44 H -3.312200 -5.853004 -0.931519 0
M  V30 45 H -4.386982 -4.374144 0.388184 0
M  V30 46 H -3.370873 -3.097066 -0.417419 0
M  V30 47 H -2.457686 -2.766281 1.721691 0
M  V30 48 H -3.251780 -4.304245 2.334960 0
M  V30 END ATOM
M  V30 BEGIN BOND
M  V30 1 1 1 2
M  V30 2 1 2 3
M  V30 3 1 2 4
M  V30 4 3 4 5
M  V30 5 1 5 6
M  V30 6 2 6 7
M  V30 7 1 7 8
M  V30 8 1 8 9
M  V30 9 1 9 10
M  V30 10 2 10 11
M  V30 11 1 11 12
M  V30 12 2 12 13
M  V30 13 1 13 14
M  V30 14 2 14 15
M  V30 15 1 15 16
M  V30 16 1 15 17
M  V30 17 2 17 18
M  V30 18 2 8 19
M  V30 19 1 19 20
M  V30 20 2 20 21
M  V30 21 1 2 22
M  V30 22 2 22 23
M  V30 23 1 22 24
M  V30 24 1 24 25
M  V30 25 1 25 26
M  V30 26 1 26 27
M  V30 27 1 27 28
M  V30 28 1 21 6
M  V30 29 1 28 24
M  V30 30 1 18 9
M  V30 31 1 18 12
M  V30 32 1 1 29
M  V30 33 1 1 30
M  V30 34 1 1 31
M  V30 35 1 3 32
M  V30 36 1 7 33
M  V30 37 1 10 34
M  V30 38 1 11 35
M  V30 39 1 13 36
M  V30 40 1 16 37
M  V30 41 1 16 38
M  V30 42 1 19 39
M  V30 43 1 20 40
M  V30 44 1 25 41
M  V30 45 1 25 42
M  V30 46 1 26 43
M  V30 47 1 26 44
M  V30 48 1 27 45
M  V30 49 1 27 46
M  V30 50 1 28 47
M  V30 51 1 28 48
M  V30 END BOND
M  V30 END CTAB
M  END
>  <Dataset>  (295) 
ChEMBL_Kinases

>  <Ligand_Instance>  (295) 
nan

>  <PDB_ID>  (295) 
nan

>  <Standardized_SMILES>  (295) 
CC(O)(C#Cc1cc(-n2ccc3cnc(N)nc32)ccn1)C(=O)N1CCCC1

>  <Name>  (295) 
nan

>  <Pocket>  (295) 
nan

>  <ATP_Site>  (295) 
nan

>  <Peripheral>  (295) 
nan

>  <Num_H_Atoms_ProtBoundConf>  (295) 
nan

>  <Num_Resolved_Atoms>  (295) 
nan

>  <Num_Not_Resolved_Atoms>  (295) 
nan

$$$$
CHEMBL4568343
     RDKit          3D

  0  0  0  0  0  0  0  0  0  0999 V3000
M  V30 BEGIN CTAB
M  V30 COUNTS 58 61 0 0 0
M  V30 BEGIN ATOM
M  V30 1 C -1.016130 -0.406574 5.720687 0
M  V30 2 O -0.162514 0.618300 5.957198 0
M  V30 3 C 0.234852 1.394205 4.885997 0
M  V30 4 C 0.949356 0.579520 3.877915 0
M  V30 5 C 1.433373 1.372286 2.688792 0 CFG=2
M  V30 6 C 0.391510 2.053442 1.890445 0
M  V30 7 C -0.033311 1.289805 0.661155 0 CFG=1
M  V30 8 C -0.969552 2.124981 -0.160300 0
M  V30 9 C -2.296733 1.815011 -0.397487 0
M  V30 10 C -3.064137 2.673774 -1.179126 0
M  V30 11 C -2.496653 3.820504 -1.707437 0
M  V30 12 Cl -3.527935 4.846900 -2.678633 0
M  V30 13 C -1.157850 4.142365 -1.473866 0
M  V30 14 Cl -0.494622 5.616133 -2.174105 0
M  V30 15 C -0.398156 3.283908 -0.694909 0
M  V30 16 C 1.117752 0.834479 -0.204574 0 CFG=2
M  V30 17 N 0.832812 -0.486994 -0.685037 0
M  V30 18 C 0.662682 -0.805269 -2.052155 0
M  V30 19 O 0.767760 0.118297 -2.873721 0
M  V30 20 C 0.374482 -2.185915 -2.440020 0
M  V30 21 C 0.214167 -3.368919 -1.710780 0
M  V30 22 C -0.051542 -4.447877 -2.509456 0
M  V30 23 C -0.267200 -5.793999 -2.057924 0
M  V30 24 C -0.533476 -6.937502 -2.752348 0
M  V30 25 Cl -0.715528 -7.229542 -4.453234 0
M  V30 26 C -0.681690 -8.045881 -1.966376 0
M  V30 27 N -0.498583 -7.558740 -0.745109 0
M  V30 28 N -0.255228 -6.236885 -0.797053 0
M  V30 29 C -0.032502 -5.536472 0.461541 0
M  V30 30 C -0.039787 -3.846251 -3.735169 0
M  V30 31 Cl -0.301285 -4.571115 -5.286854 0
M  V30 32 O 0.204408 -2.550852 -3.692846 0
M  V30 33 C 2.393920 1.023591 0.519362 0
M  V30 34 N 2.352961 0.588153 1.894885 0
M  V30 35 H -0.619706 -1.170453 5.037506 0
M  V30 36 H -1.972073 0.037549 5.334275 0
M  V30 37 H -1.216470 -0.903331 6.717420 0
M  V30 38 H 0.987098 2.118725 5.336899 0
M  V30 39 H -0.615187 1.968854 4.448882 0
M  V30 40 H 0.351902 -0.300558 3.573033 0
M  V30 41 H 1.875694 0.169743 4.357755 0
M  V30 42 H 2.091058 2.170703 3.150575 0
M  V30 43 H -0.523396 2.227161 2.485069 0
M  V30 44 H 0.750565 3.081715 1.631720 0
M  V30 45 H -0.650677 0.431238 0.997222 0
M  V30 46 H -2.675933 0.906398 0.043974 0
M  V30 47 H -4.106502 2.429746 -1.364976 0
M  V30 48 H 0.617305 3.541169 -0.525912 0
M  V30 49 H 1.165315 1.486198 -1.123723 0
M  V30 50 H 0.762454 -1.203437 0.092812 0
M  V30 51 H 0.331932 -3.198538 -0.668747 0
M  V30 52 H -0.887501 -9.091789 -2.100811 0
M  V30 53 H -0.181646 -6.231594 1.328920 0
M  V30 54 H -0.788987 -4.742541 0.607565 0
M  V30 55 H 0.977464 -5.085383 0.492889 0
M  V30 56 H 2.589084 2.121412 0.541702 0
M  V30 57 H 3.277839 0.591592 0.051245 0
M  V30 58 H 3.269353 0.420701 2.312516 0
M  V30 END ATOM
M  V30 BEGIN BOND
M  V30 1 1 1 2
M  V30 2 1 2 3
M  V30 3 1 3 4
M  V30 4 1 4 5
M  V30 5 1 5 6
M  V30 6 1 6 7
M  V30 7 1 7 8
M  V30 8 2 8 9
M  V30 9 1 9 10
M  V30 10 2 10 11
M  V30 11 1 11 12
M  V30 12 1 11 13
M  V30 13 1 13 14
M  V30 14 2 13 15
M  V30 15 1 7 16
M  V30 16 1 16 17
M  V30 17 1 17 18
M  V30 18 2 18 19
M  V30 19 1 18 20
M  V30 20 2 20 21
M  V30 21 1 21 22
M  V30 22 1 22 23
M  V30 23 2 23 24
M  V30 24 1 24 25
M  V30 25 1 24 26
M  V30 26 2 26 27
M  V30 27 1 27 28
M  V30 28 1 28 29
M  V30 29 2 22 30
M  V30 30 1 30 31
M  V30 31 1 30 32
M  V30 32 1 16 33
M  V30 33 1 33 34
M  V30 34 1 34 5
M  V30 35 1 15 8
M  V30 36 1 32 20
M  V30 37 1 28 23
M  V30 38 1 1 35
M  V30 39 1 1 36
M  V30 40 1 1 37
M  V30 41 1 3 38
M  V30 42 1 3 39
M  V30 43 1 4 40
M  V30 44 1 4 41
M  V30 45 1 5 42 CFG=1
M  V30 46 1 6 43
M  V30 47 1 6 44
M  V30 48 1 7 45 CFG=1
M  V30 49 1 9 46
M  V30 50 1 10 47
M  V30 51 1 15 48
M  V30 52 1 16 49 CFG=3
M  V30 53 1 17 50
M  V30 54 1 21 51
M  V30 55 1 26 52
M  V30 56 1 29 53
M  V30 57 1 29 54
M  V30 58 1 29 55
M  V30 59 1 33 56
M  V30 60 1 33 57
M  V30 61 1 34 58
M  V30 END BOND
M  V30 END CTAB
M  END
>  <Dataset>  (296) 
ChEMBL_Kinases

>  <Ligand_Instance>  (296) 
nan

>  <PDB_ID>  (296) 
nan

>  <Standardized_SMILES>  (296) 
COCC[C@@H]1C[C@@H](c2ccc(Cl)c(Cl)c2)[C@H](NC(=O)c2cc(-c3c(Cl)cnn3C)c(Cl)o2)CN1

>  <Name>  (296) 
nan

>  <Pocket>  (296) 
nan

>  <ATP_Site>  (296) 
nan

>  <Peripheral>  (296) 
nan

>  <Num_H_Atoms_ProtBoundConf>  (296) 
nan

>  <Num_Resolved_Atoms>  (296) 
nan

>  <Num_Not_Resolved_Atoms>  (296) 
nan

$$$$
CHEMBL4568245
     RDKit          3D

  0  0  0  0  0  0  0  0  0  0999 V3000
M  V30 BEGIN CTAB
M  V30 COUNTS 69 72 0 0 0
M  V30 BEGIN ATOM
M  V30 1 C 1.478019 -0.719568 7.393315 0
M  V30 2 C 1.444660 -1.071102 5.921917 0
M  V30 3 N 1.336047 0.168024 5.180332 0
M  V30 4 C 2.537838 0.972403 5.277740 0
M  V30 5 C 2.169275 2.318987 4.696438 0
M  V30 6 N 1.663263 2.260930 3.378312 0
M  V30 7 C 2.268011 3.164361 2.429343 0
M  V30 8 C 1.625542 2.975270 1.087997 0
M  V30 9 C 2.361490 2.261828 0.138812 0
M  V30 10 C 1.815835 2.045963 -1.119584 0
M  V30 11 C 0.555747 2.562199 -1.352489 0
M  V30 12 N 0.103734 2.261145 -2.694323 0
M  V30 13 C -0.577734 1.013839 -2.708266 0
M  V30 14 O -0.655865 0.426415 -1.577202 0
M  V30 15 N -1.190734 0.318706 -3.813503 0
M  V30 16 C -1.838602 -0.936851 -3.669098 0 CFG=1
M  V30 17 C -3.230595 -1.056853 -4.175337 0
M  V30 18 C -3.326694 -2.561007 -4.487901 0
M  V30 19 N -2.073423 -3.140447 -3.974969 0
M  V30 20 C -1.686998 -4.301191 -3.252674 0
M  V30 21 C -0.370275 -4.549602 -2.936861 0
M  V30 22 C -0.084952 -5.696549 -2.231602 0
M  V30 23 N -1.016517 -6.561745 -1.848755 0
M  V30 24 C -2.309463 -6.311674 -2.162636 0
M  V30 25 N -3.280313 -7.235793 -1.746897 0
M  V30 26 C -3.882296 -7.000878 -0.449651 0
M  V30 27 N -2.615479 -5.188726 -2.856667 0
M  V30 28 C -1.175559 -2.075746 -4.450970 0
M  V30 29 C -0.160485 3.263200 -0.412340 0
M  V30 30 C 0.370996 3.484834 0.843410 0
M  V30 31 C -0.400708 4.245904 1.860683 0
M  V30 32 F -1.629216 4.614646 1.294311 0
M  V30 33 F -0.729958 3.380680 2.884490 0
M  V30 34 F 0.274912 5.363940 2.311714 0
M  V30 35 C 1.373487 0.975749 2.840437 0
M  V30 36 C 1.149049 -0.138837 3.782612 0
M  V30 37 H 1.137647 -1.572631 8.017419 0
M  V30 38 H 0.813613 0.172469 7.593927 0
M  V30 39 H 2.506255 -0.425253 7.665846 0
M  V30 40 H 2.435452 -1.551403 5.677153 0
M  V30 41 H 0.673548 -1.795269 5.664711 0
M  V30 42 H 3.368209 0.486850 4.716701 0
M  V30 43 H 2.804185 1.083224 6.334157 0
M  V30 44 H 3.077098 2.959952 4.825918 0
M  V30 45 H 1.396898 2.754392 5.367749 0
M  V30 46 H 2.172847 4.189706 2.817008 0
M  V30 47 H 3.348526 2.924835 2.390082 0
M  V30 48 H 3.347894 1.877268 0.372209 0
M  V30 49 H 2.415151 1.490134 -1.826423 0
M  V30 50 H 0.140725 2.707387 -3.651140 0
M  V30 51 H -1.104654 0.834988 -4.711278 0
M  V30 52 H -1.829672 -1.305449 -2.603258 0
M  V30 53 H -3.940627 -0.847962 -3.365802 0
M  V30 54 H -3.418577 -0.473999 -5.094077 0
M  V30 55 H -3.408345 -2.729019 -5.574117 0
M  V30 56 H -4.208888 -3.012872 -4.015976 0
M  V30 57 H 0.418592 -3.900711 -3.212910 0
M  V30 58 H 0.952053 -5.891952 -1.983222 0
M  V30 59 H -3.617572 -8.068871 -2.261529 0
M  V30 60 H -5.001971 -6.885960 -0.547248 0
M  V30 61 H -3.481576 -6.127826 0.073830 0
M  V30 62 H -3.733160 -7.889614 0.196829 0
M  V30 63 H -0.134137 -2.229599 -4.216621 0
M  V30 64 H -1.343430 -1.874779 -5.531869 0
M  V30 65 H -1.141720 3.621718 -0.709712 0
M  V30 66 H 2.193973 0.688606 2.119139 0
M  V30 67 H 0.478360 1.075734 2.175630 0
M  V30 68 H 0.140797 -0.626749 3.618400 0
M  V30 69 H 1.859303 -0.995580 3.582662 0
M  V30 END ATOM
M  V30 BEGIN BOND
M  V30 1 1 1 2
M  V30 2 1 2 3
M  V30 3 1 3 4
M  V30 4 1 4 5
M  V30 5 1 5 6
M  V30 6 1 6 7
M  V30 7 1 7 8
M  V30 8 2 8 9
M  V30 9 1 9 10
M  V30 10 2 10 11
M  V30 11 1 11 12
M  V30 12 1 12 13
M  V30 13 2 13 14
M  V30 14 1 13 15
M  V30 15 1 15 16
M  V30 16 1 16 17
M  V30 17 1 17 18
M  V30 18 1 18 19
M  V30 19 1 19 20
M  V30 20 2 20 21
M  V30 21 1 21 22
M  V30 22 2 22 23
M  V30 23 1 23 24
M  V30 24 1 24 25
M  V30 25 1 25 26
M  V30 26 2 24 27
M  V30 27 1 19 28
M  V30 28 1 11 29
M  V30 29 2 29 30
M  V30 30 1 30 31
M  V30 31 1 31 32
M  V30 32 1 31 33
M  V30 33 1 31 34
M  V30 34 1 6 35
M  V30 35 1 35 36
M  V30 36 1 36 3
M  V30 37 1 30 8
M  V30 38 1 28 16
M  V30 39 1 27 20
M  V30 40 1 1 37
M  V30 41 1 1 38
M  V30 42 1 1 39
M  V30 43 1 2 40
M  V30 44 1 2 41
M  V30 45 1 4 42
M  V30 46 1 4 43
M  V30 47 1 5 44
M  V30 48 1 5 45
M  V30 49 1 7 46
M  V30 50 1 7 47
M  V30 51 1 9 48
M  V30 52 1 10 49
M  V30 53 1 12 50
M  V30 54 1 15 51
M  V30 55 1 16 52 CFG=1
M  V30 56 1 17 53
M  V30 57 1 17 54
M  V30 58 1 18 55
M  V30 59 1 18 56
M  V30 60 1 21 57
M  V30 61 1 22 58
M  V30 62 1 25 59
M  V30 63 1 26 60
M  V30 64 1 26 61
M  V30 65 1 26 62
M  V30 66 1 28 63
M  V30 67 1 28 64
M  V30 68 1 29 65
M  V30 69 1 35 66
M  V30 70 1 35 67
M  V30 71 1 36 68
M  V30 72 1 36 69
M  V30 END BOND
M  V30 END CTAB
M  END
>  <Dataset>  (297) 
ChEMBL_Kinases

>  <Ligand_Instance>  (297) 
nan

>  <PDB_ID>  (297) 
nan

>  <Standardized_SMILES>  (297) 
CCN1CCN(Cc2ccc(NC(=O)N[C@H]3CCN(c4ccnc(NC)n4)C3)cc2C(F)(F)F)CC1

>  <Name>  (297) 
nan

>  <Pocket>  (297) 
nan

>  <ATP_Site>  (297) 
nan

>  <Peripheral>  (297) 
nan

>  <Num_H_Atoms_ProtBoundConf>  (297) 
nan

>  <Num_Resolved_Atoms>  (297) 
nan

>  <Num_Not_Resolved_Atoms>  (297) 
nan

$$$$
CHEMBL4636064
     RDKit          3D

  0  0  0  0  0  0  0  0  0  0999 V3000
M  V30 BEGIN CTAB
M  V30 COUNTS 62 66 0 0 0
M  V30 BEGIN ATOM
M  V30 1 C 1.196259 -2.007218 5.622261 0
M  V30 2 C 1.911259 -0.727924 5.370049 0
M  V30 3 N 3.336171 -0.789536 5.320075 0
M  V30 4 C 3.993246 0.462859 5.074292 0
M  V30 5 C 4.085437 0.830322 3.620243 0
M  V30 6 N 3.940865 -0.304601 2.740244 0
M  V30 7 C 3.333392 -0.328327 1.457015 0
M  V30 8 O 3.269326 -1.384625 0.782388 0
M  V30 9 N 2.754016 0.797771 0.820761 0
M  V30 10 C 2.233827 0.437575 -0.453387 0
M  V30 11 C 0.934513 0.005164 -0.552709 0
M  V30 12 C 0.424081 -0.347951 -1.800655 0
M  V30 13 C -0.970545 -0.791579 -1.761231 0
M  V30 14 C -1.985186 -0.172445 -1.068187 0
M  V30 15 N -3.136745 -0.885189 -1.278103 0
M  V30 16 C -4.324439 -0.456288 -0.670829 0
M  V30 17 C -5.638411 -0.940724 -1.064455 0
M  V30 18 C -6.027945 -0.505701 -2.437054 0
M  V30 19 O -4.903589 0.015364 -3.106795 0
M  V30 20 C -4.378071 1.120940 -2.481588 0
M  V30 21 C -4.437456 1.055166 -0.984140 0
M  V30 22 C -2.798671 -1.886913 -2.069156 0
M  V30 23 C -3.556161 -2.910132 -2.596084 0
M  V30 24 N -3.016955 -3.843399 -3.389323 0
M  V30 25 C -1.722828 -3.891719 -3.751695 0
M  V30 26 C -0.924059 -2.883820 -3.245497 0
M  V30 27 C -1.460141 -1.908026 -2.423307 0
M  V30 28 C 1.211821 -0.270057 -2.955471 0
M  V30 29 C 2.513166 0.173226 -2.788862 0
M  V30 30 N 2.981918 0.508178 -1.573057 0
M  V30 31 C 4.493886 -1.517125 3.281755 0
M  V30 32 C 3.883098 -1.892149 4.609833 0
M  V30 33 H 1.547513 -2.590476 6.483861 0
M  V30 34 H 1.108737 -2.672731 4.754091 0
M  V30 35 H 0.134810 -1.729179 5.880582 0
M  V30 36 H 1.580840 0.022981 6.100307 0
M  V30 37 H 1.561089 -0.352715 4.372768 0
M  V30 38 H 5.038322 0.342226 5.456390 0
M  V30 39 H 3.484181 1.239693 5.683245 0
M  V30 40 H 3.264282 1.554894 3.352019 0
M  V30 41 H 5.039666 1.334632 3.363970 0
M  V30 42 H 2.768822 1.729140 1.329794 0
M  V30 43 H 0.356206 -0.043584 0.351009 0
M  V30 44 H -1.818477 0.731037 -0.474830 0
M  V30 45 H -4.266843 -0.483615 0.461262 0
M  V30 46 H -5.945962 -1.963164 -0.764874 0
M  V30 47 H -6.364927 -0.358876 -0.392194 0
M  V30 48 H -6.771931 0.316072 -2.487242 0
M  V30 49 H -6.461402 -1.310137 -3.059200 0
M  V30 50 H -3.276331 1.115248 -2.736601 0
M  V30 51 H -4.740969 2.088912 -2.881023 0
M  V30 52 H -3.678525 1.638717 -0.469383 0
M  V30 53 H -5.419610 1.414094 -0.622410 0
M  V30 54 H -4.584880 -2.985266 -2.385687 0
M  V30 55 H -1.309679 -4.657654 -4.395154 0
M  V30 56 H 0.126829 -2.850622 -3.489004 0
M  V30 57 H 0.735757 -0.563092 -3.879220 0
M  V30 58 H 3.111255 0.226718 -3.702946 0
M  V30 59 H 5.595626 -1.389994 3.337791 0
M  V30 60 H 4.347533 -2.369098 2.553935 0
M  V30 61 H 4.694679 -2.343106 5.223060 0
M  V30 62 H 3.127128 -2.674408 4.472058 0
M  V30 END ATOM
M  V30 BEGIN BOND
M  V30 1 1 1 2
M  V30 2 1 2 3
M  V30 3 1 3 4
M  V30 4 1 4 5
M  V30 5 1 5 6
M  V30 6 1 6 7
M  V30 7 2 7 8
M  V30 8 1 7 9
M  V30 9 1 9 10
M  V30 10 2 10 11
M  V30 11 1 11 12
M  V30 12 1 12 13
M  V30 13 2 13 14
M  V30 14 1 14 15
M  V30 15 1 15 16
M  V30 16 1 16 17
M  V30 17 1 17 18
M  V30 18 1 18 19
M  V30 19 1 19 20
M  V30 20 1 20 21
M  V30 21 1 15 22
M  V30 22 2 22 23
M  V30 23 1 23 24
M  V30 24 2 24 25
M  V30 25 1 25 26
M  V30 26 2 26 27
M  V30 27 2 12 28
M  V30 28 1 28 29
M  V30 29 2 29 30
M  V30 30 1 6 31
M  V30 31 1 31 32
M  V30 32 1 32 3
M  V30 33 1 30 10
M  V30 34 1 27 13
M  V30 35 1 21 16
M  V30 36 1 27 22
M  V30 37 1 1 33
M  V30 38 1 1 34
M  V30 39 1 1 35
M  V30 40 1 2 36
M  V30 41 1 2 37
M  V30 42 1 4 38
M  V30 43 1 4 39
M  V30 44 1 5 40
M  V30 45 1 5 41
M  V30 46 1 9 42
M  V30 47 1 11 43
M  V30 48 1 14 44
M  V30 49 1 16 45
M  V30 50 1 17 46
M  V30 51 1 17 47
M  V30 52 1 18 48
M  V30 53 1 18 49
M  V30 54 1 20 50
M  V30 55 1 20 51
M  V30 56 1 21 52
M  V30 57 1 21 53
M  V30 58 1 23 54
M  V30 59 1 25 55
M  V30 60 1 26 56
M  V30 61 1 28 57
M  V30 62 1 29 58
M  V30 63 1 31 59
M  V30 64 1 31 60
M  V30 65 1 32 61
M  V30 66 1 32 62
M  V30 END BOND
M  V30 END CTAB
M  END
>  <Dataset>  (298) 
ChEMBL_Kinases

>  <Ligand_Instance>  (298) 
nan

>  <PDB_ID>  (298) 
nan

>  <Standardized_SMILES>  (298) 
CCN1CCN(C(=O)Nc2cc(-c3cn(C4CCOCC4)c4cnccc34)ccn2)CC1

>  <Name>  (298) 
nan

>  <Pocket>  (298) 
nan

>  <ATP_Site>  (298) 
nan

>  <Peripheral>  (298) 
nan

>  <Num_H_Atoms_ProtBoundConf>  (298) 
nan

>  <Num_Resolved_Atoms>  (298) 
nan

>  <Num_Not_Resolved_Atoms>  (298) 
nan

$$$$
CHEMBL4568134
     RDKit          3D

  0  0  0  0  0  0  0  0  0  0999 V3000
M  V30 BEGIN CTAB
M  V30 COUNTS 68 71 0 0 0
M  V30 BEGIN ATOM
M  V30 1 N 5.051285 1.822491 -0.052906 0
M  V30 2 C 3.682983 1.596282 0.198278 0
M  V30 3 O 3.825831 1.336790 1.441033 0
M  V30 4 C 2.420680 1.599165 -0.514601 0 CFG=2
M  V30 5 C 2.212364 2.900524 -1.311721 0
M  V30 6 C 3.313089 3.079133 -2.304888 0
M  V30 7 C 3.014916 4.342208 -3.136799 0
M  V30 8 C 1.729192 4.128358 -3.836315 0
M  V30 9 C 1.534827 4.788763 -5.150855 0
M  V30 10 C 2.763527 4.837631 -6.005917 0
M  V30 11 C 3.902260 5.453243 -5.199729 0
M  V30 12 C 4.175230 4.533320 -4.057814 0
M  V30 13 N 1.283229 1.283570 0.320322 0
M  V30 14 C 0.080555 0.800111 -0.231201 0
M  V30 15 O 0.067173 0.692983 -1.476605 0
M  V30 16 C -0.961988 0.513538 0.864884 0
M  V30 17 C -2.198719 0.111258 0.266051 0
M  V30 18 N -3.115191 -0.109522 1.165190 0
M  V30 19 C -3.166712 -0.061435 2.282647 0
M  V30 20 C -4.111007 -0.244842 3.454851 0
M  V30 21 N -4.330298 -1.686689 3.653464 0
M  V30 22 C -3.263855 -2.573321 3.875931 0
M  V30 23 O -2.056876 -2.267011 3.931428 0
M  V30 24 C -3.651692 -4.005268 4.057461 0
M  V30 25 C -4.899764 -4.424893 4.369420 0
M  V30 26 N -4.864409 -5.779888 4.428736 0
M  V30 27 N -3.629841 -6.199354 4.161978 0
M  V30 28 C -3.304714 -7.605206 4.131012 0
M  V30 29 C -2.958222 -8.187255 2.952114 0
M  V30 30 C -2.635340 -9.532155 2.824723 0
M  V30 31 C -2.688424 -10.271935 4.007032 0
M  V30 32 C -3.043250 -9.640765 5.173942 0
M  V30 33 C -3.375101 -8.285505 5.341867 0
M  V30 34 C -2.834617 -5.099407 3.923090 0
M  V30 35 C -1.376831 -5.148671 3.599001 0
M  V30 36 F -0.962167 -6.471693 3.575306 0
M  V30 37 F -0.633319 -4.535374 4.589819 0
M  V30 38 F -1.209007 -4.631455 2.355116 0
M  V30 39 S -1.361602 0.494103 2.599171 0
M  V30 40 H 5.737517 2.603576 -0.058082 0
M  V30 41 H 5.869944 1.240976 -0.331963 0
M  V30 42 H 2.391827 0.837201 -1.359169 0
M  V30 43 H 2.068840 3.772759 -0.668309 0
M  V30 44 H 1.257863 2.748581 -1.877822 0
M  V30 45 H 3.393566 2.221269 -2.990084 0
M  V30 46 H 4.257911 3.299673 -1.754028 0
M  V30 47 H 2.992608 5.178847 -2.400585 0
M  V30 48 H 0.881778 4.510327 -3.174304 0
M  V30 49 H 1.603839 3.017171 -3.965122 0
M  V30 50 H 1.079254 5.797552 -5.057471 0
M  V30 51 H 0.781583 4.187284 -5.726240 0
M  V30 52 H 3.101818 3.828725 -6.297498 0
M  V30 53 H 2.541604 5.423424 -6.895169 0
M  V30 54 H 4.804429 5.489668 -5.843056 0
M  V30 55 H 3.653836 6.479060 -4.895496 0
M  V30 56 H 4.559785 3.561734 -4.447676 0
M  V30 57 H 5.057833 4.970383 -3.515708 0
M  V30 58 H 1.454486 1.451924 1.356193 0
M  V30 59 H -2.529417 -0.051861 -0.776833 0
M  V30 60 H -3.581792 0.122645 4.382729 0
M  V30 61 H -4.997548 0.318529 3.235736 0
M  V30 62 H -5.320985 -1.992677 3.619236 0
M  V30 63 H -5.835380 -3.922326 4.567011 0
M  V30 64 H -2.950055 -7.515026 2.091381 0
M  V30 65 H -2.385539 -9.812356 1.831506 0
M  V30 66 H -2.436536 -11.302208 3.885236 0
M  V30 67 H -3.058920 -10.302134 6.045328 0
M  V30 68 H -3.635569 -7.895407 6.290513 0
M  V30 END ATOM
M  V30 BEGIN BOND
M  V30 1 1 1 2
M  V30 2 2 2 3
M  V30 3 1 2 4
M  V30 4 1 4 5
M  V30 5 1 5 6
M  V30 6 1 6 7
M  V30 7 1 7 8
M  V30 8 1 8 9
M  V30 9 1 9 10
M  V30 10 1 10 11
M  V30 11 1 11 12
M  V30 12 1 4 13
M  V30 13 1 13 14
M  V30 14 2 14 15
M  V30 15 1 14 16
M  V30 16 2 16 17
M  V30 17 1 17 18
M  V30 18 2 18 19
M  V30 19 1 19 20
M  V30 20 1 20 21
M  V30 21 1 21 22
M  V30 22 2 22 23
M  V30 23 1 22 24
M  V30 24 1 24 25
M  V30 25 2 25 26
M  V30 26 1 26 27
M  V30 27 1 27 28
M  V30 28 2 28 29
M  V30 29 1 29 30
M  V30 30 2 30 31
M  V30 31 1 31 32
M  V30 32 2 32 33
M  V30 33 1 27 34
M  V30 34 1 34 35
M  V30 35 1 35 36
M  V30 36 1 35 37
M  V30 37 1 35 38
M  V30 38 1 19 39
M  V30 39 1 12 7
M  V30 40 1 39 16
M  V30 41 2 34 24
M  V30 42 1 33 28
M  V30 43 1 1 40
M  V30 44 1 1 41
M  V30 45 1 4 42 CFG=3
M  V30 46 1 5 43
M  V30 47 1 5 44
M  V30 48 1 6 45
M  V30 49 1 6 46
M  V30 50 1 7 47
M  V30 51 1 8 48
M  V30 52 1 8 49
M  V30 53 1 9 50
M  V30 54 1 9 51
M  V30 55 1 10 52
M  V30 56 1 10 53
M  V30 57 1 11 54
M  V30 58 1 11 55
M  V30 59 1 12 56
M  V30 60 1 12 57
M  V30 61 1 13 58
M  V30 62 1 17 59
M  V30 63 1 20 60
M  V30 64 1 20 61
M  V30 65 1 21 62
M  V30 66 1 25 63
M  V30 67 1 29 64
M  V30 68 1 30 65
M  V30 69 1 31 66
M  V30 70 1 32 67
M  V30 71 1 33 68
M  V30 END BOND
M  V30 END CTAB
M  END
>  <Dataset>  (299) 
ChEMBL_Kinases

>  <Ligand_Instance>  (299) 
nan

>  <PDB_ID>  (299) 
nan

>  <Standardized_SMILES>  (299) 
NC(=O)[C@H](CCC1CCCCC1)NC(=O)c1cnc(CNC(=O)c2cnn(-c3ccccc3)c2C(F)(F)F)s1

>  <Name>  (299) 
nan

>  <Pocket>  (299) 
nan

>  <ATP_Site>  (299) 
nan

>  <Peripheral>  (299) 
nan

>  <Num_H_Atoms_ProtBoundConf>  (299) 
nan

>  <Num_Resolved_Atoms>  (299) 
nan

>  <Num_Not_Resolved_Atoms>  (299) 
nan

$$$$
CHEMBL4635885
     RDKit          3D

  0  0  0  0  0  0  0  0  0  0999 V3000
M  V30 BEGIN CTAB
M  V30 COUNTS 63 68 0 0 0
M  V30 BEGIN ATOM
M  V30 1 O -2.593897 2.627195 4.419603 0
M  V30 2 C -1.442998 2.164620 4.526001 0
M  V30 3 O -1.142844 0.877439 4.946889 0
M  V30 4 C -0.246244 2.984844 4.198425 0
M  V30 5 C 0.599933 2.414230 3.106492 0
M  V30 6 N 0.218715 3.509665 2.223953 0
M  V30 7 C 0.488749 3.761864 0.850655 0
M  V30 8 C 1.173064 2.912578 0.031419 0
M  V30 9 C 1.469644 3.090559 -1.299036 0
M  V30 10 N 2.161825 2.159363 -2.107076 0
M  V30 11 C 2.221090 0.747730 -2.160562 0
M  V30 12 C 1.382002 -0.034032 -1.404339 0
M  V30 13 C 1.440060 -1.403271 -1.423318 0
M  V30 14 O 0.767443 -2.398679 -0.807851 0
M  V30 15 C -0.267104 -2.394365 0.061601 0
M  V30 16 C -1.122695 -1.554695 0.719169 0
M  V30 17 N -1.980106 -2.221966 1.489765 0
M  V30 18 C -2.998957 -1.583913 2.299028 0
M  V30 19 C -4.312722 -2.228435 2.483812 0
M  V30 20 C -4.199685 -1.108462 1.474517 0
M  V30 21 N -1.694765 -3.493288 1.344639 0
M  V30 22 C -0.648270 -3.678710 0.478293 0
M  V30 23 C -0.311247 -5.107504 0.294928 0
M  V30 24 C -1.209525 -5.666535 -0.792293 0
M  V30 25 C -0.971519 -4.917823 -2.068256 0
M  V30 26 O 0.374141 -4.960408 -2.450190 0
M  V30 27 C 1.129443 -5.720178 -1.589714 0
M  V30 28 C 1.122471 -5.231112 -0.167848 0
M  V30 29 C 2.400738 -1.944273 -2.256386 0
M  V30 30 C 3.260613 -1.153473 -3.032053 0
M  V30 31 N 3.136291 0.182348 -2.953508 0
M  V30 32 C 0.990620 4.291562 -1.803886 0
M  V30 33 C 0.298308 5.167872 -1.004266 0
M  V30 34 N 0.045820 4.926899 0.285802 0
M  V30 35 C -0.488804 4.154052 3.277244 0
M  V30 36 H -1.908104 0.243853 5.166779 0
M  V30 37 H 0.322452 3.282183 5.104976 0
M  V30 38 H 1.691785 2.464967 3.253773 0
M  V30 39 H 0.305087 1.412426 2.720053 0
M  V30 40 H 1.501401 2.028793 0.551130 0
M  V30 41 H 2.756276 2.690310 -2.812279 0
M  V30 42 H 0.616184 0.342997 -0.757067 0
M  V30 43 H -1.070370 -0.507965 0.594877 0
M  V30 44 H -2.615986 -0.941050 3.113378 0
M  V30 45 H -4.896478 -1.915593 3.391868 0
M  V30 46 H -4.558550 -3.243336 2.118691 0
M  V30 47 H -4.519477 -0.080210 1.749840 0
M  V30 48 H -4.263516 -1.402265 0.417111 0
M  V30 49 H -0.432794 -5.698372 1.243651 0
M  V30 50 H -2.262756 -5.509298 -0.431777 0
M  V30 51 H -1.051616 -6.762559 -0.926421 0
M  V30 52 H -1.596259 -5.331170 -2.889021 0
M  V30 53 H -1.248698 -3.861907 -1.942184 0
M  V30 54 H 0.848236 -6.811164 -1.636846 0
M  V30 55 H 2.199340 -5.719408 -1.929172 0
M  V30 56 H 1.654937 -6.013146 0.461318 0
M  V30 57 H 1.690713 -4.302719 -0.047600 0
M  V30 58 H 2.636932 -3.002667 -2.440433 0
M  V30 59 H 4.026393 -1.509023 -3.695974 0
M  V30 60 H 1.166786 4.544945 -2.850165 0
M  V30 61 H -0.053835 6.097244 -1.457437 0
M  V30 62 H -0.059251 5.118613 3.597695 0
M  V30 63 H -1.583882 4.281257 3.159878 0
M  V30 END ATOM
M  V30 BEGIN BOND
M  V30 1 2 1 2
M  V30 2 1 2 3
M  V30 3 1 2 4
M  V30 4 1 4 5
M  V30 5 1 5 6
M  V30 6 1 6 7
M  V30 7 2 7 8
M  V30 8 1 8 9
M  V30 9 1 9 10
M  V30 10 1 10 11
M  V30 11 2 11 12
M  V30 12 1 12 13
M  V30 13 1 13 14
M  V30 14 1 14 15
M  V30 15 2 15 16
M  V30 16 1 16 17
M  V30 17 1 17 18
M  V30 18 1 18 19
M  V30 19 1 19 20
M  V30 20 1 17 21
M  V30 21 2 21 22
M  V30 22 1 22 23
M  V30 23 1 23 24
M  V30 24 1 24 25
M  V30 25 1 25 26
M  V30 26 1 26 27
M  V30 27 1 27 28
M  V30 28 2 13 29
M  V30 29 1 29 30
M  V30 30 2 30 31
M  V30 31 2 9 32
M  V30 32 1 32 33
M  V30 33 2 33 34
M  V30 34 1 6 35
M  V30 35 1 35 4
M  V30 36 1 34 7
M  V30 37 1 31 11
M  V30 38 1 22 15
M  V30 39 1 28 23
M  V30 40 1 20 18
M  V30 41 1 3 36
M  V30 42 1 4 37
M  V30 43 1 5 38
M  V30 44 1 5 39
M  V30 45 1 8 40
M  V30 46 1 10 41
M  V30 47 1 12 42
M  V30 48 1 16 43
M  V30 49 1 18 44
M  V30 50 1 19 45
M  V30 51 1 19 46
M  V30 52 1 20 47
M  V30 53 1 20 48
M  V30 54 1 23 49
M  V30 55 1 24 50
M  V30 56 1 24 51
M  V30 57 1 25 52
M  V30 58 1 25 53
M  V30 59 1 27 54
M  V30 60 1 27 55
M  V30 61 1 28 56
M  V30 62 1 28 57
M  V30 63 1 29 58
M  V30 64 1 30 59
M  V30 65 1 32 60
M  V30 66 1 33 61
M  V30 67 1 35 62
M  V30 68 1 35 63
M  V30 END BOND
M  V30 END CTAB
M  END
>  <Dataset>  (300) 
ChEMBL_Kinases

>  <Ligand_Instance>  (300) 
nan

>  <PDB_ID>  (300) 
nan

>  <Standardized_SMILES>  (300) 
O=C(O)C1CN(c2cc(Nc3cc(Oc4cn(C5CC5)nc4C4CCOCC4)ccn3)ccn2)C1

>  <Name>  (300) 
nan

>  <Pocket>  (300) 
nan

>  <ATP_Site>  (300) 
nan

>  <Peripheral>  (300) 
nan

>  <Num_H_Atoms_ProtBoundConf>  (300) 
nan

>  <Num_Resolved_Atoms>  (300) 
nan

>  <Num_Not_Resolved_Atoms>  (300) 
nan

$$$$
CHEMBL4568118
     RDKit          3D

  0  0  0  0  0  0  0  0  0  0999 V3000
M  V30 BEGIN CTAB
M  V30 COUNTS 52 55 0 0 0
M  V30 BEGIN ATOM
M  V30 1 C 3.083747 -3.169036 4.692610 0
M  V30 2 C 3.055235 -2.593143 3.320970 0
M  V30 3 C 2.912379 -3.394774 2.212332 0
M  V30 4 C 2.884255 -2.887633 0.949256 0
M  V30 5 C 3.005436 -1.513612 0.804988 0
M  V30 6 C 3.151585 -0.644220 1.864426 0
M  V30 7 N 3.276239 0.776755 1.683293 0
M  V30 8 C 3.248697 1.167896 0.336770 0
M  V30 9 N 4.456651 1.112449 -0.225450 0
M  V30 10 C 4.754054 1.419112 -1.488647 0
M  V30 11 N 3.719565 1.815608 -2.232635 0
M  V30 12 C 2.460906 1.895890 -1.724552 0
M  V30 13 S 0.841616 2.381004 -2.408528 0
M  V30 14 C -0.047223 2.119369 -0.929064 0
M  V30 15 C 0.862011 1.693437 -0.004888 0
M  V30 16 C 2.162367 1.573728 -0.405436 0
M  V30 17 C 0.167755 1.459306 1.282794 0
M  V30 18 C -1.064725 0.629901 1.087199 0
M  V30 19 N -1.863992 0.970774 -0.041267 0
M  V30 20 C -2.872943 0.149537 -0.552933 0
M  V30 21 O -3.535109 0.509305 -1.549151 0
M  V30 22 O -3.117575 -1.050522 0.058834 0
M  V30 23 C -4.090165 -1.977208 -0.337734 0
M  V30 24 C -4.035336 -3.171201 0.611145 0
M  V30 25 C -5.482792 -1.444449 -0.360283 0
M  V30 26 C -3.800695 -2.547136 -1.729568 0
M  V30 27 C -1.506838 2.283366 -0.605434 0
M  V30 28 C 3.171749 -1.235770 3.126245 0
M  V30 29 H 4.142180 -3.226680 5.041013 0
M  V30 30 H 2.609148 -4.173551 4.651377 0
M  V30 31 H 2.543025 -2.493043 5.417146 0
M  V30 32 H 2.817385 -4.468852 2.329860 0
M  V30 33 H 2.771958 -3.510996 0.048293 0
M  V30 34 H 2.981501 -1.133054 -0.207457 0
M  V30 35 H 3.371169 1.343761 2.557025 0
M  V30 36 H 5.699961 1.395889 -2.000625 0
M  V30 37 H -0.080592 2.472390 1.717262 0
M  V30 38 H 0.775806 0.961581 2.046009 0
M  V30 39 H -0.863103 -0.460919 1.146237 0
M  V30 40 H -1.706250 0.838401 1.994984 0
M  V30 41 H -3.121681 -3.788307 0.440870 0
M  V30 42 H -4.904579 -3.832099 0.336306 0
M  V30 43 H -4.162616 -2.885289 1.658351 0
M  V30 44 H -5.653847 -0.709290 -1.185510 0
M  V30 45 H -5.786478 -1.055733 0.623518 0
M  V30 46 H -6.167401 -2.287593 -0.602697 0
M  V30 47 H -4.650945 -3.202685 -1.962397 0
M  V30 48 H -2.898947 -3.206322 -1.636092 0
M  V30 49 H -3.695635 -1.762842 -2.495927 0
M  V30 50 H -2.073732 2.483993 -1.522458 0
M  V30 51 H -1.666708 3.015235 0.189717 0
M  V30 52 H 3.287866 -0.539274 3.963589 0
M  V30 END ATOM
M  V30 BEGIN BOND
M  V30 1 1 1 2
M  V30 2 2 2 3
M  V30 3 1 3 4
M  V30 4 2 4 5
M  V30 5 1 5 6
M  V30 6 1 6 7
M  V30 7 1 7 8
M  V30 8 2 8 9
M  V30 9 1 9 10
M  V30 10 2 10 11
M  V30 11 1 11 12
M  V30 12 1 12 13
M  V30 13 1 13 14
M  V30 14 2 14 15
M  V30 15 1 15 16
M  V30 16 1 15 17
M  V30 17 1 17 18
M  V30 18 1 18 19
M  V30 19 1 19 20
M  V30 20 2 20 21
M  V30 21 1 20 22
M  V30 22 1 22 23
M  V30 23 1 23 24
M  V30 24 1 23 25
M  V30 25 1 23 26
M  V30 26 1 19 27
M  V30 27 2 6 28
M  V30 28 1 28 2
M  V30 29 1 16 8
M  V30 30 2 16 12
M  V30 31 1 27 14
M  V30 32 1 1 29
M  V30 33 1 1 30
M  V30 34 1 1 31
M  V30 35 1 3 32
M  V30 36 1 4 33
M  V30 37 1 5 34
M  V30 38 1 7 35
M  V30 39 1 10 36
M  V30 40 1 17 37
M  V30 41 1 17 38
M  V30 42 1 18 39
M  V30 43 1 18 40
M  V30 44 1 24 41
M  V30 45 1 24 42
M  V30 46 1 24 43
M  V30 47 1 25 44
M  V30 48 1 25 45
M  V30 49 1 25 46
M  V30 50 1 26 47
M  V30 51 1 26 48
M  V30 52 1 26 49
M  V30 53 1 27 50
M  V30 54 1 27 51
M  V30 55 1 28 52
M  V30 END BOND
M  V30 END CTAB
M  END
>  <Dataset>  (301) 
ChEMBL_Kinases

>  <Ligand_Instance>  (301) 
nan

>  <PDB_ID>  (301) 
nan

>  <Standardized_SMILES>  (301) 
Cc1cccc(Nc2ncnc3sc4c(c23)CCN(C(=O)OC(C)(C)C)C4)c1

>  <Name>  (301) 
nan

>  <Pocket>  (301) 
nan

>  <ATP_Site>  (301) 
nan

>  <Peripheral>  (301) 
nan

>  <Num_H_Atoms_ProtBoundConf>  (301) 
nan

>  <Num_Resolved_Atoms>  (301) 
nan

>  <Num_Not_Resolved_Atoms>  (301) 
nan

$$$$
CHEMBL4635900
     RDKit          3D

  0  0  0  0  0  0  0  0  0  0999 V3000
M  V30 BEGIN CTAB
M  V30 COUNTS 43 46 0 0 0
M  V30 BEGIN ATOM
M  V30 1 O 1.419468 0.919076 4.141551 0
M  V30 2 C 0.814155 0.550814 3.082368 0
M  V30 3 N 1.827216 0.132296 2.198371 0
M  V30 4 C 3.115743 0.288078 2.840096 0
M  V30 5 C 4.183726 -0.166317 1.876260 0
M  V30 6 C 4.122904 -1.640741 1.595681 0
M  V30 7 C 5.460531 -1.821364 0.863981 0
M  V30 8 C 6.228996 -0.602548 1.350377 0
M  V30 9 O 5.476631 -0.055479 2.403193 0
M  V30 10 C -0.623282 0.641972 3.046193 0
M  V30 11 N -1.231088 1.116602 4.149868 0
M  V30 12 N -2.540381 1.133809 3.948004 0
M  V30 13 C -2.882272 0.684241 2.730199 0
M  V30 14 C -4.038694 0.487597 2.008357 0
M  V30 15 C -3.954079 -0.017554 0.728095 0
M  V30 16 C -2.704410 -0.317344 0.193659 0
M  V30 17 C -2.603457 -0.857588 -1.173559 0
M  V30 18 C -3.291202 -0.379365 -2.288540 0
M  V30 19 C -3.100661 -0.981340 -3.508681 0
M  V30 20 C -2.240715 -2.054608 -3.662530 0
M  V30 21 C -1.562152 -2.523552 -2.553004 0
M  V30 22 F -0.750197 -3.565680 -2.791925 0
M  V30 23 C -1.736014 -1.936562 -1.316856 0
M  V30 24 F -1.015160 -2.488715 -0.313995 0
M  V30 25 C -1.546129 -0.122100 0.912261 0
M  V30 26 C -1.655277 0.381211 2.183188 0
M  V30 27 H 1.462667 -0.194861 1.290244 0
M  V30 28 H 3.141304 -0.397543 3.711212 0
M  V30 29 H 3.328739 1.341993 3.117079 0
M  V30 30 H 4.074023 0.360904 0.921787 0
M  V30 31 H 4.205150 -2.255772 2.515220 0
M  V30 32 H 3.279727 -1.950520 0.965534 0
M  V30 33 H 5.299649 -1.748217 -0.228032 0
M  V30 34 H 5.943872 -2.770435 1.109882 0
M  V30 35 H 7.258527 -0.850893 1.625995 0
M  V30 36 H 6.220771 0.201985 0.559354 0
M  V30 37 H -3.222782 1.465452 4.670768 0
M  V30 38 H -4.979235 0.740502 2.480568 0
M  V30 39 H -4.844283 -0.180117 0.143724 0
M  V30 40 H -3.952700 0.468528 -2.097529 0
M  V30 41 H -3.658916 -0.575518 -4.356304 0
M  V30 42 H -2.141477 -2.478037 -4.655978 0
M  V30 43 H -0.614270 -0.361670 0.472651 0
M  V30 END ATOM
M  V30 BEGIN BOND
M  V30 1 2 1 2
M  V30 2 1 2 3
M  V30 3 1 3 4
M  V30 4 1 4 5
M  V30 5 1 5 6
M  V30 6 1 6 7
M  V30 7 1 7 8
M  V30 8 1 8 9
M  V30 9 1 2 10
M  V30 10 2 10 11
M  V30 11 1 11 12
M  V30 12 1 12 13
M  V30 13 2 13 14
M  V30 14 1 14 15
M  V30 15 2 15 16
M  V30 16 1 16 17
M  V30 17 2 17 18
M  V30 18 1 18 19
M  V30 19 2 19 20
M  V30 20 1 20 21
M  V30 21 1 21 22
M  V30 22 2 21 23
M  V30 23 1 23 24
M  V30 24 1 16 25
M  V30 25 2 25 26
M  V30 26 1 9 5
M  V30 27 1 26 10
M  V30 28 1 26 13
M  V30 29 1 23 17
M  V30 30 1 3 27
M  V30 31 1 4 28
M  V30 32 1 4 29
M  V30 33 1 5 30
M  V30 34 1 6 31
M  V30 35 1 6 32
M  V30 36 1 7 33
M  V30 37 1 7 34
M  V30 38 1 8 35
M  V30 39 1 8 36
M  V30 40 1 12 37
M  V30 41 1 14 38
M  V30 42 1 15 39
M  V30 43 1 18 40
M  V30 44 1 19 41
M  V30 45 1 20 42
M  V30 46 1 25 43
M  V30 END BOND
M  V30 END CTAB
M  END
>  <Dataset>  (302) 
ChEMBL_Kinases

>  <Ligand_Instance>  (302) 
nan

>  <PDB_ID>  (302) 
nan

>  <Standardized_SMILES>  (302) 
O=C(NCC1CCCO1)c1n[nH]c2ccc(-c3cccc(F)c3F)cc12

>  <Name>  (302) 
nan

>  <Pocket>  (302) 
nan

>  <ATP_Site>  (302) 
nan

>  <Peripheral>  (302) 
nan

>  <Num_H_Atoms_ProtBoundConf>  (302) 
nan

>  <Num_Resolved_Atoms>  (302) 
nan

>  <Num_Not_Resolved_Atoms>  (302) 
nan

$$$$
CHEMBL4568040
     RDKit          3D

  0  0  0  0  0  0  0  0  0  0999 V3000
M  V30 BEGIN CTAB
M  V30 COUNTS 38 40 0 0 0
M  V30 BEGIN ATOM
M  V30 1 C -1.321112 -3.525554 2.919939 0
M  V30 2 C -0.112208 -2.659574 2.645909 0
M  V30 3 C 0.378321 -2.149042 3.994743 0
M  V30 4 N -0.409080 -1.555625 1.750549 0
M  V30 5 C -1.452801 -0.862962 2.464204 0
M  V30 6 C -0.022136 -0.995165 0.509420 0
M  V30 7 N 0.425768 0.276966 0.673495 0
M  V30 8 C 0.847520 0.992660 -0.410524 0
M  V30 9 C 1.341134 2.362698 -0.311610 0
M  V30 10 C 1.768211 3.089161 -1.404974 0
M  V30 11 C 2.224801 4.381718 -1.248486 0
M  V30 12 N 2.269012 4.978385 -0.021953 0
M  V30 13 C 1.850019 4.269988 1.061796 0
M  V30 14 C 1.392481 2.980784 0.920496 0
M  V30 15 F 0.972455 2.276247 2.021312 0
M  V30 16 N 0.806640 0.410709 -1.622107 0
M  V30 17 C 0.381482 -0.823449 -1.846264 0
M  V30 18 C 0.314350 -1.477091 -3.058714 0
M  V30 19 N -0.149019 -2.757677 -3.135902 0
M  V30 20 C -0.559777 -3.441143 -2.045097 0
M  V30 21 C -0.516473 -2.837399 -0.795730 0
M  V30 22 C -0.043279 -1.544045 -0.753959 0
M  V30 23 H -2.092310 -3.460010 2.124156 0
M  V30 24 H -1.749734 -3.298767 3.924500 0
M  V30 25 H -0.984185 -4.574695 2.982672 0
M  V30 26 H 0.674943 -3.283401 2.201562 0
M  V30 27 H 0.965815 -3.014314 4.421194 0
M  V30 28 H 1.031572 -1.266919 3.917250 0
M  V30 29 H -0.518580 -2.006752 4.635411 0
M  V30 30 H -1.840390 0.038215 1.925621 0
M  V30 31 H -1.092369 -0.449584 3.448466 0
M  V30 32 H -2.377415 -1.495526 2.602804 0
M  V30 33 H 1.732431 2.611966 -2.383005 0
M  V30 34 H 2.564932 4.972433 -2.088104 0
M  V30 35 H 1.897378 4.777062 2.036348 0
M  V30 36 H 0.647439 -0.916332 -3.926506 0
M  V30 37 H -0.928354 -4.467976 -2.127527 0
M  V30 38 H -0.842764 -3.377125 0.080798 0
M  V30 END ATOM
M  V30 BEGIN BOND
M  V30 1 1 1 2
M  V30 2 1 2 3
M  V30 3 1 2 4
M  V30 4 1 4 5
M  V30 5 1 4 6
M  V30 6 2 6 7
M  V30 7 1 7 8
M  V30 8 1 8 9
M  V30 9 2 9 10
M  V30 10 1 10 11
M  V30 11 2 11 12
M  V30 12 1 12 13
M  V30 13 2 13 14
M  V30 14 1 14 15
M  V30 15 2 8 16
M  V30 16 1 16 17
M  V30 17 2 17 18
M  V30 18 1 18 19
M  V30 19 2 19 20
M  V30 20 1 20 21
M  V30 21 2 21 22
M  V30 22 1 22 6
M  V30 23 1 14 9
M  V30 24 1 22 17
M  V30 25 1 1 23
M  V30 26 1 1 24
M  V30 27 1 1 25
M  V30 28 1 2 26
M  V30 29 1 3 27
M  V30 30 1 3 28
M  V30 31 1 3 29
M  V30 32 1 5 30
M  V30 33 1 5 31
M  V30 34 1 5 32
M  V30 35 1 10 33
M  V30 36 1 11 34
M  V30 37 1 13 35
M  V30 38 1 18 36
M  V30 39 1 20 37
M  V30 40 1 21 38
M  V30 END BOND
M  V30 END CTAB
M  END
>  <Dataset>  (303) 
ChEMBL_Kinases

>  <Ligand_Instance>  (303) 
nan

>  <PDB_ID>  (303) 
nan

>  <Standardized_SMILES>  (303) 
CC(C)N(C)c1nc(-c2ccncc2F)nc2cnccc12

>  <Name>  (303) 
nan

>  <Pocket>  (303) 
nan

>  <ATP_Site>  (303) 
nan

>  <Peripheral>  (303) 
nan

>  <Num_H_Atoms_ProtBoundConf>  (303) 
nan

>  <Num_Resolved_Atoms>  (303) 
nan

>  <Num_Not_Resolved_Atoms>  (303) 
nan

$$$$
CHEMBL4568022
     RDKit          3D

  0  0  0  0  0  0  0  0  0  0999 V3000
M  V30 BEGIN CTAB
M  V30 COUNTS 60 63 0 0 0
M  V30 BEGIN ATOM
M  V30 1 C 5.072352 -4.551687 4.296621 0
M  V30 2 C 4.785162 -3.206703 3.738055 0
M  V30 3 C 3.868732 -2.332939 4.284380 0
M  V30 4 O 3.674794 -1.144964 3.716523 0
M  V30 5 C 4.334343 -0.780552 2.646520 0
M  V30 6 C 4.049303 0.460199 2.156270 0
M  V30 7 C 4.686253 0.941699 1.033941 0
M  V30 8 O 4.611233 2.120561 0.320039 0
M  V30 9 C 3.746606 3.177222 0.647719 0
M  V30 10 C 2.329290 2.754363 0.565851 0
M  V30 11 O 2.056135 1.582529 0.232927 0
M  V30 12 N 1.260977 3.612503 0.846416 0
M  V30 13 C -0.137834 3.385508 0.821251 0
M  V30 14 C -0.994882 4.417121 1.140981 0
M  V30 15 C -2.362990 4.279693 1.141012 0
M  V30 16 C -2.957167 3.085350 0.816466 0
M  V30 17 C -2.135882 2.052714 0.497529 0
M  V30 18 N -2.715369 0.782043 0.150919 0
M  V30 19 C -3.076698 0.365526 -1.146183 0
M  V30 20 O -2.912841 1.107780 -2.148758 0
M  V30 21 C -3.659044 -0.947959 -1.391412 0
M  V30 22 C -3.984882 -1.287374 -2.707587 0
M  V30 23 C -4.544562 -2.527028 -3.011355 0
M  V30 24 C -4.795860 -3.465185 -2.010389 0
M  V30 25 N -5.367870 -4.725213 -2.341570 0
M  V30 26 C -5.659799 -4.958599 -3.729606 0
M  V30 27 C -5.602164 -5.655705 -1.244778 0
M  V30 28 C -4.466386 -3.108753 -0.718782 0
M  V30 29 C -3.911731 -1.882008 -0.412600 0
M  V30 30 C -0.767249 2.228993 0.508574 0
M  V30 31 C 5.629110 0.112845 0.424562 0
M  V30 32 C 5.913288 -1.158247 0.936952 0
M  V30 33 C 5.266853 -1.624424 2.059802 0
M  V30 34 C 5.518262 -2.875984 2.599386 0
M  V30 35 O 6.368873 -3.607020 2.037835 0
M  V30 36 H 4.572848 -4.678279 5.276644 0
M  V30 37 H 4.639654 -5.335741 3.618678 0
M  V30 38 H 6.167637 -4.739507 4.353981 0
M  V30 39 H 3.329164 -2.640608 5.166213 0
M  V30 40 H 3.349410 1.178429 2.555387 0
M  V30 41 H 3.917089 3.967759 -0.123444 0
M  V30 42 H 4.002963 3.655694 1.617351 0
M  V30 43 H 1.588259 4.587251 1.120261 0
M  V30 44 H -0.589736 5.404691 1.411812 0
M  V30 45 H -2.971915 5.132253 1.402356 0
M  V30 46 H -4.034243 3.020748 0.828961 0
M  V30 47 H -2.843804 0.180739 0.993576 0
M  V30 48 H -3.816736 -0.604179 -3.543332 0
M  V30 49 H -4.779368 -2.750057 -4.024941 0
M  V30 50 H -6.447181 -4.246100 -4.047615 0
M  V30 51 H -4.779192 -4.762777 -4.384445 0
M  V30 52 H -5.980763 -6.020057 -3.884790 0
M  V30 53 H -6.175215 -5.184030 -0.423384 0
M  V30 54 H -4.610017 -5.909677 -0.819808 0
M  V30 55 H -6.054214 -6.592810 -1.603379 0
M  V30 56 H -4.641090 -3.799935 0.094372 0
M  V30 57 H -3.667844 -1.641459 0.612942 0
M  V30 58 H -0.199113 1.361100 0.244147 0
M  V30 59 H 6.234805 0.297901 -0.455888 0
M  V30 60 H 6.626923 -1.852620 0.521703 0
M  V30 END ATOM
M  V30 BEGIN BOND
M  V30 1 1 1 2
M  V30 2 2 2 3
M  V30 3 1 3 4
M  V30 4 1 4 5
M  V30 5 2 5 6
M  V30 6 1 6 7
M  V30 7 1 7 8
M  V30 8 1 8 9
M  V30 9 1 9 10
M  V30 10 2 10 11
M  V30 11 1 10 12
M  V30 12 1 12 13
M  V30 13 2 13 14
M  V30 14 1 14 15
M  V30 15 2 15 16
M  V30 16 1 16 17
M  V30 17 1 17 18
M  V30 18 1 18 19
M  V30 19 2 19 20
M  V30 20 1 19 21
M  V30 21 2 21 22
M  V30 22 1 22 23
M  V30 23 2 23 24
M  V30 24 1 24 25
M  V30 25 1 25 26
M  V30 26 1 25 27
M  V30 27 1 24 28
M  V30 28 2 28 29
M  V30 29 2 17 30
M  V30 30 2 7 31
M  V30 31 1 31 32
M  V30 32 2 32 33
M  V30 33 1 33 34
M  V30 34 2 34 35
M  V30 35 1 34 2
M  V30 36 1 33 5
M  V30 37 1 30 13
M  V30 38 1 29 21
M  V30 39 1 1 36
M  V30 40 1 1 37
M  V30 41 1 1 38
M  V30 42 1 3 39
M  V30 43 1 6 40
M  V30 44 1 9 41
M  V30 45 1 9 42
M  V30 46 1 12 43
M  V30 47 1 14 44
M  V30 48 1 15 45
M  V30 49 1 16 46
M  V30 50 1 18 47
M  V30 51 1 22 48
M  V30 52 1 23 49
M  V30 53 1 26 50
M  V30 54 1 26 51
M  V30 55 1 26 52
M  V30 56 1 27 53
M  V30 57 1 27 54
M  V30 58 1 27 55
M  V30 59 1 28 56
M  V30 60 1 29 57
M  V30 61 1 30 58
M  V30 62 1 31 59
M  V30 63 1 32 60
M  V30 END BOND
M  V30 END CTAB
M  END
>  <Dataset>  (304) 
ChEMBL_Kinases

>  <Ligand_Instance>  (304) 
nan

>  <PDB_ID>  (304) 
nan

>  <Standardized_SMILES>  (304) 
Cc1coc2cc(OCC(=O)Nc3cccc(NC(=O)c4ccc(N(C)C)cc4)c3)ccc2c1=O

>  <Name>  (304) 
nan

>  <Pocket>  (304) 
nan

>  <ATP_Site>  (304) 
nan

>  <Peripheral>  (304) 
nan

>  <Num_H_Atoms_ProtBoundConf>  (304) 
nan

>  <Num_Resolved_Atoms>  (304) 
nan

>  <Num_Not_Resolved_Atoms>  (304) 
nan

$$$$
CHEMBL4567764
     RDKit          3D

  0  0  0  0  0  0  0  0  0  0999 V3000
M  V30 BEGIN CTAB
M  V30 COUNTS 35 38 0 0 0
M  V30 BEGIN ATOM
M  V30 1 Br 0.712357 -1.352482 6.561885 0
M  V30 2 C 1.133968 -1.285601 4.686977 0
M  V30 3 C 1.523047 -2.445958 4.013543 0
M  V30 4 C 1.821302 -2.347295 2.655013 0
M  V30 5 C 1.732705 -1.129003 1.993844 0
M  V30 6 N 2.042482 -0.977647 0.592924 0
M  V30 7 C 1.834372 0.282691 -0.016125 0
M  V30 8 N 2.829123 1.161508 0.158475 0
M  V30 9 C 2.895951 2.396892 -0.301368 0
M  V30 10 N 1.863819 2.811522 -1.014759 0
M  V30 11 C 0.776387 1.937517 -1.240821 0
M  V30 12 S -0.768547 2.119080 -2.140802 0
M  V30 13 C -1.351567 0.527692 -1.815113 0
M  V30 14 C -0.380142 -0.027312 -1.071946 0
M  V30 15 C 0.728223 0.657538 -0.752908 0
M  V30 16 C -0.797619 -1.441805 -0.729482 0
M  V30 17 C -2.135102 -1.299861 -0.029083 0
M  V30 18 C -3.141143 -1.090047 -1.141831 0
M  V30 19 C -2.601561 -0.196711 -2.198337 0
M  V30 20 C 1.337470 -0.027928 2.742749 0
M  V30 21 C 1.028349 -0.054316 4.087232 0
M  V30 22 H 1.593377 -3.396298 4.524439 0
M  V30 23 H 2.124726 -3.221934 2.103698 0
M  V30 24 H 2.407703 -1.834581 0.123426 0
M  V30 25 H 3.686551 3.115787 -0.171037 0
M  V30 26 H -0.118642 -1.954554 -0.067443 0
M  V30 27 H -0.960761 -2.006198 -1.670003 0
M  V30 28 H -2.397240 -2.212547 0.544097 0
M  V30 29 H -2.173316 -0.402942 0.617051 0
M  V30 30 H -3.373862 -2.104643 -1.549012 0
M  V30 31 H -4.102943 -0.717239 -0.715478 0
M  V30 32 H -2.487877 -0.723744 -3.188644 0
M  V30 33 H -3.379886 0.595047 -2.406217 0
M  V30 34 H 1.266808 0.938450 2.219817 0
M  V30 35 H 0.725650 0.835472 4.624529 0
M  V30 END ATOM
M  V30 BEGIN BOND
M  V30 1 1 1 2
M  V30 2 2 2 3
M  V30 3 1 3 4
M  V30 4 2 4 5
M  V30 5 1 5 6
M  V30 6 1 6 7
M  V30 7 2 7 8
M  V30 8 1 8 9
M  V30 9 2 9 10
M  V30 10 1 10 11
M  V30 11 1 11 12
M  V30 12 1 12 13
M  V30 13 2 13 14
M  V30 14 1 14 15
M  V30 15 1 14 16
M  V30 16 1 16 17
M  V30 17 1 17 18
M  V30 18 1 18 19
M  V30 19 1 5 20
M  V30 20 2 20 21
M  V30 21 1 21 2
M  V30 22 1 15 7
M  V30 23 2 15 11
M  V30 24 1 19 13
M  V30 25 1 3 22
M  V30 26 1 4 23
M  V30 27 1 6 24
M  V30 28 1 9 25
M  V30 29 1 16 26
M  V30 30 1 16 27
M  V30 31 1 17 28
M  V30 32 1 17 29
M  V30 33 1 18 30
M  V30 34 1 18 31
M  V30 35 1 19 32
M  V30 36 1 19 33
M  V30 37 1 20 34
M  V30 38 1 21 35
M  V30 END BOND
M  V30 END CTAB
M  END
>  <Dataset>  (305) 
ChEMBL_Kinases

>  <Ligand_Instance>  (305) 
nan

>  <PDB_ID>  (305) 
nan

>  <Standardized_SMILES>  (305) 
Brc1ccc(Nc2ncnc3sc4c(c23)CCCC4)cc1

>  <Name>  (305) 
nan

>  <Pocket>  (305) 
nan

>  <ATP_Site>  (305) 
nan

>  <Peripheral>  (305) 
nan

>  <Num_H_Atoms_ProtBoundConf>  (305) 
nan

>  <Num_Resolved_Atoms>  (305) 
nan

>  <Num_Not_Resolved_Atoms>  (305) 
nan

$$$$
CHEMBL4567664
     RDKit          3D

  0  0  0  0  0  0  0  0  0  0999 V3000
M  V30 BEGIN CTAB
M  V30 COUNTS 63 68 0 0 0
M  V30 BEGIN ATOM
M  V30 1 O 3.327076 -1.973857 1.708132 0
M  V30 2 C 3.899667 -1.609325 2.782713 0
M  V30 3 N 3.833034 -0.248920 3.134478 0
M  V30 4 C 3.113430 0.739113 2.279471 0
M  V30 5 N 3.276890 1.449553 1.401797 0
M  V30 6 C 2.401725 2.252016 0.824995 0
M  V30 7 C 2.583831 3.167562 -0.294681 0
M  V30 8 C 2.555209 4.544509 -0.298976 0
M  V30 9 C 2.742444 5.259075 -1.462720 0
M  V30 10 C 2.961615 4.568573 -2.636024 0
M  V30 11 F 3.144812 5.314593 -3.774891 0
M  V30 12 C 2.997752 3.191260 -2.674130 0
M  V30 13 C 2.806888 2.470140 -1.489634 0
M  V30 14 C 1.127953 2.246393 1.330499 0
M  V30 15 C -0.201994 2.813535 1.209192 0
M  V30 16 C -0.497059 4.132588 1.458445 0
M  V30 17 C -1.794045 4.559899 1.314721 0
M  V30 18 N -2.759063 3.718846 0.940520 0
M  V30 19 C -2.501103 2.430858 0.691343 0
M  V30 20 N -3.567968 1.574913 0.302619 0
M  V30 21 C -3.544934 0.199262 -0.046596 0
M  V30 22 C -4.705429 -0.503257 -0.317331 0
M  V30 23 C -4.713187 -1.833988 -0.665165 0
M  V30 24 C -3.538836 -2.541969 -0.761333 0
M  V30 25 N -3.571406 -3.917213 -1.116203 0
M  V30 26 C -4.742207 -4.765909 -1.162301 0
M  V30 27 C -4.524104 -6.100814 -0.486080 0
M  V30 28 N -3.304526 -6.199874 0.256268 0
M  V30 29 C -2.138020 -5.839888 -0.521398 0
M  V30 30 C -2.449741 -4.741872 -1.516347 0
M  V30 31 C -2.347289 -1.903357 -0.505038 0
M  V30 32 C -2.408529 -0.570557 -0.161928 0
M  V30 33 N -1.228914 2.043840 0.839586 0
M  V30 34 S 1.300962 0.980924 2.711738 0
M  V30 35 C 4.623978 -2.570239 3.659395 0
M  V30 36 C 5.242429 -3.775067 3.058552 0
M  V30 37 C 3.914713 -3.937082 3.778140 0
M  V30 38 H 4.280171 0.113174 3.997232 0
M  V30 39 H 2.380749 4.984002 0.667618 0
M  V30 40 H 2.709076 6.328260 -1.407345 0
M  V30 41 H 3.176557 2.715684 -3.642711 0
M  V30 42 H 2.848580 1.382667 -1.592613 0
M  V30 43 H 0.277670 4.819518 1.764130 0
M  V30 44 H -2.042063 5.594215 1.507067 0
M  V30 45 H -4.531692 2.016184 0.263340 0
M  V30 46 H -5.657005 0.047729 -0.245811 0
M  V30 47 H -5.694878 -2.249558 -0.849770 0
M  V30 48 H -5.648916 -4.254628 -0.792792 0
M  V30 49 H -4.990418 -5.019667 -2.236811 0
M  V30 50 H -5.358124 -6.226404 0.249337 0
M  V30 51 H -4.603373 -6.962749 -1.178656 0
M  V30 52 H -3.312283 -5.751171 1.196056 0
M  V30 53 H -1.810348 -6.755879 -1.051006 0
M  V30 54 H -1.330852 -5.558739 0.185674 0
M  V30 55 H -1.533868 -4.124901 -1.618387 0
M  V30 56 H -2.642302 -5.220387 -2.502185 0
M  V30 57 H -1.390373 -2.416935 -0.565209 0
M  V30 58 H -1.445563 -0.120491 0.027532 0
M  V30 59 H 5.077655 -2.149089 4.569888 0
M  V30 60 H 6.067983 -4.271713 3.628750 0
M  V30 61 H 5.310322 -3.949976 1.973246 0
M  V30 62 H 3.867229 -4.420269 4.767073 0
M  V30 63 H 3.024545 -4.105712 3.114820 0
M  V30 END ATOM
M  V30 BEGIN BOND
M  V30 1 2 1 2
M  V30 2 1 2 3
M  V30 3 1 3 4
M  V30 4 2 4 5
M  V30 5 1 5 6
M  V30 6 1 6 7
M  V30 7 2 7 8
M  V30 8 1 8 9
M  V30 9 2 9 10
M  V30 10 1 10 11
M  V30 11 1 10 12
M  V30 12 2 12 13
M  V30 13 2 6 14
M  V30 14 1 14 15
M  V30 15 2 15 16
M  V30 16 1 16 17
M  V30 17 2 17 18
M  V30 18 1 18 19
M  V30 19 1 19 20
M  V30 20 1 20 21
M  V30 21 2 21 22
M  V30 22 1 22 23
M  V30 23 2 23 24
M  V30 24 1 24 25
M  V30 25 1 25 26
M  V30 26 1 26 27
M  V30 27 1 27 28
M  V30 28 1 28 29
M  V30 29 1 29 30
M  V30 30 1 24 31
M  V30 31 2 31 32
M  V30 32 2 19 33
M  V30 33 1 14 34
M  V30 34 1 2 35
M  V30 35 1 35 36
M  V30 36 1 36 37
M  V30 37 1 34 4
M  V30 38 1 37 35
M  V30 39 1 13 7
M  V30 40 1 33 15
M  V30 41 1 32 21
M  V30 42 1 30 25
M  V30 43 1 3 38
M  V30 44 1 8 39
M  V30 45 1 9 40
M  V30 46 1 12 41
M  V30 47 1 13 42
M  V30 48 1 16 43
M  V30 49 1 17 44
M  V30 50 1 20 45
M  V30 51 1 22 46
M  V30 52 1 23 47
M  V30 53 1 26 48
M  V30 54 1 26 49
M  V30 55 1 27 50
M  V30 56 1 27 51
M  V30 57 1 28 52
M  V30 58 1 29 53
M  V30 59 1 29 54
M  V30 60 1 30 55
M  V30 61 1 30 56
M  V30 62 1 31 57
M  V30 63 1 32 58
M  V30 64 1 35 59
M  V30 65 1 36 60
M  V30 66 1 36 61
M  V30 67 1 37 62
M  V30 68 1 37 63
M  V30 END BOND
M  V30 END CTAB
M  END
>  <Dataset>  (306) 
ChEMBL_Kinases

>  <Ligand_Instance>  (306) 
nan

>  <PDB_ID>  (306) 
nan

>  <Standardized_SMILES>  (306) 
O=C(Nc1nc(-c2ccc(F)cc2)c(-c2ccnc(Nc3ccc(N4CCNCC4)cc3)n2)s1)C1CC1

>  <Name>  (306) 
nan

>  <Pocket>  (306) 
nan

>  <ATP_Site>  (306) 
nan

>  <Peripheral>  (306) 
nan

>  <Num_H_Atoms_ProtBoundConf>  (306) 
nan

>  <Num_Resolved_Atoms>  (306) 
nan

>  <Num_Not_Resolved_Atoms>  (306) 
nan

$$$$
CHEMBL4635935
     RDKit          3D

  0  0  0  0  0  0  0  0  0  0999 V3000
M  V30 BEGIN CTAB
M  V30 COUNTS 40 43 0 0 0
M  V30 BEGIN ATOM
M  V30 1 C 1.866624 -6.521810 -1.655767 0
M  V30 2 O 1.497432 -5.198709 -1.867824 0
M  V30 3 C 1.312033 -4.245909 -0.906409 0
M  V30 4 C 1.459985 -4.440555 0.469912 0
M  V30 5 C 1.261021 -3.428882 1.434713 0
M  V30 6 C 0.915322 -2.280195 0.810498 0
M  V30 7 C 0.720365 -1.889452 -0.473832 0
M  V30 8 C 0.339390 -0.562368 -0.907085 0
M  V30 9 C 0.133248 -0.243727 -2.220223 0
M  V30 10 C -0.254666 1.071957 -2.494790 0
M  V30 11 C -0.409509 1.984294 -1.434773 0
M  V30 12 N -0.830141 3.314701 -1.893744 0
M  V30 13 S -0.885932 4.043700 -0.181210 0
M  V30 14 C -0.443604 2.759220 0.667267 0
M  V30 15 N -0.309986 2.701141 2.106357 0
M  V30 16 C 0.754130 2.090301 2.907943 0
M  V30 17 C 0.230048 1.774876 4.261340 0
M  V30 18 O -1.062882 1.297161 4.301997 0
M  V30 19 C -1.992878 2.113683 3.704706 0
M  V30 20 C -1.338604 3.284746 2.981349 0
M  V30 21 C -0.190070 1.613045 -0.151713 0
M  V30 22 N 0.170848 0.363414 0.037523 0
M  V30 23 C 0.942042 -2.962902 -1.339101 0
M  V30 24 H 0.991724 -7.225583 -1.788688 0
M  V30 25 H 2.581526 -6.807370 -2.476860 0
M  V30 26 H 2.334268 -6.750234 -0.694826 0
M  V30 27 H 1.750651 -5.451077 0.761133 0
M  V30 28 H 1.385515 -3.616583 2.481089 0
M  V30 29 H 0.747567 -1.457318 1.539667 0
M  V30 30 H 0.267349 -0.978383 -2.996083 0
M  V30 31 H -0.394951 1.230888 -3.557756 0
M  V30 32 H 1.169236 1.187770 2.450197 0
M  V30 33 H 1.595515 2.807713 3.031601 0
M  V30 34 H 0.894617 0.977369 4.690004 0
M  V30 35 H 0.361402 2.664776 4.926458 0
M  V30 36 H -2.661172 2.519375 4.489254 0
M  V30 37 H -2.587552 1.511766 2.992671 0
M  V30 38 H -2.110509 3.805784 2.393152 0
M  V30 39 H -0.830854 3.899216 3.721468 0
M  V30 40 H 0.824928 -2.804283 -2.413786 0
M  V30 END ATOM
M  V30 BEGIN BOND
M  V30 1 1 1 2
M  V30 2 1 2 3
M  V30 3 2 3 4
M  V30 4 1 4 5
M  V30 5 2 5 6
M  V30 6 1 6 7
M  V30 7 1 7 8
M  V30 8 1 8 9
M  V30 9 2 9 10
M  V30 10 1 10 11
M  V30 11 2 11 12
M  V30 12 1 12 13
M  V30 13 1 13 14
M  V30 14 1 14 15
M  V30 15 1 15 16
M  V30 16 1 16 17
M  V30 17 1 17 18
M  V30 18 1 18 19
M  V30 19 1 19 20
M  V30 20 2 14 21
M  V30 21 1 21 22
M  V30 22 2 7 23
M  V30 23 1 23 3
M  V30 24 2 22 8
M  V30 25 1 21 11
M  V30 26 1 20 15
M  V30 27 1 1 24
M  V30 28 1 1 25
M  V30 29 1 1 26
M  V30 30 1 4 27
M  V30 31 1 5 28
M  V30 32 1 6 29
M  V30 33 1 9 30
M  V30 34 1 10 31
M  V30 35 1 16 32
M  V30 36 1 16 33
M  V30 37 1 17 34
M  V30 38 1 17 35
M  V30 39 1 19 36
M  V30 40 1 19 37
M  V30 41 1 20 38
M  V30 42 1 20 39
M  V30 43 1 23 40
M  V30 END BOND
M  V30 END CTAB
M  END
>  <Dataset>  (307) 
ChEMBL_Kinases

>  <Ligand_Instance>  (307) 
nan

>  <PDB_ID>  (307) 
nan

>  <Standardized_SMILES>  (307) 
COc1cccc(-c2ccc3nsc(N4CCOCC4)c3n2)c1

>  <Name>  (307) 
nan

>  <Pocket>  (307) 
nan

>  <ATP_Site>  (307) 
nan

>  <Peripheral>  (307) 
nan

>  <Num_H_Atoms_ProtBoundConf>  (307) 
nan

>  <Num_Resolved_Atoms>  (307) 
nan

>  <Num_Not_Resolved_Atoms>  (307) 
nan

$$$$
CHEMBL4567363
     RDKit          3D

  0  0  0  0  0  0  0  0  0  0999 V3000
M  V30 BEGIN CTAB
M  V30 COUNTS 47 49 0 0 0
M  V30 BEGIN ATOM
M  V30 1 C 0.920163 -4.351437 2.624986 0
M  V30 2 C 1.039074 -2.983873 3.213142 0
M  V30 3 C 0.773601 -1.930829 2.191643 0
M  V30 4 C 1.836421 -1.450030 1.458875 0
M  V30 5 C 1.590811 -0.475466 0.513448 0
M  V30 6 C 2.748338 -0.010684 -0.226874 0
M  V30 7 C 3.605268 -1.004677 -0.712699 0
M  V30 8 C 4.748879 -0.697087 -1.440124 0
M  V30 9 N 5.059767 0.601507 -1.696606 0
M  V30 10 C 4.250280 1.573573 -1.239192 0
M  V30 11 N 4.253013 2.919348 -1.304923 0
M  V30 12 N 3.194822 3.435713 -0.669859 0
M  V30 13 C 2.438877 2.435142 -0.151032 0
M  V30 14 C 3.112010 1.286999 -0.516116 0
M  V30 15 C 0.302190 -0.018516 0.334137 0
M  V30 16 C -0.783449 -0.476750 1.049047 0
M  V30 17 C -2.166032 0.028003 0.839136 0
M  V30 18 C -2.160514 1.071748 -0.260889 0
M  V30 19 C -3.059036 -1.101951 0.415972 0
M  V30 20 C -4.478809 -0.697353 0.180308 0
M  V30 21 C -2.733092 0.675137 2.062466 0
M  V30 22 N -2.814774 -0.198586 3.197259 0
M  V30 23 C -0.501174 -1.448599 1.983296 0
M  V30 24 H -0.146226 -4.679052 2.673923 0
M  V30 25 H 1.578202 -5.035157 3.201343 0
M  V30 26 H 1.308068 -4.329132 1.582032 0
M  V30 27 H 2.054482 -2.863674 3.645461 0
M  V30 28 H 0.248850 -2.861039 3.995192 0
M  V30 29 H 2.829044 -1.849824 1.645976 0
M  V30 30 H 3.386844 -2.067994 -0.525214 0
M  V30 31 H 5.365282 -1.522999 -1.784269 0
M  V30 32 H 4.984428 3.483906 -1.787730 0
M  V30 33 H 1.523300 2.531374 0.415875 0
M  V30 34 H 0.172371 0.743010 -0.421888 0
M  V30 35 H -1.888434 0.594040 -1.223633 0
M  V30 36 H -1.448732 1.899847 -0.030212 0
M  V30 37 H -3.138075 1.563548 -0.397691 0
M  V30 38 H -3.057521 -1.902749 1.211846 0
M  V30 39 H -2.689795 -1.543498 -0.556245 0
M  V30 40 H -4.673807 0.381255 0.165345 0
M  V30 41 H -4.893442 -1.131431 -0.776625 0
M  V30 42 H -5.162382 -1.138418 0.964319 0
M  V30 43 H -2.111712 1.589950 2.300114 0
M  V30 44 H -3.748029 1.057048 1.838678 0
M  V30 45 H -3.744613 -0.156908 3.626411 0
M  V30 46 H -2.066701 0.000455 3.908528 0
M  V30 47 H -1.267951 -1.888159 2.604655 0
M  V30 END ATOM
M  V30 BEGIN BOND
M  V30 1 1 1 2
M  V30 2 1 2 3
M  V30 3 2 3 4
M  V30 4 1 4 5
M  V30 5 1 5 6
M  V30 6 2 6 7
M  V30 7 1 7 8
M  V30 8 2 8 9
M  V30 9 1 9 10
M  V30 10 1 10 11
M  V30 11 1 11 12
M  V30 12 2 12 13
M  V30 13 1 13 14
M  V30 14 2 5 15
M  V30 15 1 15 16
M  V30 16 1 16 17
M  V30 17 1 17 18
M  V30 18 1 17 19
M  V30 19 1 19 20
M  V30 20 1 17 21
M  V30 21 1 21 22
M  V30 22 2 16 23
M  V30 23 1 23 3
M  V30 24 1 14 6
M  V30 25 2 14 10
M  V30 26 1 1 24
M  V30 27 1 1 25
M  V30 28 1 1 26
M  V30 29 1 2 27
M  V30 30 1 2 28
M  V30 31 1 4 29
M  V30 32 1 7 30
M  V30 33 1 8 31
M  V30 34 1 11 32
M  V30 35 1 13 33
M  V30 36 1 15 34
M  V30 37 1 18 35
M  V30 38 1 18 36
M  V30 39 1 18 37
M  V30 40 1 19 38
M  V30 41 1 19 39
M  V30 42 1 20 40
M  V30 43 1 20 41
M  V30 44 1 20 42
M  V30 45 1 21 43
M  V30 46 1 21 44
M  V30 47 1 22 45
M  V30 48 1 22 46
M  V30 49 1 23 47
M  V30 END BOND
M  V30 END CTAB
M  END
>  <Dataset>  (308) 
ChEMBL_Kinases

>  <Ligand_Instance>  (308) 
nan

>  <PDB_ID>  (308) 
nan

>  <Standardized_SMILES>  (308) 
CCc1cc(-c2ccnc3[nH]ncc23)cc(C(C)(CC)CN)c1

>  <Name>  (308) 
nan

>  <Pocket>  (308) 
nan

>  <ATP_Site>  (308) 
nan

>  <Peripheral>  (308) 
nan

>  <Num_H_Atoms_ProtBoundConf>  (308) 
nan

>  <Num_Resolved_Atoms>  (308) 
nan

>  <Num_Not_Resolved_Atoms>  (308) 
nan

$$$$
CHEMBL4636046
     RDKit          3D

  0  0  0  0  0  0  0  0  0  0999 V3000
M  V30 BEGIN CTAB
M  V30 COUNTS 73 79 0 0 0
M  V30 BEGIN ATOM
M  V30 1 C 0.596598 5.238504 -6.997547 0
M  V30 2 O 0.713998 4.667938 -5.709600 0
M  V30 3 C 0.133814 3.437134 -5.459762 0
M  V30 4 C -0.565719 2.692594 -6.373293 0
M  V30 5 C -1.127557 1.462561 -6.066530 0
M  V30 6 C -1.861753 0.686569 -7.057929 0
M  V30 7 O -2.825844 1.359949 -7.538517 0
M  V30 8 N -1.508440 -0.644003 -7.407487 0
M  V30 9 C -0.475156 -1.596765 -7.005766 0
M  V30 10 C -0.662328 -2.777173 -7.936059 0 CFG=2
M  V30 11 C -1.168496 -2.041503 -9.175221 0
M  V30 12 C -2.288583 -1.360752 -8.404553 0 CFG=1
M  V30 13 C -2.845309 -2.555619 -7.675061 0
M  V30 14 O -1.805932 -3.476115 -7.567017 0
M  V30 15 C -1.000485 0.932747 -4.802924 0
M  V30 16 C -0.293267 1.692715 -3.892339 0
M  V30 17 C 0.281193 2.935806 -4.184439 0
M  V30 18 N 1.008273 3.572630 -3.110890 0
M  V30 19 C 1.068258 3.006273 -1.808762 0
M  V30 20 N 1.856741 1.916784 -1.777444 0
M  V30 21 C 1.887152 1.416074 -0.512828 0
M  V30 22 C 2.481040 0.359465 0.145478 0
M  V30 23 C 2.253024 0.178802 1.493431 0
M  V30 24 C 1.441106 1.019066 2.248254 0
M  V30 25 C 1.256434 0.748409 3.673180 0
M  V30 26 C 2.336462 0.159971 4.308235 0
M  V30 27 C 2.237991 -0.123772 5.674336 0
M  V30 28 C 1.050450 0.214184 6.281954 0
M  V30 29 N 1.076277 -0.136725 7.683825 0
M  V30 30 C 0.532922 -1.436313 7.728858 0
M  V30 31 O 0.151816 -2.009498 6.650908 0
M  V30 32 C 0.270038 -2.403418 8.852948 0
M  V30 33 C -0.360174 -3.590158 8.217295 0
M  V30 34 C 0.240050 -4.713336 7.690655 0
M  V30 35 C -0.542160 -5.715864 7.137878 0
M  V30 36 C -1.912562 -5.625546 7.096793 0
M  V30 37 F -2.667425 -6.609074 6.554059 0
M  V30 38 C -2.526452 -4.506780 7.620203 0
M  V30 39 C -1.756185 -3.513331 8.168168 0
M  V30 40 C -0.053154 0.799189 5.705505 0
M  V30 41 C 0.079976 1.069596 4.333222 0
M  V30 42 C 0.866577 2.060924 1.555544 0
M  V30 43 N 1.097853 2.225121 0.237263 0
M  V30 44 N 0.607501 3.182981 -0.557128 0
M  V30 45 H 0.717614 6.361588 -6.973630 0
M  V30 46 H 1.354675 4.834683 -7.665048 0
M  V30 47 H -0.429181 5.092064 -7.408526 0
M  V30 48 H -0.685163 3.076854 -7.374275 0
M  V30 49 H 0.544868 -1.164009 -7.097829 0
M  V30 50 H -0.705504 -1.907778 -5.964865 0
M  V30 51 H 0.206003 -3.375838 -8.106822 0
M  V30 52 H -1.531073 -2.747556 -9.945405 0
M  V30 53 H -0.383717 -1.343706 -9.521826 0
M  V30 54 H -2.978328 -0.782777 -8.967898 0
M  V30 55 H -3.761860 -2.964016 -8.140586 0
M  V30 56 H -3.137681 -2.275954 -6.635746 0
M  V30 57 H -1.419704 -0.027174 -4.509863 0
M  V30 58 H -0.194131 1.268919 -2.895178 0
M  V30 59 H 1.472718 4.479000 -3.404776 0
M  V30 60 H 3.109974 -0.288250 -0.452217 0
M  V30 61 H 2.768021 -0.681116 1.896638 0
M  V30 62 H 3.240307 -0.081552 3.778783 0
M  V30 63 H 3.092591 -0.582142 6.143116 0
M  V30 64 H 1.324913 0.169506 8.653321 0
M  V30 65 H 1.263023 -2.749524 9.219802 0
M  V30 66 H -0.351604 -1.995420 9.644407 0
M  V30 67 H 1.316137 -4.697741 7.765094 0
M  V30 68 H -0.025371 -6.571084 6.740235 0
M  V30 69 H -3.617764 -4.438930 7.585519 0
M  V30 70 H -2.324509 -2.657800 8.562053 0
M  V30 71 H -0.937149 1.023314 6.275971 0
M  V30 72 H -0.744871 1.526489 3.807491 0
M  V30 73 H 0.225310 2.738154 2.107023 0
M  V30 END ATOM
M  V30 BEGIN BOND
M  V30 1 1 1 2
M  V30 2 1 2 3
M  V30 3 2 3 4
M  V30 4 1 4 5
M  V30 5 1 5 6
M  V30 6 2 6 7
M  V30 7 1 6 8
M  V30 8 1 8 9
M  V30 9 1 9 10
M  V30 10 1 10 11
M  V30 11 1 11 12
M  V30 12 1 12 13
M  V30 13 1 13 14
M  V30 14 2 5 15
M  V30 15 1 15 16
M  V30 16 2 16 17
M  V30 17 1 17 18
M  V30 18 1 18 19
M  V30 19 1 19 20
M  V30 20 2 20 21
M  V30 21 1 21 22
M  V30 22 2 22 23
M  V30 23 1 23 24
M  V30 24 1 24 25
M  V30 25 2 25 26
M  V30 26 1 26 27
M  V30 27 2 27 28
M  V30 28 1 28 29
M  V30 29 1 29 30
M  V30 30 2 30 31
M  V30 31 1 30 32
M  V30 32 1 32 33
M  V30 33 2 33 34
M  V30 34 1 34 35
M  V30 35 2 35 36
M  V30 36 1 36 37
M  V30 37 1 36 38
M  V30 38 2 38 39
M  V30 39 1 28 40
M  V30 40 2 40 41
M  V30 41 2 24 42
M  V30 42 1 42 43
M  V30 43 1 43 44
M  V30 44 1 17 3
M  V30 45 2 44 19
M  V30 46 1 12 8
M  V30 47 1 43 21
M  V30 48 1 14 10
M  V30 49 1 41 25
M  V30 50 1 39 33
M  V30 51 1 1 45
M  V30 52 1 1 46
M  V30 53 1 1 47
M  V30 54 1 4 48
M  V30 55 1 9 49
M  V30 56 1 9 50
M  V30 57 1 10 51 CFG=3
M  V30 58 1 11 52
M  V30 59 1 11 53
M  V30 60 1 12 54 CFG=3
M  V30 61 1 13 55
M  V30 62 1 13 56
M  V30 63 1 15 57
M  V30 64 1 16 58
M  V30 65 1 18 59
M  V30 66 1 22 60
M  V30 67 1 23 61
M  V30 68 1 26 62
M  V30 69 1 27 63
M  V30 70 1 29 64
M  V30 71 1 32 65
M  V30 72 1 32 66
M  V30 73 1 34 67
M  V30 74 1 35 68
M  V30 75 1 38 69
M  V30 76 1 39 70
M  V30 77 1 40 71
M  V30 78 1 41 72
M  V30 79 1 42 73
M  V30 END BOND
M  V30 END CTAB
M  END
>  <Dataset>  (309) 
ChEMBL_Kinases

>  <Ligand_Instance>  (309) 
nan

>  <PDB_ID>  (309) 
nan

>  <Standardized_SMILES>  (309) 
COc1cc(C(=O)N2C[C@@H]3C[C@H]2CO3)ccc1Nc1nc2ccc(-c3ccc(NC(=O)Cc4ccc(F)cc4)cc3)cn2n1

>  <Name>  (309) 
nan

>  <Pocket>  (309) 
nan

>  <ATP_Site>  (309) 
nan

>  <Peripheral>  (309) 
nan

>  <Num_H_Atoms_ProtBoundConf>  (309) 
nan

>  <Num_Resolved_Atoms>  (309) 
nan

>  <Num_Not_Resolved_Atoms>  (309) 
nan

$$$$
CHEMBL4636048
     RDKit          3D

  0  0  0  0  0  0  0  0  0  0999 V3000
M  V30 BEGIN CTAB
M  V30 COUNTS 55 59 0 0 0
M  V30 BEGIN ATOM
M  V30 1 C 2.386363 -3.946951 5.309226 0
M  V30 2 C 1.445779 -4.386121 4.189965 0
M  V30 3 O 2.117864 -5.337219 3.400443 0
M  V30 4 C 1.123935 -3.204259 3.385880 0
M  V30 5 C 0.866362 -2.237765 2.708572 0
M  V30 6 C 0.571926 -1.093742 1.887123 0
M  V30 7 C 1.145468 0.120339 2.200678 0
M  V30 8 C 0.976223 1.319480 1.526138 0
M  V30 9 C 0.127144 1.236551 0.420920 0
M  V30 10 N -0.062141 2.447418 -0.297647 0
M  V30 11 C 0.223568 2.902759 -1.653560 0
M  V30 12 C 1.282262 3.994315 -1.627983 0
M  V30 13 N 1.231537 4.717502 -0.364192 0
M  V30 14 C -0.123676 4.861928 0.073634 0
M  V30 15 C -0.680077 3.522400 0.449109 0
M  V30 16 C -0.467496 0.048306 0.069922 0
M  V30 17 N -1.338653 -0.099110 -1.033331 0
M  V30 18 C -1.566279 -0.016630 -2.405795 0
M  V30 19 N -2.080127 1.046642 -3.051377 0
M  V30 20 C -2.263247 1.048994 -4.382590 0
M  V30 21 N -1.917139 -0.050504 -5.067406 0
M  V30 22 C -1.401023 -1.146742 -4.498805 0
M  V30 23 N -1.014509 -2.307885 -5.069484 0
M  V30 24 C -0.559473 -3.102605 -4.070219 0
M  V30 25 C -0.678051 -2.396050 -2.872239 0
M  V30 26 C -1.215450 -1.141197 -3.128134 0
M  V30 27 C -0.259046 -1.127641 0.788179 0
M  V30 28 C 0.228051 -5.053780 4.720718 0
M  V30 29 N -0.950822 -5.637177 4.014932 0
M  V30 30 C -1.732278 -6.098482 4.990730 0
M  V30 31 C -1.623241 -6.120658 6.525925 0
M  V30 32 S 0.025032 -5.256851 6.580866 0
M  V30 33 H 2.889752 -3.004645 5.056030 0
M  V30 34 H 3.090765 -4.742088 5.603875 0
M  V30 35 H 1.727375 -3.727763 6.188087 0
M  V30 36 H 1.503352 -6.030162 3.065013 0
M  V30 37 H 1.800392 0.153792 3.062793 0
M  V30 38 H 1.465120 2.218129 1.844479 0
M  V30 39 H 0.617834 2.080741 -2.280629 0
M  V30 40 H -0.693514 3.291645 -2.138843 0
M  V30 41 H 2.295786 3.554778 -1.704336 0
M  V30 42 H 1.141010 4.736611 -2.437639 0
M  V30 43 H 1.862018 4.269646 0.332953 0
M  V30 44 H -0.195410 5.562566 0.928261 0
M  V30 45 H -0.695402 5.260458 -0.812962 0
M  V30 46 H -1.777710 3.574587 0.268223 0
M  V30 47 H -0.518476 3.394143 1.559456 0
M  V30 48 H -2.302002 -0.429658 -0.734131 0
M  V30 49 H -2.674343 1.894379 -4.916461 0
M  V30 50 H -1.074882 -2.508993 -6.100579 0
M  V30 51 H -0.180263 -4.102225 -4.222484 0
M  V30 52 H -0.406445 -2.738528 -1.890525 0
M  V30 53 H -0.709896 -2.066770 0.535426 0
M  V30 54 H -2.531120 -6.483725 4.322516 0
M  V30 55 H -2.507647 -6.603118 6.858524 0
M  V30 END ATOM
M  V30 BEGIN BOND
M  V30 1 1 1 2
M  V30 2 1 2 3
M  V30 3 1 2 4
M  V30 4 3 4 5
M  V30 5 1 5 6
M  V30 6 2 6 7
M  V30 7 1 7 8
M  V30 8 2 8 9
M  V30 9 1 9 10
M  V30 10 1 10 11
M  V30 11 1 11 12
M  V30 12 1 12 13
M  V30 13 1 13 14
M  V30 14 1 14 15
M  V30 15 1 9 16
M  V30 16 1 16 17
M  V30 17 1 17 18
M  V30 18 2 18 19
M  V30 19 1 19 20
M  V30 20 2 20 21
M  V30 21 1 21 22
M  V30 22 1 22 23
M  V30 23 1 23 24
M  V30 24 2 24 25
M  V30 25 1 25 26
M  V30 26 2 16 27
M  V30 27 1 2 28
M  V30 28 2 28 29
M  V30 29 1 29 30
M  V30 30 2 30 31
M  V30 31 1 31 32
M  V30 32 1 27 6
M  V30 33 1 32 28
M  V30 34 1 15 10
M  V30 35 1 26 18
M  V30 36 2 26 22
M  V30 37 1 1 33
M  V30 38 1 1 34
M  V30 39 1 1 35
M  V30 40 1 3 36
M  V30 41 1 7 37
M  V30 42 1 8 38
M  V30 43 1 11 39
M  V30 44 1 11 40
M  V30 45 1 12 41
M  V30 46 1 12 42
M  V30 47 1 13 43
M  V30 48 1 14 44
M  V30 49 1 14 45
M  V30 50 1 15 46
M  V30 51 1 15 47
M  V30 52 1 17 48
M  V30 53 1 20 49
M  V30 54 1 23 50
M  V30 55 1 24 51
M  V30 56 1 25 52
M  V30 57 1 27 53
M  V30 58 1 30 54
M  V30 59 1 31 55
M  V30 END BOND
M  V30 END CTAB
M  END
>  <Dataset>  (310) 
ChEMBL_Kinases

>  <Ligand_Instance>  (310) 
nan

>  <PDB_ID>  (310) 
nan

>  <Standardized_SMILES>  (310) 
CC(O)(C#Cc1ccc(N2CCNCC2)c(Nc2ncnc3[nH]ccc23)c1)c1nccs1

>  <Name>  (310) 
nan

>  <Pocket>  (310) 
nan

>  <ATP_Site>  (310) 
nan

>  <Peripheral>  (310) 
nan

>  <Num_H_Atoms_ProtBoundConf>  (310) 
nan

>  <Num_Resolved_Atoms>  (310) 
nan

>  <Num_Not_Resolved_Atoms>  (310) 
nan

$$$$
CHEMBL4568183
     RDKit          3D

  0  0  0  0  0  0  0  0  0  0999 V3000
M  V30 BEGIN CTAB
M  V30 COUNTS 91 96 0 0 0
M  V30 BEGIN ATOM
M  V30 1 C 5.053361 -3.374187 -0.492951 0
M  V30 2 S 5.425742 -2.522050 -2.013603 0
M  V30 3 O 6.254968 -3.486283 -2.834212 0
M  V30 4 O 6.208358 -1.278411 -1.786290 0
M  V30 5 N 3.968962 -2.261898 -2.856926 0
M  V30 6 C 3.282637 -3.448139 -3.223356 0
M  V30 7 C 1.970642 -3.254263 -3.887056 0
M  V30 8 C 1.596269 -1.878128 -4.254655 0
M  V30 9 C 2.141012 -0.769751 -3.397707 0
M  V30 10 N 1.110529 -0.002314 -2.715388 0
M  V30 11 C 0.681885 1.193363 -3.393215 0
M  V30 12 O 1.167358 1.529395 -4.510554 0
M  V30 13 C -0.342807 2.262277 -3.014775 0 CFG=2
M  V30 14 C 0.298691 3.546790 -3.165928 0
M  V30 15 C -0.257189 4.859265 -2.924552 0
M  V30 16 C -1.422516 5.433508 -3.616615 0
M  V30 17 C -2.657870 4.636769 -3.393470 0
M  V30 18 C -3.541501 4.489233 -4.624804 0
M  V30 19 C -2.685547 3.961721 -5.720440 0
M  V30 20 C -1.708713 5.013768 -6.106808 0
M  V30 21 C -1.170732 5.855436 -5.030416 0
M  V30 22 N -0.739981 1.862520 -1.693167 0
M  V30 23 C -1.855576 1.372401 -0.960304 0
M  V30 24 O -2.871749 1.215536 -1.651274 0
M  V30 25 C -1.681961 1.125390 0.465032 0
M  V30 26 C -0.559847 1.014176 1.223847 0
M  V30 27 C -0.606312 0.832370 2.587094 0
M  V30 28 C -1.780564 0.748327 3.300581 0
M  V30 29 C -1.899684 0.569425 4.747532 0
M  V30 30 N -2.086101 -0.739098 5.247564 0
M  V30 31 C -1.311671 -1.938844 5.154165 0
M  V30 32 N -0.147087 -1.960151 4.472342 0
M  V30 33 C 0.604106 -3.077799 4.361702 0
M  V30 34 N 0.201334 -4.251802 4.949014 0
M  V30 35 C -0.950954 -4.255975 5.632738 0
M  V30 36 C -1.713504 -3.120566 5.744902 0
M  V30 37 N -2.809090 -3.400317 6.474823 0
M  V30 38 N -2.726507 -4.690132 6.809663 0
M  V30 39 N -1.610478 -5.226778 6.309655 0
M  V30 40 C -1.269618 -6.591248 6.511287 0
M  V30 41 C -2.301210 -7.439966 6.082504 0
M  V30 42 C -2.203952 -8.818774 6.184075 0
M  V30 43 C -1.046622 -9.320702 6.726050 0
M  V30 44 C 0.008832 -8.520751 7.167183 0
M  V30 45 C -0.135634 -7.144574 7.044591 0
M  V30 46 C -2.947801 0.855591 2.563557 0
M  V30 47 C -2.873579 1.039603 1.175643 0
M  V30 48 C 3.180603 -1.166665 -2.422630 0
M  V30 49 H 4.042801 -3.819909 -0.501221 0
M  V30 50 H 5.107826 -2.650576 0.353148 0
M  V30 51 H 5.752481 -4.238454 -0.329738 0
M  V30 52 H 4.003182 -4.043215 -3.860225 0
M  V30 53 H 3.164608 -4.084036 -2.318372 0
M  V30 54 H 1.154833 -3.756032 -3.285626 0
M  V30 55 H 1.975005 -3.886352 -4.825656 0
M  V30 56 H 1.843179 -1.707338 -5.347785 0
M  V30 57 H 0.488156 -1.790070 -4.230780 0
M  V30 58 H 2.615788 -0.048915 -4.130842 0
M  V30 59 H 0.575241 -0.092797 -1.827394 0
M  V30 60 H -1.172628 2.003615 -3.683049 0
M  V30 61 H 1.250329 3.504234 -2.530602 0
M  V30 62 H 0.781008 3.577035 -4.200925 0
M  V30 63 H -0.409896 5.099464 -1.814656 0
M  V30 64 H 0.606104 5.593678 -3.113637 0
M  V30 65 H -1.633577 6.416072 -3.085675 0
M  V30 66 H -2.524355 3.673354 -2.852917 0
M  V30 67 H -3.371684 5.170377 -2.668461 0
M  V30 68 H -3.945987 5.482693 -4.874491 0
M  V30 69 H -4.354841 3.776343 -4.328288 0
M  V30 70 H -3.383968 3.796191 -6.600910 0
M  V30 71 H -2.282771 2.970094 -5.518646 0
M  V30 72 H -2.157968 5.612777 -6.937849 0
M  V30 73 H -0.851086 4.487126 -6.628391 0
M  V30 74 H -1.484620 6.902625 -5.222753 0
M  V30 75 H -0.050101 5.941882 -5.119238 0
M  V30 76 H 0.158440 2.023218 -1.137343 0
M  V30 77 H 0.362023 1.084093 0.655317 0
M  V30 78 H 0.322375 0.752128 3.126732 0
M  V30 79 H -2.718231 1.229682 5.128587 0
M  V30 80 H -0.973797 1.017112 5.213500 0
M  V30 81 H -2.982239 -0.882173 5.815437 0
M  V30 82 H 1.547010 -3.070584 3.803104 0
M  V30 83 H -3.255324 -7.103705 5.640821 0
M  V30 84 H -2.967947 -9.499361 5.870747 0
M  V30 85 H -0.935583 -10.408384 6.821741 0
M  V30 86 H 0.923033 -8.874359 7.592036 0
M  V30 87 H 0.588283 -6.385746 7.337270 0
M  V30 88 H -3.895162 0.798548 3.083870 0
M  V30 89 H -3.852637 1.104495 0.709669 0
M  V30 90 H 3.891344 -0.311622 -2.240324 0
M  V30 91 H 2.765345 -1.415514 -1.414411 0
M  V30 END ATOM
M  V30 BEGIN BOND
M  V30 1 1 1 2
M  V30 2 2 2 3
M  V30 3 2 2 4
M  V30 4 1 2 5
M  V30 5 1 5 6
M  V30 6 1 6 7
M  V30 7 1 7 8
M  V30 8 1 8 9
M  V30 9 1 9 10
M  V30 10 1 10 11
M  V30 11 2 11 12
M  V30 12 1 11 13
M  V30 13 1 13 14
M  V30 14 1 14 15
M  V30 15 1 15 16
M  V30 16 1 16 17
M  V30 17 1 17 18
M  V30 18 1 18 19
M  V30 19 1 19 20
M  V30 20 1 20 21
M  V30 21 1 13 22
M  V30 22 1 22 23
M  V30 23 2 23 24
M  V30 24 1 23 25
M  V30 25 2 25 26
M  V30 26 1 26 27
M  V30 27 2 27 28
M  V30 28 1 28 29
M  V30 29 1 29 30
M  V30 30 1 30 31
M  V30 31 2 31 32
M  V30 32 1 32 33
M  V30 33 2 33 34
M  V30 34 1 34 35
M  V30 35 2 35 36
M  V30 36 1 36 37
M  V30 37 2 37 38
M  V30 38 1 38 39
M  V30 39 1 39 40
M  V30 40 2 40 41
M  V30 41 1 41 42
M  V30 42 2 42 43
M  V30 43 1 43 44
M  V30 44 2 44 45
M  V30 45 1 28 46
M  V30 46 2 46 47
M  V30 47 1 9 48
M  V30 48 1 48 5
M  V30 49 1 21 16
M  V30 50 1 47 25
M  V30 51 1 36 31
M  V30 52 1 45 40
M  V30 53 1 39 35
M  V30 54 1 1 49
M  V30 55 1 1 50
M  V30 56 1 1 51
M  V30 57 1 6 52
M  V30 58 1 6 53
M  V30 59 1 7 54
M  V30 60 1 7 55
M  V30 61 1 8 56
M  V30 62 1 8 57
M  V30 63 1 9 58
M  V30 64 1 10 59
M  V30 65 1 13 60 CFG=3
M  V30 66 1 14 61
M  V30 67 1 14 62
M  V30 68 1 15 63
M  V30 69 1 15 64
M  V30 70 1 16 65
M  V30 71 1 17 66
M  V30 72 1 17 67
M  V30 73 1 18 68
M  V30 74 1 18 69
M  V30 75 1 19 70
M  V30 76 1 19 71
M  V30 77 1 20 72
M  V30 78 1 20 73
M  V30 79 1 21 74
M  V30 80 1 21 75
M  V30 81 1 22 76
M  V30 82 1 26 77
M  V30 83 1 27 78
M  V30 84 1 29 79
M  V30 85 1 29 80
M  V30 86 1 30 81
M  V30 87 1 33 82
M  V30 88 1 41 83
M  V30 89 1 42 84
M  V30 90 1 43 85
M  V30 91 1 44 86
M  V30 92 1 45 87
M  V30 93 1 46 88
M  V30 94 1 47 89
M  V30 95 1 48 90
M  V30 96 1 48 91
M  V30 END BOND
M  V30 END CTAB
M  END
>  <Dataset>  (311) 
ChEMBL_Kinases

>  <Ligand_Instance>  (311) 
nan

>  <PDB_ID>  (311) 
nan

>  <Standardized_SMILES>  (311) 
CS(=O)(=O)N1CCCC(NC(=O)[C@H](CCC2CCCCC2)NC(=O)c2ccc(CNc3ncnc4c3nnn4-c3ccccc3)cc2)C1

>  <Name>  (311) 
SR-301

>  <Pocket>  (311) 
nan

>  <ATP_Site>  (311) 
nan

>  <Peripheral>  (311) 
nan

>  <Num_H_Atoms_ProtBoundConf>  (311) 
nan

>  <Num_Resolved_Atoms>  (311) 
nan

>  <Num_Not_Resolved_Atoms>  (311) 
nan

$$$$
CHEMBL4563697
     RDKit          3D

  0  0  0  0  0  0  0  0  0  0999 V3000
M  V30 BEGIN CTAB
M  V30 COUNTS 38 40 0 0 0
M  V30 BEGIN ATOM
M  V30 1 C -1.783929 -3.955118 1.240966 0
M  V30 2 C -0.571404 -3.298671 0.624548 0 CFG=2
M  V30 3 N -0.726660 -1.858202 0.676797 0
M  V30 4 C -1.967186 -1.432083 0.011098 0
M  V30 5 C 0.023496 -0.742331 1.195780 0
M  V30 6 N 0.377938 0.118631 0.223040 0
M  V30 7 C 1.088116 1.225461 0.505761 0
M  V30 8 C 1.467905 2.155959 -0.565529 0
M  V30 9 C 1.095086 1.894150 -1.865248 0
M  V30 10 C 1.427465 2.739873 -2.916326 0
M  V30 11 N 2.138509 3.851836 -2.648477 0
M  V30 12 C 2.503109 4.106353 -1.371915 0
M  V30 13 C 2.185552 3.280391 -0.302929 0
M  V30 14 F 2.582886 3.594368 0.956058 0
M  V30 15 N 1.464788 1.505217 1.765295 0
M  V30 16 C 1.132393 0.676679 2.754352 0
M  V30 17 C 1.449411 0.834188 4.097734 0
M  V30 18 N 1.067982 -0.061571 5.035621 0
M  V30 19 C 0.346767 -1.179897 4.728049 0
M  V30 20 C 0.004893 -1.387406 3.415452 0
M  V30 21 C 0.406067 -0.459581 2.480583 0
M  V30 22 C -0.432217 -3.785217 -0.823662 0
M  V30 23 F -1.564548 -3.437771 -1.520827 0
M  V30 24 F 0.644020 -3.206536 -1.435777 0
M  V30 25 F -0.234935 -5.145933 -0.791551 0
M  V30 26 H -2.452502 -3.230070 1.765267 0
M  V30 27 H -2.391854 -4.464915 0.442274 0
M  V30 28 H -1.525823 -4.729785 1.999078 0
M  V30 29 H 0.359044 -3.640638 1.122056 0
M  V30 30 H -1.759164 -1.196281 -1.073438 0
M  V30 31 H -2.357209 -0.475190 0.438029 0
M  V30 32 H -2.753146 -2.183176 0.025594 0
M  V30 33 H 0.527575 0.994079 -2.033636 0
M  V30 34 H 1.079273 2.430427 -3.895867 0
M  V30 35 H 3.073162 5.020850 -1.240258 0
M  V30 36 H 2.025783 1.722945 4.361546 0
M  V30 37 H 0.078091 -1.851079 5.534181 0
M  V30 38 H -0.554015 -2.251090 3.168462 0
M  V30 END ATOM
M  V30 BEGIN BOND
M  V30 1 1 1 2
M  V30 2 1 2 3
M  V30 3 1 3 4
M  V30 4 1 3 5
M  V30 5 2 5 6
M  V30 6 1 6 7
M  V30 7 1 7 8
M  V30 8 2 8 9
M  V30 9 1 9 10
M  V30 10 2 10 11
M  V30 11 1 11 12
M  V30 12 2 12 13
M  V30 13 1 13 14
M  V30 14 2 7 15
M  V30 15 1 15 16
M  V30 16 2 16 17
M  V30 17 1 17 18
M  V30 18 2 18 19
M  V30 19 1 19 20
M  V30 20 2 20 21
M  V30 21 1 2 22
M  V30 22 1 22 23
M  V30 23 1 22 24
M  V30 24 1 22 25
M  V30 25 1 21 5
M  V30 26 1 13 8
M  V30 27 1 21 16
M  V30 28 1 1 26
M  V30 29 1 1 27
M  V30 30 1 1 28
M  V30 31 1 2 29 CFG=1
M  V30 32 1 4 30
M  V30 33 1 4 31
M  V30 34 1 4 32
M  V30 35 1 9 33
M  V30 36 1 10 34
M  V30 37 1 12 35
M  V30 38 1 17 36
M  V30 39 1 19 37
M  V30 40 1 20 38
M  V30 END BOND
M  V30 END CTAB
M  END
>  <Dataset>  (312) 
ChEMBL_Kinases

>  <Ligand_Instance>  (312) 
nan

>  <PDB_ID>  (312) 
nan

>  <Standardized_SMILES>  (312) 
C[C@H](N(C)c1nc(-c2ccncc2F)nc2cnccc12)C(F)(F)F

>  <Name>  (312) 
nan

>  <Pocket>  (312) 
nan

>  <ATP_Site>  (312) 
nan

>  <Peripheral>  (312) 
nan

>  <Num_H_Atoms_ProtBoundConf>  (312) 
nan

>  <Num_Resolved_Atoms>  (312) 
nan

>  <Num_Not_Resolved_Atoms>  (312) 
nan

$$$$
CHEMBL4563521
     RDKit          3D

  0  0  0  0  0  0  0  0  0  0999 V3000
M  V30 BEGIN CTAB
M  V30 COUNTS 40 43 0 0 0
M  V30 BEGIN ATOM
M  V30 1 C 1.086380 -5.009995 3.276323 0
M  V30 2 C 1.430197 -3.776508 2.534964 0
M  V30 3 C 1.393616 -3.746861 1.175301 0
M  V30 4 C 1.705773 -2.639882 0.453278 0
M  V30 5 C 2.081310 -1.472435 1.088878 0
M  V30 6 N 2.419381 -0.196924 0.545973 0
M  V30 7 C 2.044984 1.170136 0.616788 0
M  V30 8 N 3.066607 1.858978 1.138209 0
M  V30 9 C 3.107360 3.158383 1.386038 0
M  V30 10 N 1.973513 3.811880 1.059828 0
M  V30 11 C 0.953268 3.131719 0.541679 0
M  V30 12 S -0.634392 3.737951 0.062524 0
M  V30 13 C -1.300054 2.143805 -0.468096 0
M  V30 14 C -0.252051 1.239171 -0.243719 0
M  V30 15 C 0.867864 1.799135 0.270354 0
M  V30 16 C -0.547299 -0.176348 -0.624313 0
M  V30 17 C -1.569172 -0.130771 -1.738804 0
M  V30 18 N -2.791508 0.416311 -1.234164 0
M  V30 19 C -3.308247 -0.186456 -0.044055 0
M  V30 20 C -2.629611 1.835297 -0.986083 0
M  V30 21 C 2.121174 -1.499787 2.493706 0
M  V30 22 Br 2.621062 0.024408 3.558679 0
M  V30 23 C 1.797409 -2.646880 3.226950 0
M  V30 24 H 1.976895 -5.404362 3.821977 0
M  V30 25 H 0.324542 -4.798367 4.078558 0
M  V30 26 H 0.747822 -5.828711 2.616476 0
M  V30 27 H 1.109352 -4.615261 0.561014 0
M  V30 28 H 1.722075 -2.521793 -0.631203 0
M  V30 29 H 3.208888 -0.476315 -0.083436 0
M  V30 30 H 3.871756 3.783231 1.799890 0
M  V30 31 H -0.936655 -0.786511 0.182565 0
M  V30 32 H 0.374592 -0.650878 -1.060848 0
M  V30 33 H -1.188635 0.617069 -2.487841 0
M  V30 34 H -1.719562 -1.088672 -2.226571 0
M  V30 35 H -2.945459 0.353025 0.885201 0
M  V30 36 H -3.198622 -1.272439 0.028748 0
M  V30 37 H -4.410691 0.064682 -0.040543 0
M  V30 38 H -2.817512 2.409082 -1.908335 0
M  V30 39 H -3.383299 2.182589 -0.239388 0
M  V30 40 H 1.830427 -2.659143 4.319325 0
M  V30 END ATOM
M  V30 BEGIN BOND
M  V30 1 1 1 2
M  V30 2 2 2 3
M  V30 3 1 3 4
M  V30 4 2 4 5
M  V30 5 1 5 6
M  V30 6 1 6 7
M  V30 7 2 7 8
M  V30 8 1 8 9
M  V30 9 2 9 10
M  V30 10 1 10 11
M  V30 11 1 11 12
M  V30 12 1 12 13
M  V30 13 2 13 14
M  V30 14 1 14 15
M  V30 15 1 14 16
M  V30 16 1 16 17
M  V30 17 1 17 18
M  V30 18 1 18 19
M  V30 19 1 18 20
M  V30 20 1 5 21
M  V30 21 1 21 22
M  V30 22 2 21 23
M  V30 23 1 23 2
M  V30 24 1 15 7
M  V30 25 2 15 11
M  V30 26 1 20 13
M  V30 27 1 1 24
M  V30 28 1 1 25
M  V30 29 1 1 26
M  V30 30 1 3 27
M  V30 31 1 4 28
M  V30 32 1 6 29
M  V30 33 1 9 30
M  V30 34 1 16 31
M  V30 35 1 16 32
M  V30 36 1 17 33
M  V30 37 1 17 34
M  V30 38 1 19 35
M  V30 39 1 19 36
M  V30 40 1 19 37
M  V30 41 1 20 38
M  V30 42 1 20 39
M  V30 43 1 23 40
M  V30 END BOND
M  V30 END CTAB
M  END
>  <Dataset>  (313) 
ChEMBL_Kinases

>  <Ligand_Instance>  (313) 
nan

>  <PDB_ID>  (313) 
nan

>  <Standardized_SMILES>  (313) 
Cc1ccc(Nc2ncnc3sc4c(c23)CCN(C)C4)c(Br)c1

>  <Name>  (313) 
nan

>  <Pocket>  (313) 
nan

>  <ATP_Site>  (313) 
nan

>  <Peripheral>  (313) 
nan

>  <Num_H_Atoms_ProtBoundConf>  (313) 
nan

>  <Num_Resolved_Atoms>  (313) 
nan

>  <Num_Not_Resolved_Atoms>  (313) 
nan

$$$$
CHEMBL4563509
     RDKit          3D

  0  0  0  0  0  0  0  0  0  0999 V3000
M  V30 BEGIN CTAB
M  V30 COUNTS 42 45 0 0 0
M  V30 BEGIN ATOM
M  V30 1 C -0.783804 -4.519312 3.523481 0
M  V30 2 C 0.322852 -3.676481 2.926099 0
M  V30 3 O 1.372071 -3.515848 3.828981 0
M  V30 4 C -0.216686 -2.320458 2.705839 0
M  V30 5 C -0.656698 -1.215833 2.506095 0
M  V30 6 C -1.172727 0.097515 2.245369 0
M  V30 7 C -0.753033 0.755826 1.108219 0
M  V30 8 C -1.180485 2.032956 0.744387 0
M  V30 9 N -0.652560 2.591854 -0.475662 0
M  V30 10 C -1.231287 3.284582 -1.483388 0
M  V30 11 C -0.249169 3.576151 -2.408995 0
M  V30 12 C 0.942467 3.062349 -1.973464 0
M  V30 13 C 2.220572 3.071354 -2.512545 0
M  V30 14 N 3.176239 2.453402 -1.793374 0
M  V30 15 C 2.951855 1.857544 -0.631112 0
M  V30 16 N 3.973628 1.209485 0.115094 0
M  V30 17 N 1.709096 1.865966 -0.137802 0
M  V30 18 C 0.673828 2.452559 -0.768065 0
M  V30 19 C -2.071229 2.643318 1.589000 0
M  V30 20 C -2.494405 1.982513 2.733265 0
M  V30 21 N -2.042127 0.731394 3.039938 0
M  V30 22 C 0.798271 -4.258159 1.643337 0
M  V30 23 C 1.818240 -3.561254 1.005876 0
M  V30 24 N 2.331639 -3.992058 -0.164792 0
M  V30 25 C 1.821751 -5.129580 -0.704127 0
M  V30 26 C 0.809960 -5.844107 -0.097010 0
M  V30 27 N 0.319926 -5.391291 1.065630 0
M  V30 28 H -0.879509 -4.208055 4.585705 0
M  V30 29 H -1.756980 -4.256244 3.055313 0
M  V30 30 H -0.574373 -5.614880 3.431324 0
M  V30 31 H 1.555062 -4.317171 4.365705 0
M  V30 32 H -0.038990 0.251384 0.443014 0
M  V30 33 H -2.281410 3.477812 -1.400901 0
M  V30 34 H -0.458167 4.120220 -3.300908 0
M  V30 35 H 2.420420 3.557745 -3.468118 0
M  V30 36 H 4.072369 0.177887 -0.039819 0
M  V30 37 H 4.701181 1.493155 0.821003 0
M  V30 38 H -2.398932 3.628241 1.305526 0
M  V30 39 H -3.193285 2.462997 3.394711 0
M  V30 40 H 2.245971 -2.644157 1.417926 0
M  V30 41 H 2.277793 -5.428449 -1.652884 0
M  V30 42 H 0.435557 -6.737421 -0.556158 0
M  V30 END ATOM
M  V30 BEGIN BOND
M  V30 1 1 1 2
M  V30 2 1 2 3
M  V30 3 1 2 4
M  V30 4 3 4 5
M  V30 5 1 5 6
M  V30 6 2 6 7
M  V30 7 1 7 8
M  V30 8 1 8 9
M  V30 9 1 9 10
M  V30 10 2 10 11
M  V30 11 1 11 12
M  V30 12 2 12 13
M  V30 13 1 13 14
M  V30 14 2 14 15
M  V30 15 1 15 16
M  V30 16 1 15 17
M  V30 17 2 17 18
M  V30 18 2 8 19
M  V30 19 1 19 20
M  V30 20 2 20 21
M  V30 21 1 2 22
M  V30 22 2 22 23
M  V30 23 1 23 24
M  V30 24 2 24 25
M  V30 25 1 25 26
M  V30 26 2 26 27
M  V30 27 1 21 6
M  V30 28 1 27 22
M  V30 29 1 18 9
M  V30 30 1 18 12
M  V30 31 1 1 28
M  V30 32 1 1 29
M  V30 33 1 1 30
M  V30 34 1 3 31
M  V30 35 1 7 32
M  V30 36 1 10 33
M  V30 37 1 11 34
M  V30 38 1 13 35
M  V30 39 1 16 36
M  V30 40 1 16 37
M  V30 41 1 19 38
M  V30 42 1 20 39
M  V30 43 1 23 40
M  V30 44 1 25 41
M  V30 45 1 26 42
M  V30 END BOND
M  V30 END CTAB
M  END
>  <Dataset>  (314) 
ChEMBL_Kinases

>  <Ligand_Instance>  (314) 
nan

>  <PDB_ID>  (314) 
nan

>  <Standardized_SMILES>  (314) 
CC(O)(C#Cc1cc(-n2ccc3cnc(N)nc32)ccn1)c1cnccn1

>  <Name>  (314) 
nan

>  <Pocket>  (314) 
nan

>  <ATP_Site>  (314) 
nan

>  <Peripheral>  (314) 
nan

>  <Num_H_Atoms_ProtBoundConf>  (314) 
nan

>  <Num_Resolved_Atoms>  (314) 
nan

>  <Num_Not_Resolved_Atoms>  (314) 
nan

$$$$
CHEMBL4563473
     RDKit          3D

  0  0  0  0  0  0  0  0  0  0999 V3000
M  V30 BEGIN CTAB
M  V30 COUNTS 44 46 0 0 0
M  V30 BEGIN ATOM
M  V30 1 C 0.876669 -5.174936 0.372735 0
M  V30 2 C 0.561268 -3.789319 0.903840 0
M  V30 3 C 1.542164 -3.550148 2.013929 0
M  V30 4 C -0.877472 -3.789947 1.331533 0
M  V30 5 N -1.316422 -2.521395 1.862815 0
M  V30 6 C 0.823201 -2.865844 -0.256165 0
M  V30 7 N 0.633326 -1.505986 -0.122345 0
M  V30 8 C 0.442169 -0.135922 0.012641 0
M  V30 9 C 0.976217 0.802377 0.866451 0
M  V30 10 C 0.646668 2.127130 0.831069 0
M  V30 11 C 1.235701 3.077485 1.752360 0
M  V30 12 C 0.809923 4.378671 1.600982 0
M  V30 13 C 1.347610 5.327025 2.465006 0
M  V30 14 N 2.255170 5.040897 3.433645 0
M  V30 15 C 2.655344 3.748902 3.558010 0
M  V30 16 C 2.153266 2.768655 2.726480 0
M  V30 17 N -0.241725 2.488291 -0.093321 0
M  V30 18 C -0.835614 1.682593 -0.981537 0
M  V30 19 C -1.726189 2.256739 -1.853587 0
M  V30 20 N -2.315429 1.440005 -2.739467 0
M  V30 21 C -2.043708 0.105158 -2.772479 0
M  V30 22 C -1.138964 -0.400355 -1.866558 0
M  V30 23 C -0.484217 0.335345 -0.926731 0
M  V30 24 H 1.951402 -5.295297 0.209403 0
M  V30 25 H 0.486432 -5.966520 1.050699 0
M  V30 26 H 0.302456 -5.258414 -0.586654 0
M  V30 27 H 1.695859 -4.441740 2.657881 0
M  V30 28 H 2.536004 -3.390841 1.507905 0
M  V30 29 H 1.308283 -2.701838 2.662032 0
M  V30 30 H -1.485296 -4.059096 0.458415 0
M  V30 31 H -1.096935 -4.559125 2.099014 0
M  V30 32 H -0.672744 -2.223350 2.628142 0
M  V30 33 H -2.232523 -2.694837 2.333670 0
M  V30 34 H 1.842150 -3.129344 -0.660558 0
M  V30 35 H 0.149047 -3.310079 -1.084529 0
M  V30 36 H 1.339182 -1.615766 0.679728 0
M  V30 37 H 1.676235 0.433016 1.573179 0
M  V30 38 H 0.086991 4.693523 0.851663 0
M  V30 39 H 1.070035 6.368662 2.416893 0
M  V30 40 H 3.382347 3.529126 4.336720 0
M  V30 41 H 2.484483 1.770320 2.848674 0
M  V30 42 H -1.923426 3.318765 -1.805735 0
M  V30 43 H -2.525490 -0.530855 -3.488900 0
M  V30 44 H -0.955564 -1.452552 -1.929362 0
M  V30 END ATOM
M  V30 BEGIN BOND
M  V30 1 1 1 2
M  V30 2 1 2 3
M  V30 3 1 2 4
M  V30 4 1 4 5
M  V30 5 1 2 6
M  V30 6 1 6 7
M  V30 7 1 7 8
M  V30 8 2 8 9
M  V30 9 1 9 10
M  V30 10 1 10 11
M  V30 11 2 11 12
M  V30 12 1 12 13
M  V30 13 2 13 14
M  V30 14 1 14 15
M  V30 15 2 15 16
M  V30 16 2 10 17
M  V30 17 1 17 18
M  V30 18 2 18 19
M  V30 19 1 19 20
M  V30 20 2 20 21
M  V30 21 1 21 22
M  V30 22 2 22 23
M  V30 23 1 23 8
M  V30 24 1 16 11
M  V30 25 1 23 18
M  V30 26 1 1 24
M  V30 27 1 1 25
M  V30 28 1 1 26
M  V30 29 1 3 27
M  V30 30 1 3 28
M  V30 31 1 3 29
M  V30 32 1 4 30
M  V30 33 1 4 31
M  V30 34 1 5 32
M  V30 35 1 5 33
M  V30 36 1 6 34
M  V30 37 1 6 35
M  V30 38 1 7 36
M  V30 39 1 9 37
M  V30 40 1 12 38
M  V30 41 1 13 39
M  V30 42 1 15 40
M  V30 43 1 16 41
M  V30 44 1 19 42
M  V30 45 1 21 43
M  V30 46 1 22 44
M  V30 END BOND
M  V30 END CTAB
M  END
>  <Dataset>  (315) 
ChEMBL_Kinases

>  <Ligand_Instance>  (315) 
nan

>  <PDB_ID>  (315) 
nan

>  <Standardized_SMILES>  (315) 
CC(C)(CN)CNc1cc(-c2ccncc2)nc2cnccc12

>  <Name>  (315) 
nan

>  <Pocket>  (315) 
nan

>  <ATP_Site>  (315) 
nan

>  <Peripheral>  (315) 
nan

>  <Num_H_Atoms_ProtBoundConf>  (315) 
nan

>  <Num_Resolved_Atoms>  (315) 
nan

>  <Num_Not_Resolved_Atoms>  (315) 
nan

$$$$
CHEMBL4563436
     RDKit          3D

  0  0  0  0  0  0  0  0  0  0999 V3000
M  V30 BEGIN CTAB
M  V30 COUNTS 44 48 0 0 0
M  V30 BEGIN ATOM
M  V30 1 O 3.583770 3.200683 1.985445 0
M  V30 2 S 2.981971 2.141117 1.104810 0
M  V30 3 O 2.318887 1.165077 2.027496 0
M  V30 4 C 4.151112 1.379459 0.125761 0
M  V30 5 C 4.640142 -0.032668 -0.042195 0
M  V30 6 C 5.617657 -0.171353 -0.976260 0
M  V30 7 C 6.127502 0.918927 -1.722231 0
M  V30 8 S 5.176817 2.367405 -1.106610 0
M  V30 9 N 1.754199 2.933844 0.174842 0
M  V30 10 C 1.002711 2.065747 -0.656803 0
M  V30 11 C 0.340808 0.892938 -0.052786 0
M  V30 12 C -0.325054 1.174262 1.237875 0
M  V30 13 C -0.049633 2.450529 1.642490 0
M  V30 14 S -0.957330 2.640757 3.234986 0
M  V30 15 C -1.614460 0.948613 3.169633 0
M  V30 16 N -2.403566 0.416225 4.089927 0
M  V30 17 C -2.814408 -0.843863 3.917608 0
M  V30 18 N -2.361485 -1.419673 2.806085 0
M  V30 19 C -1.569608 -0.885422 1.882397 0
M  V30 20 N -1.245416 -1.742488 0.808660 0
M  V30 21 C -1.741784 -3.048858 0.591111 0
M  V30 22 C -2.953954 -3.543569 1.069422 0
M  V30 23 C -3.434624 -4.803524 0.886969 0
M  V30 24 C -2.664756 -5.682062 0.165708 0
M  V30 25 Br -3.248666 -7.471738 -0.145975 0
M  V30 26 C -1.457702 -5.312231 -0.354556 0
M  V30 27 C -1.056992 -4.018852 -0.117463 0
M  V30 28 C -1.119259 0.399514 2.005659 0
M  V30 29 C 0.764416 3.544112 1.078304 0
M  V30 30 H 4.088279 -0.637220 0.638882 0
M  V30 31 H 5.933617 -1.200544 -1.057053 0
M  V30 32 H 6.869461 0.775113 -2.422059 0
M  V30 33 H 0.231776 2.712766 -1.166078 0
M  V30 34 H 1.626430 1.694490 -1.523704 0
M  V30 35 H 1.081943 0.060395 -0.007663 0
M  V30 36 H -0.424345 0.558277 -0.824503 0
M  V30 37 H -3.453854 -1.354682 4.610047 0
M  V30 38 H -0.596604 -1.529443 0.029542 0
M  V30 39 H -3.621153 -2.915328 1.636192 0
M  V30 40 H -4.367126 -5.154880 1.266939 0
M  V30 41 H -0.836494 -5.980648 -0.922459 0
M  V30 42 H -0.093731 -3.739650 -0.537911 0
M  V30 43 H 0.205292 4.265413 0.470445 0
M  V30 44 H 1.313097 4.112215 1.856661 0
M  V30 END ATOM
M  V30 BEGIN BOND
M  V30 1 2 1 2
M  V30 2 2 2 3
M  V30 3 1 2 4
M  V30 4 2 4 5
M  V30 5 1 5 6
M  V30 6 2 6 7
M  V30 7 1 7 8
M  V30 8 1 2 9
M  V30 9 1 9 10
M  V30 10 1 10 11
M  V30 11 1 11 12
M  V30 12 2 12 13
M  V30 13 1 13 14
M  V30 14 1 14 15
M  V30 15 2 15 16
M  V30 16 1 16 17
M  V30 17 2 17 18
M  V30 18 1 18 19
M  V30 19 1 19 20
M  V30 20 1 20 21
M  V30 21 2 21 22
M  V30 22 1 22 23
M  V30 23 2 23 24
M  V30 24 1 24 25
M  V30 25 1 24 26
M  V30 26 2 26 27
M  V30 27 2 19 28
M  V30 28 1 13 29
M  V30 29 1 8 4
M  V30 30 1 29 9
M  V30 31 1 28 12
M  V30 32 1 28 15
M  V30 33 1 27 21
M  V30 34 1 5 30
M  V30 35 1 6 31
M  V30 36 1 7 32
M  V30 37 1 10 33
M  V30 38 1 10 34
M  V30 39 1 11 35
M  V30 40 1 11 36
M  V30 41 1 17 37
M  V30 42 1 20 38
M  V30 43 1 22 39
M  V30 44 1 23 40
M  V30 45 1 26 41
M  V30 46 1 27 42
M  V30 47 1 29 43
M  V30 48 1 29 44
M  V30 END BOND
M  V30 END CTAB
M  END
>  <Dataset>  (316) 
ChEMBL_Kinases

>  <Ligand_Instance>  (316) 
nan

>  <PDB_ID>  (316) 
nan

>  <Standardized_SMILES>  (316) 
O=S(=O)(c1cccs1)N1CCc2c(sc3ncnc(Nc4ccc(Br)cc4)c23)C1

>  <Name>  (316) 
nan

>  <Pocket>  (316) 
nan

>  <ATP_Site>  (316) 
nan

>  <Peripheral>  (316) 
nan

>  <Num_H_Atoms_ProtBoundConf>  (316) 
nan

>  <Num_Resolved_Atoms>  (316) 
nan

>  <Num_Not_Resolved_Atoms>  (316) 
nan

$$$$
CHEMBL4636969
     RDKit          3D

  0  0  0  0  0  0  0  0  0  0999 V3000
M  V30 BEGIN CTAB
M  V30 COUNTS 50 53 0 0 0
M  V30 BEGIN ATOM
M  V30 1 C 6.579210 -3.702341 5.341323 0
M  V30 2 C 5.164287 -3.891763 4.836593 0
M  V30 3 C 4.765563 -5.308677 5.064736 0
M  V30 4 N 5.053943 -3.481689 3.451854 0
M  V30 5 C 4.258534 -2.444626 2.925660 0
M  V30 6 O 3.580225 -1.826087 3.787045 0
M  V30 7 N 4.240125 -2.140992 1.535480 0
M  V30 8 C 3.400078 -1.071129 1.105090 0
M  V30 9 N 3.837772 0.204731 1.037608 0
M  V30 10 C 3.009921 1.194501 0.623700 0
M  V30 11 C 1.685713 0.936309 0.254663 0
M  V30 12 N 1.295639 -0.331325 0.335591 0
M  V30 13 C 0.081322 -0.842100 0.040811 0
M  V30 14 C -1.166396 -0.253636 -0.439205 0
M  V30 15 C -2.320157 -0.678315 0.209600 0
M  V30 16 C -3.546509 -0.149447 -0.206389 0
M  V30 17 C -3.683128 0.771075 -1.224480 0
M  V30 18 C -5.017634 1.251295 -1.569601 0
M  V30 19 O -5.964502 0.774796 -0.892700 0
M  V30 20 N -5.222054 2.198617 -2.608007 0
M  V30 21 C -6.545773 2.657845 -2.930974 0
M  V30 22 C -6.645783 4.173814 -3.136498 0
M  V30 23 C -6.898431 3.196324 -4.270605 0
M  V30 24 C -2.514118 1.165404 -1.841308 0
M  V30 25 C -1.285148 0.666817 -1.459868 0
M  V30 26 C 0.165690 -2.205597 0.283929 0
M  V30 27 N 1.420341 -2.498368 0.719088 0
M  V30 28 C 2.089867 -1.338992 0.741930 0
M  V30 29 H 6.633115 -3.119127 6.277901 0
M  V30 30 H 7.196083 -3.235049 4.531357 0
M  V30 31 H 7.081716 -4.670059 5.559951 0
M  V30 32 H 4.514395 -3.261004 5.473390 0
M  V30 33 H 3.699844 -5.425160 5.364167 0
M  V30 34 H 5.013845 -5.994573 4.206027 0
M  V30 35 H 5.343236 -5.697917 5.929001 0
M  V30 36 H 5.653695 -4.052699 2.809053 0
M  V30 37 H 4.865714 -2.750552 0.933667 0
M  V30 38 H 3.396045 2.186501 0.585402 0
M  V30 39 H 1.012522 1.718037 -0.078237 0
M  V30 40 H -2.271081 -1.403261 1.020021 0
M  V30 41 H -4.409022 -0.535597 0.356104 0
M  V30 42 H -4.430549 2.586915 -3.162604 0
M  V30 43 H -7.415154 2.264820 -2.359113 0
M  V30 44 H -5.704943 4.767705 -3.131676 0
M  V30 45 H -7.491073 4.725645 -2.707959 0
M  V30 46 H -7.921182 3.062986 -4.658913 0
M  V30 47 H -6.148009 3.265016 -5.079916 0
M  V30 48 H -2.588449 1.886234 -2.643360 0
M  V30 49 H -0.368460 0.976157 -1.943777 0
M  V30 50 H -0.579368 -2.962897 0.173712 0
M  V30 END ATOM
M  V30 BEGIN BOND
M  V30 1 1 1 2
M  V30 2 1 2 3
M  V30 3 1 2 4
M  V30 4 1 4 5
M  V30 5 2 5 6
M  V30 6 1 5 7
M  V30 7 1 7 8
M  V30 8 2 8 9
M  V30 9 1 9 10
M  V30 10 2 10 11
M  V30 11 1 11 12
M  V30 12 1 12 13
M  V30 13 1 13 14
M  V30 14 2 14 15
M  V30 15 1 15 16
M  V30 16 2 16 17
M  V30 17 1 17 18
M  V30 18 2 18 19
M  V30 19 1 18 20
M  V30 20 1 20 21
M  V30 21 1 21 22
M  V30 22 1 22 23
M  V30 23 1 17 24
M  V30 24 2 24 25
M  V30 25 2 13 26
M  V30 26 1 26 27
M  V30 27 2 27 28
M  V30 28 1 28 8
M  V30 29 1 28 12
M  V30 30 1 25 14
M  V30 31 1 23 21
M  V30 32 1 1 29
M  V30 33 1 1 30
M  V30 34 1 1 31
M  V30 35 1 2 32
M  V30 36 1 3 33
M  V30 37 1 3 34
M  V30 38 1 3 35
M  V30 39 1 4 36
M  V30 40 1 7 37
M  V30 41 1 10 38
M  V30 42 1 11 39
M  V30 43 1 15 40
M  V30 44 1 16 41
M  V30 45 1 20 42
M  V30 46 1 21 43
M  V30 47 1 22 44
M  V30 48 1 22 45
M  V30 49 1 23 46
M  V30 50 1 23 47
M  V30 51 1 24 48
M  V30 52 1 25 49
M  V30 53 1 26 50
M  V30 END BOND
M  V30 END CTAB
M  END
>  <Dataset>  (317) 
ChEMBL_Kinases

>  <Ligand_Instance>  (317) 
nan

>  <PDB_ID>  (317) 
nan

>  <Standardized_SMILES>  (317) 
CC(C)NC(=O)Nc1nccn2c(-c3ccc(C(=O)NC4CC4)cc3)cnc12

>  <Name>  (317) 
nan

>  <Pocket>  (317) 
nan

>  <ATP_Site>  (317) 
nan

>  <Peripheral>  (317) 
nan

>  <Num_H_Atoms_ProtBoundConf>  (317) 
nan

>  <Num_Resolved_Atoms>  (317) 
nan

>  <Num_Not_Resolved_Atoms>  (317) 
nan

$$$$
CHEMBL4563379
     RDKit          3D

  0  0  0  0  0  0  0  0  0  0999 V3000
M  V30 BEGIN CTAB
M  V30 COUNTS 47 50 0 0 0
M  V30 BEGIN ATOM
M  V30 1 C -1.059017 -6.280006 0.307814 0
M  V30 2 O 0.106649 -5.860282 -0.333055 0
M  V30 3 C 0.970198 -4.878575 0.074768 0
M  V30 4 C 0.850109 -4.096953 1.226145 0
M  V30 5 C 1.822793 -3.153484 1.472016 0
M  V30 6 C 2.911607 -2.933437 0.647112 0
M  V30 7 C 3.908265 -1.870879 1.025123 0
M  V30 8 N 3.531719 -0.591849 0.455627 0
M  V30 9 C 2.730174 0.271188 1.130169 0
M  V30 10 C 2.586135 1.374041 0.290414 0
M  V30 11 C 1.842493 2.646334 0.438469 0
M  V30 12 O 1.766340 3.598669 -0.379808 0
M  V30 13 N 1.150167 2.748001 1.674233 0
M  V30 14 N 0.412331 3.871229 1.962661 0
M  V30 15 C -0.853502 3.908122 1.869828 0
M  V30 16 C -1.747177 5.044266 2.149440 0
M  V30 17 O -1.362797 6.177576 2.533371 0
M  V30 18 N -3.106709 4.622594 1.906411 0
M  V30 19 C -3.078561 3.250347 1.482144 0
M  V30 20 C -4.104258 2.395283 1.131866 0
M  V30 21 C -3.856998 1.084883 0.744829 0
M  V30 22 C -2.522039 0.672860 0.726654 0
M  V30 23 C -2.252379 -0.749024 0.307119 0
M  V30 24 C -1.500828 1.547320 1.082588 0
M  V30 25 C -1.757873 2.846899 1.465459 0
M  V30 26 N 3.292932 1.138170 -0.836923 0
M  V30 27 N 3.862841 -0.070826 -0.712865 0
M  V30 28 C 3.010280 -3.716335 -0.484040 0
M  V30 29 C 2.036819 -4.674807 -0.748830 0
M  V30 30 H -1.040658 -5.982351 1.385234 0
M  V30 31 H -1.990362 -5.955913 -0.210381 0
M  V30 32 H -1.072801 -7.408646 0.331051 0
M  V30 33 H -0.000598 -4.289008 1.844058 0
M  V30 34 H 1.712725 -2.550352 2.378285 0
M  V30 35 H 4.922072 -2.180354 0.702439 0
M  V30 36 H 3.904701 -1.837593 2.133777 0
M  V30 37 H 2.244432 0.255138 2.085475 0
M  V30 38 H 1.077969 2.086993 2.488729 0
M  V30 39 H -3.903928 5.268774 2.041632 0
M  V30 40 H -5.128037 2.794129 1.171516 0
M  V30 41 H -4.682156 0.447775 0.478763 0
M  V30 42 H -1.267390 -1.062575 0.657341 0
M  V30 43 H -2.259418 -0.785902 -0.820433 0
M  V30 44 H -3.094544 -1.393567 0.625487 0
M  V30 45 H -0.521861 1.092092 1.021645 0
M  V30 46 H 3.875084 -3.536682 -1.132880 0
M  V30 47 H 2.225142 -5.227552 -1.668880 0
M  V30 END ATOM
M  V30 BEGIN BOND
M  V30 1 1 1 2
M  V30 2 1 2 3
M  V30 3 2 3 4
M  V30 4 1 4 5
M  V30 5 2 5 6
M  V30 6 1 6 7
M  V30 7 1 7 8
M  V30 8 1 8 9
M  V30 9 2 9 10
M  V30 10 1 10 11
M  V30 11 2 11 12
M  V30 12 1 11 13
M  V30 13 1 13 14
M  V30 14 2 14 15
M  V30 15 1 15 16
M  V30 16 2 16 17
M  V30 17 1 16 18
M  V30 18 1 18 19
M  V30 19 2 19 20
M  V30 20 1 20 21
M  V30 21 2 21 22
M  V30 22 1 22 23
M  V30 23 1 22 24
M  V30 24 2 24 25
M  V30 25 1 10 26
M  V30 26 2 26 27
M  V30 27 1 6 28
M  V30 28 2 28 29
M  V30 29 1 29 3
M  V30 30 1 27 8
M  V30 31 1 25 15
M  V30 32 1 25 19
M  V30 33 1 1 30
M  V30 34 1 1 31
M  V30 35 1 1 32
M  V30 36 1 4 33
M  V30 37 1 5 34
M  V30 38 1 7 35
M  V30 39 1 7 36
M  V30 40 1 9 37
M  V30 41 1 13 38
M  V30 42 1 18 39
M  V30 43 1 20 40
M  V30 44 1 21 41
M  V30 45 1 23 42
M  V30 46 1 23 43
M  V30 47 1 23 44
M  V30 48 1 24 45
M  V30 49 1 28 46
M  V30 50 1 29 47
M  V30 END BOND
M  V30 END CTAB
M  END
>  <Dataset>  (318) 
ChEMBL_Kinases

>  <Ligand_Instance>  (318) 
nan

>  <PDB_ID>  (318) 
nan

>  <Standardized_SMILES>  (318) 
COc1ccc(Cn2cc(C(=O)N/N=C3/C(=O)Nc4ccc(C)cc43)nn2)cc1

>  <Name>  (318) 
nan

>  <Pocket>  (318) 
nan

>  <ATP_Site>  (318) 
nan

>  <Peripheral>  (318) 
nan

>  <Num_H_Atoms_ProtBoundConf>  (318) 
nan

>  <Num_Resolved_Atoms>  (318) 
nan

>  <Num_Not_Resolved_Atoms>  (318) 
nan

$$$$
CHEMBL4563315
     RDKit          3D

  0  0  0  0  0  0  0  0  0  0999 V3000
M  V30 BEGIN CTAB
M  V30 COUNTS 32 33 0 0 0
M  V30 BEGIN ATOM
M  V30 1 C -0.450904 -3.380113 2.057653 0
M  V30 2 C 0.593217 -3.866798 1.058087 0
M  V30 3 C 1.272400 -5.106252 1.565357 0
M  V30 4 N 1.579044 -2.821615 0.764247 0
M  V30 5 C 1.070456 -1.639372 0.212219 0
M  V30 6 S 0.510396 -0.215339 1.159060 0
M  V30 7 C 0.057800 0.761306 -0.296896 0
M  V30 8 C -0.503988 2.121086 -0.225158 0
M  V30 9 O -0.772492 2.684651 -1.304664 0
M  V30 10 C -0.710332 2.716737 1.042117 0
M  V30 11 C -1.214397 3.954178 1.320054 0
M  V30 12 C -1.312640 4.293467 2.646298 0
M  V30 13 C -0.914586 3.409131 3.631106 0
M  V30 14 Cl -0.893589 3.489423 5.329485 0
M  V30 15 S -0.340383 1.944999 2.607762 0
M  V30 16 C 0.357562 -0.046986 -1.391985 0
M  V30 17 N 0.092477 0.490865 -2.681592 0
M  V30 18 C 0.878747 -1.278571 -1.079155 0
M  V30 19 C 1.232731 -2.215104 -2.142849 0
M  V30 20 N 1.506777 -2.980855 -2.999943 0
M  V30 21 H -0.005202 -2.577465 2.679515 0
M  V30 22 H -0.703502 -4.249904 2.716229 0
M  V30 23 H -1.329949 -2.994139 1.505442 0
M  V30 24 H 0.089196 -4.063686 0.098310 0
M  V30 25 H 0.652429 -5.543289 2.374061 0
M  V30 26 H 1.310167 -5.842240 0.744269 0
M  V30 27 H 2.287825 -4.819573 1.917805 0
M  V30 28 H 2.606908 -2.841570 0.911466 0
M  V30 29 H -1.520048 4.631067 0.536047 0
M  V30 30 H -1.692768 5.238798 3.013495 0
M  V30 31 H -0.847055 0.884709 -2.905198 0
M  V30 32 H 0.811588 0.518157 -3.455268 0
M  V30 END ATOM
M  V30 BEGIN BOND
M  V30 1 1 1 2
M  V30 2 1 2 3
M  V30 3 1 2 4
M  V30 4 1 4 5
M  V30 5 1 5 6
M  V30 6 1 6 7
M  V30 7 1 7 8
M  V30 8 2 8 9
M  V30 9 1 8 10
M  V30 10 2 10 11
M  V30 11 1 11 12
M  V30 12 2 12 13
M  V30 13 1 13 14
M  V30 14 1 13 15
M  V30 15 2 7 16
M  V30 16 1 16 17
M  V30 17 1 16 18
M  V30 18 1 18 19
M  V30 19 3 19 20
M  V30 20 2 18 5
M  V30 21 1 15 10
M  V30 22 1 1 21
M  V30 23 1 1 22
M  V30 24 1 1 23
M  V30 25 1 2 24
M  V30 26 1 3 25
M  V30 27 1 3 26
M  V30 28 1 3 27
M  V30 29 1 4 28
M  V30 30 1 11 29
M  V30 31 1 12 30
M  V30 32 1 17 31
M  V30 33 1 17 32
M  V30 END BOND
M  V30 END CTAB
M  END
>  <Dataset>  (319) 
ChEMBL_Kinases

>  <Ligand_Instance>  (319) 
nan

>  <PDB_ID>  (319) 
nan

>  <Standardized_SMILES>  (319) 
CC(C)Nc1sc(C(=O)c2ccc(Cl)s2)c(N)c1C#N

>  <Name>  (319) 
nan

>  <Pocket>  (319) 
nan

>  <ATP_Site>  (319) 
nan

>  <Peripheral>  (319) 
nan

>  <Num_H_Atoms_ProtBoundConf>  (319) 
nan

>  <Num_Resolved_Atoms>  (319) 
nan

>  <Num_Not_Resolved_Atoms>  (319) 
nan

$$$$
CHEMBL4637058
     RDKit          3D

  0  0  0  0  0  0  0  0  0  0999 V3000
M  V30 BEGIN CTAB
M  V30 COUNTS 54 57 0 0 0
M  V30 BEGIN ATOM
M  V30 1 C -3.216514 -2.255231 1.546528 0
M  V30 2 O -2.647049 -3.459185 1.062207 0
M  V30 3 C -1.421108 -3.540494 0.446053 0
M  V30 4 C -0.563143 -2.488676 0.205024 0
M  V30 5 C 0.658863 -2.614540 -0.416648 0
M  V30 6 C 1.523334 -1.465507 -0.643516 0
M  V30 7 C 2.743000 -1.577115 -1.259565 0
M  V30 8 C 3.494966 -0.437354 -1.431263 0
M  V30 9 C 2.983712 0.757652 -0.975404 0
M  V30 10 N 3.841224 1.895829 -1.198529 0
M  V30 11 S 2.784040 3.213432 -0.453784 0
M  V30 12 C 1.482363 2.197621 0.007988 0
M  V30 13 N 0.310672 2.625237 0.655814 0
M  V30 14 C -0.854919 1.884418 1.100732 0
M  V30 15 C -1.038600 2.048140 2.600215 0 CFG=1
M  V30 16 C 0.175876 1.463858 3.296371 0
M  V30 17 O -1.069687 3.392737 2.957072 0
M  V30 18 C -1.068849 4.229344 1.856918 0 CFG=1
M  V30 19 C -1.083377 5.651840 2.425479 0
M  V30 20 C 0.141587 4.028236 0.978809 0
M  V30 21 C 1.780090 0.867377 -0.367527 0
M  V30 22 N 1.090482 -0.266458 -0.225343 0
M  V30 23 C 0.988809 -3.893491 -0.798024 0
M  V30 24 C 0.206453 -5.005809 -0.604450 0
M  V30 25 O 0.518560 -6.277594 -0.975963 0
M  V30 26 C 1.653485 -6.750018 -1.616339 0
M  V30 27 C -1.025327 -4.813150 0.033528 0
M  V30 28 O -1.864570 -5.920718 0.256244 0
M  V30 29 C -2.819763 -6.285473 -0.725029 0
M  V30 30 H -2.826358 -2.157692 2.594523 0
M  V30 31 H -2.935239 -1.382518 0.931013 0
M  V30 32 H -4.312219 -2.411513 1.618091 0
M  V30 33 H -0.937749 -1.539024 0.551584 0
M  V30 34 H 3.110616 -2.540709 -1.605378 0
M  V30 35 H 4.434785 -0.604736 -1.919918 0
M  V30 36 H -1.775886 2.226192 0.601919 0
M  V30 37 H -0.746067 0.815300 0.832339 0
M  V30 38 H -1.924719 1.535456 2.973077 0
M  V30 39 H 0.102438 1.800799 4.371699 0
M  V30 40 H 1.048596 2.027276 2.875682 0
M  V30 41 H 0.258476 0.375827 3.209524 0
M  V30 42 H -2.005838 4.135975 1.269443 0
M  V30 43 H -0.014811 5.883932 2.702462 0
M  V30 44 H -1.366860 6.398507 1.682722 0
M  V30 45 H -1.638662 5.699786 3.371960 0
M  V30 46 H 1.046140 4.396340 1.506744 0
M  V30 47 H 0.058049 4.627210 0.049654 0
M  V30 48 H 1.917344 -4.112737 -1.291455 0
M  V30 49 H 2.427706 -5.995038 -1.856080 0
M  V30 50 H 1.308712 -7.128483 -2.624148 0
M  V30 51 H 2.183985 -7.562336 -1.077726 0
M  V30 52 H -2.585987 -7.299940 -1.147427 0
M  V30 53 H -3.857780 -6.313706 -0.344659 0
M  V30 54 H -2.782326 -5.602529 -1.604548 0
M  V30 END ATOM
M  V30 BEGIN BOND
M  V30 1 1 1 2
M  V30 2 1 2 3
M  V30 3 2 3 4
M  V30 4 1 4 5
M  V30 5 1 5 6
M  V30 6 1 6 7
M  V30 7 2 7 8
M  V30 8 1 8 9
M  V30 9 2 9 10
M  V30 10 1 10 11
M  V30 11 1 11 12
M  V30 12 1 12 13
M  V30 13 1 13 14
M  V30 14 1 14 15
M  V30 15 1 15 16
M  V30 16 1 15 17
M  V30 17 1 17 18
M  V30 18 1 18 19
M  V30 19 1 18 20
M  V30 20 2 12 21
M  V30 21 1 21 22
M  V30 22 2 5 23
M  V30 23 1 23 24
M  V30 24 1 24 25
M  V30 25 1 25 26
M  V30 26 2 24 27
M  V30 27 1 27 28
M  V30 28 1 28 29
M  V30 29 1 27 3
M  V30 30 2 22 6
M  V30 31 1 21 9
M  V30 32 1 20 13
M  V30 33 1 1 30
M  V30 34 1 1 31
M  V30 35 1 1 32
M  V30 36 1 4 33
M  V30 37 1 7 34
M  V30 38 1 8 35
M  V30 39 1 14 36
M  V30 40 1 14 37
M  V30 41 1 15 38 CFG=1
M  V30 42 1 16 39
M  V30 43 1 16 40
M  V30 44 1 16 41
M  V30 45 1 18 42 CFG=3
M  V30 46 1 19 43
M  V30 47 1 19 44
M  V30 48 1 19 45
M  V30 49 1 20 46
M  V30 50 1 20 47
M  V30 51 1 23 48
M  V30 52 1 26 49
M  V30 53 1 26 50
M  V30 54 1 26 51
M  V30 55 1 29 52
M  V30 56 1 29 53
M  V30 57 1 29 54
M  V30 END BOND
M  V30 END CTAB
M  END
>  <Dataset>  (320) 
ChEMBL_Kinases

>  <Ligand_Instance>  (320) 
nan

>  <PDB_ID>  (320) 
nan

>  <Standardized_SMILES>  (320) 
COc1cc(-c2ccc3nsc(N4C[C@@H](C)O[C@@H](C)C4)c3n2)cc(OC)c1OC

>  <Name>  (320) 
nan

>  <Pocket>  (320) 
nan

>  <ATP_Site>  (320) 
nan

>  <Peripheral>  (320) 
nan

>  <Num_H_Atoms_ProtBoundConf>  (320) 
nan

>  <Num_Resolved_Atoms>  (320) 
nan

>  <Num_Not_Resolved_Atoms>  (320) 
nan

$$$$
CHEMBL4637085
     RDKit          3D

  0  0  0  0  0  0  0  0  0  0999 V3000
M  V30 BEGIN CTAB
M  V30 COUNTS 56 60 0 0 0
M  V30 BEGIN ATOM
M  V30 1 C 2.883465 -2.938911 2.590983 0
M  V30 2 O 1.905037 -3.759966 1.959771 0
M  V30 3 C 0.647487 -3.221705 1.719616 0
M  V30 4 C 0.425219 -1.918198 2.109286 0
M  V30 5 C -0.796296 -1.314937 1.904891 0
M  V30 6 C -1.227973 0.037310 2.233245 0
M  V30 7 C -0.459437 1.089758 2.091528 0
M  V30 8 O 0.863795 1.128685 1.620173 0
M  V30 9 C 1.296147 2.450621 1.633385 0
M  V30 10 C 2.517913 2.969275 1.258636 0
M  V30 11 C 2.819336 4.312133 1.320904 0
M  V30 12 O 3.852058 5.071863 1.045360 0
M  V30 13 C 3.609452 6.336333 1.293969 0
M  V30 14 C 2.306517 6.444382 1.777772 0
M  V30 15 C 1.810801 5.160113 1.792845 0
M  V30 16 C 0.578728 4.672149 2.175270 0
M  V30 17 O -0.449487 5.504790 2.653634 0
M  V30 18 C -0.559233 5.778680 4.032334 0
M  V30 19 C 0.312349 3.320379 2.099125 0
M  V30 20 C -0.822971 2.458749 2.397916 0
M  V30 21 O -1.914648 2.889213 2.846164 0
M  V30 22 C -1.787140 -2.089042 1.287545 0
M  V30 23 C -1.552245 -3.392414 0.902045 0
M  V30 24 C -0.331648 -3.999614 1.104125 0
M  V30 25 O 0.031736 -5.291816 0.763009 0
M  V30 26 C -0.871896 -6.163825 0.111271 0
M  V30 27 C -1.176412 -5.486098 -1.203424 0
M  V30 28 O -0.794236 -4.391931 -1.749088 0
M  V30 29 N -2.081353 -6.090700 -2.152490 0
M  V30 30 C -2.143006 -5.197501 -3.272031 0
M  V30 31 C -3.022906 -4.147905 -3.451909 0
M  V30 32 C -2.915568 -3.398806 -4.609168 0
M  V30 33 C -1.977528 -3.656113 -5.577138 0
M  V30 34 C -1.091101 -4.717956 -5.390250 0
M  V30 35 C -1.192049 -5.471535 -4.234702 0
M  V30 36 H 3.826778 -3.490195 2.748758 0
M  V30 37 H 2.505371 -2.667964 3.602776 0
M  V30 38 H 3.098225 -2.010812 2.054894 0
M  V30 39 H 1.140073 -1.272618 2.585830 0
M  V30 40 H -2.228967 0.205756 2.615347 0
M  V30 41 H 3.309886 2.327622 0.892303 0
M  V30 42 H 4.312089 7.132175 1.141968 0
M  V30 43 H 1.793793 7.349591 2.076388 0
M  V30 44 H -1.612244 5.995041 4.330219 0
M  V30 45 H 0.097394 6.633429 4.353551 0
M  V30 46 H -0.278478 4.839533 4.588783 0
M  V30 47 H -2.775678 -1.712864 1.082533 0
M  V30 48 H -2.323664 -3.980667 0.437714 0
M  V30 49 H -1.824862 -6.113870 0.685661 0
M  V30 50 H -0.477406 -7.165511 -0.032256 0
M  V30 51 H -2.546040 -7.024139 -1.936894 0
M  V30 52 H -3.733930 -4.005913 -2.650957 0
M  V30 53 H -3.627506 -2.571580 -4.721448 0
M  V30 54 H -1.905088 -3.063479 -6.478540 0
M  V30 55 H -0.356108 -4.913789 -6.161024 0
M  V30 56 H -0.463043 -6.271069 -4.177363 0
M  V30 END ATOM
M  V30 BEGIN BOND
M  V30 1 1 1 2
M  V30 2 1 2 3
M  V30 3 2 3 4
M  V30 4 1 4 5
M  V30 5 1 5 6
M  V30 6 2 6 7
M  V30 7 1 7 8
M  V30 8 1 8 9
M  V30 9 2 9 10
M  V30 10 1 10 11
M  V30 11 1 11 12
M  V30 12 1 12 13
M  V30 13 2 13 14
M  V30 14 1 14 15
M  V30 15 1 15 16
M  V30 16 1 16 17
M  V30 17 1 17 18
M  V30 18 2 16 19
M  V30 19 1 19 20
M  V30 20 2 20 21
M  V30 21 2 5 22
M  V30 22 1 22 23
M  V30 23 2 23 24
M  V30 24 1 24 25
M  V30 25 1 25 26
M  V30 26 1 26 27
M  V30 27 2 27 28
M  V30 28 1 27 29
M  V30 29 1 29 30
M  V30 30 2 30 31
M  V30 31 1 31 32
M  V30 32 2 32 33
M  V30 33 1 33 34
M  V30 34 2 34 35
M  V30 35 1 24 3
M  V30 36 1 35 30
M  V30 37 1 20 7
M  V30 38 1 19 9
M  V30 39 2 15 11
M  V30 40 1 1 36
M  V30 41 1 1 37
M  V30 42 1 1 38
M  V30 43 1 4 39
M  V30 44 1 6 40
M  V30 45 1 10 41
M  V30 46 1 13 42
M  V30 47 1 14 43
M  V30 48 1 18 44
M  V30 49 1 18 45
M  V30 50 1 18 46
M  V30 51 1 22 47
M  V30 52 1 23 48
M  V30 53 1 26 49
M  V30 54 1 26 50
M  V30 55 1 29 51
M  V30 56 1 31 52
M  V30 57 1 32 53
M  V30 58 1 33 54
M  V30 59 1 34 55
M  V30 60 1 35 56
M  V30 END BOND
M  V30 END CTAB
M  END
>  <Dataset>  (321) 
ChEMBL_Kinases

>  <Ligand_Instance>  (321) 
nan

>  <PDB_ID>  (321) 
nan

>  <Standardized_SMILES>  (321) 
COc1cc(/C=C2\Oc3cc4occc4c(OC)c3C2=O)ccc1OCC(=O)Nc1ccccc1

>  <Name>  (321) 
nan

>  <Pocket>  (321) 
nan

>  <ATP_Site>  (321) 
nan

>  <Peripheral>  (321) 
nan

>  <Num_H_Atoms_ProtBoundConf>  (321) 
nan

>  <Num_Resolved_Atoms>  (321) 
nan

>  <Num_Not_Resolved_Atoms>  (321) 
nan

$$$$
CHEMBL4637247
     RDKit          3D

  0  0  0  0  0  0  0  0  0  0999 V3000
M  V30 BEGIN CTAB
M  V30 COUNTS 59 63 0 0 0
M  V30 BEGIN ATOM
M  V30 1 C 3.335979 2.433257 4.895031 0
M  V30 2 C 3.533552 0.954354 4.896292 0
M  V30 3 C 2.196170 0.265400 4.768137 0
M  V30 4 C 4.554374 0.465196 3.887695 0
M  V30 5 N 4.253584 0.778637 2.531141 0
M  V30 6 C 3.061239 0.466078 1.821634 0
M  V30 7 N 2.222121 1.492643 1.569712 0
M  V30 8 C 1.040347 1.294239 0.919141 0
M  V30 9 C 0.148804 2.403866 0.640217 0
M  V30 10 C -1.061422 2.319083 -0.001134 0
M  V30 11 C -1.930079 3.340122 -0.294078 0
M  V30 12 C -1.539068 4.621834 0.106650 0
M  V30 13 C -0.316792 4.774471 0.764705 0
M  V30 14 C 0.505677 3.698570 1.025611 0
M  V30 15 C 0.806708 -0.010481 0.561787 0
M  V30 16 C 1.628702 -1.088529 0.793827 0
M  V30 17 C 1.555073 -2.448800 0.507691 0
M  V30 18 C 0.422101 -3.043577 -0.185743 0
M  V30 19 C -0.143337 -2.505450 -1.327557 0
M  V30 20 C -1.223631 -3.080288 -1.960114 0
M  V30 21 C -1.807297 -4.234062 -1.488566 0
M  V30 22 C -2.949867 -4.898896 -2.081066 0
M  V30 23 O -3.428074 -6.008377 -1.834266 0
M  V30 24 N -3.645283 -4.177247 -3.109623 0
M  V30 25 C -4.790229 -4.719252 -3.788088 0
M  V30 26 C -6.040890 -3.984020 -3.985422 0
M  V30 27 C -5.142922 -4.310285 -5.190558 0
M  V30 28 C -1.268858 -4.802899 -0.348235 0
M  V30 29 C -0.173080 -4.208269 0.283511 0
M  V30 30 C 2.726379 -2.945052 1.026170 0
M  V30 31 N 3.440024 -1.927953 1.582623 0
M  V30 32 N 2.780980 -0.796895 1.446632 0
M  V30 33 H 2.684721 2.676209 5.761267 0
M  V30 34 H 4.303677 2.949982 5.098686 0
M  V30 35 H 2.906158 2.785077 3.938508 0
M  V30 36 H 3.886214 0.690653 5.944834 0
M  V30 37 H 2.380202 -0.690864 4.208443 0
M  V30 38 H 1.519012 0.881242 4.177300 0
M  V30 39 H 1.758358 0.015053 5.783478 0
M  V30 40 H 4.698078 -0.641876 4.034671 0
M  V30 41 H 5.523380 0.911608 4.161129 0
M  V30 42 H 4.884427 1.288601 1.875984 0
M  V30 43 H -1.401159 1.340804 -0.327768 0
M  V30 44 H -2.864904 3.196152 -0.801492 0
M  V30 45 H -2.228166 5.422623 -0.126970 0
M  V30 46 H -0.095343 5.792804 1.036681 0
M  V30 47 H 1.426829 3.913404 1.535130 0
M  V30 48 H -0.133137 -0.176123 0.054116 0
M  V30 49 H 0.268857 -1.596633 -1.770376 0
M  V30 50 H -1.620199 -2.611758 -2.847020 0
M  V30 51 H -3.430383 -3.204708 -3.491182 0
M  V30 52 H -4.953153 -5.800439 -3.568180 0
M  V30 53 H -6.202194 -2.924917 -3.842423 0
M  V30 54 H -7.007100 -4.545805 -4.028511 0
M  V30 55 H -4.519073 -3.459214 -5.570076 0
M  V30 56 H -5.497875 -5.019588 -5.939442 0
M  V30 57 H -1.608888 -5.707099 0.150642 0
M  V30 58 H 0.277147 -4.616694 1.171415 0
M  V30 59 H 2.962396 -4.000848 0.956949 0
M  V30 END ATOM
M  V30 BEGIN BOND
M  V30 1 1 1 2
M  V30 2 1 2 3
M  V30 3 1 2 4
M  V30 4 1 4 5
M  V30 5 1 5 6
M  V30 6 2 6 7
M  V30 7 1 7 8
M  V30 8 1 8 9
M  V30 9 2 9 10
M  V30 10 1 10 11
M  V30 11 2 11 12
M  V30 12 1 12 13
M  V30 13 2 13 14
M  V30 14 2 8 15
M  V30 15 1 15 16
M  V30 16 2 16 17
M  V30 17 1 17 18
M  V30 18 2 18 19
M  V30 19 1 19 20
M  V30 20 2 20 21
M  V30 21 1 21 22
M  V30 22 2 22 23
M  V30 23 1 22 24
M  V30 24 1 24 25
M  V30 25 1 25 26
M  V30 26 1 26 27
M  V30 27 1 21 28
M  V30 28 2 28 29
M  V30 29 1 17 30
M  V30 30 2 30 31
M  V30 31 1 31 32
M  V30 32 1 32 6
M  V30 33 1 14 9
M  V30 34 1 32 16
M  V30 35 1 29 18
M  V30 36 1 27 25
M  V30 37 1 1 33
M  V30 38 1 1 34
M  V30 39 1 1 35
M  V30 40 1 2 36
M  V30 41 1 3 37
M  V30 42 1 3 38
M  V30 43 1 3 39
M  V30 44 1 4 40
M  V30 45 1 4 41
M  V30 46 1 5 42
M  V30 47 1 10 43
M  V30 48 1 11 44
M  V30 49 1 12 45
M  V30 50 1 13 46
M  V30 51 1 14 47
M  V30 52 1 15 48
M  V30 53 1 19 49
M  V30 54 1 20 50
M  V30 55 1 24 51
M  V30 56 1 25 52
M  V30 57 1 26 53
M  V30 58 1 26 54
M  V30 59 1 27 55
M  V30 60 1 27 56
M  V30 61 1 28 57
M  V30 62 1 29 58
M  V30 63 1 30 59
M  V30 END BOND
M  V30 END CTAB
M  END
>  <Dataset>  (322) 
ChEMBL_Kinases

>  <Ligand_Instance>  (322) 
nan

>  <PDB_ID>  (322) 
nan

>  <Standardized_SMILES>  (322) 
CC(C)CNc1nc(-c2ccccc2)cc2c(-c3ccc(C(=O)NC4CC4)cc3)cnn12

>  <Name>  (322) 
nan

>  <Pocket>  (322) 
nan

>  <ATP_Site>  (322) 
nan

>  <Peripheral>  (322) 
nan

>  <Num_H_Atoms_ProtBoundConf>  (322) 
nan

>  <Num_Resolved_Atoms>  (322) 
nan

>  <Num_Not_Resolved_Atoms>  (322) 
nan

$$$$
CHEMBL4565804
     RDKit          3D

  0  0  0  0  0  0  0  0  0  0999 V3000
M  V30 BEGIN CTAB
M  V30 COUNTS 49 52 0 0 0
M  V30 BEGIN ATOM
M  V30 1 C 1.527762 -3.735777 4.128012 0
M  V30 2 C 2.316761 -3.623306 2.857481 0
M  V30 3 C 3.793602 -3.644773 3.268628 0
M  V30 4 C 2.069945 -4.758096 1.926350 0
M  V30 5 O 2.103781 -2.353136 2.286916 0
M  V30 6 C 2.691253 -1.934025 1.100901 0
M  V30 7 O 3.473458 -2.683698 0.442568 0
M  V30 8 N 2.296421 -0.606076 0.763778 0
M  V30 9 C 1.400191 0.322617 1.474426 0
M  V30 10 C 0.163814 0.368200 0.594187 0
M  V30 11 C 0.522699 1.112878 -0.641443 0
M  V30 12 C 1.834059 0.844482 -1.058975 0
M  V30 13 S 2.024433 1.826000 -2.519471 0
M  V30 14 C 0.397378 2.540943 -2.525419 0
M  V30 15 N -0.195881 3.402980 -3.353055 0
M  V30 16 C -1.460170 3.801252 -3.142294 0
M  V30 17 N -2.054696 3.275537 -2.064496 0
M  V30 18 C -1.489029 2.411302 -1.217693 0
M  V30 19 N -2.346800 2.015226 -0.156675 0
M  V30 20 C -3.305136 0.982102 0.033576 0
M  V30 21 C -3.924820 0.965660 1.264487 0
M  V30 22 C -4.858143 -0.028723 1.462026 0
M  V30 23 C -5.131293 -0.943338 0.454808 0
M  V30 24 Br -6.442536 -2.268089 0.855278 0
M  V30 25 C -4.475317 -0.872348 -0.756796 0
M  V30 26 C -3.525052 0.114146 -1.001990 0
M  V30 27 C -0.191652 1.990229 -1.416976 0
M  V30 28 C 2.811958 -0.032622 -0.436137 0
M  V30 29 H 1.372940 -2.721785 4.550451 0
M  V30 30 H 2.040275 -4.336553 4.908229 0
M  V30 31 H 0.489443 -4.126296 3.947077 0
M  V30 32 H 3.974339 -2.642331 3.754025 0
M  V30 33 H 4.003761 -4.405193 4.042348 0
M  V30 34 H 4.383874 -3.729609 2.353151 0
M  V30 35 H 3.009548 -5.232354 1.577698 0
M  V30 36 H 1.389585 -4.491186 1.087562 0
M  V30 37 H 1.513285 -5.547054 2.486273 0
M  V30 38 H 1.162922 -0.082699 2.477898 0
M  V30 39 H 1.860970 1.332946 1.530316 0
M  V30 40 H -0.619679 0.845931 1.191603 0
M  V30 41 H -0.108280 -0.682408 0.316467 0
M  V30 42 H -1.899142 4.499073 -3.837059 0
M  V30 43 H -2.090500 2.740597 0.547814 0
M  V30 44 H -3.699514 1.689236 2.042661 0
M  V30 45 H -5.357518 -0.050024 2.439509 0
M  V30 46 H -4.730577 -1.614539 -1.505543 0
M  V30 47 H -3.009790 0.174316 -1.945918 0
M  V30 48 H 3.159244 -0.777751 -1.189967 0
M  V30 49 H 3.720725 0.560682 -0.151003 0
M  V30 END ATOM
M  V30 BEGIN BOND
M  V30 1 1 1 2
M  V30 2 1 2 3
M  V30 3 1 2 4
M  V30 4 1 2 5
M  V30 5 1 5 6
M  V30 6 2 6 7
M  V30 7 1 6 8
M  V30 8 1 8 9
M  V30 9 1 9 10
M  V30 10 1 10 11
M  V30 11 2 11 12
M  V30 12 1 12 13
M  V30 13 1 13 14
M  V30 14 2 14 15
M  V30 15 1 15 16
M  V30 16 2 16 17
M  V30 17 1 17 18
M  V30 18 1 18 19
M  V30 19 1 19 20
M  V30 20 2 20 21
M  V30 21 1 21 22
M  V30 22 2 22 23
M  V30 23 1 23 24
M  V30 24 1 23 25
M  V30 25 2 25 26
M  V30 26 2 18 27
M  V30 27 1 12 28
M  V30 28 1 28 8
M  V30 29 1 27 11
M  V30 30 1 27 14
M  V30 31 1 26 20
M  V30 32 1 1 29
M  V30 33 1 1 30
M  V30 34 1 1 31
M  V30 35 1 3 32
M  V30 36 1 3 33
M  V30 37 1 3 34
M  V30 38 1 4 35
M  V30 39 1 4 36
M  V30 40 1 4 37
M  V30 41 1 9 38
M  V30 42 1 9 39
M  V30 43 1 10 40
M  V30 44 1 10 41
M  V30 45 1 16 42
M  V30 46 1 19 43
M  V30 47 1 21 44
M  V30 48 1 22 45
M  V30 49 1 25 46
M  V30 50 1 26 47
M  V30 51 1 28 48
M  V30 52 1 28 49
M  V30 END BOND
M  V30 END CTAB
M  END
>  <Dataset>  (323) 
ChEMBL_Kinases

>  <Ligand_Instance>  (323) 
nan

>  <PDB_ID>  (323) 
nan

>  <Standardized_SMILES>  (323) 
CC(C)(C)OC(=O)N1CCc2c(sc3ncnc(Nc4ccc(Br)cc4)c23)C1

>  <Name>  (323) 
nan

>  <Pocket>  (323) 
nan

>  <ATP_Site>  (323) 
nan

>  <Peripheral>  (323) 
nan

>  <Num_H_Atoms_ProtBoundConf>  (323) 
nan

>  <Num_Resolved_Atoms>  (323) 
nan

>  <Num_Not_Resolved_Atoms>  (323) 
nan

$$$$
CHEMBL4562919
     RDKit          3D

  0  0  0  0  0  0  0  0  0  0999 V3000
M  V30 BEGIN CTAB
M  V30 COUNTS 68 72 0 0 0
M  V30 BEGIN ATOM
M  V30 1 C 5.638068 -4.099464 3.416278 0
M  V30 2 N 5.354110 -2.846583 2.746313 0
M  V30 3 C 6.590870 -2.197127 2.359104 0
M  V30 4 C 6.325068 -0.977799 1.498460 0
M  V30 5 N 4.939691 -0.531235 1.732829 0
M  V30 6 C 4.009827 -0.122543 0.752167 0
M  V30 7 C 2.720934 0.252809 1.043377 0
M  V30 8 C 1.862385 0.640732 0.038295 0
M  V30 9 C 2.223324 0.679280 -1.292030 0
M  V30 10 N 1.312947 1.082160 -2.309620 0
M  V30 11 C 0.014045 1.432750 -1.846103 0
M  V30 12 N -0.386252 2.685468 -1.485785 0
M  V30 13 C -1.654514 2.904325 -1.055021 0
M  V30 14 C -2.488254 1.809516 -1.006569 0
M  V30 15 C -3.775907 1.988493 -0.576519 0
M  V30 16 O -4.235116 3.114166 -0.222129 0
M  V30 17 C -4.624682 0.886863 -0.523805 0
M  V30 18 C -6.003062 0.974166 -0.083598 0
M  V30 19 C -7.043210 1.221346 -0.933777 0
M  V30 20 Cl -6.721589 1.445590 -2.638877 0
M  V30 21 C -8.335269 1.293115 -0.452632 0
M  V30 22 C -8.513694 1.105442 0.905296 0
M  V30 23 C -7.464075 0.851672 1.791618 0
M  V30 24 C -6.167946 0.785219 1.272324 0
M  V30 25 Cl -4.855647 0.465516 2.397929 0
M  V30 26 C -4.203717 -0.375516 -0.892176 0
M  V30 27 N -2.925341 -0.537557 -1.316224 0
M  V30 28 C -2.373426 -1.810209 -1.726237 0
M  V30 29 C -1.749865 -2.549159 -0.547006 0
M  V30 30 C -1.181030 -3.882670 -1.026405 0
M  V30 31 C -2.831004 -2.864383 0.452135 0
M  V30 32 O -0.734196 -1.789053 -0.012498 0
M  V30 33 C -2.110633 0.528592 -1.365211 0
M  V30 34 N -0.821285 0.371858 -1.790732 0
M  V30 35 C 3.530164 0.297416 -1.574497 0
M  V30 36 C 4.390422 -0.093347 -0.549754 0
M  V30 37 C 4.688416 -0.583388 3.157365 0
M  V30 38 C 4.473100 -2.032900 3.525449 0
M  V30 39 H 4.841604 -4.843015 3.139816 0
M  V30 40 H 5.629475 -3.965936 4.518390 0
M  V30 41 H 6.638817 -4.489775 3.104076 0
M  V30 42 H 7.152665 -2.921006 1.744311 0
M  V30 43 H 7.182728 -1.978821 3.263740 0
M  V30 44 H 6.536713 -1.199225 0.456166 0
M  V30 45 H 6.990599 -0.174393 1.873098 0
M  V30 46 H 2.368601 0.246552 2.065173 0
M  V30 47 H 0.845284 0.931130 0.318136 0
M  V30 48 H 1.670037 1.086651 -3.296179 0
M  V30 49 H -1.957509 3.900897 -0.773041 0
M  V30 50 H -9.188858 1.486439 -1.089763 0
M  V30 51 H -9.499168 1.143841 1.380669 0
M  V30 52 H -7.640981 0.709739 2.851015 0
M  V30 53 H -4.819934 -1.264061 -0.870677 0
M  V30 54 H -3.112917 -2.444132 -2.251685 0
M  V30 55 H -1.552228 -1.647437 -2.452503 0
M  V30 56 H -0.388237 -3.727071 -1.795173 0
M  V30 57 H -0.756280 -4.385195 -0.121867 0
M  V30 58 H -1.985117 -4.507697 -1.445342 0
M  V30 59 H -3.631832 -3.397253 -0.112235 0
M  V30 60 H -2.470860 -3.577257 1.220137 0
M  V30 61 H -3.234937 -1.987025 0.968629 0
M  V30 62 H 0.083810 -1.964150 -0.528677 0
M  V30 63 H 3.789843 0.337018 -2.630289 0
M  V30 64 H 5.352338 -0.352026 -0.949333 0
M  V30 65 H 5.539659 -0.212216 3.772187 0
M  V30 66 H 3.830565 0.053205 3.457193 0
M  V30 67 H 4.675623 -2.222914 4.601559 0
M  V30 68 H 3.419618 -2.339294 3.255503 0
M  V30 END ATOM
M  V30 BEGIN BOND
M  V30 1 1 1 2
M  V30 2 1 2 3
M  V30 3 1 3 4
M  V30 4 1 4 5
M  V30 5 1 5 6
M  V30 6 2 6 7
M  V30 7 1 7 8
M  V30 8 2 8 9
M  V30 9 1 9 10
M  V30 10 1 10 11
M  V30 11 2 11 12
M  V30 12 1 12 13
M  V30 13 2 13 14
M  V30 14 1 14 15
M  V30 15 2 15 16
M  V30 16 1 15 17
M  V30 17 1 17 18
M  V30 18 2 18 19
M  V30 19 1 19 20
M  V30 20 1 19 21
M  V30 21 2 21 22
M  V30 22 1 22 23
M  V30 23 2 23 24
M  V30 24 1 24 25
M  V30 25 2 17 26
M  V30 26 1 26 27
M  V30 27 1 27 28
M  V30 28 1 28 29
M  V30 29 1 29 30
M  V30 30 1 29 31
M  V30 31 1 29 32
M  V30 32 1 27 33
M  V30 33 2 33 34
M  V30 34 1 9 35
M  V30 35 2 35 36
M  V30 36 1 5 37
M  V30 37 1 37 38
M  V30 38 1 38 2
M  V30 39 1 36 6
M  V30 40 1 34 11
M  V30 41 1 33 14
M  V30 42 1 24 18
M  V30 43 1 1 39
M  V30 44 1 1 40
M  V30 45 1 1 41
M  V30 46 1 3 42
M  V30 47 1 3 43
M  V30 48 1 4 44
M  V30 49 1 4 45
M  V30 50 1 7 46
M  V30 51 1 8 47
M  V30 52 1 10 48
M  V30 53 1 13 49
M  V30 54 1 21 50
M  V30 55 1 22 51
M  V30 56 1 23 52
M  V30 57 1 26 53
M  V30 58 1 28 54
M  V30 59 1 28 55
M  V30 60 1 30 56
M  V30 61 1 30 57
M  V30 62 1 30 58
M  V30 63 1 31 59
M  V30 64 1 31 60
M  V30 65 1 31 61
M  V30 66 1 32 62
M  V30 67 1 35 63
M  V30 68 1 36 64
M  V30 69 1 37 65
M  V30 70 1 37 66
M  V30 71 1 38 67
M  V30 72 1 38 68
M  V30 END BOND
M  V30 END CTAB
M  END
>  <Dataset>  (324) 
ChEMBL_Kinases

>  <Ligand_Instance>  (324) 
nan

>  <PDB_ID>  (324) 
nan

>  <Standardized_SMILES>  (324) 
CN1CCN(c2ccc(Nc3ncc4c(=O)c(-c5c(Cl)cccc5Cl)cn(CC(C)(C)O)c4n3)cc2)CC1

>  <Name>  (324) 
nan

>  <Pocket>  (324) 
nan

>  <ATP_Site>  (324) 
nan

>  <Peripheral>  (324) 
nan

>  <Num_H_Atoms_ProtBoundConf>  (324) 
nan

>  <Num_Resolved_Atoms>  (324) 
nan

>  <Num_Not_Resolved_Atoms>  (324) 
nan

$$$$
CHEMBL4562902
     RDKit          3D

  0  0  0  0  0  0  0  0  0  0999 V3000
M  V30 BEGIN CTAB
M  V30 COUNTS 50 53 0 0 0
M  V30 BEGIN ATOM
M  V30 1 C -3.250826 -0.527560 -3.916240 0
M  V30 2 N -2.891596 -1.320822 -2.747959 0
M  V30 3 C -1.743964 -1.071045 -1.954614 0
M  V30 4 N -0.859346 -0.091164 -2.179314 0
M  V30 5 C 0.231751 0.110788 -1.399232 0
M  V30 6 N 0.904090 1.255860 -1.909259 0
M  V30 7 C 1.213424 2.013346 -0.747117 0
M  V30 8 C 0.927097 3.354463 -0.871636 0
M  V30 9 N 1.162775 4.191441 0.176389 0
M  V30 10 C 1.681666 3.738160 1.357431 0
M  V30 11 C 1.864265 4.733487 2.398462 0
M  V30 12 N 2.028220 5.520205 3.233112 0
M  V30 13 C 1.989174 2.378876 1.526734 0
M  V30 14 O 2.477368 2.120039 2.730014 0
M  V30 15 C 2.877979 1.190886 3.595336 0 CFG=2
M  V30 16 C 4.315954 0.748913 3.506832 0
M  V30 17 C 4.290792 -0.582713 4.232907 0
M  V30 18 N 3.112063 -1.187831 3.658017 0
M  V30 19 C 2.133890 -0.144365 3.509154 0
M  V30 20 C 1.730466 1.584714 0.440768 0
M  V30 21 N 0.375238 -0.740716 -0.376583 0
M  V30 22 C -0.469551 -1.733122 -0.103110 0
M  V30 23 C -1.575458 -1.947475 -0.880951 0
M  V30 24 C -2.410412 -3.039982 -0.413922 0
M  V30 25 C -3.770656 -2.867410 -0.267673 0
M  V30 26 N -4.238039 -4.056246 0.197383 0
M  V30 27 N -3.237978 -4.922606 0.336489 0
M  V30 28 C -3.352162 -6.287954 0.815530 0
M  V30 29 C -2.086789 -4.321897 -0.036194 0
M  V30 30 H -3.680380 -1.130781 -4.739755 0
M  V30 31 H -2.340614 0.023557 -4.236821 0
M  V30 32 H -4.002884 0.230279 -3.650746 0
M  V30 33 H -3.574093 -2.063520 -2.597142 0
M  V30 34 H 1.102290 1.451326 -2.883374 0
M  V30 35 H 0.518691 3.880074 -1.717368 0
M  V30 36 H 2.638349 1.548576 4.644984 0
M  V30 37 H 4.557547 0.508159 2.452740 0
M  V30 38 H 5.040368 1.429823 3.966538 0
M  V30 39 H 4.146228 -0.490534 5.318478 0
M  V30 40 H 5.163346 -1.208896 3.978334 0
M  V30 41 H 2.717282 -1.945306 4.293108 0
M  V30 42 H 1.655139 -0.212041 2.545175 0
M  V30 43 H 1.355261 -0.191901 4.322086 0
M  V30 44 H 1.981886 0.565381 0.500408 0
M  V30 45 H -0.170951 -2.300905 0.759343 0
M  V30 46 H -4.488372 -2.096223 -0.412162 0
M  V30 47 H -4.125095 -6.822263 0.222690 0
M  V30 48 H -3.520684 -6.336021 1.908394 0
M  V30 49 H -2.409897 -6.839117 0.629171 0
M  V30 50 H -1.091331 -4.739379 -0.045574 0
M  V30 END ATOM
M  V30 BEGIN BOND
M  V30 1 1 1 2
M  V30 2 1 2 3
M  V30 3 2 3 4
M  V30 4 1 4 5
M  V30 5 1 5 6
M  V30 6 1 6 7
M  V30 7 2 7 8
M  V30 8 1 8 9
M  V30 9 2 9 10
M  V30 10 1 10 11
M  V30 11 3 11 12
M  V30 12 1 10 13
M  V30 13 1 13 14
M  V30 14 1 14 15
M  V30 15 1 15 16
M  V30 16 1 16 17
M  V30 17 1 17 18
M  V30 18 1 18 19
M  V30 19 2 13 20
M  V30 20 2 5 21
M  V30 21 1 21 22
M  V30 22 2 22 23
M  V30 23 1 23 24
M  V30 24 1 24 25
M  V30 25 2 25 26
M  V30 26 1 26 27
M  V30 27 1 27 28
M  V30 28 1 27 29
M  V30 29 1 23 3
M  V30 30 2 29 24
M  V30 31 1 20 7
M  V30 32 1 19 15
M  V30 33 1 1 30
M  V30 34 1 1 31
M  V30 35 1 1 32
M  V30 36 1 2 33
M  V30 37 1 6 34
M  V30 38 1 8 35
M  V30 39 1 15 36 CFG=1
M  V30 40 1 16 37
M  V30 41 1 16 38
M  V30 42 1 17 39
M  V30 43 1 17 40
M  V30 44 1 18 41
M  V30 45 1 19 42
M  V30 46 1 19 43
M  V30 47 1 20 44
M  V30 48 1 22 45
M  V30 49 1 25 46
M  V30 50 1 28 47
M  V30 51 1 28 48
M  V30 52 1 28 49
M  V30 53 1 29 50
M  V30 END BOND
M  V30 END CTAB
M  END
>  <Dataset>  (325) 
ChEMBL_Kinases

>  <Ligand_Instance>  (325) 
nan

>  <PDB_ID>  (325) 
nan

>  <Standardized_SMILES>  (325) 
CNc1nc(Nc2cnc(C#N)c(O[C@@H]3CCNC3)c2)ncc1-c1cnn(C)c1

>  <Name>  (325) 
nan

>  <Pocket>  (325) 
nan

>  <ATP_Site>  (325) 
nan

>  <Peripheral>  (325) 
nan

>  <Num_H_Atoms_ProtBoundConf>  (325) 
nan

>  <Num_Resolved_Atoms>  (325) 
nan

>  <Num_Not_Resolved_Atoms>  (325) 
nan

$$$$
CHEMBL4562809
     RDKit          3D

  0  0  0  0  0  0  0  0  0  0999 V3000
M  V30 BEGIN CTAB
M  V30 COUNTS 53 56 0 0 0
M  V30 BEGIN ATOM
M  V30 1 C -3.430441 -4.637825 3.115430 0
M  V30 2 C -2.491869 -3.633401 2.558205 0
M  V30 3 C -1.822655 -2.681365 3.296530 0
M  V30 4 C -0.946878 -1.760060 2.701263 0
M  V30 5 O -0.431044 -0.933879 3.714577 0
M  V30 6 C -0.747589 -1.811260 1.310955 0
M  V30 7 C 0.189663 -0.744636 1.092998 0
M  V30 8 C 1.586026 -0.987212 1.164512 0
M  V30 9 C 2.402129 0.115834 1.026712 0
M  V30 10 C 1.893609 1.404557 0.827491 0
M  V30 11 C 2.793385 2.553356 0.685111 0 CFG=1
M  V30 12 C 3.032676 2.853257 -0.780338 0
M  V30 13 N 2.434591 3.719847 1.425158 0
M  V30 14 C 2.187782 3.501732 2.814115 0
M  V30 15 C 1.518076 4.611191 0.791929 0
M  V30 16 C 0.531982 1.615962 0.761404 0
M  V30 17 C -0.324266 0.561847 0.891098 0
M  V30 18 C -1.421511 -2.758643 0.619480 0
M  V30 19 C -2.272934 -3.654598 1.198116 0
M  V30 20 N -2.899123 -4.560940 0.433308 0
M  V30 21 C -2.717722 -4.620033 -0.894698 0
M  V30 22 O -3.311695 -5.475385 -1.597924 0
M  V30 23 C -1.854479 -3.707811 -1.466370 0
M  V30 24 C -1.686819 -3.784587 -2.820592 0
M  V30 25 O -2.345580 -4.724328 -3.556558 0
M  V30 26 C -0.826049 -2.870563 -3.390460 0
M  V30 27 C -0.123195 -1.883937 -2.683937 0
M  V30 28 C -0.380778 -1.916206 -1.335650 0
M  V30 29 C -1.205535 -2.776090 -0.709972 0
M  V30 30 H -3.555735 -4.434213 4.197401 0
M  V30 31 H -4.447563 -4.555904 2.664238 0
M  V30 32 H -3.078875 -5.675162 2.921122 0
M  V30 33 H -2.071754 -2.760343 4.346200 0
M  V30 34 H 0.537566 -0.703004 3.809586 0
M  V30 35 H 1.927329 -1.990676 1.318208 0
M  V30 36 H 3.476291 -0.053387 1.079212 0
M  V30 37 H 3.804478 2.236503 1.078890 0
M  V30 38 H 3.779228 2.147526 -1.173941 0
M  V30 39 H 3.425620 3.896769 -0.895333 0
M  V30 40 H 2.096771 2.769192 -1.353175 0
M  V30 41 H 1.133723 3.194892 3.028182 0
M  V30 42 H 2.397995 4.380544 3.445342 0
M  V30 43 H 2.912967 2.707884 3.143481 0
M  V30 44 H 1.380864 4.358892 -0.271627 0
M  V30 45 H 2.024439 5.620959 0.772199 0
M  V30 46 H 0.573832 4.790035 1.348434 0
M  V30 47 H 0.052099 2.568691 0.611335 0
M  V30 48 H -1.399585 0.671438 0.847187 0
M  V30 49 H -3.551523 -5.249474 0.868576 0
M  V30 50 H -3.144888 -4.576630 -4.131013 0
M  V30 51 H -0.720986 -2.966099 -4.469487 0
M  V30 52 H 0.496881 -1.271912 -3.321721 0
M  V30 53 H 0.207133 -1.135327 -0.987585 0
M  V30 END ATOM
M  V30 BEGIN BOND
M  V30 1 1 1 2
M  V30 2 2 2 3
M  V30 3 1 3 4
M  V30 4 1 4 5
M  V30 5 2 4 6
M  V30 6 1 6 7
M  V30 7 2 7 8
M  V30 8 1 8 9
M  V30 9 2 9 10
M  V30 10 1 10 11
M  V30 11 1 11 12
M  V30 12 1 11 13
M  V30 13 1 13 14
M  V30 14 1 13 15
M  V30 15 1 10 16
M  V30 16 2 16 17
M  V30 17 1 6 18
M  V30 18 2 18 19
M  V30 19 1 19 20
M  V30 20 1 20 21
M  V30 21 2 21 22
M  V30 22 1 21 23
M  V30 23 2 23 24
M  V30 24 1 24 25
M  V30 25 1 24 26
M  V30 26 2 26 27
M  V30 27 1 27 28
M  V30 28 2 28 29
M  V30 29 1 19 2
M  V30 30 1 29 23
M  V30 31 1 17 7
M  V30 32 1 29 18
M  V30 33 1 1 30
M  V30 34 1 1 31
M  V30 35 1 1 32
M  V30 36 1 3 33
M  V30 37 1 5 34
M  V30 38 1 8 35
M  V30 39 1 9 36
M  V30 40 1 11 37 CFG=1
M  V30 41 1 12 38
M  V30 42 1 12 39
M  V30 43 1 12 40
M  V30 44 1 14 41
M  V30 45 1 14 42
M  V30 46 1 14 43
M  V30 47 1 15 44
M  V30 48 1 15 45
M  V30 49 1 15 46
M  V30 50 1 16 47
M  V30 51 1 17 48
M  V30 52 1 20 49
M  V30 53 1 25 50
M  V30 54 1 26 51
M  V30 55 1 27 52
M  V30 56 1 28 53
M  V30 END BOND
M  V30 END CTAB
M  END
>  <Dataset>  (326) 
ChEMBL_Kinases

>  <Ligand_Instance>  (326) 
nan

>  <PDB_ID>  (326) 
nan

>  <Standardized_SMILES>  (326) 
Cc1cc(O)c(-c2ccc([C@@H](C)N(C)C)cc2)c2c1[nH]c(=O)c1c(O)cccc12

>  <Name>  (326) 
nan

>  <Pocket>  (326) 
nan

>  <ATP_Site>  (326) 
nan

>  <Peripheral>  (326) 
nan

>  <Num_H_Atoms_ProtBoundConf>  (326) 
nan

>  <Num_Resolved_Atoms>  (326) 
nan

>  <Num_Not_Resolved_Atoms>  (326) 
nan

$$$$
CHEMBL4562711
     RDKit          3D

  0  0  0  0  0  0  0  0  0  0999 V3000
M  V30 BEGIN CTAB
M  V30 COUNTS 45 47 0 0 0
M  V30 BEGIN ATOM
M  V30 1 C -0.967520 -3.792729 2.676755 0
M  V30 2 C 0.016897 -3.782093 1.531177 0
M  V30 3 C -0.653448 -4.415247 0.369329 0
M  V30 4 O 1.173627 -4.505696 1.852062 0
M  V30 5 C 0.470538 -2.359099 1.310602 0
M  V30 6 C 1.528233 -2.256849 0.240152 0
M  V30 7 N -0.598076 -1.452160 0.965751 0
M  V30 8 C -0.531523 -0.068608 0.599812 0
M  V30 9 N 0.612673 0.613937 0.506070 0
M  V30 10 C 0.743927 1.897909 0.161349 0
M  V30 11 C 2.047674 2.552084 0.088756 0
M  V30 12 C 2.108640 3.881262 -0.274540 0
M  V30 13 C 3.385386 4.435580 -0.321756 0
M  V30 14 N 4.530151 3.787845 -0.046830 0
M  V30 15 C 4.418540 2.478490 0.306751 0
M  V30 16 C 3.186700 1.836017 0.382143 0
M  V30 17 N -0.381882 2.567597 -0.117934 0
M  V30 18 C -1.590157 1.970974 -0.053313 0
M  V30 19 C -2.718392 2.682631 -0.344249 0
M  V30 20 N -3.955627 2.122013 -0.291817 0
M  V30 21 C -4.060544 0.812299 0.062265 0
M  V30 22 C -2.913960 0.120002 0.349360 0
M  V30 23 C -1.656085 0.647437 0.307816 0
M  V30 24 C 1.170746 -1.955380 2.606056 0
M  V30 25 F 0.365514 -2.007730 3.706441 0
M  V30 26 F 2.262250 -2.805122 2.717724 0
M  V30 27 F 1.684285 -0.697293 2.442749 0
M  V30 28 H -1.540032 -2.873508 2.799718 0
M  V30 29 H -1.750175 -4.595839 2.522028 0
M  V30 30 H -0.445194 -4.144901 3.610947 0
M  V30 31 H -1.748920 -4.192361 0.322073 0
M  V30 32 H -0.612492 -5.527791 0.531083 0
M  V30 33 H -0.236982 -4.202624 -0.608952 0
M  V30 34 H 1.028385 -5.458174 1.618146 0
M  V30 35 H 2.043666 -1.281171 0.349604 0
M  V30 36 H 1.154135 -2.347389 -0.774610 0
M  V30 37 H 2.321763 -3.031948 0.436449 0
M  V30 38 H -1.509037 -1.934393 1.007193 0
M  V30 39 H 1.241588 4.485567 -0.514285 0
M  V30 40 H 3.462017 5.474302 -0.603243 0
M  V30 41 H 5.323770 1.912249 0.539135 0
M  V30 42 H 3.191233 0.802166 0.669051 0
M  V30 43 H -2.625425 3.736923 -0.628566 0
M  V30 44 H -5.055621 0.394447 0.095291 0
M  V30 45 H -3.092415 -0.896631 0.616404 0
M  V30 END ATOM
M  V30 BEGIN BOND
M  V30 1 1 1 2
M  V30 2 1 2 3
M  V30 3 1 2 4
M  V30 4 1 2 5
M  V30 5 1 5 6
M  V30 6 1 5 7
M  V30 7 1 7 8
M  V30 8 2 8 9
M  V30 9 1 9 10
M  V30 10 1 10 11
M  V30 11 2 11 12
M  V30 12 1 12 13
M  V30 13 2 13 14
M  V30 14 1 14 15
M  V30 15 2 15 16
M  V30 16 2 10 17
M  V30 17 1 17 18
M  V30 18 2 18 19
M  V30 19 1 19 20
M  V30 20 2 20 21
M  V30 21 1 21 22
M  V30 22 2 22 23
M  V30 23 1 5 24
M  V30 24 1 24 25
M  V30 25 1 24 26
M  V30 26 1 24 27
M  V30 27 1 23 8
M  V30 28 1 16 11
M  V30 29 1 23 18
M  V30 30 1 1 28
M  V30 31 1 1 29
M  V30 32 1 1 30
M  V30 33 1 3 31
M  V30 34 1 3 32
M  V30 35 1 3 33
M  V30 36 1 4 34
M  V30 37 1 6 35
M  V30 38 1 6 36
M  V30 39 1 6 37
M  V30 40 1 7 38
M  V30 41 1 12 39
M  V30 42 1 13 40
M  V30 43 1 15 41
M  V30 44 1 16 42
M  V30 45 1 19 43
M  V30 46 1 21 44
M  V30 47 1 22 45
M  V30 END BOND
M  V30 END CTAB
M  END
>  <Dataset>  (327) 
ChEMBL_Kinases

>  <Ligand_Instance>  (327) 
nan

>  <PDB_ID>  (327) 
nan

>  <Standardized_SMILES>  (327) 
CC(C)(O)C(C)(Nc1nc(-c2ccncc2)nc2cnccc12)C(F)(F)F

>  <Name>  (327) 
nan

>  <Pocket>  (327) 
nan

>  <ATP_Site>  (327) 
nan

>  <Peripheral>  (327) 
nan

>  <Num_H_Atoms_ProtBoundConf>  (327) 
nan

>  <Num_Resolved_Atoms>  (327) 
nan

>  <Num_Not_Resolved_Atoms>  (327) 
nan

$$$$
CHEMBL4562664
     RDKit          3D

  0  0  0  0  0  0  0  0  0  0999 V3000
M  V30 BEGIN CTAB
M  V30 COUNTS 40 44 0 0 0
M  V30 BEGIN ATOM
M  V30 1 O 1.859122 -2.349355 -4.330718 0
M  V30 2 C 2.320973 -2.564098 -3.193344 0
M  V30 3 N 3.462782 -3.307428 -2.807096 0
M  V30 4 C 3.669883 -3.327414 -1.396750 0
M  V30 5 C 4.639035 -3.928700 -0.615778 0
M  V30 6 C 4.548394 -3.760369 0.745587 0
M  V30 7 C 3.543392 -3.028385 1.333040 0
M  V30 8 C 2.616032 -2.460943 0.485766 0
M  V30 9 C 2.625046 -2.572903 -0.884060 0
M  V30 10 C 1.755774 -2.070926 -1.938416 0
M  V30 11 C 0.665235 -1.343149 -1.863334 0
M  V30 12 C -0.192255 -0.679400 -0.900317 0
M  V30 13 C 0.392405 0.208959 0.016892 0
M  V30 14 C -0.326464 0.864808 0.994771 0
M  V30 15 C -1.681579 0.608091 1.040362 0
M  V30 16 C -2.604770 1.135474 1.919716 0
M  V30 17 C -2.354760 2.088395 2.998178 0
M  V30 18 C -1.320168 2.019875 3.908247 0
M  V30 19 C -1.085373 2.905033 4.903089 0
M  V30 20 N -1.932674 3.969509 5.039644 0
M  V30 21 C -2.967766 4.060162 4.148666 0
M  V30 22 C -3.228639 3.150098 3.108621 0
M  V30 23 N -3.769602 0.567965 1.541617 0
M  V30 24 N -3.623253 -0.243557 0.524178 0
M  V30 25 C -2.317533 -0.252775 0.169956 0
M  V30 26 C -1.552865 -0.887377 -0.795167 0
M  V30 27 H 4.041365 -3.765468 -3.559395 0
M  V30 28 H 5.407319 -4.488962 -1.089692 0
M  V30 29 H 5.327806 -4.248988 1.306490 0
M  V30 30 H 3.508285 -2.920744 2.413816 0
M  V30 31 H 1.839534 -1.907376 0.981734 0
M  V30 32 H 0.151650 -1.084557 -2.785081 0
M  V30 33 H 1.457844 0.366293 -0.075158 0
M  V30 34 H 0.245027 1.517987 1.632275 0
M  V30 35 H -0.635584 1.188378 3.825361 0
M  V30 36 H -0.246279 2.791035 5.589826 0
M  V30 37 H -3.609892 4.924635 4.301005 0
M  V30 38 H -4.089189 3.358916 2.485793 0
M  V30 39 H -4.307110 -0.829000 -0.001629 0
M  V30 40 H -2.027666 -1.552184 -1.472867 0
M  V30 END ATOM
M  V30 BEGIN BOND
M  V30 1 2 1 2
M  V30 2 1 2 3
M  V30 3 1 3 4
M  V30 4 2 4 5
M  V30 5 1 5 6
M  V30 6 2 6 7
M  V30 7 1 7 8
M  V30 8 2 8 9
M  V30 9 1 9 10
M  V30 10 2 10 11 CFG=2
M  V30 11 1 11 12
M  V30 12 2 12 13
M  V30 13 1 13 14
M  V30 14 2 14 15
M  V30 15 1 15 16
M  V30 16 1 16 17
M  V30 17 2 17 18
M  V30 18 1 18 19
M  V30 19 2 19 20
M  V30 20 1 20 21
M  V30 21 2 21 22
M  V30 22 2 16 23
M  V30 23 1 23 24
M  V30 24 1 24 25
M  V30 25 2 25 26
M  V30 26 1 10 2
M  V30 27 1 26 12
M  V30 28 1 9 4
M  V30 29 1 25 15
M  V30 30 1 22 17
M  V30 31 1 3 27
M  V30 32 1 5 28
M  V30 33 1 6 29
M  V30 34 1 7 30
M  V30 35 1 8 31
M  V30 36 1 11 32
M  V30 37 1 13 33
M  V30 38 1 14 34
M  V30 39 1 18 35
M  V30 40 1 19 36
M  V30 41 1 21 37
M  V30 42 1 22 38
M  V30 43 1 24 39
M  V30 44 1 26 40
M  V30 END BOND
M  V30 END CTAB
M  END
>  <Dataset>  (328) 
ChEMBL_Kinases

>  <Ligand_Instance>  (328) 
nan

>  <PDB_ID>  (328) 
nan

>  <Standardized_SMILES>  (328) 
O=C1Nc2ccccc2C1=Cc1ccc2c(-c3ccncc3)n[nH]c2c1

>  <Name>  (328) 
nan

>  <Pocket>  (328) 
nan

>  <ATP_Site>  (328) 
nan

>  <Peripheral>  (328) 
nan

>  <Num_H_Atoms_ProtBoundConf>  (328) 
nan

>  <Num_Resolved_Atoms>  (328) 
nan

>  <Num_Not_Resolved_Atoms>  (328) 
nan

$$$$
CHEMBL4562596
     RDKit          3D

  0  0  0  0  0  0  0  0  0  0999 V3000
M  V30 BEGIN CTAB
M  V30 COUNTS 42 46 0 0 0
M  V30 BEGIN ATOM
M  V30 1 N 2.025851 -4.958995 4.198824 0
M  V30 2 C 2.077288 -4.585243 3.111566 0
M  V30 3 C 2.127777 -4.099503 1.763160 0
M  V30 4 C 2.923347 -4.813546 0.858889 0
M  V30 5 C 3.022803 -4.408756 -0.455799 0
M  V30 6 C 2.325742 -3.303207 -0.830117 0
M  V30 7 N 2.439094 -2.945079 -2.119554 0
M  V30 8 C 1.791533 -1.877322 -2.606883 0
M  V30 9 C 1.012792 -1.179889 -1.711223 0
M  V30 10 N 0.250187 -0.086953 -1.898492 0
M  V30 11 C -0.364920 0.273523 -0.720998 0
M  V30 12 C -1.202853 1.459257 -0.972464 0
M  V30 13 C -0.349754 2.690485 -1.004272 0
M  V30 14 C -0.225585 3.658133 0.111978 0
M  V30 15 S 0.943246 4.828609 -0.596546 0
M  V30 16 N 1.099913 3.914761 -2.205584 0
M  V30 17 N 0.386557 3.010768 -2.040999 0
M  V30 18 N -0.025614 -0.566290 0.267055 0
M  V30 19 C -0.419288 -0.545835 1.601970 0 CFG=2
M  V30 20 C -1.625906 0.420953 1.764279 0
M  V30 21 C -1.815217 0.291511 3.319219 0
M  V30 22 C -0.424729 0.761298 3.680567 0 CFG=2
M  V30 23 F -0.383208 2.140916 3.610024 0
M  V30 24 C 0.479487 0.121614 2.616463 0
M  V30 25 C 0.802534 -1.426278 -0.370330 0
M  V30 26 C 1.523353 -2.544598 -0.009593 0
M  V30 27 C 1.461583 -2.992820 1.283611 0
M  V30 28 H 3.472995 -5.691654 1.169570 0
M  V30 29 H 3.639564 -4.965556 -1.149449 0
M  V30 30 H 1.835349 -1.531154 -3.630759 0
M  V30 31 H -1.704895 1.421551 -2.004657 0
M  V30 32 H -2.086583 1.590319 -0.342963 0
M  V30 33 H -0.728410 3.627721 1.074378 0
M  V30 34 H -0.909814 -1.489486 2.000254 0
M  V30 35 H -2.536911 0.072011 1.352842 0
M  V30 36 H -1.264894 1.433558 1.640530 0
M  V30 37 H -1.972745 -0.764462 3.524011 0
M  V30 38 H -2.605167 0.977544 3.609823 0
M  V30 39 H -0.153025 0.496759 4.702998 0
M  V30 40 H 1.064020 -0.601996 3.204154 0
M  V30 41 H 1.057493 0.945622 2.203738 0
M  V30 42 H 0.901901 -2.550836 2.032494 0
M  V30 END ATOM
M  V30 BEGIN BOND
M  V30 1 3 1 2
M  V30 2 1 2 3
M  V30 3 2 3 4
M  V30 4 1 4 5
M  V30 5 2 5 6
M  V30 6 1 6 7
M  V30 7 2 7 8
M  V30 8 1 8 9
M  V30 9 1 9 10
M  V30 10 2 10 11
M  V30 11 1 11 12
M  V30 12 1 12 13
M  V30 13 2 13 14
M  V30 14 1 14 15
M  V30 15 1 15 16
M  V30 16 2 16 17
M  V30 17 1 11 18
M  V30 18 1 18 19
M  V30 19 1 19 20
M  V30 20 1 20 21
M  V30 21 1 21 22
M  V30 22 1 22 23
M  V30 23 1 22 24
M  V30 24 1 18 25
M  V30 25 1 25 26
M  V30 26 2 26 27
M  V30 27 1 27 3
M  V30 28 1 26 6
M  V30 29 2 25 9
M  V30 30 1 17 13
M  V30 31 1 24 19
M  V30 32 1 4 28
M  V30 33 1 5 29
M  V30 34 1 8 30
M  V30 35 1 12 31
M  V30 36 1 12 32
M  V30 37 1 14 33
M  V30 38 1 19 34 CFG=1
M  V30 39 1 20 35
M  V30 40 1 20 36
M  V30 41 1 21 37
M  V30 42 1 21 38
M  V30 43 1 22 39 CFG=1
M  V30 44 1 24 40
M  V30 45 1 24 41
M  V30 46 1 27 42
M  V30 END BOND
M  V30 END CTAB
M  END
>  <Dataset>  (329) 
ChEMBL_Kinases

>  <Ligand_Instance>  (329) 
nan

>  <PDB_ID>  (329) 
nan

>  <Standardized_SMILES>  (329) 
N#Cc1ccc2ncc3nc(Cc4csnn4)n([C@@H]4CC[C@H](F)C4)c3c2c1

>  <Name>  (329) 
nan

>  <Pocket>  (329) 
nan

>  <ATP_Site>  (329) 
nan

>  <Peripheral>  (329) 
nan

>  <Num_H_Atoms_ProtBoundConf>  (329) 
nan

>  <Num_Resolved_Atoms>  (329) 
nan

>  <Num_Not_Resolved_Atoms>  (329) 
nan

$$$$
CHEMBL4562534
     RDKit          3D

  0  0  0  0  0  0  0  0  0  0999 V3000
M  V30 BEGIN CTAB
M  V30 COUNTS 57 62 0 0 0
M  V30 BEGIN ATOM
M  V30 1 C 2.235352 -2.016929 2.269236 0
M  V30 2 C 3.319414 -3.000273 1.910211 0
M  V30 3 C 2.668355 -4.340130 1.633289 0
M  V30 4 O 4.154599 -3.157841 3.005641 0
M  V30 5 C 4.088570 -2.594873 0.684782 0
M  V30 6 C 4.751927 -1.251187 0.901510 0
M  V30 7 N 3.592901 -0.626165 0.294226 0
M  V30 8 C 2.987903 0.660046 0.355200 0
M  V30 9 C 1.851428 0.920509 -0.377848 0
M  V30 10 C 1.275720 2.172172 -0.308984 0
M  V30 11 N 0.115450 2.579617 -1.001610 0
M  V30 12 N 0.005010 3.721666 -1.692402 0
M  V30 13 C -1.205474 3.832830 -2.237201 0
M  V30 14 C -1.894811 2.698127 -1.868915 0
M  V30 15 C -3.183944 2.297174 -2.154981 0
M  V30 16 C -3.612844 1.090488 -1.642225 0
M  V30 17 C -2.811310 0.280775 -0.864538 0
M  V30 18 C -3.131071 -1.009397 -0.261110 0
M  V30 19 C -2.026339 -1.969430 -0.342503 0
M  V30 20 N -1.174054 -2.722487 -0.389911 0
M  V30 21 C -3.729550 -0.966821 1.147889 0
M  V30 22 C -4.517257 -2.160836 0.723412 0
M  V30 23 C -4.332317 -3.521920 1.162713 0
M  V30 24 C -5.657774 -2.722900 1.381541 0
M  V30 25 C -4.430836 -1.665607 -0.683043 0
M  V30 26 C -1.522166 0.716804 -0.598376 0
M  V30 27 C -1.057357 1.927876 -1.099317 0
M  V30 28 N 1.829770 3.136413 0.477418 0
M  V30 29 C 2.948210 2.836106 1.181556 0
M  V30 30 N 3.531198 1.616621 1.130677 0
M  V30 31 C 3.329530 -1.873709 -0.391155 0
M  V30 32 H 1.643766 -1.691562 1.388708 0
M  V30 33 H 1.585476 -2.421499 3.068036 0
M  V30 34 H 2.727614 -1.109258 2.675784 0
M  V30 35 H 2.095569 -4.638252 2.554044 0
M  V30 36 H 2.003428 -4.233477 0.751746 0
M  V30 37 H 3.470300 -5.060649 1.408280 0
M  V30 38 H 4.097592 -2.393576 3.622483 0
M  V30 39 H 4.777590 -3.329565 0.274644 0
M  V30 40 H 4.877474 -0.994822 1.972976 0
M  V30 41 H 5.702423 -1.093603 0.346324 0
M  V30 42 H 1.378109 0.185690 -1.014861 0
M  V30 43 H -1.568357 4.648890 -2.843888 0
M  V30 44 H -3.881508 2.864473 -2.753967 0
M  V30 45 H -4.602349 0.707119 -1.818826 0
M  V30 46 H -3.012331 -1.214233 1.950736 0
M  V30 47 H -4.281945 -0.018883 1.286860 0
M  V30 48 H -3.736508 -3.712245 2.098725 0
M  V30 49 H -4.400811 -4.389661 0.482104 0
M  V30 50 H -6.525524 -3.136594 0.818325 0
M  V30 51 H -5.892506 -2.517426 2.444501 0
M  V30 52 H -4.296640 -2.453093 -1.456544 0
M  V30 53 H -5.275121 -0.972966 -0.878302 0
M  V30 54 H -0.800089 0.173828 -0.003415 0
M  V30 55 H 3.490755 3.516175 1.847573 0
M  V30 56 H 3.820301 -1.969449 -1.376733 0
M  V30 57 H 2.267072 -2.145833 -0.499409 0
M  V30 END ATOM
M  V30 BEGIN BOND
M  V30 1 1 1 2
M  V30 2 1 2 3
M  V30 3 1 2 4
M  V30 4 1 2 5
M  V30 5 1 5 6
M  V30 6 1 6 7
M  V30 7 1 7 8
M  V30 8 2 8 9
M  V30 9 1 9 10
M  V30 10 1 10 11
M  V30 11 1 11 12
M  V30 12 2 12 13
M  V30 13 1 13 14
M  V30 14 2 14 15
M  V30 15 1 15 16
M  V30 16 2 16 17
M  V30 17 1 17 18
M  V30 18 1 18 19
M  V30 19 3 19 20
M  V30 20 1 18 21
M  V30 21 1 21 22
M  V30 22 1 22 23
M  V30 23 1 23 24
M  V30 24 1 22 25
M  V30 25 1 17 26
M  V30 26 2 26 27
M  V30 27 2 10 28
M  V30 28 1 28 29
M  V30 29 2 29 30
M  V30 30 1 7 31
M  V30 31 1 31 5
M  V30 32 1 30 8
M  V30 33 1 27 11
M  V30 34 1 27 14
M  V30 35 1 25 18
M  V30 36 1 24 22
M  V30 37 1 1 32
M  V30 38 1 1 33
M  V30 39 1 1 34
M  V30 40 1 3 35
M  V30 41 1 3 36
M  V30 42 1 3 37
M  V30 43 1 4 38
M  V30 44 1 5 39
M  V30 45 1 6 40
M  V30 46 1 6 41
M  V30 47 1 9 42
M  V30 48 1 13 43
M  V30 49 1 15 44
M  V30 50 1 16 45
M  V30 51 1 21 46
M  V30 52 1 21 47
M  V30 53 1 23 48
M  V30 54 1 23 49
M  V30 55 1 24 50
M  V30 56 1 24 51
M  V30 57 1 25 52
M  V30 58 1 25 53
M  V30 59 1 26 54
M  V30 60 1 29 55
M  V30 61 1 31 56
M  V30 62 1 31 57
M  V30 END BOND
M  V30 END CTAB
M  END
>  <Dataset>  (330) 
ChEMBL_Kinases

>  <Ligand_Instance>  (330) 
nan

>  <PDB_ID>  (330) 
nan

>  <Standardized_SMILES>  (330) 
CC(C)(O)C1CN(c2cc(-n3ncc4ccc(C5(C#N)CC6(CC6)C5)cc43)ncn2)C1

>  <Name>  (330) 
nan

>  <Pocket>  (330) 
nan

>  <ATP_Site>  (330) 
nan

>  <Peripheral>  (330) 
nan

>  <Num_H_Atoms_ProtBoundConf>  (330) 
nan

>  <Num_Resolved_Atoms>  (330) 
nan

>  <Num_Not_Resolved_Atoms>  (330) 
nan

$$$$
CHEMBL4562357
     RDKit          3D

  0  0  0  0  0  0  0  0  0  0999 V3000
M  V30 BEGIN CTAB
M  V30 COUNTS 50 53 0 0 0
M  V30 BEGIN ATOM
M  V30 1 C -0.284132 -2.931698 2.318066 0
M  V30 2 N 0.549599 -2.159760 3.187297 0
M  V30 3 C 1.753741 -1.649119 2.570753 0 CFG=2
M  V30 4 C 2.506018 -0.866414 3.622062 0
M  V30 5 C 1.931507 0.555309 3.604001 0
M  V30 6 C 2.363351 1.258407 2.321441 0
M  V30 7 C 2.630050 0.191397 1.237701 0
M  V30 8 C 1.502418 -0.782827 1.391814 0 CFG=1
M  V30 9 N 1.247267 -1.524550 0.148317 0
M  V30 10 C 2.406519 -2.349362 -0.096244 0
M  V30 11 C 0.025598 -1.269306 -0.528587 0
M  V30 12 N -0.537517 -0.047665 -0.271540 0
M  V30 13 C -1.661820 0.386676 -0.857574 0
M  V30 14 C -2.205360 1.704210 -0.534245 0
M  V30 15 C -1.558108 2.510683 0.381266 0
M  V30 16 C -2.103225 3.750866 0.661001 0
M  V30 17 N -3.231945 4.205749 0.083437 0
M  V30 18 C -3.867200 3.407036 -0.819053 0
M  V30 19 C -3.363885 2.154662 -1.136081 0
M  V30 20 N -2.296257 -0.393170 -1.749767 0
M  V30 21 C -1.831366 -1.612661 -2.076041 0
M  V30 22 C -2.426986 -2.463206 -2.962332 0
M  V30 23 N -1.908579 -3.692070 -3.237246 0
M  V30 24 C -0.760851 -4.091166 -2.611845 0
M  V30 25 C -0.171566 -3.222990 -1.721317 0
M  V30 26 C -0.675321 -1.998292 -1.439750 0
M  V30 27 H 0.259620 -3.431605 1.518448 0
M  V30 28 H -0.851888 -3.725176 2.885346 0
M  V30 29 H -1.100632 -2.248935 1.957179 0
M  V30 30 H 0.859570 -2.779583 3.968865 0
M  V30 31 H 2.466515 -2.476372 2.282102 0
M  V30 32 H 2.371306 -1.340896 4.595928 0
M  V30 33 H 3.587012 -0.819886 3.394199 0
M  V30 34 H 2.406048 1.090157 4.439222 0
M  V30 35 H 0.853439 0.556737 3.754964 0
M  V30 36 H 3.297844 1.800172 2.543145 0
M  V30 37 H 1.564537 1.946962 2.040832 0
M  V30 38 H 3.640411 -0.233409 1.407827 0
M  V30 39 H 2.516390 0.704922 0.271438 0
M  V30 40 H 0.585470 -0.155280 1.616359 0
M  V30 41 H 2.358355 -3.344680 0.362763 0
M  V30 42 H 3.360253 -1.894966 0.314045 0
M  V30 43 H 2.665279 -2.450410 -1.181637 0
M  V30 44 H -0.639913 2.159520 0.861433 0
M  V30 45 H -1.588006 4.384033 1.384921 0
M  V30 46 H -4.781185 3.811357 -1.267100 0
M  V30 47 H -3.894565 1.557941 -1.851363 0
M  V30 48 H -3.347910 -2.139672 -3.462021 0
M  V30 49 H -0.416230 -5.073513 -2.881742 0
M  V30 50 H 0.697848 -3.609596 -1.271420 0
M  V30 END ATOM
M  V30 BEGIN BOND
M  V30 1 1 1 2
M  V30 2 1 2 3
M  V30 3 1 3 4
M  V30 4 1 4 5
M  V30 5 1 5 6
M  V30 6 1 6 7
M  V30 7 1 7 8
M  V30 8 1 8 9
M  V30 9 1 9 10
M  V30 10 1 9 11
M  V30 11 2 11 12
M  V30 12 1 12 13
M  V30 13 1 13 14
M  V30 14 2 14 15
M  V30 15 1 15 16
M  V30 16 2 16 17
M  V30 17 1 17 18
M  V30 18 2 18 19
M  V30 19 2 13 20
M  V30 20 1 20 21
M  V30 21 2 21 22
M  V30 22 1 22 23
M  V30 23 2 23 24
M  V30 24 1 24 25
M  V30 25 2 25 26
M  V30 26 1 8 3
M  V30 27 1 26 11
M  V30 28 1 19 14
M  V30 29 1 26 21
M  V30 30 1 1 27
M  V30 31 1 1 28
M  V30 32 1 1 29
M  V30 33 1 2 30
M  V30 34 1 3 31 CFG=3
M  V30 35 1 4 32
M  V30 36 1 4 33
M  V30 37 1 5 34
M  V30 38 1 5 35
M  V30 39 1 6 36
M  V30 40 1 6 37
M  V30 41 1 7 38
M  V30 42 1 7 39
M  V30 43 1 8 40 CFG=1
M  V30 44 1 10 41
M  V30 45 1 10 42
M  V30 46 1 10 43
M  V30 47 1 15 44
M  V30 48 1 16 45
M  V30 49 1 18 46
M  V30 50 1 19 47
M  V30 51 1 22 48
M  V30 52 1 24 49
M  V30 53 1 25 50
M  V30 END BOND
M  V30 END CTAB
M  END
>  <Dataset>  (331) 
ChEMBL_Kinases

>  <Ligand_Instance>  (331) 
nan

>  <PDB_ID>  (331) 
nan

>  <Standardized_SMILES>  (331) 
CN[C@@H]1CCCC[C@H]1N(C)c1nc(-c2ccncc2)nc2cnccc12

>  <Name>  (331) 
nan

>  <Pocket>  (331) 
nan

>  <ATP_Site>  (331) 
nan

>  <Peripheral>  (331) 
nan

>  <Num_H_Atoms_ProtBoundConf>  (331) 
nan

>  <Num_Resolved_Atoms>  (331) 
nan

>  <Num_Not_Resolved_Atoms>  (331) 
nan

$$$$
CHEMBL4562325
     RDKit          3D

  0  0  0  0  0  0  0  0  0  0999 V3000
M  V30 BEGIN CTAB
M  V30 COUNTS 48 51 0 0 0
M  V30 BEGIN ATOM
M  V30 1 C -3.597843 -6.761531 0.478067 0
M  V30 2 N -2.517099 -6.094592 -0.232044 0
M  V30 3 C -2.425084 -4.750200 -0.405100 0
M  V30 4 C -1.289207 -4.427537 -1.118303 0
M  V30 5 C -0.791071 -3.120472 -1.533255 0
M  V30 6 C 0.576964 -2.961054 -1.630787 0
M  V30 7 N 1.030282 -1.759333 -2.012293 0
M  V30 8 C 0.230823 -0.713139 -2.301562 0
M  V30 9 N 0.821983 0.528567 -2.699841 0
M  V30 10 C 1.210534 1.614424 -1.831525 0
M  V30 11 C 1.781241 2.792589 -2.265212 0
M  V30 12 N 2.083776 3.704154 -1.326421 0
M  V30 13 C 1.830259 3.456827 -0.009506 0
M  V30 14 C 2.223079 4.554832 0.861146 0
M  V30 15 N 2.543699 5.412961 1.564441 0
M  V30 16 C 1.250969 2.270225 0.468817 0
M  V30 17 O 1.110472 2.290220 1.838636 0
M  V30 18 C 0.564291 1.231846 2.538261 0
M  V30 19 C 1.520900 0.613015 3.539588 0
M  V30 20 C 1.901737 1.603917 4.587381 0
M  V30 21 C 0.977269 2.779365 4.560842 0
M  V30 22 N -0.400301 2.439153 4.404119 0
M  V30 23 C -0.703057 1.616374 3.276721 0
M  V30 24 C 0.946152 1.344722 -0.505952 0
M  V30 25 N -1.102701 -0.887494 -2.200744 0
M  V30 26 C -1.648222 -2.062302 -1.824103 0
M  V30 27 C -0.700969 -5.652490 -1.365894 0
M  V30 28 N -1.470425 -6.631028 -0.816295 0
M  V30 29 H -4.556993 -6.225669 0.356847 0
M  V30 30 H -3.390550 -6.882202 1.563766 0
M  V30 31 H -3.723255 -7.814128 0.091477 0
M  V30 32 H -3.143681 -4.034797 -0.034295 0
M  V30 33 H 1.230664 -3.778972 -1.405620 0
M  V30 34 H 1.014684 0.719015 -3.726733 0
M  V30 35 H 1.934200 2.877209 -3.323228 0
M  V30 36 H 0.273402 0.408748 1.862194 0
M  V30 37 H 2.403031 0.186148 3.001594 0
M  V30 38 H 0.983234 -0.248718 3.995450 0
M  V30 39 H 2.947174 1.961137 4.388608 0
M  V30 40 H 1.959040 1.121683 5.588422 0
M  V30 41 H 1.070161 3.275337 5.559483 0
M  V30 42 H 1.264324 3.534036 3.810778 0
M  V30 43 H -0.896357 2.169852 5.274717 0
M  V30 44 H -1.438407 2.064881 2.587655 0
M  V30 45 H -1.161700 0.646203 3.628885 0
M  V30 46 H 0.508984 0.456581 -0.115762 0
M  V30 47 H -2.716743 -2.214427 -1.739422 0
M  V30 48 H 0.224363 -5.821149 -1.909270 0
M  V30 END ATOM
M  V30 BEGIN BOND
M  V30 1 1 1 2
M  V30 2 1 2 3
M  V30 3 2 3 4
M  V30 4 1 4 5
M  V30 5 2 5 6
M  V30 6 1 6 7
M  V30 7 2 7 8
M  V30 8 1 8 9
M  V30 9 1 9 10
M  V30 10 2 10 11
M  V30 11 1 11 12
M  V30 12 2 12 13
M  V30 13 1 13 14
M  V30 14 3 14 15
M  V30 15 1 13 16
M  V30 16 1 16 17
M  V30 17 1 17 18
M  V30 18 1 18 19
M  V30 19 1 19 20
M  V30 20 1 20 21
M  V30 21 1 21 22
M  V30 22 1 22 23
M  V30 23 2 16 24
M  V30 24 1 8 25
M  V30 25 2 25 26
M  V30 26 1 4 27
M  V30 27 2 27 28
M  V30 28 1 28 2
M  V30 29 1 26 5
M  V30 30 1 24 10
M  V30 31 1 23 18
M  V30 32 1 1 29
M  V30 33 1 1 30
M  V30 34 1 1 31
M  V30 35 1 3 32
M  V30 36 1 6 33
M  V30 37 1 9 34
M  V30 38 1 11 35
M  V30 39 1 18 36
M  V30 40 1 19 37
M  V30 41 1 19 38
M  V30 42 1 20 39
M  V30 43 1 20 40
M  V30 44 1 21 41
M  V30 45 1 21 42
M  V30 46 1 22 43
M  V30 47 1 23 44
M  V30 48 1 23 45
M  V30 49 1 24 46
M  V30 50 1 26 47
M  V30 51 1 27 48
M  V30 END BOND
M  V30 END CTAB
M  END
>  <Dataset>  (332) 
ChEMBL_Kinases

>  <Ligand_Instance>  (332) 
nan

>  <PDB_ID>  (332) 
nan

>  <Standardized_SMILES>  (332) 
Cn1cc(-c2cnc(Nc3cnc(C#N)c(OC4CCCNC4)c3)nc2)cn1

>  <Name>  (332) 
nan

>  <Pocket>  (332) 
nan

>  <ATP_Site>  (332) 
nan

>  <Peripheral>  (332) 
nan

>  <Num_H_Atoms_ProtBoundConf>  (332) 
nan

>  <Num_Resolved_Atoms>  (332) 
nan

>  <Num_Not_Resolved_Atoms>  (332) 
nan

$$$$
CHEMBL4637408
     RDKit          3D

  0  0  0  0  0  0  0  0  0  0999 V3000
M  V30 BEGIN CTAB
M  V30 COUNTS 53 56 0 0 0
M  V30 BEGIN ATOM
M  V30 1 C 0.695958 -1.922493 5.235191 0
M  V30 2 C 0.646917 -3.055667 4.194811 0
M  V30 3 C -0.858815 -3.379174 4.106805 0
M  V30 4 C 1.091321 -2.444837 2.913394 0
M  V30 5 C 2.432873 -2.138918 2.719213 0
M  V30 6 N 2.545560 -1.577330 1.482900 0
M  V30 7 N 1.352824 -1.525447 0.917184 0
M  V30 8 C 0.919349 -1.078595 -0.289024 0
M  V30 9 N 1.797128 -0.508615 -1.229570 0
M  V30 10 C 1.862971 0.890699 -1.437086 0
M  V30 11 C 2.198357 1.730179 -0.290827 0
M  V30 12 C 1.080735 2.150664 0.448907 0
M  V30 13 C 1.173561 2.956943 1.569525 0
M  V30 14 C 2.438227 3.355970 1.961695 0
M  V30 15 C 3.564592 2.968637 1.267201 0
M  V30 16 C 3.426125 2.168459 0.161510 0
M  V30 17 C -0.431237 -1.200897 -0.541703 0
M  V30 18 C -1.378739 -1.730292 0.305468 0
M  V30 19 N -2.760299 -1.835794 -0.009310 0
M  V30 20 C -3.422916 -1.432185 -1.202676 0 CFG=1
M  V30 21 C -3.279207 0.027146 -1.515327 0
M  V30 22 N -3.061161 0.203469 -2.909558 0
M  V30 23 C -2.774728 -1.075471 -3.497059 0
M  V30 24 C -3.035371 -2.128396 -2.457444 0 CFG=1
M  V30 25 O -2.001793 -3.053960 -2.323583 0
M  V30 26 N -0.845137 -2.141366 1.468533 0
M  V30 27 C 0.446579 -2.046457 1.763414 0
M  V30 28 H 1.748969 -1.758466 5.566897 0
M  V30 29 H -0.003625 -2.132850 6.060098 0
M  V30 30 H 0.340641 -1.016129 4.706574 0
M  V30 31 H 1.220166 -3.922131 4.513034 0
M  V30 32 H -1.080070 -4.135897 3.357499 0
M  V30 33 H -1.323324 -2.414583 3.780593 0
M  V30 34 H -1.274792 -3.564480 5.118430 0
M  V30 35 H 3.300454 -2.281543 3.370132 0
M  V30 36 H 2.349010 -1.259552 -1.711403 0
M  V30 37 H 0.946351 1.280337 -1.932975 0
M  V30 38 H 2.675715 1.062222 -2.202258 0
M  V30 39 H 0.052710 1.863619 0.183513 0
M  V30 40 H 0.275526 3.256311 2.112642 0
M  V30 41 H 2.536825 3.993895 2.843326 0
M  V30 42 H 4.559669 3.253270 1.535394 0
M  V30 43 H 4.249615 1.816597 -0.443030 0
M  V30 44 H -0.714912 -0.823288 -1.514856 0
M  V30 45 H -3.320931 -2.280516 0.784096 0
M  V30 46 H -4.518919 -1.637181 -1.053973 0
M  V30 47 H -4.247293 0.541717 -1.277155 0
M  V30 48 H -2.544141 0.532066 -0.852683 0
M  V30 49 H -2.353292 0.935292 -3.144031 0
M  V30 50 H -3.408677 -1.181112 -4.401518 0
M  V30 51 H -1.706478 -1.126976 -3.871133 0
M  V30 52 H -3.899550 -2.738828 -2.863613 0
M  V30 53 H -2.097252 -3.452047 -1.408582 0
M  V30 END ATOM
M  V30 BEGIN BOND
M  V30 1 1 1 2
M  V30 2 1 2 3
M  V30 3 1 2 4
M  V30 4 1 4 5
M  V30 5 2 5 6
M  V30 6 1 6 7
M  V30 7 1 7 8
M  V30 8 1 8 9
M  V30 9 1 9 10
M  V30 10 1 10 11
M  V30 11 2 11 12
M  V30 12 1 12 13
M  V30 13 2 13 14
M  V30 14 1 14 15
M  V30 15 2 15 16
M  V30 16 2 8 17
M  V30 17 1 17 18
M  V30 18 1 18 19
M  V30 19 1 19 20
M  V30 20 1 20 21
M  V30 21 1 21 22
M  V30 22 1 22 23
M  V30 23 1 23 24
M  V30 24 1 24 25
M  V30 25 2 18 26
M  V30 26 1 26 27
M  V30 27 2 27 4
M  V30 28 1 27 7
M  V30 29 1 16 11
M  V30 30 1 24 20
M  V30 31 1 1 28
M  V30 32 1 1 29
M  V30 33 1 1 30
M  V30 34 1 2 31
M  V30 35 1 3 32
M  V30 36 1 3 33
M  V30 37 1 3 34
M  V30 38 1 5 35
M  V30 39 1 9 36
M  V30 40 1 10 37
M  V30 41 1 10 38
M  V30 42 1 12 39
M  V30 43 1 13 40
M  V30 44 1 14 41
M  V30 45 1 15 42
M  V30 46 1 16 43
M  V30 47 1 17 44
M  V30 48 1 19 45
M  V30 49 1 20 46 CFG=1
M  V30 50 1 21 47
M  V30 51 1 21 48
M  V30 52 1 22 49
M  V30 53 1 23 50
M  V30 54 1 23 51
M  V30 55 1 24 52 CFG=3
M  V30 56 1 25 53
M  V30 END BOND
M  V30 END CTAB
M  END
>  <Dataset>  (333) 
ChEMBL_Kinases

>  <Ligand_Instance>  (333) 
nan

>  <PDB_ID>  (333) 
nan

>  <Standardized_SMILES>  (333) 
CC(C)c1cnn2c(NCc3ccccc3)cc(N[C@H]3CNC[C@H]3O)nc12

>  <Name>  (333) 
nan

>  <Pocket>  (333) 
nan

>  <ATP_Site>  (333) 
nan

>  <Peripheral>  (333) 
nan

>  <Num_H_Atoms_ProtBoundConf>  (333) 
nan

>  <Num_Resolved_Atoms>  (333) 
nan

>  <Num_Not_Resolved_Atoms>  (333) 
nan

$$$$
CHEMBL4562269
     RDKit          3D

  0  0  0  0  0  0  0  0  0  0999 V3000
M  V30 BEGIN CTAB
M  V30 COUNTS 45 48 0 0 0
M  V30 BEGIN ATOM
M  V30 1 C -1.872999 -1.708279 2.731765 0
M  V30 2 C -0.685966 -1.847322 1.743828 0 CFG=1
M  V30 3 C 0.237119 -2.824011 2.421606 0
M  V30 4 C 1.514214 -3.110719 1.746387 0
M  V30 5 C 2.496343 -1.983338 1.637234 0
M  V30 6 O 2.017157 -0.904836 0.924067 0
M  V30 7 C 2.760216 0.230581 0.658421 0
M  V30 8 C 4.065633 0.052696 0.261667 0
M  V30 9 C 4.789096 1.189500 -0.006617 0
M  V30 10 F 6.076210 1.015194 -0.398629 0
M  V30 11 C 4.379974 2.500550 0.068077 0
M  V30 12 C 3.067688 2.636699 0.468911 0
M  V30 13 C 2.280242 1.551439 0.757231 0
M  V30 14 C 0.913974 1.776117 1.209299 0
M  V30 15 O 0.523635 1.468538 0.061501 0
M  V30 16 N -0.473841 1.831015 1.077865 0
M  V30 17 C -1.604219 1.646993 0.255667 0
M  V30 18 C -2.561328 2.398918 -0.335096 0
M  V30 19 C -3.475101 1.671862 -1.063318 0
M  V30 20 C -3.388121 0.304881 -1.156315 0
M  V30 21 C -2.390049 -0.372511 -0.527474 0
M  V30 22 N -1.508466 0.323416 0.173793 0
M  V30 23 C -1.992357 -1.735578 -0.395576 0
M  V30 24 N -2.365195 -2.602845 -1.347837 0
M  V30 25 N -1.903884 -3.824327 -1.049130 0
M  V30 26 C -1.243592 -3.663722 0.110249 0
M  V30 27 N -1.289657 -2.368663 0.529649 0
M  V30 28 H -2.378054 -0.762461 2.567144 0
M  V30 29 H -2.493667 -2.609926 2.566219 0
M  V30 30 H -1.464040 -1.777426 3.778356 0
M  V30 31 H -0.175530 -0.900538 1.639553 0
M  V30 32 H -0.309445 -3.815088 2.543188 0
M  V30 33 H 0.385050 -2.453133 3.476794 0
M  V30 34 H 1.296847 -3.531697 0.727618 0
M  V30 35 H 2.018856 -3.957718 2.308291 0
M  V30 36 H 3.433408 -2.375091 1.138850 0
M  V30 37 H 2.780529 -1.716977 2.697971 0
M  V30 38 H 4.508816 -0.912589 0.162425 0
M  V30 39 H 4.888965 3.404628 -0.125389 0
M  V30 40 H 2.438361 3.502467 0.603028 0
M  V30 41 H -1.013023 2.176982 1.899038 0
M  V30 42 H -2.356789 3.392479 -0.067388 0
M  V30 43 H -4.239352 2.249438 -1.538200 0
M  V30 44 H -4.050871 -0.337899 -1.696797 0
M  V30 45 H -0.807954 -4.600705 0.482218 0
M  V30 END ATOM
M  V30 BEGIN BOND
M  V30 1 1 1 2
M  V30 2 1 2 3
M  V30 3 1 3 4
M  V30 4 1 4 5
M  V30 5 1 5 6
M  V30 6 1 6 7
M  V30 7 2 7 8
M  V30 8 1 8 9
M  V30 9 1 9 10
M  V30 10 2 9 11
M  V30 11 1 11 12
M  V30 12 2 12 13
M  V30 13 1 13 14
M  V30 14 2 14 15
M  V30 15 1 14 16
M  V30 16 1 16 17
M  V30 17 1 17 18
M  V30 18 2 18 19
M  V30 19 1 19 20
M  V30 20 2 20 21
M  V30 21 1 21 22
M  V30 22 1 21 23
M  V30 23 2 23 24
M  V30 24 1 24 25
M  V30 25 2 25 26
M  V30 26 1 26 27
M  V30 27 1 27 2
M  V30 28 1 13 7
M  V30 29 2 22 17
M  V30 30 1 27 23
M  V30 31 1 1 28
M  V30 32 1 1 29
M  V30 33 1 1 30
M  V30 34 1 2 31 CFG=3
M  V30 35 1 3 32
M  V30 36 1 3 33
M  V30 37 1 4 34
M  V30 38 1 4 35
M  V30 39 1 5 36
M  V30 40 1 5 37
M  V30 41 1 8 38
M  V30 42 1 11 39
M  V30 43 1 12 40
M  V30 44 1 16 41
M  V30 45 1 18 42
M  V30 46 1 19 43
M  V30 47 1 20 44
M  V30 48 1 26 45
M  V30 END BOND
M  V30 END CTAB
M  END
>  <Dataset>  (334) 
ChEMBL_Kinases

>  <Ligand_Instance>  (334) 
nan

>  <PDB_ID>  (334) 
nan

>  <Standardized_SMILES>  (334) 
C[C@H]1CCCOc2cc(F)ccc2C(=O)Nc2cccc(n2)-c2nncn21

>  <Name>  (334) 
nan

>  <Pocket>  (334) 
nan

>  <ATP_Site>  (334) 
nan

>  <Peripheral>  (334) 
nan

>  <Num_H_Atoms_ProtBoundConf>  (334) 
nan

>  <Num_Resolved_Atoms>  (334) 
nan

>  <Num_Not_Resolved_Atoms>  (334) 
nan

$$$$
CHEMBL4562217
     RDKit          3D

  0  0  0  0  0  0  0  0  0  0999 V3000
M  V30 BEGIN CTAB
M  V30 COUNTS 50 54 0 0 0
M  V30 BEGIN ATOM
M  V30 1 C -1.165253 -9.594465 -1.843216 0
M  V30 2 N -0.585124 -8.330689 -1.421963 0
M  V30 3 C -0.673693 -7.141153 -2.045496 0
M  V30 4 C 0.017546 -6.173760 -1.325742 0
M  V30 5 C 0.217501 -4.750071 -1.580576 0
M  V30 6 C 0.345198 -3.923399 -0.457352 0
M  V30 7 N 0.534493 -2.581762 -0.633256 0
M  V30 8 C 0.594563 -2.079943 -1.895504 0
M  V30 9 C 0.774481 -0.787005 -2.357691 0
M  V30 10 C 0.947005 0.371786 -1.485368 0
M  V30 11 C 1.978278 1.269235 -1.838531 0
M  V30 12 S 1.858840 2.590994 -0.481547 0
M  V30 13 C 0.530229 1.808240 0.318151 0
M  V30 14 C -0.166412 2.281499 1.553763 0
M  V30 15 O -1.122506 1.636071 2.053148 0
M  V30 16 N 0.307118 3.481865 2.120267 0
M  V30 17 C -0.356559 3.955433 3.318587 0 CFG=2
M  V30 18 C -0.797883 5.392290 3.145691 0
M  V30 19 C -0.832164 5.963373 4.528216 0
M  V30 20 C -0.273536 4.898718 5.444471 0
M  V30 21 C 0.623383 4.096567 4.491506 0 CFG=1
M  V30 22 N 0.925045 2.814252 5.072763 0
M  V30 23 C 0.245035 0.704551 -0.373900 0
M  V30 24 C 0.757747 -0.817425 -3.736909 0
M  V30 25 N 0.568533 -2.125079 -4.079249 0
M  V30 26 N 0.472609 -2.868251 -2.983906 0
M  V30 27 C 0.282780 -4.210583 -2.856581 0
M  V30 28 C 0.520979 -6.875764 -0.232569 0
M  V30 29 N 0.140839 -8.176563 -0.317449 0
M  V30 30 H -1.955246 -9.843867 -1.085254 0
M  V30 31 H -1.706482 -9.415642 -2.815751 0
M  V30 32 H -0.436103 -10.404619 -1.964746 0
M  V30 33 H -1.198434 -6.925113 -2.976266 0
M  V30 34 H 0.300099 -4.304954 0.571274 0
M  V30 35 H 2.698931 1.216794 -2.712595 0
M  V30 36 H 1.099083 4.064022 1.750566 0
M  V30 37 H -1.157920 3.262274 3.595484 0
M  V30 38 H 0.015654 5.910201 2.566812 0
M  V30 39 H -1.763967 5.487057 2.611828 0
M  V30 40 H -0.169189 6.852989 4.627426 0
M  V30 41 H -1.827813 6.289910 4.863622 0
M  V30 42 H -1.047774 4.193715 5.812131 0
M  V30 43 H 0.358336 5.264636 6.250443 0
M  V30 44 H 1.486210 4.678249 4.159673 0
M  V30 45 H 0.109332 2.559193 5.704583 0
M  V30 46 H 1.819364 2.918267 5.625170 0
M  V30 47 H -0.572080 0.033101 -0.057523 0
M  V30 48 H 0.878624 0.069040 -4.320437 0
M  V30 49 H 0.180203 -4.877018 -3.717191 0
M  V30 50 H 1.121622 -6.498632 0.580256 0
M  V30 END ATOM
M  V30 BEGIN BOND
M  V30 1 1 1 2
M  V30 2 1 2 3
M  V30 3 2 3 4
M  V30 4 1 4 5
M  V30 5 1 5 6
M  V30 6 2 6 7
M  V30 7 1 7 8
M  V30 8 2 8 9
M  V30 9 1 9 10
M  V30 10 2 10 11
M  V30 11 1 11 12
M  V30 12 1 12 13
M  V30 13 1 13 14
M  V30 14 2 14 15
M  V30 15 1 14 16
M  V30 16 1 16 17
M  V30 17 1 17 18
M  V30 18 1 18 19
M  V30 19 1 19 20
M  V30 20 1 20 21
M  V30 21 1 21 22
M  V30 22 2 13 23
M  V30 23 1 9 24
M  V30 24 2 24 25
M  V30 25 1 25 26
M  V30 26 1 26 27
M  V30 27 1 4 28
M  V30 28 2 28 29
M  V30 29 1 29 2
M  V30 30 2 27 5
M  V30 31 1 26 8
M  V30 32 1 23 10
M  V30 33 1 21 17
M  V30 34 1 1 30
M  V30 35 1 1 31
M  V30 36 1 1 32
M  V30 37 1 3 33
M  V30 38 1 6 34
M  V30 39 1 11 35
M  V30 40 1 16 36
M  V30 41 1 17 37 CFG=1
M  V30 42 1 18 38
M  V30 43 1 18 39
M  V30 44 1 19 40
M  V30 45 1 19 41
M  V30 46 1 20 42
M  V30 47 1 20 43
M  V30 48 1 21 44 CFG=3
M  V30 49 1 22 45
M  V30 50 1 22 46
M  V30 51 1 23 47
M  V30 52 1 24 48
M  V30 53 1 27 49
M  V30 54 1 28 50
M  V30 END BOND
M  V30 END CTAB
M  END
>  <Dataset>  (335) 
ChEMBL_Kinases

>  <Ligand_Instance>  (335) 
nan

>  <PDB_ID>  (335) 
nan

>  <Standardized_SMILES>  (335) 
Cn1cc(-c2cnc3c(-c4csc(C(=O)N[C@@H]5CCC[C@H]5N)c4)cnn3c2)cn1

>  <Name>  (335) 
nan

>  <Pocket>  (335) 
nan

>  <ATP_Site>  (335) 
nan

>  <Peripheral>  (335) 
nan

>  <Num_H_Atoms_ProtBoundConf>  (335) 
nan

>  <Num_Resolved_Atoms>  (335) 
nan

>  <Num_Not_Resolved_Atoms>  (335) 
nan

$$$$
CHEMBL4562948
     RDKit          3D

  0  0  0  0  0  0  0  0  0  0999 V3000
M  V30 BEGIN CTAB
M  V30 COUNTS 42 44 0 0 0
M  V30 BEGIN ATOM
M  V30 1 C 2.671354 -3.741496 0.883640 0
M  V30 2 C 1.627898 -2.867737 0.172262 0
M  V30 3 O 2.167786 -1.595056 0.082529 0
M  V30 4 C 0.334971 -2.929081 0.947819 0
M  V30 5 C 0.625545 -2.490621 2.374119 0
M  V30 6 C -0.109491 -4.384050 0.931541 0
M  V30 7 N -0.659458 -2.118149 0.329431 0
M  V30 8 C -0.649662 -0.701850 0.243432 0
M  V30 9 N 0.300998 0.085145 0.761759 0
M  V30 10 C 0.345205 1.417184 0.718277 0
M  V30 11 C 1.437263 2.173680 1.321886 0
M  V30 12 C 2.456281 1.512900 1.957434 0
M  V30 13 C 3.506075 2.192740 2.540402 0
M  V30 14 N 3.513932 3.552250 2.473319 0
M  V30 15 C 2.507421 4.220787 1.844735 0
M  V30 16 C 1.446228 3.549363 1.254602 0
M  V30 17 N -0.661824 2.083301 0.090946 0
M  V30 18 C -1.688112 1.384842 -0.476527 0
M  V30 19 C -2.694761 2.083387 -1.105587 0
M  V30 20 N -3.715074 1.402236 -1.670751 0
M  V30 21 C -3.748266 0.036973 -1.619114 0
M  V30 22 C -2.715055 -0.613253 -0.976930 0
M  V30 23 C -1.650132 0.011094 -0.382506 0
M  V30 24 H 3.670477 -3.268016 0.801956 0
M  V30 25 H 2.355744 -3.826338 1.924592 0
M  V30 26 H 2.756189 -4.729069 0.374712 0
M  V30 27 H 1.508767 -3.282605 -0.854139 0
M  V30 28 H 2.933482 -1.483658 0.699248 0
M  V30 29 H 0.678458 -3.402837 2.999316 0
M  V30 30 H 1.614955 -1.997314 2.428901 0
M  V30 31 H -0.109925 -1.759165 2.740987 0
M  V30 32 H -0.639172 -4.643556 0.008336 0
M  V30 33 H 0.739365 -5.086022 1.043588 0
M  V30 34 H -0.751748 -4.563574 1.840479 0
M  V30 35 H -1.453544 -2.637727 -0.089422 0
M  V30 36 H 2.522659 0.454440 2.052507 0
M  V30 37 H 4.322362 1.713178 3.046889 0
M  V30 38 H 2.524601 5.308371 1.797499 0
M  V30 39 H 0.640190 4.096001 0.750615 0
M  V30 40 H -2.667519 3.165329 -1.145965 0
M  V30 41 H -4.591614 -0.448565 -2.090310 0
M  V30 42 H -2.837958 -1.666006 -0.994796 0
M  V30 END ATOM
M  V30 BEGIN BOND
M  V30 1 1 1 2
M  V30 2 1 2 3
M  V30 3 1 2 4
M  V30 4 1 4 5
M  V30 5 1 4 6
M  V30 6 1 4 7
M  V30 7 1 7 8
M  V30 8 2 8 9
M  V30 9 1 9 10
M  V30 10 1 10 11
M  V30 11 2 11 12
M  V30 12 1 12 13
M  V30 13 2 13 14
M  V30 14 1 14 15
M  V30 15 2 15 16
M  V30 16 2 10 17
M  V30 17 1 17 18
M  V30 18 2 18 19
M  V30 19 1 19 20
M  V30 20 2 20 21
M  V30 21 1 21 22
M  V30 22 2 22 23
M  V30 23 1 23 8
M  V30 24 1 16 11
M  V30 25 1 23 18
M  V30 26 1 1 24
M  V30 27 1 1 25
M  V30 28 1 1 26
M  V30 29 1 2 27
M  V30 30 1 3 28
M  V30 31 1 5 29
M  V30 32 1 5 30
M  V30 33 1 5 31
M  V30 34 1 6 32
M  V30 35 1 6 33
M  V30 36 1 6 34
M  V30 37 1 7 35
M  V30 38 1 12 36
M  V30 39 1 13 37
M  V30 40 1 15 38
M  V30 41 1 16 39
M  V30 42 1 19 40
M  V30 43 1 21 41
M  V30 44 1 22 42
M  V30 END BOND
M  V30 END CTAB
M  END
>  <Dataset>  (336) 
ChEMBL_Kinases

>  <Ligand_Instance>  (336) 
nan

>  <PDB_ID>  (336) 
nan

>  <Standardized_SMILES>  (336) 
CC(O)C(C)(C)Nc1nc(-c2ccncc2)nc2cnccc12

>  <Name>  (336) 
nan

>  <Pocket>  (336) 
nan

>  <ATP_Site>  (336) 
nan

>  <Peripheral>  (336) 
nan

>  <Num_H_Atoms_ProtBoundConf>  (336) 
nan

>  <Num_Resolved_Atoms>  (336) 
nan

>  <Num_Not_Resolved_Atoms>  (336) 
nan

$$$$
CHEMBL4565615
     RDKit          3D

  0  0  0  0  0  0  0  0  0  0999 V3000
M  V30 BEGIN CTAB
M  V30 COUNTS 45 48 0 0 0
M  V30 BEGIN ATOM
M  V30 1 C 0.713927 -3.938884 1.353225 0
M  V30 2 C 0.079440 -2.609826 1.113509 0 CFG=1
M  V30 3 C 0.901839 -1.746254 0.240892 0
M  V30 4 C 1.359066 -2.205959 -1.094339 0
M  V30 5 C 1.958904 -0.914423 -1.715505 0
M  V30 6 N 2.975283 -0.314028 -0.923721 0
M  V30 7 C 4.232356 -0.818439 -1.045338 0
M  V30 8 N 5.109431 -0.172046 -0.261573 0
M  V30 9 N 4.378345 0.744250 0.351302 0
M  V30 10 C 3.072610 0.665361 -0.046464 0
M  V30 11 C 2.326542 1.691559 0.668408 0
M  V30 12 C 2.508728 3.049771 0.684248 0
M  V30 13 C 1.694106 3.855941 1.446925 0
M  V30 14 C 0.691739 3.345802 2.204011 0
M  V30 15 C 0.581006 1.987876 2.128272 0
M  V30 16 N 1.349893 1.184609 1.403203 0
M  V30 17 N -0.234863 0.958119 2.661136 0
M  V30 18 C -1.293764 0.187326 2.211805 0
M  V30 19 O -1.089316 0.938559 1.238541 0
M  V30 20 C -2.394478 -0.613929 1.744775 0
M  V30 21 C -3.581234 -0.012172 2.076193 0
M  V30 22 C -4.797985 -0.587311 1.758140 0
M  V30 23 C -4.666253 -1.784447 1.096334 0
M  V30 24 C -3.469744 -2.381452 0.765697 0
M  V30 25 C -2.259591 -1.810162 1.081470 0
M  V30 26 O -1.221197 -2.583571 0.647536 0
M  V30 27 H 1.819844 -3.854902 1.324488 0
M  V30 28 H 0.365505 -4.619960 0.522827 0
M  V30 29 H 0.361961 -4.346172 2.344657 0
M  V30 30 H 0.106760 -2.050962 2.135428 0
M  V30 31 H 0.238341 -0.863608 -0.016028 0
M  V30 32 H 1.809198 -1.427449 0.815264 0
M  V30 33 H 2.084100 -3.022806 -1.106524 0
M  V30 34 H 0.460396 -2.421202 -1.708191 0
M  V30 35 H 2.192942 -1.163992 -2.744915 0
M  V30 36 H 1.052320 -0.235292 -1.783600 0
M  V30 37 H 4.738820 -1.613425 -1.609067 0
M  V30 38 H 3.308940 3.414976 0.081065 0
M  V30 39 H 1.766765 4.911268 1.514285 0
M  V30 40 H -0.084667 3.569945 2.878065 0
M  V30 41 H 0.198654 0.978113 3.599567 0
M  V30 42 H -3.526782 0.944233 2.580471 0
M  V30 43 H -5.742512 -0.142267 2.004121 0
M  V30 44 H -5.637107 -2.227209 0.852263 0
M  V30 45 H -3.609432 -3.318563 0.247289 0
M  V30 END ATOM
M  V30 BEGIN BOND
M  V30 1 1 1 2
M  V30 2 1 2 3
M  V30 3 1 3 4
M  V30 4 1 4 5
M  V30 5 1 5 6
M  V30 6 1 6 7
M  V30 7 2 7 8
M  V30 8 1 8 9
M  V30 9 2 9 10
M  V30 10 1 10 11
M  V30 11 1 11 12
M  V30 12 2 12 13
M  V30 13 1 13 14
M  V30 14 2 14 15
M  V30 15 1 15 16
M  V30 16 1 15 17
M  V30 17 1 17 18
M  V30 18 2 18 19
M  V30 19 1 18 20
M  V30 20 2 20 21
M  V30 21 1 21 22
M  V30 22 2 22 23
M  V30 23 1 23 24
M  V30 24 2 24 25
M  V30 25 1 25 26
M  V30 26 1 26 2
M  V30 27 1 10 6
M  V30 28 2 16 11
M  V30 29 1 25 20
M  V30 30 1 1 27
M  V30 31 1 1 28
M  V30 32 1 1 29
M  V30 33 1 2 30 CFG=1
M  V30 34 1 3 31
M  V30 35 1 3 32
M  V30 36 1 4 33
M  V30 37 1 4 34
M  V30 38 1 5 35
M  V30 39 1 5 36
M  V30 40 1 7 37
M  V30 41 1 12 38
M  V30 42 1 13 39
M  V30 43 1 14 40
M  V30 44 1 17 41
M  V30 45 1 21 42
M  V30 46 1 22 43
M  V30 47 1 23 44
M  V30 48 1 24 45
M  V30 END BOND
M  V30 END CTAB
M  END
>  <Dataset>  (337) 
ChEMBL_Kinases

>  <Ligand_Instance>  (337) 
nan

>  <PDB_ID>  (337) 
nan

>  <Standardized_SMILES>  (337) 
C[C@H]1CCCn2cnnc2-c2cccc(n2)NC(=O)c2ccccc2O1

>  <Name>  (337) 
nan

>  <Pocket>  (337) 
nan

>  <ATP_Site>  (337) 
nan

>  <Peripheral>  (337) 
nan

>  <Num_H_Atoms_ProtBoundConf>  (337) 
nan

>  <Num_Resolved_Atoms>  (337) 
nan

>  <Num_Not_Resolved_Atoms>  (337) 
nan

$$$$
CHEMBL4636506
     RDKit          3D

  0  0  0  0  0  0  0  0  0  0999 V3000
M  V30 BEGIN CTAB
M  V30 COUNTS 50 53 0 0 0
M  V30 BEGIN ATOM
M  V30 1 C -0.555439 0.173835 5.286593 0
M  V30 2 O -0.109633 0.268606 3.950194 0
M  V30 3 C 1.248642 0.735278 3.739546 0
M  V30 4 N 2.397959 1.145881 4.183153 0
M  V30 5 N 3.233354 1.416882 3.189714 0
M  V30 6 C 4.438672 1.863438 3.749489 0
M  V30 7 C 4.536575 2.918054 4.698654 0
M  V30 8 C 5.797774 3.190571 5.094232 0
M  V30 9 N 6.876565 2.564102 4.672574 0
M  V30 10 C 6.900860 1.576663 3.801467 0
M  V30 11 C 5.627644 1.240228 3.343510 0
M  V30 12 C 2.453818 1.122486 2.106398 0
M  V30 13 C 1.057984 0.635747 2.337847 0
M  V30 14 C 0.867992 0.536138 0.922825 0
M  V30 15 O -0.329114 0.180493 1.291445 0
M  V30 16 N 0.991276 0.536367 -0.476074 0
M  V30 17 C -0.257353 0.175203 -0.984613 0
M  V30 18 C -1.199740 1.109128 -1.532135 0
M  V30 19 C -2.431817 0.761939 -1.986365 0
M  V30 20 C -2.727737 -0.575056 -1.884655 0
M  V30 21 C -1.900643 -1.556132 -1.378352 0
M  V30 22 C -2.220297 -2.941425 -1.261019 0
M  V30 23 N -2.001583 -3.444923 -0.036381 0
M  V30 24 N -2.271679 -4.664998 0.134690 0
M  V30 25 C -2.743706 -5.168829 -1.067307 0
M  V30 26 N -2.656068 -4.021739 -1.803812 0
M  V30 27 C -3.083862 -3.989156 -3.194502 0
M  V30 28 C -4.608060 -3.782432 -3.249624 0
M  V30 29 C -2.354940 -3.061746 -4.088249 0
M  V30 30 N -0.853116 -0.962910 -1.042880 0
M  V30 31 H -0.011815 -0.586643 5.867979 0
M  V30 32 H -1.611348 -0.130605 5.212998 0
M  V30 33 H -0.462760 1.171942 5.796980 0
M  V30 34 H 3.542830 3.286006 4.901795 0
M  V30 35 H 5.734323 4.008554 5.823601 0
M  V30 36 H 7.724364 1.014423 3.405803 0
M  V30 37 H 5.556568 0.427530 2.603288 0
M  V30 38 H 3.271122 1.391163 1.342695 0
M  V30 39 H 1.973686 0.806103 -0.463120 0
M  V30 40 H -0.839965 2.149575 -1.553473 0
M  V30 41 H -3.106655 1.535450 -2.396617 0
M  V30 42 H -3.731708 -0.864193 -2.252740 0
M  V30 43 H -3.053111 -6.158872 -1.226739 0
M  V30 44 H -2.932953 -5.029596 -3.603020 0
M  V30 45 H -4.806066 -2.986266 -2.489823 0
M  V30 46 H -5.075272 -4.737458 -2.919045 0
M  V30 47 H -4.989544 -3.507801 -4.238664 0
M  V30 48 H -1.374718 -2.713593 -3.675256 0
M  V30 49 H -2.979257 -2.164047 -4.402655 0
M  V30 50 H -2.050528 -3.534803 -5.081085 0
M  V30 END ATOM
M  V30 BEGIN BOND
M  V30 1 1 1 2
M  V30 2 1 2 3
M  V30 3 2 3 4
M  V30 4 1 4 5
M  V30 5 1 5 6
M  V30 6 2 6 7
M  V30 7 1 7 8
M  V30 8 2 8 9
M  V30 9 1 9 10
M  V30 10 2 10 11
M  V30 11 1 5 12
M  V30 12 2 12 13
M  V30 13 1 13 14
M  V30 14 2 14 15
M  V30 15 1 14 16
M  V30 16 1 16 17
M  V30 17 2 17 18
M  V30 18 1 18 19
M  V30 19 2 19 20
M  V30 20 1 20 21
M  V30 21 1 21 22
M  V30 22 2 22 23
M  V30 23 1 23 24
M  V30 24 2 24 25
M  V30 25 1 25 26
M  V30 26 1 26 27
M  V30 27 1 27 28
M  V30 28 1 27 29
M  V30 29 2 21 30
M  V30 30 1 13 3
M  V30 31 1 30 17
M  V30 32 1 11 6
M  V30 33 1 26 22
M  V30 34 1 1 31
M  V30 35 1 1 32
M  V30 36 1 1 33
M  V30 37 1 7 34
M  V30 38 1 8 35
M  V30 39 1 10 36
M  V30 40 1 11 37
M  V30 41 1 12 38
M  V30 42 1 16 39
M  V30 43 1 18 40
M  V30 44 1 19 41
M  V30 45 1 20 42
M  V30 46 1 25 43
M  V30 47 1 27 44
M  V30 48 1 28 45
M  V30 49 1 28 46
M  V30 50 1 28 47
M  V30 51 1 29 48
M  V30 52 1 29 49
M  V30 53 1 29 50
M  V30 END BOND
M  V30 END CTAB
M  END
>  <Dataset>  (338) 
ChEMBL_Kinases

>  <Ligand_Instance>  (338) 
nan

>  <PDB_ID>  (338) 
nan

>  <Standardized_SMILES>  (338) 
COc1nn(-c2ccncc2)cc1C(=O)Nc1cccc(-c2nncn2C(C)C)n1

>  <Name>  (338) 
nan

>  <Pocket>  (338) 
nan

>  <ATP_Site>  (338) 
nan

>  <Peripheral>  (338) 
nan

>  <Num_H_Atoms_ProtBoundConf>  (338) 
nan

>  <Num_Resolved_Atoms>  (338) 
nan

>  <Num_Not_Resolved_Atoms>  (338) 
nan

$$$$
CHEMBL4565547
     RDKit          3D

  0  0  0  0  0  0  0  0  0  0999 V3000
M  V30 BEGIN CTAB
M  V30 COUNTS 58 60 0 0 0
M  V30 BEGIN ATOM
M  V30 1 C 1.572815 -1.289426 0.208531 0
M  V30 2 C 2.123439 -0.907993 1.532420 0
M  V30 3 C 3.058597 -2.043286 2.041046 0
M  V30 4 C 2.959419 0.322810 1.604543 0
M  V30 5 N 2.374229 1.563024 1.237249 0
M  V30 6 C 1.825197 2.139173 0.085473 0
M  V30 7 O 1.795088 1.475877 -0.971718 0
M  V30 8 O 1.295931 3.403566 -0.010317 0
M  V30 9 C 0.754013 3.931506 -1.204327 0
M  V30 10 C 1.704011 4.008958 -2.348203 0
M  V30 11 C 0.087253 5.249818 -1.007230 0
M  V30 12 C -0.348198 2.949893 -1.627276 0
M  V30 13 C 1.006774 -0.835791 2.547800 0
M  V30 14 N 0.273347 -2.013861 2.793004 0
M  V30 15 C -0.683284 -2.797372 2.143656 0
M  V30 16 N -1.196213 -2.491359 0.944630 0
M  V30 17 C -2.123721 -3.196389 0.296881 0
M  V30 18 C -2.630507 -2.793470 -1.008321 0
M  V30 19 C -3.582477 -3.528087 -1.662177 0
M  V30 20 C -4.036797 -3.115521 -2.894447 0
M  V30 21 N -3.588395 -2.002113 -3.511791 0
M  V30 22 C -2.651078 -1.266179 -2.883200 0
M  V30 23 C -2.178374 -1.657348 -1.646992 0
M  V30 24 N -2.610045 -4.315441 0.862618 0
M  V30 25 C -2.153079 -4.716284 2.085647 0
M  V30 26 C -2.642442 -5.857212 2.672019 0
M  V30 27 N -2.226105 -6.296789 3.875197 0
M  V30 28 C -1.275140 -5.560626 4.523078 0
M  V30 29 C -0.801627 -4.419435 3.910812 0
M  V30 30 C -1.197145 -3.947689 2.702545 0
M  V30 31 H 1.454281 -2.403340 0.234844 0
M  V30 32 H 2.289267 -1.141513 -0.633815 0
M  V30 33 H 0.659585 -0.755702 -0.046269 0
M  V30 34 H 3.979789 -2.091514 1.420961 0
M  V30 35 H 3.338612 -1.780769 3.079200 0
M  V30 36 H 2.551927 -3.009757 1.929376 0
M  V30 37 H 3.868162 0.203517 0.913564 0
M  V30 38 H 3.443320 0.356323 2.608816 0
M  V30 39 H 2.327388 2.263686 2.040027 0
M  V30 40 H 1.262949 4.720042 -3.079608 0
M  V30 41 H 2.694191 4.452447 -2.086639 0
M  V30 42 H 1.802808 3.046591 -2.893596 0
M  V30 43 H 0.814917 6.059915 -1.170797 0
M  V30 44 H -0.397347 5.268901 -0.018010 0
M  V30 45 H -0.699444 5.347037 -1.794342 0
M  V30 46 H -0.011876 2.304677 -2.461685 0
M  V30 47 H -0.636700 2.271592 -0.798055 0
M  V30 48 H -1.276387 3.472575 -1.923960 0
M  V30 49 H 1.432448 -0.365978 3.447639 0
M  V30 50 H 0.306227 -0.029127 2.145058 0
M  V30 51 H 0.579545 -2.342920 3.733525 0
M  V30 52 H -3.957444 -4.422647 -1.190013 0
M  V30 53 H -4.784165 -3.732922 -3.358718 0
M  V30 54 H -2.329953 -0.386688 -3.424301 0
M  V30 55 H -1.427366 -1.021792 -1.198429 0
M  V30 56 H -3.389826 -6.412274 2.134416 0
M  V30 57 H -0.989391 -5.962484 5.469726 0
M  V30 58 H -0.066394 -3.938682 4.517198 0
M  V30 END ATOM
M  V30 BEGIN BOND
M  V30 1 1 1 2
M  V30 2 1 2 3
M  V30 3 1 2 4
M  V30 4 1 4 5
M  V30 5 1 5 6
M  V30 6 2 6 7
M  V30 7 1 6 8
M  V30 8 1 8 9
M  V30 9 1 9 10
M  V30 10 1 9 11
M  V30 11 1 9 12
M  V30 12 1 2 13
M  V30 13 1 13 14
M  V30 14 1 14 15
M  V30 15 2 15 16
M  V30 16 1 16 17
M  V30 17 1 17 18
M  V30 18 2 18 19
M  V30 19 1 19 20
M  V30 20 2 20 21
M  V30 21 1 21 22
M  V30 22 2 22 23
M  V30 23 2 17 24
M  V30 24 1 24 25
M  V30 25 2 25 26
M  V30 26 1 26 27
M  V30 27 2 27 28
M  V30 28 1 28 29
M  V30 29 2 29 30
M  V30 30 1 30 15
M  V30 31 1 23 18
M  V30 32 1 30 25
M  V30 33 1 1 31
M  V30 34 1 1 32
M  V30 35 1 1 33
M  V30 36 1 3 34
M  V30 37 1 3 35
M  V30 38 1 3 36
M  V30 39 1 4 37
M  V30 40 1 4 38
M  V30 41 1 5 39
M  V30 42 1 10 40
M  V30 43 1 10 41
M  V30 44 1 10 42
M  V30 45 1 11 43
M  V30 46 1 11 44
M  V30 47 1 11 45
M  V30 48 1 12 46
M  V30 49 1 12 47
M  V30 50 1 12 48
M  V30 51 1 13 49
M  V30 52 1 13 50
M  V30 53 1 14 51
M  V30 54 1 19 52
M  V30 55 1 20 53
M  V30 56 1 22 54
M  V30 57 1 23 55
M  V30 58 1 26 56
M  V30 59 1 28 57
M  V30 60 1 29 58
M  V30 END BOND
M  V30 END CTAB
M  END
>  <Dataset>  (339) 
ChEMBL_Kinases

>  <Ligand_Instance>  (339) 
nan

>  <PDB_ID>  (339) 
nan

>  <Standardized_SMILES>  (339) 
CC(C)(CNC(=O)OC(C)(C)C)CNc1nc(-c2ccncc2)nc2cnccc12

>  <Name>  (339) 
nan

>  <Pocket>  (339) 
nan

>  <ATP_Site>  (339) 
nan

>  <Peripheral>  (339) 
nan

>  <Num_H_Atoms_ProtBoundConf>  (339) 
nan

>  <Num_Resolved_Atoms>  (339) 
nan

>  <Num_Not_Resolved_Atoms>  (339) 
nan

$$$$
CHEMBL4636517
     RDKit          3D

  0  0  0  0  0  0  0  0  0  0999 V3000
M  V30 BEGIN CTAB
M  V30 COUNTS 54 58 0 0 0
M  V30 BEGIN ATOM
M  V30 1 C 4.881995 -4.925824 0.857316 0
M  V30 2 C 3.978937 -4.561479 2.009887 0 CFG=1
M  V30 3 O 4.736579 -4.265665 3.115309 0
M  V30 4 C 3.198445 -3.342450 1.701510 0
M  V30 5 C 2.543688 -2.341166 1.462595 0
M  V30 6 C 1.752649 -1.176304 1.185804 0
M  V30 7 C 2.254887 0.067682 1.451879 0
M  V30 8 C 1.498664 1.182553 1.188107 0
M  V30 9 C 0.213460 1.082095 0.648008 0
M  V30 10 N -0.384918 2.353265 0.441867 0
M  V30 11 C -0.757572 3.203126 -0.669570 0
M  V30 12 C -0.178641 4.586475 -0.409718 0
M  V30 13 O -0.291134 4.998536 0.893064 0
M  V30 14 C -1.244362 4.279597 1.607580 0
M  V30 15 C -0.698129 2.880754 1.769306 0
M  V30 16 C -0.301281 -0.154198 0.376977 0
M  V30 17 N -1.606566 -0.283807 -0.146646 0
M  V30 18 C -2.339390 0.056567 -1.306485 0
M  V30 19 N -1.854636 0.651745 -2.397437 0
M  V30 20 C -2.552577 0.972136 -3.495182 0
M  V30 21 N -3.849410 0.663227 -3.485550 0
M  V30 22 C -4.409093 0.064950 -2.427473 0
M  V30 23 N -5.682360 -0.337261 -2.193803 0
M  V30 24 C -5.795816 -0.902581 -0.973130 0
M  V30 25 C -4.526629 -0.851826 -0.412380 0
M  V30 26 C -3.669406 -0.250487 -1.318740 0
M  V30 27 C 0.490295 -1.275017 0.655646 0
M  V30 28 C 2.963659 -5.612910 2.300414 0
M  V30 29 N 1.839500 -5.838593 1.934327 0
M  V30 30 C 1.123288 -6.875130 2.352714 0
M  V30 31 C 1.824420 -7.800769 3.359354 0
M  V30 32 S 3.488471 -6.903867 3.490482 0
M  V30 33 H 4.330021 -5.337232 -0.004200 0
M  V30 34 H 5.358153 -3.979094 0.524461 0
M  V30 35 H 5.686021 -5.592798 1.227894 0
M  V30 36 H 5.673330 -4.623544 3.030586 0
M  V30 37 H 3.237798 0.123150 1.863544 0
M  V30 38 H 1.989350 2.123733 1.435892 0
M  V30 39 H -0.325719 2.811560 -1.619899 0
M  V30 40 H -1.854924 3.334823 -0.773749 0
M  V30 41 H -0.692040 5.345765 -1.056628 0
M  V30 42 H 0.881053 4.596895 -0.741413 0
M  V30 43 H -2.248693 4.304323 1.156240 0
M  V30 44 H -1.307749 4.785219 2.607297 0
M  V30 45 H 0.206259 2.948706 2.412047 0
M  V30 46 H -1.491388 2.231237 2.216560 0
M  V30 47 H -2.094965 -0.797295 0.644126 0
M  V30 48 H -1.928543 1.438286 -4.219630 0
M  V30 49 H -6.493551 -0.244248 -2.836405 0
M  V30 50 H -6.691286 -1.316106 -0.513172 0
M  V30 51 H -4.199715 -1.196890 0.543228 0
M  V30 52 H 0.086211 -2.254567 0.442690 0
M  V30 53 H 0.135184 -6.917915 1.917654 0
M  V30 54 H 0.989138 -8.650834 3.585544 0
M  V30 END ATOM
M  V30 BEGIN BOND
M  V30 1 1 1 2
M  V30 2 1 2 3
M  V30 3 1 2 4 CFG=3
M  V30 4 3 4 5
M  V30 5 1 5 6
M  V30 6 2 6 7
M  V30 7 1 7 8
M  V30 8 2 8 9
M  V30 9 1 9 10
M  V30 10 1 10 11
M  V30 11 1 11 12
M  V30 12 1 12 13
M  V30 13 1 13 14
M  V30 14 1 14 15
M  V30 15 1 9 16
M  V30 16 1 16 17
M  V30 17 1 17 18
M  V30 18 2 18 19
M  V30 19 1 19 20
M  V30 20 2 20 21
M  V30 21 1 21 22
M  V30 22 1 22 23
M  V30 23 1 23 24
M  V30 24 2 24 25
M  V30 25 1 25 26
M  V30 26 2 16 27
M  V30 27 1 2 28
M  V30 28 2 28 29
M  V30 29 1 29 30
M  V30 30 2 30 31
M  V30 31 1 31 32
M  V30 32 1 27 6
M  V30 33 1 32 28
M  V30 34 1 15 10
M  V30 35 1 26 18
M  V30 36 2 26 22
M  V30 37 1 1 33
M  V30 38 1 1 34
M  V30 39 1 1 35
M  V30 40 1 3 36
M  V30 41 1 7 37
M  V30 42 1 8 38
M  V30 43 1 11 39
M  V30 44 1 11 40
M  V30 45 1 12 41
M  V30 46 1 12 42
M  V30 47 1 14 43
M  V30 48 1 14 44
M  V30 49 1 15 45
M  V30 50 1 15 46
M  V30 51 1 17 47
M  V30 52 1 20 48
M  V30 53 1 23 49
M  V30 54 1 24 50
M  V30 55 1 25 51
M  V30 56 1 27 52
M  V30 57 1 30 53
M  V30 58 1 31 54
M  V30 END BOND
M  V30 END CTAB
M  END
>  <Dataset>  (340) 
ChEMBL_Kinases

>  <Ligand_Instance>  (340) 
nan

>  <PDB_ID>  (340) 
nan

>  <Standardized_SMILES>  (340) 
C[C@@](O)(C#Cc1ccc(N2CCOCC2)c(Nc2ncnc3[nH]ccc23)c1)c1nccs1

>  <Name>  (340) 
nan

>  <Pocket>  (340) 
nan

>  <ATP_Site>  (340) 
nan

>  <Peripheral>  (340) 
nan

>  <Num_H_Atoms_ProtBoundConf>  (340) 
nan

>  <Num_Resolved_Atoms>  (340) 
nan

>  <Num_Not_Resolved_Atoms>  (340) 
nan

$$$$
CHEMBL4565484
     RDKit          3D

  0  0  0  0  0  0  0  0  0  0999 V3000
M  V30 BEGIN CTAB
M  V30 COUNTS 109 112 0 0 0
M  V30 BEGIN ATOM
M  V30 1 C 1.414828 -5.142130 5.680411 0
M  V30 2 C 2.458552 -4.022480 5.705675 0
M  V30 3 C 1.815359 -2.822873 5.052893 0
M  V30 4 C 2.714932 -1.616894 4.992865 0
M  V30 5 C 3.983969 -1.845746 4.228514 0
M  V30 6 C 3.672222 -2.239145 2.821989 0
M  V30 7 C 2.887202 -1.182842 2.105245 0
M  V30 8 C 2.586670 -1.596363 0.689133 0
M  V30 9 O 3.368142 -1.446647 -0.288829 0
M  V30 10 O 1.337897 -2.168370 0.577937 0
M  V30 11 C 0.739491 -2.659361 -0.570900 0 CFG=1
M  V30 12 C 0.567881 -4.149327 -0.539287 0
M  V30 13 C 0.964579 -4.761217 0.539082 0
M  V30 14 C 0.812714 -6.189436 0.597251 0
M  V30 15 O 0.321820 -6.880939 -0.328794 0
M  V30 16 O 1.193141 -6.949554 1.682652 0
M  V30 17 C 1.008008 -8.368445 1.660201 0
M  V30 18 C -0.042390 -4.788064 -1.754786 0
M  V30 19 C -0.458947 -3.601902 -2.629625 0 CFG=1
M  V30 20 C -1.241801 -4.142851 -3.782025 0
M  V30 21 C -2.069544 -3.086330 -4.479446 0 CFG=2
M  V30 22 C -2.786279 -3.776959 -5.621884 0
M  V30 23 O -3.655643 -4.750106 -5.136921 0
M  V30 24 O -1.189463 -2.104296 -4.971801 0
M  V30 25 C -1.368256 -0.755070 -4.610584 0
M  V30 26 O -2.334054 -0.496979 -3.846522 0
M  V30 27 C -0.361126 0.180798 -5.203817 0
M  V30 28 C -0.600270 1.612266 -4.803515 0
M  V30 29 O -0.519699 1.697472 -3.392306 0
M  V30 30 C -0.705098 2.907773 -2.734679 0
M  V30 31 C -0.109153 4.111666 -3.044558 0
M  V30 32 C -0.348685 5.268309 -2.340165 0
M  V30 33 C -1.214434 5.246519 -1.279961 0
M  V30 34 C -1.517462 6.433874 -0.468435 0
M  V30 35 C -2.504677 7.357064 -0.701865 0
M  V30 36 O -3.297046 7.134222 -1.844565 0
M  V30 37 C -4.337466 8.058086 -2.141748 0
M  V30 38 C -2.682487 8.427987 0.152987 0
M  V30 39 C -1.855631 8.573972 1.259708 0
M  V30 40 C -0.868711 7.629301 1.471092 0
M  V30 41 C -0.661923 6.541444 0.633383 0
M  V30 42 O 0.351064 5.643311 0.921829 0
M  V30 43 C 1.170277 5.828504 2.060173 0
M  V30 44 C -1.849734 4.055538 -0.917510 0
M  V30 45 C -1.569705 2.923802 -1.661977 0
M  V30 46 C -2.289901 1.733271 -1.173081 0
M  V30 47 O -3.523995 1.897334 -1.200120 0
M  V30 48 O -1.655867 0.580621 -0.739210 0
M  V30 49 C -2.394312 -0.533579 -0.280156 0
M  V30 50 C -1.468997 -1.662863 0.154598 0
M  V30 51 C -2.339522 -2.811144 0.610923 0
M  V30 52 C -0.770939 -1.152511 1.402052 0
M  V30 53 C -0.537727 -2.008573 -0.954215 0 CFG=1
M  V30 54 O -0.178072 -0.794334 -1.590698 0
M  V30 55 O -1.247775 -2.731924 -1.894798 0
M  V30 56 H 1.853605 -6.120935 5.879634 0
M  V30 57 H 1.032381 -5.175740 4.619001 0
M  V30 58 H 0.599692 -4.827929 6.345717 0
M  V30 59 H 2.754822 -3.752879 6.731353 0
M  V30 60 H 3.306464 -4.369912 5.082765 0
M  V30 61 H 1.548674 -3.105125 4.018253 0
M  V30 62 H 0.908325 -2.488752 5.626037 0
M  V30 63 H 2.107778 -0.773916 4.607991 0
M  V30 64 H 3.035748 -1.318473 6.033116 0
M  V30 65 H 4.611018 -0.925589 4.167611 0
M  V30 66 H 4.620515 -2.613663 4.715528 0
M  V30 67 H 3.174384 -3.234971 2.826517 0
M  V30 68 H 4.648161 -2.408261 2.292873 0
M  V30 69 H 2.007431 -0.804939 2.612745 0
M  V30 70 H 3.588777 -0.304804 2.003034 0
M  V30 71 H 1.473052 -2.498458 -1.417231 0
M  V30 72 H 1.396112 -4.232190 1.373830 0
M  V30 73 H 1.255292 -8.814557 2.636263 0
M  V30 74 H 1.704229 -8.817922 0.914597 0
M  V30 75 H -0.032079 -8.632784 1.390574 0
M  V30 76 H -0.971275 -5.322230 -1.489822 0
M  V30 77 H 0.727609 -5.388523 -2.246697 0
M  V30 78 H 0.430593 -3.089566 -3.064904 0
M  V30 79 H -1.980998 -4.932694 -3.457401 0
M  V30 80 H -0.640222 -4.651174 -4.561075 0
M  V30 81 H -2.857070 -2.668210 -3.817946 0
M  V30 82 H -3.284292 -3.060585 -6.292646 0
M  V30 83 H -1.982112 -4.290015 -6.211688 0
M  V30 84 H -3.192697 -5.614819 -4.997955 0
M  V30 85 H 0.673790 -0.094248 -4.988768 0
M  V30 86 H -0.484133 0.117789 -6.310729 0
M  V30 87 H -1.603020 1.966567 -5.157052 0
M  V30 88 H 0.196791 2.218136 -5.240584 0
M  V30 89 H 0.576014 4.100263 -3.893855 0
M  V30 90 H 0.139791 6.194921 -2.615009 0
M  V30 91 H -3.954820 9.117261 -2.055970 0
M  V30 92 H -5.172034 7.926128 -1.439926 0
M  V30 93 H -4.651535 7.919571 -3.194733 0
M  V30 94 H -3.478225 9.140121 -0.066430 0
M  V30 95 H -1.986025 9.411113 1.938137 0
M  V30 96 H -0.249528 7.773888 2.335402 0
M  V30 97 H 0.545953 6.001458 2.971876 0
M  V30 98 H 1.853643 6.684168 1.966673 0
M  V30 99 H 1.706448 4.863278 2.276453 0
M  V30 100 H -2.552091 4.025427 -0.069624 0
M  V30 101 H -3.084778 -0.832271 -1.094969 0
M  V30 102 H -3.024857 -0.166880 0.555099 0
M  V30 103 H -3.332460 -2.400354 0.933558 0
M  V30 104 H -2.559132 -3.550260 -0.187361 0
M  V30 105 H -1.925721 -3.299504 1.522921 0
M  V30 106 H -0.460200 -1.975212 2.051323 0
M  V30 107 H -0.022544 -0.374312 1.203379 0
M  V30 108 H -1.574899 -0.618445 1.991762 0
M  V30 109 H 0.554217 -0.383038 -1.081777 0
M  V30 END ATOM
M  V30 BEGIN BOND
M  V30 1 1 1 2
M  V30 2 1 2 3
M  V30 3 1 3 4
M  V30 4 1 4 5
M  V30 5 1 5 6
M  V30 6 1 6 7
M  V30 7 1 7 8
M  V30 8 2 8 9
M  V30 9 1 8 10
M  V30 10 1 10 11
M  V30 11 1 11 12
M  V30 12 2 12 13
M  V30 13 1 13 14
M  V30 14 2 14 15
M  V30 15 1 14 16
M  V30 16 1 16 17
M  V30 17 1 12 18
M  V30 18 1 18 19
M  V30 19 1 19 20
M  V30 20 1 20 21
M  V30 21 1 21 22
M  V30 22 1 22 23
M  V30 23 1 21 24
M  V30 24 1 24 25
M  V30 25 2 25 26
M  V30 26 1 25 27
M  V30 27 1 27 28
M  V30 28 1 28 29
M  V30 29 1 29 30
M  V30 30 2 30 31
M  V30 31 1 31 32
M  V30 32 2 32 33
M  V30 33 1 33 34
M  V30 34 2 34 35
M  V30 35 1 35 36
M  V30 36 1 36 37
M  V30 37 1 35 38
M  V30 38 2 38 39
M  V30 39 1 39 40
M  V30 40 2 40 41
M  V30 41 1 41 42
M  V30 42 1 42 43
M  V30 43 1 33 44
M  V30 44 2 44 45
M  V30 45 1 45 46
M  V30 46 2 46 47
M  V30 47 1 46 48
M  V30 48 1 48 49
M  V30 49 1 49 50
M  V30 50 1 50 51
M  V30 51 1 50 52
M  V30 52 1 50 53
M  V30 53 1 53 54 CFG=3
M  V30 54 1 53 55
M  V30 55 1 53 11
M  V30 56 1 55 19
M  V30 57 1 45 30
M  V30 58 1 41 34
M  V30 59 1 1 56
M  V30 60 1 1 57
M  V30 61 1 1 58
M  V30 62 1 2 59
M  V30 63 1 2 60
M  V30 64 1 3 61
M  V30 65 1 3 62
M  V30 66 1 4 63
M  V30 67 1 4 64
M  V30 68 1 5 65
M  V30 69 1 5 66
M  V30 70 1 6 67
M  V30 71 1 6 68
M  V30 72 1 7 69
M  V30 73 1 7 70
M  V30 74 1 11 71 CFG=3
M  V30 75 1 13 72
M  V30 76 1 17 73
M  V30 77 1 17 74
M  V30 78 1 17 75
M  V30 79 1 18 76
M  V30 80 1 18 77
M  V30 81 1 19 78 CFG=3
M  V30 82 1 20 79
M  V30 83 1 20 80
M  V30 84 1 21 81 CFG=1
M  V30 85 1 22 82
M  V30 86 1 22 83
M  V30 87 1 23 84
M  V30 88 1 27 85
M  V30 89 1 27 86
M  V30 90 1 28 87
M  V30 91 1 28 88
M  V30 92 1 31 89
M  V30 93 1 32 90
M  V30 94 1 37 91
M  V30 95 1 37 92
M  V30 96 1 37 93
M  V30 97 1 38 94
M  V30 98 1 39 95
M  V30 99 1 40 96
M  V30 100 1 43 97
M  V30 101 1 43 98
M  V30 102 1 43 99
M  V30 103 1 44 100
M  V30 104 1 49 101
M  V30 105 1 49 102
M  V30 106 1 51 103
M  V30 107 1 51 104
M  V30 108 1 51 105
M  V30 109 1 52 106
M  V30 110 1 52 107
M  V30 111 1 52 108
M  V30 112 1 54 109
M  V30 END BOND
M  V30 END CTAB
M  END
>  <Dataset>  (341) 
ChEMBL_Kinases

>  <Ligand_Instance>  (341) 
nan

>  <PDB_ID>  (341) 
nan

>  <Standardized_SMILES>  (341) 
CCCCCCCC(=O)O[C@H]1/C(=C/C(=O)OC)C[C@H]2C[C@H](CO)OC(=O)CCOc3ccc(-c4c(OC)cccc4OC)cc3C(=O)OCC(C)(C)[C@]1(O)O2

>  <Name>  (341) 
nan

>  <Pocket>  (341) 
nan

>  <ATP_Site>  (341) 
nan

>  <Peripheral>  (341) 
nan

>  <Num_H_Atoms_ProtBoundConf>  (341) 
nan

>  <Num_Resolved_Atoms>  (341) 
nan

>  <Num_Not_Resolved_Atoms>  (341) 
nan

$$$$
CHEMBL4565352
     RDKit          3D

  0  0  0  0  0  0  0  0  0  0999 V3000
M  V30 BEGIN CTAB
M  V30 COUNTS 54 57 0 0 0
M  V30 BEGIN ATOM
M  V30 1 C -1.178261 -4.755742 3.630175 0
M  V30 2 O -1.022487 -4.584084 2.229372 0
M  V30 3 C -0.179072 -3.625930 1.722112 0
M  V30 4 C 0.552507 -2.792799 2.574965 0
M  V30 5 C 1.386410 -1.841812 2.048032 0
M  V30 6 N 2.077872 -1.078297 2.914267 0
M  V30 7 C 2.896039 -0.165789 2.366133 0
M  V30 8 N 3.034579 -0.001932 1.049204 0
M  V30 9 C 2.372885 -0.730948 0.097968 0
M  V30 10 C 2.555885 -0.479812 -1.342770 0
M  V30 11 C 3.339179 0.862434 -1.355436 0
M  V30 12 C 2.517609 1.893029 -0.648385 0
M  V30 13 N 1.153728 1.506294 -0.374832 0
M  V30 14 C 0.431340 1.892477 0.812142 0
M  V30 15 O 1.266601 2.607570 1.467680 0
M  V30 16 C -0.943155 1.481215 1.068770 0
M  V30 17 C -1.871112 2.074121 0.205908 0
M  V30 18 C -3.237756 1.806933 0.293119 0
M  V30 19 C -3.673695 0.922249 1.272641 0
M  V30 20 C -5.134288 0.667874 1.328402 0
M  V30 21 F -5.754718 1.883390 1.515374 0
M  V30 22 F -5.471767 -0.184221 2.358728 0
M  V30 23 F -5.606604 0.115359 0.151678 0
M  V30 24 C -2.760874 0.336988 2.123578 0
M  V30 25 C -1.413860 0.605724 2.031323 0
M  V30 26 C 0.418612 0.691210 -1.321921 0
M  V30 27 C 1.345859 -0.133878 -2.150435 0
M  V30 28 C 1.557871 -1.644161 0.686953 0
M  V30 29 C 0.812567 -2.495721 -0.083597 0
M  V30 30 C -0.035869 -3.463281 0.360660 0
M  V30 31 O -0.775684 -4.306628 -0.466652 0
M  V30 32 C -0.743541 -4.265770 -1.869881 0
M  V30 33 H -1.303904 -3.751228 4.130431 0
M  V30 34 H -2.157649 -5.293202 3.784440 0
M  V30 35 H -0.337022 -5.294269 4.098302 0
M  V30 36 H 0.468061 -2.890697 3.643142 0
M  V30 37 H 3.458456 0.453207 3.055846 0
M  V30 38 H 3.190995 -1.254102 -1.828693 0
M  V30 39 H 4.351653 0.705749 -0.959590 0
M  V30 40 H 3.383049 1.154336 -2.431877 0
M  V30 41 H 3.023482 2.228041 0.283661 0
M  V30 42 H 2.439906 2.838701 -1.273637 0
M  V30 43 H -1.601939 2.777027 -0.584722 0
M  V30 44 H -3.939369 2.276172 -0.383036 0
M  V30 45 H -3.108099 -0.348575 2.883194 0
M  V30 46 H -0.651212 0.185690 2.662451 0
M  V30 47 H -0.279721 0.050972 -0.752055 0
M  V30 48 H -0.164517 1.423687 -1.938811 0
M  V30 49 H 0.896202 -0.915983 -2.760144 0
M  V30 50 H 1.699895 0.606351 -2.969786 0
M  V30 51 H 0.911095 -2.412625 -1.144011 0
M  V30 52 H -1.291639 -5.167141 -2.229025 0
M  V30 53 H -1.290479 -3.367383 -2.272727 0
M  V30 54 H 0.276912 -4.324242 -2.299926 0
M  V30 END ATOM
M  V30 BEGIN BOND
M  V30 1 1 1 2
M  V30 2 1 2 3
M  V30 3 2 3 4
M  V30 4 1 4 5
M  V30 5 2 5 6
M  V30 6 1 6 7
M  V30 7 2 7 8
M  V30 8 1 8 9
M  V30 9 1 9 10
M  V30 10 1 10 11
M  V30 11 1 11 12
M  V30 12 1 12 13
M  V30 13 1 13 14
M  V30 14 2 14 15
M  V30 15 1 14 16
M  V30 16 2 16 17
M  V30 17 1 17 18
M  V30 18 2 18 19
M  V30 19 1 19 20
M  V30 20 1 20 21
M  V30 21 1 20 22
M  V30 22 1 20 23
M  V30 23 1 19 24
M  V30 24 2 24 25
M  V30 25 1 13 26
M  V30 26 1 26 27
M  V30 27 2 9 28
M  V30 28 1 28 29
M  V30 29 2 29 30
M  V30 30 1 30 31
M  V30 31 1 31 32
M  V30 32 1 30 3
M  V30 33 1 28 5
M  V30 34 1 27 10
M  V30 35 1 25 16
M  V30 36 1 1 33
M  V30 37 1 1 34
M  V30 38 1 1 35
M  V30 39 1 4 36
M  V30 40 1 7 37
M  V30 41 1 10 38
M  V30 42 1 11 39
M  V30 43 1 11 40
M  V30 44 1 12 41
M  V30 45 1 12 42
M  V30 46 1 17 43
M  V30 47 1 18 44
M  V30 48 1 24 45
M  V30 49 1 25 46
M  V30 50 1 26 47
M  V30 51 1 26 48
M  V30 52 1 27 49
M  V30 53 1 27 50
M  V30 54 1 29 51
M  V30 55 1 32 52
M  V30 56 1 32 53
M  V30 57 1 32 54
M  V30 END BOND
M  V30 END CTAB
M  END
>  <Dataset>  (342) 
ChEMBL_Kinases

>  <Ligand_Instance>  (342) 
nan

>  <PDB_ID>  (342) 
nan

>  <Standardized_SMILES>  (342) 
COc1cc2ncnc(C3CCN(C(=O)c4ccc(C(F)(F)F)cc4)CC3)c2cc1OC

>  <Name>  (342) 
nan

>  <Pocket>  (342) 
nan

>  <ATP_Site>  (342) 
nan

>  <Peripheral>  (342) 
nan

>  <Num_H_Atoms_ProtBoundConf>  (342) 
nan

>  <Num_Resolved_Atoms>  (342) 
nan

>  <Num_Not_Resolved_Atoms>  (342) 
nan

$$$$
CHEMBL4565316
     RDKit          3D

  0  0  0  0  0  0  0  0  0  0999 V3000
M  V30 BEGIN CTAB
M  V30 COUNTS 41 44 0 0 0
M  V30 BEGIN ATOM
M  V30 1 O 2.705600 -0.146717 0.316712 0
M  V30 2 C 1.767206 -0.779137 0.838261 0
M  V30 3 N 2.006152 -2.143526 1.126978 0
M  V30 4 C 3.301895 -2.747849 0.815228 0
M  V30 5 N 3.559231 -3.287662 -0.267323 0
M  V30 6 C 4.752728 -3.830219 -0.518702 0
M  V30 7 C 5.129586 -4.451586 -1.692386 0
M  V30 8 C 6.379618 -4.964365 -1.820652 0
M  V30 9 C 7.358807 -4.927013 -0.853595 0
M  V30 10 C 7.006105 -4.311279 0.328072 0
M  V30 11 C 5.727442 -3.784646 0.464405 0
M  V30 12 S 4.825261 -2.912528 1.777975 0
M  V30 13 C 0.491864 -0.129539 1.130063 0
M  V30 14 C -0.585864 -0.768881 1.706940 0
M  V30 15 C -1.777295 -0.127032 1.969632 0
M  V30 16 C -1.956651 1.204265 1.665792 0
M  V30 17 N -3.161241 1.919960 1.909393 0
M  V30 18 C -3.417573 3.330808 1.685659 0
M  V30 19 C -4.386388 3.411314 0.504176 0
M  V30 20 O -5.029239 2.214528 0.285804 0
M  V30 21 C -5.470624 1.596269 1.429830 0
M  V30 22 C -4.366215 1.308524 2.437918 0
M  V30 23 C -0.877376 1.836709 1.090219 0
M  V30 24 C 0.322579 1.205850 0.821375 0
M  V30 25 H 1.280316 -2.741373 1.560408 0
M  V30 26 H 4.463802 -4.560423 -2.552780 0
M  V30 27 H 6.681756 -5.458922 -2.752553 0
M  V30 28 H 8.365902 -5.308262 -0.879575 0
M  V30 29 H 7.629020 -4.184880 1.192845 0
M  V30 30 H -0.485785 -1.812171 1.960014 0
M  V30 31 H -2.554464 -0.694361 2.415672 0
M  V30 32 H -2.477486 3.832754 1.469601 0
M  V30 33 H -3.937456 3.782395 2.564643 0
M  V30 34 H -5.103576 4.242554 0.655446 0
M  V30 35 H -3.795150 3.662222 -0.399759 0
M  V30 36 H -5.874841 0.596206 1.095453 0
M  V30 37 H -6.323235 2.120471 1.859284 0
M  V30 38 H -4.288665 0.257877 2.691038 0
M  V30 39 H -4.647838 1.870926 3.364033 0
M  V30 40 H -0.862970 2.872477 0.795098 0
M  V30 41 H 1.177902 1.710211 0.364438 0
M  V30 END ATOM
M  V30 BEGIN BOND
M  V30 1 2 1 2
M  V30 2 1 2 3
M  V30 3 1 3 4
M  V30 4 2 4 5
M  V30 5 1 5 6
M  V30 6 2 6 7
M  V30 7 1 7 8
M  V30 8 2 8 9
M  V30 9 1 9 10
M  V30 10 2 10 11
M  V30 11 1 11 12
M  V30 12 1 2 13
M  V30 13 2 13 14
M  V30 14 1 14 15
M  V30 15 2 15 16
M  V30 16 1 16 17
M  V30 17 1 17 18
M  V30 18 1 18 19
M  V30 19 1 19 20
M  V30 20 1 20 21
M  V30 21 1 21 22
M  V30 22 1 16 23
M  V30 23 2 23 24
M  V30 24 1 12 4
M  V30 25 1 24 13
M  V30 26 1 11 6
M  V30 27 1 22 17
M  V30 28 1 3 25
M  V30 29 1 7 26
M  V30 30 1 8 27
M  V30 31 1 9 28
M  V30 32 1 10 29
M  V30 33 1 14 30
M  V30 34 1 15 31
M  V30 35 1 18 32
M  V30 36 1 18 33
M  V30 37 1 19 34
M  V30 38 1 19 35
M  V30 39 1 21 36
M  V30 40 1 21 37
M  V30 41 1 22 38
M  V30 42 1 22 39
M  V30 43 1 23 40
M  V30 44 1 24 41
M  V30 END BOND
M  V30 END CTAB
M  END
>  <Dataset>  (343) 
ChEMBL_Kinases

>  <Ligand_Instance>  (343) 
nan

>  <PDB_ID>  (343) 
nan

>  <Standardized_SMILES>  (343) 
O=C(Nc1nc2ccccc2s1)c1ccc(N2CCOCC2)cc1

>  <Name>  (343) 
nan

>  <Pocket>  (343) 
nan

>  <ATP_Site>  (343) 
nan

>  <Peripheral>  (343) 
nan

>  <Num_H_Atoms_ProtBoundConf>  (343) 
nan

>  <Num_Resolved_Atoms>  (343) 
nan

>  <Num_Not_Resolved_Atoms>  (343) 
nan

$$$$
CHEMBL4565212
     RDKit          3D

  0  0  0  0  0  0  0  0  0  0999 V3000
M  V30 BEGIN CTAB
M  V30 COUNTS 44 46 0 0 0
M  V30 BEGIN ATOM
M  V30 1 C 0.595798 -2.711589 3.464501 0
M  V30 2 C 1.752293 -2.516967 2.542351 0
M  V30 3 O 1.301000 -2.213295 1.230354 0
M  V30 4 C 2.182163 -1.986680 0.182702 0
M  V30 5 O 3.360123 -2.100670 0.618748 0
M  V30 6 C 1.748606 -1.663846 -1.215194 0
M  V30 7 C 2.378200 -2.595492 -2.212453 0
M  V30 8 C 2.250631 -0.273893 -1.543731 0
M  V30 9 N 0.309363 -1.634394 -1.259306 0
M  V30 10 C -0.390113 -0.729881 -0.440070 0
M  V30 11 N 0.262649 0.105100 0.387250 0
M  V30 12 C -0.327822 0.979171 1.186522 0
M  V30 13 C 0.409413 1.868819 2.073932 0
M  V30 14 C -0.234862 2.774385 2.891293 0
M  V30 15 C 0.476835 3.607930 3.722901 0
M  V30 16 N 1.819289 3.590945 3.788374 0
M  V30 17 C 2.489890 2.723284 3.008475 0
M  V30 18 C 1.784443 1.883218 2.171105 0
M  V30 19 N -1.670255 1.058168 1.191018 0
M  V30 20 C -2.444663 0.279167 0.410471 0
M  V30 21 C -3.823834 0.360922 0.415739 0
M  V30 22 N -4.537170 -0.443235 -0.385451 0
M  V30 23 C -3.908885 -1.329302 -1.194027 0
M  V30 24 C -2.534498 -1.416356 -1.204567 0
M  V30 25 C -1.762834 -0.607827 -0.396166 0
M  V30 26 H -0.288920 -2.177697 3.011741 0
M  V30 27 H 0.334954 -3.787802 3.615480 0
M  V30 28 H 0.805276 -2.209990 4.433051 0
M  V30 29 H 2.473467 -3.356884 2.545386 0
M  V30 30 H 2.317932 -1.617156 2.870701 0
M  V30 31 H 1.823936 -3.545129 -2.338216 0
M  V30 32 H 2.419783 -2.053770 -3.192650 0
M  V30 33 H 3.389359 -2.875790 -1.879666 0
M  V30 34 H 3.124399 -0.297670 -2.238139 0
M  V30 35 H 1.460522 0.289124 -2.060628 0
M  V30 36 H 2.507862 0.270007 -0.607572 0
M  V30 37 H -0.097889 -2.318935 -1.925787 0
M  V30 38 H -1.329140 2.791313 2.840837 0
M  V30 39 H -0.097675 4.307042 4.349218 0
M  V30 40 H 3.572436 2.696229 3.048627 0
M  V30 41 H 2.368326 1.221813 1.581983 0
M  V30 42 H -4.273957 1.100363 1.094411 0
M  V30 43 H -4.507889 -1.974557 -1.838307 0
M  V30 44 H -2.090655 -2.139011 -1.867653 0
M  V30 END ATOM
M  V30 BEGIN BOND
M  V30 1 1 1 2
M  V30 2 1 2 3
M  V30 3 1 3 4
M  V30 4 2 4 5
M  V30 5 1 4 6
M  V30 6 1 6 7
M  V30 7 1 6 8
M  V30 8 1 6 9
M  V30 9 1 9 10
M  V30 10 2 10 11
M  V30 11 1 11 12
M  V30 12 1 12 13
M  V30 13 2 13 14
M  V30 14 1 14 15
M  V30 15 2 15 16
M  V30 16 1 16 17
M  V30 17 2 17 18
M  V30 18 2 12 19
M  V30 19 1 19 20
M  V30 20 2 20 21
M  V30 21 1 21 22
M  V30 22 2 22 23
M  V30 23 1 23 24
M  V30 24 2 24 25
M  V30 25 1 25 10
M  V30 26 1 18 13
M  V30 27 1 25 20
M  V30 28 1 1 26
M  V30 29 1 1 27
M  V30 30 1 1 28
M  V30 31 1 2 29
M  V30 32 1 2 30
M  V30 33 1 7 31
M  V30 34 1 7 32
M  V30 35 1 7 33
M  V30 36 1 8 34
M  V30 37 1 8 35
M  V30 38 1 8 36
M  V30 39 1 9 37
M  V30 40 1 14 38
M  V30 41 1 15 39
M  V30 42 1 17 40
M  V30 43 1 18 41
M  V30 44 1 21 42
M  V30 45 1 23 43
M  V30 46 1 24 44
M  V30 END BOND
M  V30 END CTAB
M  END
>  <Dataset>  (344) 
ChEMBL_Kinases

>  <Ligand_Instance>  (344) 
nan

>  <PDB_ID>  (344) 
nan

>  <Standardized_SMILES>  (344) 
CCOC(=O)C(C)(C)Nc1nc(-c2ccncc2)nc2cnccc12

>  <Name>  (344) 
nan

>  <Pocket>  (344) 
nan

>  <ATP_Site>  (344) 
nan

>  <Peripheral>  (344) 
nan

>  <Num_H_Atoms_ProtBoundConf>  (344) 
nan

>  <Num_Resolved_Atoms>  (344) 
nan

>  <Num_Not_Resolved_Atoms>  (344) 
nan

$$$$
CHEMBL4636572
     RDKit          3D

  0  0  0  0  0  0  0  0  0  0999 V3000
M  V30 BEGIN CTAB
M  V30 COUNTS 41 44 0 0 0
M  V30 BEGIN ATOM
M  V30 1 C -1.691180 -6.113199 -0.423422 0
M  V30 2 O -1.195063 -4.969662 -1.107791 0
M  V30 3 C -0.531769 -3.954560 -0.436899 0
M  V30 4 C -0.371178 -4.093745 0.924899 0
M  V30 5 C 0.289476 -3.079627 1.584062 0
M  V30 6 C 0.764573 -1.980011 0.900563 0
M  V30 7 C 0.607684 -1.832260 -0.471320 0
M  V30 8 N 1.086555 -0.728057 -1.227463 0
M  V30 9 C 0.876485 -0.693867 -2.682959 0
M  V30 10 C 1.757471 0.381017 -0.640558 0
M  V30 11 N 2.882070 0.905118 -1.200787 0
M  V30 12 C 3.517456 1.963663 -0.667778 0
M  V30 13 C 3.011858 2.548512 0.497236 0
M  V30 14 C 1.873929 2.023394 1.067774 0
M  V30 15 C 1.265931 2.583694 2.269745 0
M  V30 16 C 1.680564 3.639514 3.080694 0
M  V30 17 N 0.782907 3.808626 4.081148 0
M  V30 18 N -0.185308 2.916050 3.953140 0
M  V30 19 N -1.272989 2.702567 4.689381 0
M  V30 20 C -2.133623 1.721487 4.358175 0
M  V30 21 C -1.943598 0.902303 3.265509 0
M  V30 22 C -0.799826 1.163779 2.533210 0
M  V30 23 C 0.093199 2.162049 2.854771 0
M  V30 24 N 1.313714 0.966867 0.462086 0
M  V30 25 C -0.056851 -2.855691 -1.118387 0
M  V30 26 H -2.417260 -5.832984 0.371206 0
M  V30 27 H -2.106688 -6.818256 -1.169068 0
M  V30 28 H -0.811886 -6.556943 0.128268 0
M  V30 29 H -0.719494 -4.933651 1.524284 0
M  V30 30 H 0.434157 -3.156944 2.651585 0
M  V30 31 H 1.281682 -1.194443 1.437029 0
M  V30 32 H 1.162165 -1.652375 -3.123453 0
M  V30 33 H 1.378805 0.172053 -3.131786 0
M  V30 34 H -0.227992 -0.512959 -2.833270 0
M  V30 35 H 4.424424 2.370259 -1.133071 0
M  V30 36 H 3.512700 3.406580 0.946746 0
M  V30 37 H 2.585229 4.213300 2.908995 0
M  V30 38 H -3.013506 1.558874 4.965169 0
M  V30 39 H -2.638630 0.108211 2.996557 0
M  V30 40 H -0.670068 0.496223 1.666624 0
M  V30 41 H -0.243289 -2.850959 -2.195762 0
M  V30 END ATOM
M  V30 BEGIN BOND
M  V30 1 1 1 2
M  V30 2 1 2 3
M  V30 3 2 3 4
M  V30 4 1 4 5
M  V30 5 2 5 6
M  V30 6 1 6 7
M  V30 7 1 7 8
M  V30 8 1 8 9
M  V30 9 1 8 10
M  V30 10 2 10 11
M  V30 11 1 11 12
M  V30 12 2 12 13
M  V30 13 1 13 14
M  V30 14 1 14 15
M  V30 15 1 15 16
M  V30 16 2 16 17
M  V30 17 1 17 18
M  V30 18 1 18 19
M  V30 19 2 19 20
M  V30 20 1 20 21
M  V30 21 2 21 22
M  V30 22 1 22 23
M  V30 23 2 14 24
M  V30 24 2 7 25
M  V30 25 1 25 3
M  V30 26 1 24 10
M  V30 27 2 23 15
M  V30 28 1 23 18
M  V30 29 1 1 26
M  V30 30 1 1 27
M  V30 31 1 1 28
M  V30 32 1 4 29
M  V30 33 1 5 30
M  V30 34 1 6 31
M  V30 35 1 9 32
M  V30 36 1 9 33
M  V30 37 1 9 34
M  V30 38 1 12 35
M  V30 39 1 13 36
M  V30 40 1 16 37
M  V30 41 1 20 38
M  V30 42 1 21 39
M  V30 43 1 22 40
M  V30 44 1 25 41
M  V30 END BOND
M  V30 END CTAB
M  END
>  <Dataset>  (345) 
ChEMBL_Kinases

>  <Ligand_Instance>  (345) 
nan

>  <PDB_ID>  (345) 
nan

>  <Standardized_SMILES>  (345) 
COc1cccc(N(C)c2nccc(-c3cnn4ncccc34)n2)c1

>  <Name>  (345) 
nan

>  <Pocket>  (345) 
nan

>  <ATP_Site>  (345) 
nan

>  <Peripheral>  (345) 
nan

>  <Num_H_Atoms_ProtBoundConf>  (345) 
nan

>  <Num_Resolved_Atoms>  (345) 
nan

>  <Num_Not_Resolved_Atoms>  (345) 
nan

$$$$
CHEMBL4565091
     RDKit          3D

  0  0  0  0  0  0  0  0  0  0999 V3000
M  V30 BEGIN CTAB
M  V30 COUNTS 52 55 0 0 0
M  V30 BEGIN ATOM
M  V30 1 C -1.765990 -4.378269 -2.010265 0
M  V30 2 C -2.233286 -2.959546 -1.785818 0
M  V30 3 C -2.476452 -2.387881 -3.175505 0
M  V30 4 C -1.227792 -2.105318 -1.098634 0
M  V30 5 C -1.324339 -2.018685 0.392660 0 CFG=2
M  V30 6 C -0.010161 -1.983201 1.086381 0
M  V30 7 C 0.727720 -3.046361 1.543192 0
M  V30 8 N 1.886599 -2.661613 2.133226 0
M  V30 9 C 1.871452 -1.337870 2.043076 0
M  V30 10 C 2.773669 -0.385386 2.461899 0
M  V30 11 C 3.964343 -0.895503 3.124103 0
M  V30 12 N 4.983884 -0.057494 3.615918 0
M  V30 13 O 4.366805 -2.046351 3.405951 0
M  V30 14 C 2.671153 0.980594 2.322836 0
M  V30 15 C 1.511521 1.402454 1.682341 0
M  V30 16 C 1.290198 2.835974 1.476167 0
M  V30 17 C 0.569785 3.196372 0.343936 0
M  V30 18 C 0.281548 4.505123 0.016308 0
M  V30 19 C 0.752148 5.481611 0.886463 0
M  V30 20 F 0.476010 6.788797 0.578965 0
M  V30 21 C 1.469814 5.160636 2.018446 0
M  V30 22 C 1.743056 3.829018 2.319183 0
M  V30 23 C 0.544401 0.496600 1.226225 0
M  V30 24 C 0.728810 -0.864077 1.408323 0
M  V30 25 C -2.073452 -3.177428 1.018725 0
M  V30 26 C -3.545949 -3.157092 0.751089 0
M  V30 27 S -3.785075 -2.866084 -0.958242 0
M  V30 28 O -4.807221 -3.785097 -1.554015 0
M  V30 29 O -4.328405 -1.469020 -1.130111 0
M  V30 30 H -2.242575 -5.127601 -1.370316 0
M  V30 31 H -1.908415 -4.736276 -3.052468 0
M  V30 32 H -0.644131 -4.356389 -1.881271 0
M  V30 33 H -3.133784 -3.114609 -3.709219 0
M  V30 34 H -3.038292 -1.422791 -3.067928 0
M  V30 35 H -1.539968 -2.255615 -3.736967 0
M  V30 36 H -1.369619 -1.067676 -1.478184 0
M  V30 37 H -0.221758 -2.509112 -1.368389 0
M  V30 38 H -1.877877 -1.108950 0.718539 0
M  V30 39 H 0.443420 -4.097555 1.458008 0
M  V30 40 H 2.597751 -3.300249 2.549705 0
M  V30 41 H 5.957693 0.084508 3.299218 0
M  V30 42 H 5.698580 0.562773 3.999842 0
M  V30 43 H 3.427757 1.650114 2.681960 0
M  V30 44 H 0.189457 2.450818 -0.354720 0
M  V30 45 H -0.287122 4.754026 -0.881165 0
M  V30 46 H 1.817009 5.938215 2.666696 0
M  V30 47 H 2.304115 3.526039 3.198312 0
M  V30 48 H -0.345296 0.806643 0.735511 0
M  V30 49 H -1.576677 -4.148478 0.818303 0
M  V30 50 H -1.960768 -3.036343 2.118912 0
M  V30 51 H -4.004818 -2.368109 1.390589 0
M  V30 52 H -3.955135 -4.114829 1.105893 0
M  V30 END ATOM
M  V30 BEGIN BOND
M  V30 1 1 1 2
M  V30 2 1 2 3
M  V30 3 1 2 4
M  V30 4 1 4 5
M  V30 5 1 5 6
M  V30 6 2 6 7
M  V30 7 1 7 8
M  V30 8 1 8 9
M  V30 9 2 9 10
M  V30 10 1 10 11
M  V30 11 1 11 12
M  V30 12 2 11 13
M  V30 13 1 10 14
M  V30 14 2 14 15
M  V30 15 1 15 16
M  V30 16 2 16 17
M  V30 17 1 17 18
M  V30 18 2 18 19
M  V30 19 1 19 20
M  V30 20 1 19 21
M  V30 21 2 21 22
M  V30 22 1 15 23
M  V30 23 2 23 24
M  V30 24 1 5 25
M  V30 25 1 25 26
M  V30 26 1 26 27
M  V30 27 2 27 28
M  V30 28 2 27 29
M  V30 29 1 27 2
M  V30 30 1 24 6
M  V30 31 1 24 9
M  V30 32 1 22 16
M  V30 33 1 1 30
M  V30 34 1 1 31
M  V30 35 1 1 32
M  V30 36 1 3 33
M  V30 37 1 3 34
M  V30 38 1 3 35
M  V30 39 1 4 36
M  V30 40 1 4 37
M  V30 41 1 5 38 CFG=3
M  V30 42 1 7 39
M  V30 43 1 8 40
M  V30 44 1 12 41
M  V30 45 1 12 42
M  V30 46 1 14 43
M  V30 47 1 17 44
M  V30 48 1 18 45
M  V30 49 1 21 46
M  V30 50 1 22 47
M  V30 51 1 23 48
M  V30 52 1 25 49
M  V30 53 1 25 50
M  V30 54 1 26 51
M  V30 55 1 26 52
M  V30 END BOND
M  V30 END CTAB
M  END
>  <Dataset>  (346) 
ChEMBL_Kinases

>  <Ligand_Instance>  (346) 
nan

>  <PDB_ID>  (346) 
nan

>  <Standardized_SMILES>  (346) 
CC1(C)C[C@H](c2c[nH]c3c(C(N)=O)cc(-c4ccc(F)cc4)cc23)CCS1(=O)=O

>  <Name>  (346) 
nan

>  <Pocket>  (346) 
nan

>  <ATP_Site>  (346) 
nan

>  <Peripheral>  (346) 
nan

>  <Num_H_Atoms_ProtBoundConf>  (346) 
nan

>  <Num_Resolved_Atoms>  (346) 
nan

>  <Num_Not_Resolved_Atoms>  (346) 
nan

$$$$
CHEMBL4564918
     RDKit          3D

  0  0  0  0  0  0  0  0  0  0999 V3000
M  V30 BEGIN CTAB
M  V30 COUNTS 32 33 0 0 0
M  V30 BEGIN ATOM
M  V30 1 C -1.647607 -2.571768 2.150501 0
M  V30 2 C -1.440905 -3.262910 0.835591 0
M  V30 3 C -2.178171 -4.552512 0.754485 0
M  V30 4 N -0.036336 -3.400260 0.480574 0
M  V30 5 C 0.624716 -2.116718 0.361762 0
M  V30 6 S -0.123579 -0.506564 0.609203 0
M  V30 7 C 1.357564 0.438779 0.269905 0
M  V30 8 C 1.429505 1.851634 0.303213 0
M  V30 9 O 2.522015 2.408726 0.048130 0
M  V30 10 C 0.246405 2.632798 0.629846 0
M  V30 11 C 0.318142 4.008201 0.661770 0
M  V30 12 C -0.980643 4.407244 1.003660 0
M  V30 13 C -1.749067 3.246546 1.155164 0
M  V30 14 O -0.960257 2.219117 0.918975 0
M  V30 15 C 2.316306 -0.522740 -0.007008 0
M  V30 16 N 3.630672 -0.061964 -0.321895 0
M  V30 17 C 1.988244 -1.848352 0.027510 0
M  V30 18 C 2.887852 -2.932673 -0.238936 0
M  V30 19 N 3.599359 -3.820924 -0.449010 0
M  V30 20 H -0.632845 -2.454961 2.619888 0
M  V30 21 H -2.221194 -3.196761 2.863708 0
M  V30 22 H -2.043434 -1.545886 2.061695 0
M  V30 23 H -1.854642 -2.567894 0.045992 0
M  V30 24 H -1.770143 -5.220245 -0.030964 0
M  V30 25 H -3.234217 -4.331158 0.465450 0
M  V30 26 H -2.189442 -5.021736 1.752680 0
M  V30 27 H 0.572591 -4.203717 0.300042 0
M  V30 28 H 1.122609 4.709490 0.484461 0
M  V30 29 H -1.392634 5.400720 1.143626 0
M  V30 30 H -2.806014 3.218124 1.420557 0
M  V30 31 H 4.321977 0.281751 0.369468 0
M  V30 32 H 4.021059 -0.027684 -1.282669 0
M  V30 END ATOM
M  V30 BEGIN BOND
M  V30 1 1 1 2
M  V30 2 1 2 3
M  V30 3 1 2 4
M  V30 4 1 4 5
M  V30 5 1 5 6
M  V30 6 1 6 7
M  V30 7 1 7 8
M  V30 8 2 8 9
M  V30 9 1 8 10
M  V30 10 2 10 11
M  V30 11 1 11 12
M  V30 12 2 12 13
M  V30 13 1 13 14
M  V30 14 2 7 15
M  V30 15 1 15 16
M  V30 16 1 15 17
M  V30 17 1 17 18
M  V30 18 3 18 19
M  V30 19 2 17 5
M  V30 20 1 14 10
M  V30 21 1 1 20
M  V30 22 1 1 21
M  V30 23 1 1 22
M  V30 24 1 2 23
M  V30 25 1 3 24
M  V30 26 1 3 25
M  V30 27 1 3 26
M  V30 28 1 4 27
M  V30 29 1 11 28
M  V30 30 1 12 29
M  V30 31 1 13 30
M  V30 32 1 16 31
M  V30 33 1 16 32
M  V30 END BOND
M  V30 END CTAB
M  END
>  <Dataset>  (347) 
ChEMBL_Kinases

>  <Ligand_Instance>  (347) 
nan

>  <PDB_ID>  (347) 
nan

>  <Standardized_SMILES>  (347) 
CC(C)Nc1sc(C(=O)c2ccco2)c(N)c1C#N

>  <Name>  (347) 
nan

>  <Pocket>  (347) 
nan

>  <ATP_Site>  (347) 
nan

>  <Peripheral>  (347) 
nan

>  <Num_H_Atoms_ProtBoundConf>  (347) 
nan

>  <Num_Resolved_Atoms>  (347) 
nan

>  <Num_Not_Resolved_Atoms>  (347) 
nan

$$$$
CHEMBL4563747
     RDKit          3D

  0  0  0  0  0  0  0  0  0  0999 V3000
M  V30 BEGIN CTAB
M  V30 COUNTS 51 54 0 0 0
M  V30 BEGIN ATOM
M  V30 1 C 0.564896 -6.983886 3.408040 0
M  V30 2 O 0.916843 -6.358448 2.217495 0
M  V30 3 C 0.842752 -4.996957 2.002373 0
M  V30 4 C 0.426321 -4.009178 2.876300 0
M  V30 5 C 0.392294 -2.670776 2.555478 0
M  V30 6 N -0.026698 -1.748273 3.408177 0
M  V30 7 C -0.044206 -0.438605 3.001899 0
M  V30 8 N 0.348661 -0.067691 1.777214 0
M  V30 9 C 0.788030 -0.954935 0.858561 0
M  V30 10 C 1.228010 -0.375145 -0.404796 0
M  V30 11 C 2.325650 0.646326 -0.092388 0
M  V30 12 C 1.853488 1.899727 0.546183 0
M  V30 13 N 0.522011 2.222799 0.138820 0
M  V30 14 C -0.290301 3.043142 1.006534 0
M  V30 15 O 0.214372 3.453510 2.096792 0
M  V30 16 C -1.668028 3.396966 0.643659 0
M  V30 17 C -2.568196 2.339520 0.558444 0
M  V30 18 C -3.902740 2.472074 0.225023 0
M  V30 19 C -4.352013 3.761189 -0.038050 0
M  V30 20 F -5.676078 3.926444 -0.374447 0
M  V30 21 C -3.493409 4.835665 0.035498 0
M  V30 22 C -2.170979 4.679277 0.367720 0
M  V30 23 C 0.031813 1.737489 -1.109737 0
M  V30 24 C 0.201384 0.247231 -1.270764 0
M  V30 25 C 0.787028 -2.255637 1.306760 0
M  V30 26 C 1.214989 -3.186258 0.380258 0
M  V30 27 C 1.236113 -4.529868 0.740033 0
M  V30 28 O 1.669950 -5.472262 -0.202337 0
M  V30 29 C 2.082480 -5.090065 -1.497887 0
M  V30 30 H 0.056029 -7.962429 3.265885 0
M  V30 31 H -0.098165 -6.354724 4.027169 0
M  V30 32 H 1.511008 -7.142524 4.006964 0
M  V30 33 H 0.122503 -4.366864 3.863843 0
M  V30 34 H -0.396290 0.266015 3.732512 0
M  V30 35 H 1.816907 -1.170375 -0.981004 0
M  V30 36 H 2.848560 0.894563 -1.045025 0
M  V30 37 H 3.065567 0.083406 0.551840 0
M  V30 38 H 2.572866 2.724650 0.264951 0
M  V30 39 H 1.906268 1.886377 1.659495 0
M  V30 40 H -2.304780 1.292961 0.741030 0
M  V30 41 H -4.621272 1.671538 0.149416 0
M  V30 42 H -3.846357 5.846437 -0.169272 0
M  V30 43 H -1.428768 5.445022 0.454488 0
M  V30 44 H 0.579752 2.313176 -1.916431 0
M  V30 45 H -1.030665 2.019121 -1.262553 0
M  V30 46 H -0.804228 -0.217670 -1.237800 0
M  V30 47 H 0.551984 0.099762 -2.336971 0
M  V30 48 H 1.540672 -2.974507 -0.623690 0
M  V30 49 H 1.287023 -4.677792 -2.122229 0
M  V30 50 H 2.948514 -4.367734 -1.406409 0
M  V30 51 H 2.516140 -5.958490 -2.052403 0
M  V30 END ATOM
M  V30 BEGIN BOND
M  V30 1 1 1 2
M  V30 2 1 2 3
M  V30 3 2 3 4
M  V30 4 1 4 5
M  V30 5 2 5 6
M  V30 6 1 6 7
M  V30 7 2 7 8
M  V30 8 1 8 9
M  V30 9 1 9 10
M  V30 10 1 10 11
M  V30 11 1 11 12
M  V30 12 1 12 13
M  V30 13 1 13 14
M  V30 14 2 14 15
M  V30 15 1 14 16
M  V30 16 2 16 17
M  V30 17 1 17 18
M  V30 18 2 18 19
M  V30 19 1 19 20
M  V30 20 1 19 21
M  V30 21 2 21 22
M  V30 22 1 13 23
M  V30 23 1 23 24
M  V30 24 2 9 25
M  V30 25 1 25 26
M  V30 26 2 26 27
M  V30 27 1 27 28
M  V30 28 1 28 29
M  V30 29 1 27 3
M  V30 30 1 25 5
M  V30 31 1 24 10
M  V30 32 1 22 16
M  V30 33 1 1 30
M  V30 34 1 1 31
M  V30 35 1 1 32
M  V30 36 1 4 33
M  V30 37 1 7 34
M  V30 38 1 10 35
M  V30 39 1 11 36
M  V30 40 1 11 37
M  V30 41 1 12 38
M  V30 42 1 12 39
M  V30 43 1 17 40
M  V30 44 1 18 41
M  V30 45 1 21 42
M  V30 46 1 22 43
M  V30 47 1 23 44
M  V30 48 1 23 45
M  V30 49 1 24 46
M  V30 50 1 24 47
M  V30 51 1 26 48
M  V30 52 1 29 49
M  V30 53 1 29 50
M  V30 54 1 29 51
M  V30 END BOND
M  V30 END CTAB
M  END
>  <Dataset>  (348) 
ChEMBL_Kinases

>  <Ligand_Instance>  (348) 
nan

>  <PDB_ID>  (348) 
nan

>  <Standardized_SMILES>  (348) 
COc1cc2ncnc(C3CCN(C(=O)c4ccc(F)cc4)CC3)c2cc1OC

>  <Name>  (348) 
nan

>  <Pocket>  (348) 
nan

>  <ATP_Site>  (348) 
nan

>  <Peripheral>  (348) 
nan

>  <Num_H_Atoms_ProtBoundConf>  (348) 
nan

>  <Num_Resolved_Atoms>  (348) 
nan

>  <Num_Not_Resolved_Atoms>  (348) 
nan

$$$$
CHEMBL4564744
     RDKit          3D

  0  0  0  0  0  0  0  0  0  0999 V3000
M  V30 BEGIN CTAB
M  V30 COUNTS 46 49 0 0 0
M  V30 BEGIN ATOM
M  V30 1 N 3.605019 -4.023930 2.456475 0
M  V30 2 C 3.781846 -2.702398 1.983722 0
M  V30 3 O 4.984359 -2.362142 2.018251 0
M  V30 4 C 2.762181 -1.794308 1.504775 0
M  V30 5 C 3.192839 -0.558656 1.098478 0
M  V30 6 C 2.241576 0.348183 0.629403 0
M  V30 7 C 2.553959 1.692931 0.165788 0
M  V30 8 C 1.772957 2.826066 0.235268 0
M  V30 9 C 2.269889 4.022992 -0.273943 0
M  V30 10 C 3.508822 4.102201 -0.839200 0
M  V30 11 F 3.960013 5.286115 -1.325332 0
M  V30 12 C 4.301638 2.963071 -0.912441 0
M  V30 13 C 3.824904 1.773956 -0.414036 0
M  V30 14 C 0.890224 -0.003302 0.579308 0
M  V30 15 C 0.514769 -1.249092 0.996854 0
M  V30 16 C -0.718445 -1.860645 1.060356 0
M  V30 17 C -1.988840 -1.204997 0.643014 0
M  V30 18 C -2.536961 -0.517517 1.847638 0
M  V30 19 C -4.041347 -0.485752 1.894575 0
M  V30 20 S -4.707511 -0.362971 0.233972 0
M  V30 21 O -4.310899 0.916001 -0.421832 0
M  V30 22 O -6.213186 -0.432460 0.331490 0
M  V30 23 C -4.066236 -1.790393 -0.634704 0
M  V30 24 C -2.861120 -2.314422 0.098395 0
M  V30 25 C -0.553102 -3.131389 1.560189 0
M  V30 26 N 0.763229 -3.285035 1.795440 0
M  V30 27 C 1.442310 -2.174969 1.469870 0
M  V30 28 H 3.563237 -4.589991 1.563655 0
M  V30 29 H 3.559534 -4.126490 3.512742 0
M  V30 30 H 4.202686 -0.207830 1.103142 0
M  V30 31 H 0.813539 2.652732 0.699977 0
M  V30 32 H 1.605294 4.874915 -0.187425 0
M  V30 33 H 5.273383 3.102172 -1.374240 0
M  V30 34 H 4.546727 0.969583 -0.537228 0
M  V30 35 H 0.138680 0.707753 0.210958 0
M  V30 36 H -1.754713 -0.512766 -0.195672 0
M  V30 37 H -2.157752 -1.003059 2.788111 0
M  V30 38 H -2.186933 0.540453 1.838738 0
M  V30 39 H -4.422057 -1.456075 2.303558 0
M  V30 40 H -4.418369 0.328928 2.541303 0
M  V30 41 H -3.876904 -1.544894 -1.678600 0
M  V30 42 H -4.854193 -2.571577 -0.595526 0
M  V30 43 H -2.233994 -2.852004 -0.658103 0
M  V30 44 H -3.099056 -3.060846 0.882623 0
M  V30 45 H -1.374684 -3.827944 1.711189 0
M  V30 46 H 1.190981 -4.146666 2.176929 0
M  V30 END ATOM
M  V30 BEGIN BOND
M  V30 1 1 1 2
M  V30 2 2 2 3
M  V30 3 1 2 4
M  V30 4 2 4 5
M  V30 5 1 5 6
M  V30 6 1 6 7
M  V30 7 2 7 8
M  V30 8 1 8 9
M  V30 9 2 9 10
M  V30 10 1 10 11
M  V30 11 1 10 12
M  V30 12 2 12 13
M  V30 13 2 6 14
M  V30 14 1 14 15
M  V30 15 1 15 16
M  V30 16 1 16 17
M  V30 17 1 17 18
M  V30 18 1 18 19
M  V30 19 1 19 20
M  V30 20 2 20 21
M  V30 21 2 20 22
M  V30 22 1 20 23
M  V30 23 1 23 24
M  V30 24 2 16 25
M  V30 25 1 25 26
M  V30 26 1 26 27
M  V30 27 1 27 4
M  V30 28 1 13 7
M  V30 29 2 27 15
M  V30 30 1 24 17
M  V30 31 1 1 28
M  V30 32 1 1 29
M  V30 33 1 5 30
M  V30 34 1 8 31
M  V30 35 1 9 32
M  V30 36 1 12 33
M  V30 37 1 13 34
M  V30 38 1 14 35
M  V30 39 1 17 36
M  V30 40 1 18 37
M  V30 41 1 18 38
M  V30 42 1 19 39
M  V30 43 1 19 40
M  V30 44 1 23 41
M  V30 45 1 23 42
M  V30 46 1 24 43
M  V30 47 1 24 44
M  V30 48 1 25 45
M  V30 49 1 26 46
M  V30 END BOND
M  V30 END CTAB
M  END
>  <Dataset>  (349) 
ChEMBL_Kinases

>  <Ligand_Instance>  (349) 
nan

>  <PDB_ID>  (349) 
nan

>  <Standardized_SMILES>  (349) 
NC(=O)c1cc(-c2ccc(F)cc2)cc2c(C3CCS(=O)(=O)CC3)c[nH]c12

>  <Name>  (349) 
nan

>  <Pocket>  (349) 
nan

>  <ATP_Site>  (349) 
nan

>  <Peripheral>  (349) 
nan

>  <Num_H_Atoms_ProtBoundConf>  (349) 
nan

>  <Num_Resolved_Atoms>  (349) 
nan

>  <Num_Not_Resolved_Atoms>  (349) 
nan

$$$$
CHEMBL4564624
     RDKit          3D

  0  0  0  0  0  0  0  0  0  0999 V3000
M  V30 BEGIN CTAB
M  V30 COUNTS 46 49 0 0 0
M  V30 BEGIN ATOM
M  V30 1 C 0.013946 -5.482542 0.264950 0
M  V30 2 C -0.038316 -4.573769 1.454744 0 CFG=1
M  V30 3 C 1.302524 -4.646879 2.196504 0
M  V30 4 N 1.609330 -5.969614 2.659357 0
M  V30 5 C -0.121117 -3.152649 0.974291 0
M  V30 6 C 0.868431 -2.702729 0.125443 0
M  V30 7 C 0.823720 -1.403832 -0.334930 0
M  V30 8 C -0.236123 -0.549416 0.069043 0
M  V30 9 C -0.517161 0.793446 -0.354016 0
M  V30 10 C -1.347165 0.600563 -1.472773 0
M  V30 11 O -1.840609 -0.563689 -2.102234 0
M  V30 12 C -1.830049 1.710177 -2.165139 0
M  V30 13 C -1.522668 3.004544 -1.792349 0
M  V30 14 Cl -2.083142 4.431195 -2.600859 0
M  V30 15 C -0.714885 3.154823 -0.702109 0
M  V30 16 N -0.373311 4.382602 -0.280804 0
M  V30 17 C 0.414886 4.617343 0.780121 0
M  V30 18 O 0.717898 5.756872 1.151997 0
M  V30 19 C 0.886848 3.491769 1.458807 0
M  V30 20 C 1.691517 3.720036 2.544777 0
M  V30 21 C 2.152682 2.614911 3.210690 0
M  V30 22 C 1.868090 1.299243 2.870167 0
M  V30 23 C 1.055238 1.198010 1.768518 0
M  V30 24 C 0.560436 2.230029 1.059194 0
M  V30 25 C -0.238159 2.074211 -0.018927 0
M  V30 26 C -1.222240 -1.074790 0.944048 0
M  V30 27 C -1.175721 -2.374792 1.403598 0
M  V30 28 H -0.493214 -6.451965 0.495201 0
M  V30 29 H 1.063898 -5.686661 -0.004744 0
M  V30 30 H -0.441585 -4.998284 -0.638426 0
M  V30 31 H -0.875239 -4.805121 2.116393 0
M  V30 32 H 1.299190 -3.898758 3.032813 0
M  V30 33 H 2.114410 -4.323992 1.513910 0
M  V30 34 H 2.015094 -5.932553 3.609554 0
M  V30 35 H 2.203443 -6.445942 1.965021 0
M  V30 36 H 1.701710 -3.298553 -0.220881 0
M  V30 37 H 1.518009 -0.907302 -0.998880 0
M  V30 38 H -2.727529 -0.890598 -1.729489 0
M  V30 39 H -2.477436 1.700138 -3.042471 0
M  V30 40 H -0.727727 5.222809 -0.790161 0
M  V30 41 H 1.928678 4.726785 2.831755 0
M  V30 42 H 2.790574 2.860171 4.069207 0
M  V30 43 H 2.334663 0.585747 3.529739 0
M  V30 44 H 0.951581 0.169075 1.667037 0
M  V30 45 H -2.061478 -0.493914 1.300138 0
M  V30 46 H -1.933628 -2.762624 2.070077 0
M  V30 END ATOM
M  V30 BEGIN BOND
M  V30 1 1 1 2
M  V30 2 1 2 3
M  V30 3 1 3 4
M  V30 4 1 2 5
M  V30 5 2 5 6
M  V30 6 1 6 7
M  V30 7 2 7 8
M  V30 8 1 8 9
M  V30 9 2 9 10
M  V30 10 1 10 11
M  V30 11 1 10 12
M  V30 12 2 12 13
M  V30 13 1 13 14
M  V30 14 1 13 15
M  V30 15 1 15 16
M  V30 16 1 16 17
M  V30 17 2 17 18
M  V30 18 1 17 19
M  V30 19 2 19 20
M  V30 20 1 20 21
M  V30 21 2 21 22
M  V30 22 1 22 23
M  V30 23 2 23 24
M  V30 24 1 24 25
M  V30 25 1 8 26
M  V30 26 2 26 27
M  V30 27 1 27 5
M  V30 28 1 25 9
M  V30 29 2 25 15
M  V30 30 1 24 19
M  V30 31 1 1 28
M  V30 32 1 1 29
M  V30 33 1 1 30
M  V30 34 1 2 31 CFG=1
M  V30 35 1 3 32
M  V30 36 1 3 33
M  V30 37 1 4 34
M  V30 38 1 4 35
M  V30 39 1 6 36
M  V30 40 1 7 37
M  V30 41 1 11 38
M  V30 42 1 12 39
M  V30 43 1 16 40
M  V30 44 1 20 41
M  V30 45 1 21 42
M  V30 46 1 22 43
M  V30 47 1 23 44
M  V30 48 1 26 45
M  V30 49 1 27 46
M  V30 END BOND
M  V30 END CTAB
M  END
>  <Dataset>  (350) 
ChEMBL_Kinases

>  <Ligand_Instance>  (350) 
nan

>  <PDB_ID>  (350) 
nan

>  <Standardized_SMILES>  (350) 
C[C@@H](CN)c1ccc(-c2c(O)cc(Cl)c3[nH]c(=O)c4ccccc4c23)cc1

>  <Name>  (350) 
nan

>  <Pocket>  (350) 
nan

>  <ATP_Site>  (350) 
nan

>  <Peripheral>  (350) 
nan

>  <Num_H_Atoms_ProtBoundConf>  (350) 
nan

>  <Num_Resolved_Atoms>  (350) 
nan

>  <Num_Not_Resolved_Atoms>  (350) 
nan

$$$$
CHEMBL4564623
     RDKit          3D

  0  0  0  0  0  0  0  0  0  0999 V3000
M  V30 BEGIN CTAB
M  V30 COUNTS 38 40 0 0 0
M  V30 BEGIN ATOM
M  V30 1 C -1.144184 -3.405899 4.949005 0
M  V30 2 O -1.104614 -2.144100 4.275624 0
M  V30 3 C -0.757229 -2.138259 2.910973 0
M  V30 4 C -0.463456 -3.304945 2.238129 0
M  V30 5 C -0.130587 -3.230896 0.902280 0
M  V30 6 C -0.088402 -2.014751 0.237061 0
M  V30 7 C 0.204374 -1.675104 -1.055919 0
M  V30 8 C 0.553032 -2.512287 -2.100238 0
M  V30 9 C 0.789514 -1.891438 -3.310242 0
M  V30 10 N 0.681951 -0.559254 -3.442397 0
M  V30 11 C 0.338589 0.275460 -2.419093 0
M  V30 12 C 0.217889 1.730513 -2.618902 0
M  V30 13 C 0.088177 -0.303776 -1.167976 0
M  V30 14 N -0.271383 0.224841 0.032332 0
M  V30 15 C -0.479249 1.595228 0.367811 0
M  V30 16 C 0.729264 2.315223 0.908578 0
M  V30 17 C 1.262185 1.715144 2.165047 0
M  V30 18 N 2.412200 2.433803 2.666801 0
M  V30 19 O 1.601332 1.092889 3.228430 0
M  V30 20 C -0.378134 -0.835727 0.889275 0
M  V30 21 C -0.706612 -0.950083 2.224418 0
M  V30 22 H -1.565862 -3.246076 5.967062 0
M  V30 23 H -1.737919 -4.158945 4.403597 0
M  V30 24 H -0.127558 -3.823258 5.087205 0
M  V30 25 H -0.496245 -4.258024 2.758067 0
M  V30 26 H 0.087442 -4.163026 0.429723 0
M  V30 27 H 0.642489 -3.582480 -2.007805 0
M  V30 28 H 1.074382 -2.454532 -4.214120 0
M  V30 29 H 0.810260 2.369337 -1.978553 0
M  V30 30 H -0.859434 2.045876 -2.740649 0
M  V30 31 H 0.623473 1.935308 -3.657796 0
M  V30 32 H -0.959033 2.225477 -0.371599 0
M  V30 33 H -1.202659 1.598411 1.243085 0
M  V30 34 H 0.394428 3.336840 1.178833 0
M  V30 35 H 1.580457 2.392998 0.241469 0
M  V30 36 H 3.401323 2.799876 2.531233 0
M  V30 37 H 3.397934 2.804555 2.545115 0
M  V30 38 H -0.943416 -0.060054 2.786316 0
M  V30 END ATOM
M  V30 BEGIN BOND
M  V30 1 1 1 2
M  V30 2 1 2 3
M  V30 3 2 3 4
M  V30 4 1 4 5
M  V30 5 2 5 6
M  V30 6 1 6 7
M  V30 7 2 7 8
M  V30 8 1 8 9
M  V30 9 2 9 10
M  V30 10 1 10 11
M  V30 11 1 11 12
M  V30 12 2 11 13
M  V30 13 1 13 14
M  V30 14 1 14 15
M  V30 15 1 15 16
M  V30 16 1 16 17
M  V30 17 1 17 18
M  V30 18 2 17 19
M  V30 19 1 14 20
M  V30 20 2 20 21
M  V30 21 1 21 3
M  V30 22 1 20 6
M  V30 23 1 13 7
M  V30 24 1 1 22
M  V30 25 1 1 23
M  V30 26 1 1 24
M  V30 27 1 4 25
M  V30 28 1 5 26
M  V30 29 1 8 27
M  V30 30 1 9 28
M  V30 31 1 12 29
M  V30 32 1 12 30
M  V30 33 1 12 31
M  V30 34 1 15 32
M  V30 35 1 15 33
M  V30 36 1 16 34
M  V30 37 1 16 35
M  V30 38 1 18 36
M  V30 39 1 18 37
M  V30 40 1 21 38
M  V30 END BOND
M  V30 END CTAB
M  END
>  <Dataset>  (351) 
ChEMBL_Kinases

>  <Ligand_Instance>  (351) 
nan

>  <PDB_ID>  (351) 
nan

>  <Standardized_SMILES>  (351) 
COc1ccc2c3ccnc(C)c3n(CCC(N)=O)c2c1

>  <Name>  (351) 
nan

>  <Pocket>  (351) 
nan

>  <ATP_Site>  (351) 
nan

>  <Peripheral>  (351) 
nan

>  <Num_H_Atoms_ProtBoundConf>  (351) 
nan

>  <Num_Resolved_Atoms>  (351) 
nan

>  <Num_Not_Resolved_Atoms>  (351) 
nan

$$$$
CHEMBL4636582
     RDKit          3D

  0  0  0  0  0  0  0  0  0  0999 V3000
M  V30 BEGIN CTAB
M  V30 COUNTS 44 47 0 0 0
M  V30 BEGIN ATOM
M  V30 1 C -1.432968 -4.763353 3.079473 0
M  V30 2 C -0.302793 -3.817371 2.737657 0 CFG=2
M  V30 3 C 0.346116 -4.186983 1.420048 0
M  V30 4 N 1.264319 -3.139206 1.071774 0
M  V30 5 C 1.122826 -2.488993 -0.230152 0
M  V30 6 S 1.670468 -3.366091 -1.549618 0
M  V30 7 N 1.242923 -2.058270 -2.824688 0
M  V30 8 C 0.721387 -1.098679 -2.020529 0
M  V30 9 C 0.252591 0.111074 -2.486215 0
M  V30 10 C -0.258202 1.055174 -1.626148 0
M  V30 11 N -0.736628 2.287132 -2.147509 0
M  V30 12 C -0.642671 3.554840 -1.517140 0
M  V30 13 C -1.416150 4.662277 -1.829358 0
M  V30 14 C -1.202664 5.840508 -1.155663 0
M  V30 15 C -0.242234 5.984469 -0.166251 0
M  V30 16 C 0.514602 4.881777 0.132060 0
M  V30 17 C 0.320236 3.685533 -0.530800 0
M  V30 18 C -0.328071 0.840994 -0.263007 0
M  V30 19 N 0.140033 -0.351285 0.144259 0
M  V30 20 C 0.644541 -1.291833 -0.669812 0
M  V30 21 C 2.232750 -2.877734 2.136847 0
M  V30 22 C 1.573529 -2.862973 3.492490 0 CFG=2
M  V30 23 C 2.653420 -2.809056 4.551076 0
M  V30 24 O 0.730803 -3.926796 3.698860 0
M  V30 25 H -1.224768 -5.282986 4.029327 0
M  V30 26 H -2.347192 -4.144043 3.227467 0
M  V30 27 H -1.656564 -5.475127 2.259256 0
M  V30 28 H -0.622191 -2.757976 2.652468 0
M  V30 29 H 0.865308 -5.155678 1.613701 0
M  V30 30 H -0.444366 -4.384394 0.670360 0
M  V30 31 H 0.262602 0.373521 -3.533932 0
M  V30 32 H -1.220154 2.331950 -3.091816 0
M  V30 33 H -2.164473 4.541118 -2.603816 0
M  V30 34 H -1.868220 6.646664 -1.482065 0
M  V30 35 H -0.234350 6.989214 0.240649 0
M  V30 36 H 1.250592 5.064134 0.919266 0
M  V30 37 H 1.026259 2.937888 -0.156917 0
M  V30 38 H -0.724874 1.530233 0.470106 0
M  V30 39 H 3.076035 -3.593785 2.100196 0
M  V30 40 H 2.677117 -1.860570 1.994299 0
M  V30 41 H 0.956933 -1.945062 3.634971 0
M  V30 42 H 2.809270 -1.773888 4.955596 0
M  V30 43 H 3.658243 -3.087483 4.129070 0
M  V30 44 H 2.454517 -3.489706 5.401748 0
M  V30 END ATOM
M  V30 BEGIN BOND
M  V30 1 1 1 2
M  V30 2 1 2 3
M  V30 3 1 3 4
M  V30 4 1 4 5
M  V30 5 1 5 6
M  V30 6 1 6 7
M  V30 7 2 7 8
M  V30 8 1 8 9
M  V30 9 2 9 10
M  V30 10 1 10 11
M  V30 11 1 11 12
M  V30 12 2 12 13
M  V30 13 1 13 14
M  V30 14 2 14 15
M  V30 15 1 15 16
M  V30 16 2 16 17
M  V30 17 1 10 18
M  V30 18 2 18 19
M  V30 19 1 19 20
M  V30 20 1 4 21
M  V30 21 1 21 22
M  V30 22 1 22 23
M  V30 23 1 22 24
M  V30 24 1 24 2
M  V30 25 2 20 5
M  V30 26 1 20 8
M  V30 27 1 17 12
M  V30 28 1 1 25
M  V30 29 1 1 26
M  V30 30 1 1 27
M  V30 31 1 2 28 CFG=3
M  V30 32 1 3 29
M  V30 33 1 3 30
M  V30 34 1 9 31
M  V30 35 1 11 32
M  V30 36 1 13 33
M  V30 37 1 14 34
M  V30 38 1 15 35
M  V30 39 1 16 36
M  V30 40 1 17 37
M  V30 41 1 18 38
M  V30 42 1 21 39
M  V30 43 1 21 40
M  V30 44 1 22 41 CFG=3
M  V30 45 1 23 42
M  V30 46 1 23 43
M  V30 47 1 23 44
M  V30 END BOND
M  V30 END CTAB
M  END
>  <Dataset>  (352) 
ChEMBL_Kinases

>  <Ligand_Instance>  (352) 
nan

>  <PDB_ID>  (352) 
nan

>  <Standardized_SMILES>  (352) 
C[C@@H]1CN(c2snc3cc(Nc4ccccc4)cnc23)C[C@H](C)O1

>  <Name>  (352) 
nan

>  <Pocket>  (352) 
nan

>  <ATP_Site>  (352) 
nan

>  <Peripheral>  (352) 
nan

>  <Num_H_Atoms_ProtBoundConf>  (352) 
nan

>  <Num_Resolved_Atoms>  (352) 
nan

>  <Num_Not_Resolved_Atoms>  (352) 
nan

$$$$
CHEMBL4636722
     RDKit          3D

  0  0  0  0  0  0  0  0  0  0999 V3000
M  V30 BEGIN CTAB
M  V30 COUNTS 59 61 0 0 0
M  V30 BEGIN ATOM
M  V30 1 C 6.072702 -2.425893 9.427960 0
M  V30 2 O 5.011443 -2.884606 8.599991 0
M  V30 3 C 4.632937 -2.083142 7.533235 0
M  V30 4 C 5.224105 -0.875956 7.239873 0
M  V30 5 C 4.820786 -0.107668 6.172623 0
M  V30 6 C 3.783260 -0.520122 5.329350 0
M  V30 7 C 3.401703 0.323770 4.217902 0
M  V30 8 C 2.414156 -0.048616 3.425263 0
M  V30 9 C 2.108954 0.865060 2.341311 0
M  V30 10 O 2.823335 2.072440 2.140739 0
M  V30 11 C 1.223790 0.837279 1.386687 0
M  V30 12 C 0.753532 1.580230 0.258510 0
M  V30 13 O 1.404148 2.643984 0.128569 0
M  V30 14 C -0.313830 1.198390 -0.632747 0
M  V30 15 C -1.064828 0.121538 -0.623306 0
M  V30 16 C -2.131882 -0.218034 -1.549178 0
M  V30 17 C -2.863347 -1.380819 -1.455584 0
M  V30 18 C -3.870432 -1.706928 -2.337050 0
M  V30 19 C -4.214243 -0.853792 -3.401198 0
M  V30 20 O -5.208718 -1.228205 -4.229691 0
M  V30 21 C -5.789980 -0.673998 -5.337840 0
M  V30 22 C -4.956203 -0.440746 -6.516862 0
M  V30 23 C -4.835249 -1.568868 -7.344836 0
M  V30 24 C -4.092856 -1.547404 -8.514717 0
M  V30 25 C -3.428674 -0.422086 -8.939967 0
M  V30 26 C -3.549669 0.678688 -8.130747 0
M  V30 27 C -4.275011 0.671751 -6.979460 0
M  V30 28 C -3.444856 0.277368 -3.424516 0
M  V30 29 C -2.429447 0.672702 -2.589004 0
M  V30 30 C 3.234527 -1.716819 5.662070 0
M  V30 31 C 3.593507 -2.530939 6.715564 0
M  V30 32 O 2.995554 -3.727265 6.990319 0
M  V30 33 C 1.944224 -4.269448 6.218345 0
M  V30 34 H 5.828575 -1.468174 9.937148 0
M  V30 35 H 6.361911 -3.196344 10.169838 0
M  V30 36 H 6.959051 -2.247543 8.787907 0
M  V30 37 H 6.028227 -0.594676 7.924230 0
M  V30 38 H 5.330403 0.847607 5.994540 0
M  V30 39 H 3.938126 1.258367 4.051020 0
M  V30 40 H 1.841038 -0.948403 3.522718 0
M  V30 41 H 3.725327 1.959951 1.689115 0
M  V30 42 H 0.639508 -0.103556 1.519282 0
M  V30 43 H -0.512126 1.908845 -1.413080 0
M  V30 44 H -0.832230 -0.573411 0.187931 0
M  V30 45 H -2.599564 -2.051989 -0.626595 0
M  V30 46 H -4.362047 -2.652503 -2.143252 0
M  V30 47 H -6.274050 0.304139 -5.024909 0
M  V30 48 H -6.658740 -1.318814 -5.627551 0
M  V30 49 H -5.276614 -2.543844 -7.195189 0
M  V30 50 H -3.974788 -2.398067 -9.180133 0
M  V30 51 H -2.818873 -0.224918 -9.803765 0
M  V30 52 H -3.084013 1.642996 -8.328472 0
M  V30 53 H -4.395196 1.529582 -6.332451 0
M  V30 54 H -3.660984 0.979980 -4.209702 0
M  V30 55 H -1.921873 1.614820 -2.760296 0
M  V30 56 H 2.435665 -2.100957 5.066006 0
M  V30 57 H 1.028444 -3.646502 6.228050 0
M  V30 58 H 1.670864 -5.257467 6.640139 0
M  V30 59 H 2.279391 -4.445903 5.155412 0
M  V30 END ATOM
M  V30 BEGIN BOND
M  V30 1 1 1 2
M  V30 2 1 2 3
M  V30 3 2 3 4
M  V30 4 1 4 5
M  V30 5 2 5 6
M  V30 6 1 6 7
M  V30 7 2 7 8
M  V30 8 1 8 9
M  V30 9 1 9 10
M  V30 10 2 9 11
M  V30 11 1 11 12
M  V30 12 2 12 13
M  V30 13 1 12 14
M  V30 14 2 14 15
M  V30 15 1 15 16
M  V30 16 2 16 17
M  V30 17 1 17 18
M  V30 18 2 18 19
M  V30 19 1 19 20
M  V30 20 1 20 21
M  V30 21 1 21 22
M  V30 22 2 22 23
M  V30 23 1 23 24
M  V30 24 2 24 25
M  V30 25 1 25 26
M  V30 26 2 26 27
M  V30 27 1 19 28
M  V30 28 2 28 29
M  V30 29 1 6 30
M  V30 30 2 30 31
M  V30 31 1 31 32
M  V30 32 1 32 33
M  V30 33 1 31 3
M  V30 34 1 29 16
M  V30 35 1 27 22
M  V30 36 1 1 34
M  V30 37 1 1 35
M  V30 38 1 1 36
M  V30 39 1 4 37
M  V30 40 1 5 38
M  V30 41 1 7 39
M  V30 42 1 8 40
M  V30 43 1 10 41
M  V30 44 1 11 42
M  V30 45 1 14 43
M  V30 46 1 15 44
M  V30 47 1 17 45
M  V30 48 1 18 46
M  V30 49 1 21 47
M  V30 50 1 21 48
M  V30 51 1 23 49
M  V30 52 1 24 50
M  V30 53 1 25 51
M  V30 54 1 26 52
M  V30 55 1 27 53
M  V30 56 1 28 54
M  V30 57 1 29 55
M  V30 58 1 30 56
M  V30 59 1 33 57
M  V30 60 1 33 58
M  V30 61 1 33 59
M  V30 END BOND
M  V30 END CTAB
M  END
>  <Dataset>  (353) 
ChEMBL_Kinases

>  <Ligand_Instance>  (353) 
nan

>  <PDB_ID>  (353) 
nan

>  <Standardized_SMILES>  (353) 
COc1ccc(/C=C/C(O)=C/C(=O)/C=C/c2ccc(OCc3ccccc3)cc2)cc1OC

>  <Name>  (353) 
nan

>  <Pocket>  (353) 
nan

>  <ATP_Site>  (353) 
nan

>  <Peripheral>  (353) 
nan

>  <Num_H_Atoms_ProtBoundConf>  (353) 
nan

>  <Num_Resolved_Atoms>  (353) 
nan

>  <Num_Not_Resolved_Atoms>  (353) 
nan

$$$$
CHEMBL4564420
     RDKit          3D

  0  0  0  0  0  0  0  0  0  0999 V3000
M  V30 BEGIN CTAB
M  V30 COUNTS 101 104 0 0 0
M  V30 BEGIN ATOM
M  V30 1 C 3.000178 -5.388436 4.449910 0
M  V30 2 C 2.167990 -5.444350 3.201678 0
M  V30 3 C 2.530588 -6.446184 2.170096 0
M  V30 4 C 3.774059 -6.321088 1.391945 0
M  V30 5 C 3.679630 -4.963805 0.699079 0
M  V30 6 C 4.616060 -4.671846 -0.393692 0
M  V30 7 C 4.518013 -3.184413 -0.807431 0
M  V30 8 C 3.114427 -2.803603 -0.996972 0
M  V30 9 O 2.502996 -3.139507 0.014039 0
M  V30 10 O 2.063540 -2.231752 -1.736582 0
M  V30 11 C 0.761477 -2.255496 -1.283654 0 CFG=1
M  V30 12 C 0.416653 -1.104575 -0.402745 0
M  V30 13 C 1.274124 -0.220005 -0.119706 0
M  V30 14 C 1.206376 0.939606 0.655300 0
M  V30 15 O -0.039663 1.008556 1.043939 0
M  V30 16 O 1.157276 1.996961 1.358376 0
M  V30 17 C 1.097609 3.083619 2.083404 0
M  V30 18 C -0.974974 -1.063455 0.174944 0
M  V30 19 C -1.512323 -2.437005 -0.276814 0 CFG=1
M  V30 20 C -2.874799 -2.650283 0.267968 0
M  V30 21 C -3.186990 -2.134604 1.620268 0 CFG=2
M  V30 22 C -4.470537 -2.952914 2.006422 0
M  V30 23 O -4.040204 -4.243559 2.315533 0
M  V30 24 O -3.667003 -0.771126 1.403002 0
M  V30 25 C -3.172513 0.156268 2.357173 0
M  V30 26 O -2.382599 -0.187706 3.285297 0
M  V30 27 C -3.669915 1.527813 2.159325 0
M  V30 28 C -4.655106 1.581130 1.004410 0
M  V30 29 O -4.099159 1.563703 -0.292217 0
M  V30 30 C -3.297303 2.658738 -0.701772 0
M  V30 31 C -3.330269 3.771327 0.093515 0
M  V30 32 C -2.544096 4.761843 -0.385308 0
M  V30 33 C -1.743645 4.874251 -1.459142 0
M  V30 34 C -1.001826 6.091266 -1.595166 0
M  V30 35 C -0.646609 6.809707 -2.727627 0
M  V30 36 C 0.142047 7.927456 -2.735751 0
M  V30 37 C 0.579856 8.312837 -1.514854 0
M  V30 38 C 0.332687 7.742841 -0.291857 0
M  V30 39 C -0.482233 6.613606 -0.391558 0
M  V30 40 C -1.821319 3.687523 -2.154230 0
M  V30 41 C -2.543829 2.494692 -1.909136 0
M  V30 42 C -2.283234 1.429729 -2.908042 0
M  V30 43 O -2.867435 1.730191 -3.951557 0
M  V30 44 O -1.476740 0.285826 -2.665461 0
M  V30 45 C -1.328131 -0.657807 -3.665936 0
M  V30 46 C -0.315507 -1.741329 -3.474092 0
M  V30 47 C -0.478125 -2.689271 -4.683508 0
M  V30 48 C 1.037131 -1.056740 -3.759521 0
M  V30 49 C -0.307222 -2.527635 -2.246426 0 CFG=1
M  V30 50 O -0.114615 -3.912335 -2.622201 0
M  V30 51 O -1.555346 -2.543424 -1.656846 0
M  V30 52 H 3.691082 -6.230996 4.516522 0
M  V30 53 H 3.513797 -4.447619 4.638323 0
M  V30 54 H 2.319601 -5.521642 5.366990 0
M  V30 55 H 1.070018 -5.410622 3.449969 0
M  V30 56 H 2.298160 -4.373484 2.752068 0
M  V30 57 H 1.649698 -6.530969 1.436700 0
M  V30 58 H 2.505255 -7.467196 2.688575 0
M  V30 59 H 3.884921 -7.156777 0.701527 0
M  V30 60 H 4.622160 -6.315049 2.097020 0
M  V30 61 H 3.811909 -4.238898 1.503207 0
M  V30 62 H 2.658572 -5.039048 0.237417 0
M  V30 63 H 4.347342 -5.324003 -1.278958 0
M  V30 64 H 5.704659 -4.897785 -0.205091 0
M  V30 65 H 5.113090 -2.581462 -0.142857 0
M  V30 66 H 4.949078 -3.110959 -1.857202 0
M  V30 67 H 0.732014 -3.084644 -0.493386 0
M  V30 68 H 2.351033 -0.216514 -0.435880 0
M  V30 69 H 0.258518 3.175745 2.826357 0
M  V30 70 H 2.094033 3.382853 2.534422 0
M  V30 71 H 0.921166 3.983560 1.391508 0
M  V30 72 H -0.832638 -1.168398 1.267176 0
M  V30 73 H -1.601381 -0.260639 -0.134732 0
M  V30 74 H -0.910521 -3.272068 0.201446 0
M  V30 75 H -3.542942 -2.078801 -0.498963 0
M  V30 76 H -3.150177 -3.716063 0.084230 0
M  V30 77 H -2.493239 -2.216957 2.414096 0
M  V30 78 H -4.974591 -2.479268 2.803771 0
M  V30 79 H -5.080988 -3.029030 1.076575 0
M  V30 80 H -3.978982 -4.779403 1.509446 0
M  V30 81 H -2.766696 2.183856 1.915187 0
M  V30 82 H -4.081804 1.949626 3.068275 0
M  V30 83 H -5.336343 0.699309 1.152069 0
M  V30 84 H -5.306448 2.448628 1.129017 0
M  V30 85 H -3.954089 3.794640 0.951416 0
M  V30 86 H -2.620596 5.639610 0.322273 0
M  V30 87 H -1.064959 6.414317 -3.628886 0
M  V30 88 H 0.380697 8.479138 -3.656518 0
M  V30 89 H 1.220801 9.204627 -1.476431 0
M  V30 90 H 0.738410 8.144790 0.608308 0
M  V30 91 H -0.676983 6.134037 0.589559 0
M  V30 92 H -1.229834 3.695662 -3.076935 0
M  V30 93 H -2.360620 -1.171675 -3.757185 0
M  V30 94 H -1.114822 -0.168161 -4.667019 0
M  V30 95 H -0.936135 -2.177757 -5.545737 0
M  V30 96 H -1.072680 -3.578453 -4.346679 0
M  V30 97 H 0.537187 -3.046999 -4.915524 0
M  V30 98 H 0.827773 -0.462929 -4.656922 0
M  V30 99 H 1.796547 -1.779615 -3.995426 0
M  V30 100 H 1.237223 -0.378730 -2.945671 0
M  V30 101 H 0.856893 -4.045417 -2.687550 0
M  V30 END ATOM
M  V30 BEGIN BOND
M  V30 1 1 1 2
M  V30 2 1 2 3
M  V30 3 1 3 4
M  V30 4 1 4 5
M  V30 5 1 5 6
M  V30 6 1 6 7
M  V30 7 1 7 8
M  V30 8 2 8 9
M  V30 9 1 8 10
M  V30 10 1 10 11
M  V30 11 1 11 12
M  V30 12 2 12 13
M  V30 13 1 13 14
M  V30 14 2 14 15
M  V30 15 1 14 16
M  V30 16 1 16 17
M  V30 17 1 12 18
M  V30 18 1 18 19
M  V30 19 1 19 20
M  V30 20 1 20 21
M  V30 21 1 21 22
M  V30 22 1 22 23
M  V30 23 1 21 24
M  V30 24 1 24 25
M  V30 25 2 25 26
M  V30 26 1 25 27
M  V30 27 1 27 28
M  V30 28 1 28 29
M  V30 29 1 29 30
M  V30 30 2 30 31
M  V30 31 1 31 32
M  V30 32 2 32 33
M  V30 33 1 33 34
M  V30 34 2 34 35
M  V30 35 1 35 36
M  V30 36 2 36 37
M  V30 37 1 37 38
M  V30 38 2 38 39
M  V30 39 1 33 40
M  V30 40 2 40 41
M  V30 41 1 41 42
M  V30 42 2 42 43
M  V30 43 1 42 44
M  V30 44 1 44 45
M  V30 45 1 45 46
M  V30 46 1 46 47
M  V30 47 1 46 48
M  V30 48 1 46 49
M  V30 49 1 49 50 CFG=3
M  V30 50 1 49 51
M  V30 51 1 49 11
M  V30 52 1 51 19
M  V30 53 1 41 30
M  V30 54 1 39 34
M  V30 55 1 1 52
M  V30 56 1 1 53
M  V30 57 1 1 54
M  V30 58 1 2 55
M  V30 59 1 2 56
M  V30 60 1 3 57
M  V30 61 1 3 58
M  V30 62 1 4 59
M  V30 63 1 4 60
M  V30 64 1 5 61
M  V30 65 1 5 62
M  V30 66 1 6 63
M  V30 67 1 6 64
M  V30 68 1 7 65
M  V30 69 1 7 66
M  V30 70 1 11 67 CFG=1
M  V30 71 1 13 68
M  V30 72 1 17 69
M  V30 73 1 17 70
M  V30 74 1 17 71
M  V30 75 1 18 72
M  V30 76 1 18 73
M  V30 77 1 19 74 CFG=1
M  V30 78 1 20 75
M  V30 79 1 20 76
M  V30 80 1 21 77 CFG=1
M  V30 81 1 22 78
M  V30 82 1 22 79
M  V30 83 1 23 80
M  V30 84 1 27 81
M  V30 85 1 27 82
M  V30 86 1 28 83
M  V30 87 1 28 84
M  V30 88 1 31 85
M  V30 89 1 32 86
M  V30 90 1 35 87
M  V30 91 1 36 88
M  V30 92 1 37 89
M  V30 93 1 38 90
M  V30 94 1 39 91
M  V30 95 1 40 92
M  V30 96 1 45 93
M  V30 97 1 45 94
M  V30 98 1 47 95
M  V30 99 1 47 96
M  V30 100 1 47 97
M  V30 101 1 48 98
M  V30 102 1 48 99
M  V30 103 1 48 100
M  V30 104 1 50 101
M  V30 END BOND
M  V30 END CTAB
M  END
>  <Dataset>  (354) 
ChEMBL_Kinases

>  <Ligand_Instance>  (354) 
nan

>  <PDB_ID>  (354) 
nan

>  <Standardized_SMILES>  (354) 
CCCCCCCC(=O)O[C@H]1/C(=C/C(=O)OC)C[C@H]2C[C@H](CO)OC(=O)CCOc3ccc(-c4ccccc4)cc3C(=O)OCC(C)(C)[C@]1(O)O2

>  <Name>  (354) 
nan

>  <Pocket>  (354) 
nan

>  <ATP_Site>  (354) 
nan

>  <Peripheral>  (354) 
nan

>  <Num_H_Atoms_ProtBoundConf>  (354) 
nan

>  <Num_Resolved_Atoms>  (354) 
nan

>  <Num_Not_Resolved_Atoms>  (354) 
nan

$$$$
CHEMBL4636735
     RDKit          3D

  0  0  0  0  0  0  0  0  0  0999 V3000
M  V30 BEGIN CTAB
M  V30 COUNTS 45 48 0 0 0
M  V30 BEGIN ATOM
M  V30 1 C 0.040051 -7.210440 4.293292 0
M  V30 2 O 0.148901 -5.855674 3.832882 0
M  V30 3 C -0.715936 -5.397619 2.855226 0
M  V30 4 C -0.684854 -4.112589 2.349905 0
M  V30 5 C -1.539671 -3.642894 1.378701 0
M  V30 6 C -1.454877 -2.275203 0.882988 0
M  V30 7 C -0.132998 -1.803293 0.885648 0
M  V30 8 N 0.095466 -0.546713 0.471790 0
M  V30 9 C -0.848166 0.304866 0.049605 0
M  V30 10 C -0.699860 1.564942 -0.370952 0
M  V30 11 N 0.513355 2.308504 -0.493219 0
M  V30 12 C 0.785915 3.636978 -0.014969 0
M  V30 13 C 1.903854 4.283809 -0.772763 0 CFG=1
M  V30 14 C 2.197799 5.631166 -0.133225 0
M  V30 15 O 3.077140 3.574752 -0.848779 0
M  V30 16 C 2.944892 2.212650 -0.690855 0 CFG=1
M  V30 17 C 3.212141 1.722155 0.699909 0
M  V30 18 C 1.610216 1.694865 -1.183507 0
M  V30 19 S -2.262763 2.222923 -0.800674 0
M  V30 20 N -3.187911 0.651364 -0.369675 0
M  V30 21 C -2.146051 -0.147829 0.042059 0
M  V30 22 C -2.452952 -1.432701 0.456883 0
M  V30 23 C -2.457863 -4.556243 0.921853 0
M  V30 24 C -2.536637 -5.854004 1.388707 0
M  V30 25 N -1.658782 -6.220825 2.339966 0
M  V30 26 H -0.937085 -7.659841 3.991331 0
M  V30 27 H 0.811483 -7.796599 3.714940 0
M  V30 28 H 0.261202 -7.299863 5.355753 0
M  V30 29 H 0.086013 -3.459904 2.781195 0
M  V30 30 H 0.742666 -2.380091 1.197092 0
M  V30 31 H -0.122817 4.252275 -0.188424 0
M  V30 32 H 0.945956 3.659731 1.096935 0
M  V30 33 H 1.540713 4.477907 -1.804604 0
M  V30 34 H 1.612485 5.795947 0.790723 0
M  V30 35 H 3.279939 5.706527 0.150683 0
M  V30 36 H 1.974631 6.472340 -0.838968 0
M  V30 37 H 3.709308 1.743775 -1.350971 0
M  V30 38 H 2.466451 0.923300 0.929580 0
M  V30 39 H 3.130330 2.513977 1.466317 0
M  V30 40 H 4.257276 1.334911 0.784021 0
M  V30 41 H 1.586020 0.607734 -0.987731 0
M  V30 42 H 1.520805 1.801457 -2.293436 0
M  V30 43 H -3.401288 -1.904034 0.500397 0
M  V30 44 H -3.177749 -4.286125 0.153822 0
M  V30 45 H -3.207916 -6.629375 1.100695 0
M  V30 END ATOM
M  V30 BEGIN BOND
M  V30 1 1 1 2
M  V30 2 1 2 3
M  V30 3 2 3 4
M  V30 4 1 4 5
M  V30 5 1 5 6
M  V30 6 1 6 7
M  V30 7 2 7 8
M  V30 8 1 8 9
M  V30 9 2 9 10
M  V30 10 1 10 11
M  V30 11 1 11 12
M  V30 12 1 12 13
M  V30 13 1 13 14
M  V30 14 1 13 15
M  V30 15 1 15 16
M  V30 16 1 16 17
M  V30 17 1 16 18
M  V30 18 1 10 19
M  V30 19 1 19 20
M  V30 20 2 20 21
M  V30 21 1 21 22
M  V30 22 2 5 23
M  V30 23 1 23 24
M  V30 24 2 24 25
M  V30 25 1 25 3
M  V30 26 2 22 6
M  V30 27 1 21 9
M  V30 28 1 18 11
M  V30 29 1 1 26
M  V30 30 1 1 27
M  V30 31 1 1 28
M  V30 32 1 4 29
M  V30 33 1 7 30
M  V30 34 1 12 31
M  V30 35 1 12 32
M  V30 36 1 13 33 CFG=3
M  V30 37 1 14 34
M  V30 38 1 14 35
M  V30 39 1 14 36
M  V30 40 1 16 37 CFG=3
M  V30 41 1 17 38
M  V30 42 1 17 39
M  V30 43 1 17 40
M  V30 44 1 18 41
M  V30 45 1 18 42
M  V30 46 1 22 43
M  V30 47 1 23 44
M  V30 48 1 24 45
M  V30 END BOND
M  V30 END CTAB
M  END
>  <Dataset>  (355) 
ChEMBL_Kinases

>  <Ligand_Instance>  (355) 
nan

>  <PDB_ID>  (355) 
nan

>  <Standardized_SMILES>  (355) 
COc1cc(-c2cnc3c(N4C[C@@H](C)O[C@@H](C)C4)snc3c2)ccn1

>  <Name>  (355) 
nan

>  <Pocket>  (355) 
nan

>  <ATP_Site>  (355) 
nan

>  <Peripheral>  (355) 
nan

>  <Num_H_Atoms_ProtBoundConf>  (355) 
nan

>  <Num_Resolved_Atoms>  (355) 
nan

>  <Num_Not_Resolved_Atoms>  (355) 
nan

$$$$
CHEMBL4564095
     RDKit          3D

  0  0  0  0  0  0  0  0  0  0999 V3000
M  V30 BEGIN CTAB
M  V30 COUNTS 43 45 0 0 0
M  V30 BEGIN ATOM
M  V30 1 C 0.565646 -4.489947 1.900207 0
M  V30 2 C 0.685059 -2.933489 1.885041 0
M  V30 3 C 2.141018 -2.649460 1.629618 0
M  V30 4 C 0.373131 -2.525563 3.318581 0
M  V30 5 C 0.407465 -1.055382 3.587985 0
M  V30 6 O 0.106962 -0.806706 4.958458 0
M  V30 7 N -0.200903 -2.354977 0.915699 0
M  V30 8 C -0.289758 -1.101966 0.258289 0
M  V30 9 C 0.615772 -0.075230 0.418791 0
M  V30 10 C 0.576370 1.140012 -0.222047 0
M  V30 11 C 1.539476 2.213486 -0.041204 0
M  V30 12 C 1.342014 3.368332 -0.769509 0
M  V30 13 C 2.190299 4.456610 -0.681816 0
M  V30 14 N 3.255787 4.408062 0.139880 0
M  V30 15 C 3.474955 3.286206 0.867824 0
M  V30 16 C 2.625165 2.183856 0.786088 0
M  V30 17 N -0.448861 1.315380 -1.077393 0
M  V30 18 C -1.373066 0.365149 -1.290798 0
M  V30 19 C -2.401072 0.598563 -2.177316 0
M  V30 20 N -3.365764 -0.274379 -2.459558 0
M  V30 21 C -3.324564 -1.479829 -1.821979 0
M  V30 22 C -2.300136 -1.721652 -0.933916 0
M  V30 23 C -1.303780 -0.836725 -0.634037 0
M  V30 24 H 1.350342 -4.915822 2.519708 0
M  V30 25 H -0.419499 -4.766469 2.316148 0
M  V30 26 H 0.690155 -4.894699 0.880376 0
M  V30 27 H 2.767053 -3.565112 1.850705 0
M  V30 28 H 2.333804 -2.340108 0.580381 0
M  V30 29 H 2.489102 -1.901351 2.358900 0
M  V30 30 H -0.651347 -2.874804 3.611867 0
M  V30 31 H 1.115056 -3.074988 3.949370 0
M  V30 32 H -0.406745 -0.520244 3.043220 0
M  V30 33 H 1.391424 -0.581250 3.413575 0
M  V30 34 H -0.871235 -0.776504 5.070828 0
M  V30 35 H -0.920113 -3.068387 0.690282 0
M  V30 36 H 1.443674 -0.175857 1.075786 0
M  V30 37 H 0.514459 3.500287 -1.455165 0
M  V30 38 H 2.024787 5.360571 -1.260044 0
M  V30 39 H 4.328990 3.206197 1.547122 0
M  V30 40 H 2.803954 1.305460 1.361443 0
M  V30 41 H -2.433479 1.562671 -2.686772 0
M  V30 42 H -4.113270 -2.202642 -2.048115 0
M  V30 43 H -2.353358 -2.686680 -0.487712 0
M  V30 END ATOM
M  V30 BEGIN BOND
M  V30 1 1 1 2
M  V30 2 1 2 3
M  V30 3 1 2 4
M  V30 4 1 4 5
M  V30 5 1 5 6
M  V30 6 1 2 7
M  V30 7 1 7 8
M  V30 8 2 8 9
M  V30 9 1 9 10
M  V30 10 1 10 11
M  V30 11 2 11 12
M  V30 12 1 12 13
M  V30 13 2 13 14
M  V30 14 1 14 15
M  V30 15 2 15 16
M  V30 16 2 10 17
M  V30 17 1 17 18
M  V30 18 2 18 19
M  V30 19 1 19 20
M  V30 20 2 20 21
M  V30 21 1 21 22
M  V30 22 2 22 23
M  V30 23 1 23 8
M  V30 24 1 16 11
M  V30 25 1 23 18
M  V30 26 1 1 24
M  V30 27 1 1 25
M  V30 28 1 1 26
M  V30 29 1 3 27
M  V30 30 1 3 28
M  V30 31 1 3 29
M  V30 32 1 4 30
M  V30 33 1 4 31
M  V30 34 1 5 32
M  V30 35 1 5 33
M  V30 36 1 6 34
M  V30 37 1 7 35
M  V30 38 1 9 36
M  V30 39 1 12 37
M  V30 40 1 13 38
M  V30 41 1 15 39
M  V30 42 1 16 40
M  V30 43 1 19 41
M  V30 44 1 21 42
M  V30 45 1 22 43
M  V30 END BOND
M  V30 END CTAB
M  END
>  <Dataset>  (356) 
ChEMBL_Kinases

>  <Ligand_Instance>  (356) 
nan

>  <PDB_ID>  (356) 
nan

>  <Standardized_SMILES>  (356) 
CC(C)(CCO)Nc1cc(-c2ccncc2)nc2cnccc12

>  <Name>  (356) 
nan

>  <Pocket>  (356) 
nan

>  <ATP_Site>  (356) 
nan

>  <Peripheral>  (356) 
nan

>  <Num_H_Atoms_ProtBoundConf>  (356) 
nan

>  <Num_Resolved_Atoms>  (356) 
nan

>  <Num_Not_Resolved_Atoms>  (356) 
nan

$$$$
CHEMBL4564056
     RDKit          3D

  0  0  0  0  0  0  0  0  0  0999 V3000
M  V30 BEGIN CTAB
M  V30 COUNTS 48 51 0 0 0
M  V30 BEGIN ATOM
M  V30 1 O 1.826683 -6.696362 -0.198471 0
M  V30 2 C 1.393005 -5.379535 -0.301024 0
M  V30 3 C 1.959168 -4.473376 0.562848 0
M  V30 4 C 1.542674 -3.174587 0.472932 0
M  V30 5 C 0.580472 -2.787756 -0.460463 0
M  V30 6 C -0.003042 -3.697683 -1.343971 0
M  V30 7 N -0.968751 -3.348296 -2.303948 0
M  V30 8 C -1.301865 -2.027047 -2.728922 0
M  V30 9 N -0.701213 -0.907735 -2.344903 0
M  V30 10 C -1.035933 0.324330 -2.739150 0
M  V30 11 N -0.139106 1.236888 -2.113341 0
M  V30 12 C -0.138796 1.433877 -0.702007 0
M  V30 13 C 0.829512 2.313363 -0.192838 0
M  V30 14 C 0.851427 2.496881 1.175145 0
M  V30 15 C -0.018632 1.865429 2.029500 0
M  V30 16 N 0.048526 2.061375 3.431598 0
M  V30 17 C 1.108049 2.753999 4.138606 0
M  V30 18 C 1.653773 1.924508 5.277791 0
M  V30 19 O 0.719406 1.212184 5.972291 0
M  V30 20 C -0.169436 0.509977 5.162448 0
M  V30 21 C -0.931571 1.608508 4.399462 0
M  V30 22 C -0.959895 1.008740 1.506539 0
M  V30 23 C -1.009198 0.801909 0.139355 0
M  V30 24 N -2.080003 0.460125 -3.608848 0
M  V30 25 C -2.749394 -0.600454 -4.055481 0
M  V30 26 C -2.344364 -1.831099 -3.603838 0
M  V30 27 Cl -3.236898 -3.227894 -4.199290 0
M  V30 28 C 0.450279 -4.983649 -1.210458 0
M  V30 29 H 1.797273 -7.145089 0.714712 0
M  V30 30 H 2.702153 -4.733927 1.292200 0
M  V30 31 H 1.978913 -2.445447 1.147768 0
M  V30 32 H 0.321734 -1.760589 -0.448715 0
M  V30 33 H -1.491928 -4.139036 -2.742587 0
M  V30 34 H 0.491766 1.731821 -2.752643 0
M  V30 35 H 1.510062 2.807934 -0.852792 0
M  V30 36 H 1.603152 3.173341 1.515455 0
M  V30 37 H 0.654604 3.669049 4.581939 0
M  V30 38 H 1.931985 3.102648 3.508594 0
M  V30 39 H 2.132310 2.626870 5.987867 0
M  V30 40 H 2.473632 1.240622 4.950163 0
M  V30 41 H 0.294661 -0.132694 4.412631 0
M  V30 42 H -0.902383 0.006928 5.792212 0
M  V30 43 H -1.191661 2.383886 5.159111 0
M  V30 44 H -1.814436 1.137643 3.963090 0
M  V30 45 H -1.689861 0.457257 2.066934 0
M  V30 46 H -1.718628 0.145497 -0.356878 0
M  V30 47 H -3.547905 -0.414887 -4.730901 0
M  V30 48 H 0.033704 -5.755661 -1.874995 0
M  V30 END ATOM
M  V30 BEGIN BOND
M  V30 1 1 1 2
M  V30 2 2 2 3
M  V30 3 1 3 4
M  V30 4 2 4 5
M  V30 5 1 5 6
M  V30 6 1 6 7
M  V30 7 1 7 8
M  V30 8 2 8 9
M  V30 9 1 9 10
M  V30 10 1 10 11
M  V30 11 1 11 12
M  V30 12 2 12 13
M  V30 13 1 13 14
M  V30 14 2 14 15
M  V30 15 1 15 16
M  V30 16 1 16 17
M  V30 17 1 17 18
M  V30 18 1 18 19
M  V30 19 1 19 20
M  V30 20 1 20 21
M  V30 21 1 15 22
M  V30 22 2 22 23
M  V30 23 2 10 24
M  V30 24 1 24 25
M  V30 25 2 25 26
M  V30 26 1 26 27
M  V30 27 2 6 28
M  V30 28 1 28 2
M  V30 29 1 26 8
M  V30 30 1 23 12
M  V30 31 1 21 16
M  V30 32 1 1 29
M  V30 33 1 3 30
M  V30 34 1 4 31
M  V30 35 1 5 32
M  V30 36 1 7 33
M  V30 37 1 11 34
M  V30 38 1 13 35
M  V30 39 1 14 36
M  V30 40 1 17 37
M  V30 41 1 17 38
M  V30 42 1 18 39
M  V30 43 1 18 40
M  V30 44 1 20 41
M  V30 45 1 20 42
M  V30 46 1 21 43
M  V30 47 1 21 44
M  V30 48 1 22 45
M  V30 49 1 23 46
M  V30 50 1 25 47
M  V30 51 1 28 48
M  V30 END BOND
M  V30 END CTAB
M  END
>  <Dataset>  (357) 
ChEMBL_Kinases

>  <Ligand_Instance>  (357) 
nan

>  <PDB_ID>  (357) 
nan

>  <Standardized_SMILES>  (357) 
Oc1cccc(Nc2nc(Nc3ccc(N4CCOCC4)cc3)ncc2Cl)c1

>  <Name>  (357) 
nan

>  <Pocket>  (357) 
nan

>  <ATP_Site>  (357) 
nan

>  <Peripheral>  (357) 
nan

>  <Num_H_Atoms_ProtBoundConf>  (357) 
nan

>  <Num_Resolved_Atoms>  (357) 
nan

>  <Num_Not_Resolved_Atoms>  (357) 
nan

$$$$
CHEMBL4636757
     RDKit          3D

  0  0  0  0  0  0  0  0  0  0999 V3000
M  V30 BEGIN CTAB
M  V30 COUNTS 53 55 0 0 0
M  V30 BEGIN ATOM
M  V30 1 C 1.837419 -2.379267 3.288120 0
M  V30 2 C 2.709846 -1.688919 2.241908 0
M  V30 3 C 2.683544 -2.420524 0.930580 0 CFG=2
M  V30 4 C 3.541345 -1.757099 -0.139355 0
M  V30 5 O 4.825530 -1.605471 0.394516 0
M  V30 6 N 1.355414 -2.589537 0.407962 0
M  V30 7 C 0.304768 -1.751397 -0.005943 0
M  V30 8 C 0.319051 -0.387488 -0.018559 0
M  V30 9 C -0.701327 0.447269 -0.417598 0
M  V30 10 N -0.700841 1.843115 -0.423829 0
M  V30 11 C 0.225828 2.844886 0.008740 0
M  V30 12 C 0.400654 2.831789 1.484553 0
M  V30 13 C 1.328758 2.239267 2.311064 0
M  V30 14 C 1.253368 2.369600 3.674360 0
M  V30 15 C 0.272348 3.083055 4.305666 0
M  V30 16 C -0.670658 3.688276 3.509305 0
M  V30 17 C -0.592652 3.555857 2.146686 0
M  V30 18 N -1.816836 -0.218834 -0.833471 0
M  V30 19 N -2.998266 0.199549 -1.288502 0
M  V30 20 C -3.797812 -0.821529 -1.579288 0
M  V30 21 C -3.098406 -1.952472 -1.298311 0
M  V30 22 C -3.659725 -3.311827 -1.495016 0
M  V30 23 C -3.294298 -3.708970 -2.927931 0
M  V30 24 C -3.023459 -4.235634 -0.506497 0
M  V30 25 C -1.864900 -1.556700 -0.834210 0
M  V30 26 N -0.846378 -2.292872 -0.436895 0
M  V30 27 H 1.751042 -3.464070 3.114144 0
M  V30 28 H 2.302010 -2.153721 4.273931 0
M  V30 29 H 0.798186 -1.944780 3.311218 0
M  V30 30 H 3.750856 -1.578072 2.634808 0
M  V30 31 H 2.331585 -0.664629 2.136274 0
M  V30 32 H 3.168221 -3.441792 1.075680 0
M  V30 33 H 3.201942 -0.763421 -0.441221 0
M  V30 34 H 3.623007 -2.406199 -1.018572 0
M  V30 35 H 5.115631 -0.662543 0.404985 0
M  V30 36 H 1.140386 -3.624129 0.324382 0
M  V30 37 H 1.176720 0.150787 0.291333 0
M  V30 38 H -1.568712 2.307004 -0.834955 0
M  V30 39 H 1.246376 2.656011 -0.441440 0
M  V30 40 H -0.052157 3.863173 -0.300912 0
M  V30 41 H 2.083292 1.700584 1.768532 0
M  V30 42 H 2.043887 1.855092 4.218117 0
M  V30 43 H 0.242736 3.165279 5.380361 0
M  V30 44 H -1.439337 4.248568 4.023964 0
M  V30 45 H -1.404266 4.086803 1.636966 0
M  V30 46 H -4.794874 -0.666920 -1.960634 0
M  V30 47 H -4.761917 -3.302408 -1.435857 0
M  V30 48 H -2.195970 -3.669216 -3.092082 0
M  V30 49 H -3.734288 -2.920580 -3.605083 0
M  V30 50 H -3.693442 -4.688449 -3.194855 0
M  V30 51 H -3.858592 -4.865716 -0.087799 0
M  V30 52 H -2.299995 -4.938298 -0.964261 0
M  V30 53 H -2.578576 -3.716461 0.352523 0
M  V30 END ATOM
M  V30 BEGIN BOND
M  V30 1 1 1 2
M  V30 2 1 2 3
M  V30 3 1 3 4
M  V30 4 1 4 5
M  V30 5 1 3 6
M  V30 6 1 6 7
M  V30 7 1 7 8
M  V30 8 2 8 9
M  V30 9 1 9 10
M  V30 10 1 10 11
M  V30 11 1 11 12
M  V30 12 2 12 13
M  V30 13 1 13 14
M  V30 14 2 14 15
M  V30 15 1 15 16
M  V30 16 2 16 17
M  V30 17 1 9 18
M  V30 18 1 18 19
M  V30 19 2 19 20
M  V30 20 1 20 21
M  V30 21 1 21 22
M  V30 22 1 22 23
M  V30 23 1 22 24
M  V30 24 2 21 25
M  V30 25 1 25 26
M  V30 26 2 26 7
M  V30 27 1 17 12
M  V30 28 1 25 18
M  V30 29 1 1 27
M  V30 30 1 1 28
M  V30 31 1 1 29
M  V30 32 1 2 30
M  V30 33 1 2 31
M  V30 34 1 3 32 CFG=1
M  V30 35 1 4 33
M  V30 36 1 4 34
M  V30 37 1 5 35
M  V30 38 1 6 36
M  V30 39 1 8 37
M  V30 40 1 10 38
M  V30 41 1 11 39
M  V30 42 1 11 40
M  V30 43 1 13 41
M  V30 44 1 14 42
M  V30 45 1 15 43
M  V30 46 1 16 44
M  V30 47 1 17 45
M  V30 48 1 20 46
M  V30 49 1 22 47
M  V30 50 1 23 48
M  V30 51 1 23 49
M  V30 52 1 23 50
M  V30 53 1 24 51
M  V30 54 1 24 52
M  V30 55 1 24 53
M  V30 END BOND
M  V30 END CTAB
M  END
>  <Dataset>  (358) 
ChEMBL_Kinases

>  <Ligand_Instance>  (358) 
nan

>  <PDB_ID>  (358) 
nan

>  <Standardized_SMILES>  (358) 
CC[C@H](CO)Nc1cc(NCc2ccccc2)n2ncc(C(C)C)c2n1

>  <Name>  (358) 
nan

>  <Pocket>  (358) 
nan

>  <ATP_Site>  (358) 
nan

>  <Peripheral>  (358) 
nan

>  <Num_H_Atoms_ProtBoundConf>  (358) 
nan

>  <Num_Resolved_Atoms>  (358) 
nan

>  <Num_Not_Resolved_Atoms>  (358) 
nan

$$$$
CHEMBL4636885
     RDKit          3D

  0  0  0  0  0  0  0  0  0  0999 V3000
M  V30 BEGIN CTAB
M  V30 COUNTS 49 52 0 0 0
M  V30 BEGIN ATOM
M  V30 1 C -2.491302 -2.164174 3.913320 0
M  V30 2 N -1.180166 -2.630810 3.429865 0
M  V30 3 C -0.555120 -3.916109 3.757616 0
M  V30 4 C -0.506063 -1.715314 2.576623 0
M  V30 5 C 0.679801 -1.181131 3.100503 0
M  V30 6 C 1.353226 -0.274186 2.309038 0
M  V30 7 C 0.966716 0.158736 1.043747 0
M  V30 8 C 1.740936 1.112651 0.297215 0
M  V30 9 C 2.405376 1.917049 -0.314357 0
M  V30 10 C 3.233723 2.899922 -1.041318 0
M  V30 11 C 2.625323 3.180574 -2.367031 0
M  V30 12 O 4.557390 2.532257 -1.067493 0
M  V30 13 C 3.238708 4.213825 -0.208263 0
M  V30 14 N 3.668895 4.281164 0.910042 0
M  V30 15 C 3.669681 5.396227 1.619399 0
M  V30 16 C 3.151280 6.547604 1.053905 0
M  V30 17 S 2.637377 5.885875 -0.651002 0
M  V30 18 C -0.206245 -0.395279 0.570039 0
M  V30 19 C -0.913858 -1.307124 1.327144 0
M  V30 20 N -2.105195 -1.851887 0.770758 0
M  V30 21 C -2.691808 -3.087876 0.405308 0
M  V30 22 N -3.538252 -3.720534 1.232251 0
M  V30 23 C -4.102636 -4.893300 0.926769 0
M  V30 24 N -3.810306 -5.454245 -0.248152 0
M  V30 25 C -2.985974 -4.936526 -1.166533 0
M  V30 26 N -2.555188 -5.314780 -2.382144 0
M  V30 27 C -1.709347 -4.348561 -2.824669 0
M  V30 28 C -1.617626 -3.361145 -1.868844 0
M  V30 29 C -2.419614 -3.709421 -0.803008 0
M  V30 30 H -2.314167 -1.321604 4.646916 0
M  V30 31 H -3.026467 -1.686841 3.073925 0
M  V30 32 H -3.064805 -2.981927 4.356270 0
M  V30 33 H -0.026804 -4.339115 2.896100 0
M  V30 34 H -1.368228 -4.657926 4.010866 0
M  V30 35 H 0.050676 -3.851021 4.691422 0
M  V30 36 H 1.083755 -1.440116 4.075953 0
M  V30 37 H 2.291496 0.187378 2.654335 0
M  V30 38 H 2.253279 4.221337 -2.387242 0
M  V30 39 H 1.742102 2.531303 -2.543111 0
M  V30 40 H 3.330525 3.080664 -3.215069 0
M  V30 41 H 5.192613 3.168088 -0.662880 0
M  V30 42 H 4.084955 5.374424 2.641516 0
M  V30 43 H 3.110733 7.501116 1.556647 0
M  V30 44 H -0.563009 -0.100176 -0.410461 0
M  V30 45 H -2.782801 -1.063192 0.557346 0
M  V30 46 H -4.779653 -5.434963 1.545800 0
M  V30 47 H -2.898422 -6.224595 -2.793827 0
M  V30 48 H -1.246676 -4.458708 -3.793081 0
M  V30 49 H -1.015936 -2.475062 -1.956554 0
M  V30 END ATOM
M  V30 BEGIN BOND
M  V30 1 1 1 2
M  V30 2 1 2 3
M  V30 3 1 2 4
M  V30 4 2 4 5
M  V30 5 1 5 6
M  V30 6 2 6 7
M  V30 7 1 7 8
M  V30 8 3 8 9
M  V30 9 1 9 10
M  V30 10 1 10 11
M  V30 11 1 10 12
M  V30 12 1 10 13
M  V30 13 2 13 14
M  V30 14 1 14 15
M  V30 15 2 15 16
M  V30 16 1 16 17
M  V30 17 1 7 18
M  V30 18 2 18 19
M  V30 19 1 19 20
M  V30 20 1 20 21
M  V30 21 2 21 22
M  V30 22 1 22 23
M  V30 23 2 23 24
M  V30 24 1 24 25
M  V30 25 1 25 26
M  V30 26 1 26 27
M  V30 27 2 27 28
M  V30 28 1 28 29
M  V30 29 1 19 4
M  V30 30 1 29 21
M  V30 31 1 17 13
M  V30 32 2 29 25
M  V30 33 1 1 30
M  V30 34 1 1 31
M  V30 35 1 1 32
M  V30 36 1 3 33
M  V30 37 1 3 34
M  V30 38 1 3 35
M  V30 39 1 5 36
M  V30 40 1 6 37
M  V30 41 1 11 38
M  V30 42 1 11 39
M  V30 43 1 11 40
M  V30 44 1 12 41
M  V30 45 1 15 42
M  V30 46 1 16 43
M  V30 47 1 18 44
M  V30 48 1 20 45
M  V30 49 1 23 46
M  V30 50 1 26 47
M  V30 51 1 27 48
M  V30 52 1 28 49
M  V30 END BOND
M  V30 END CTAB
M  END
>  <Dataset>  (359) 
ChEMBL_Kinases

>  <Ligand_Instance>  (359) 
nan

>  <PDB_ID>  (359) 
nan

>  <Standardized_SMILES>  (359) 
CN(C)c1ccc(C#CC(C)(O)c2nccs2)cc1Nc1ncnc2[nH]ccc12

>  <Name>  (359) 
nan

>  <Pocket>  (359) 
nan

>  <ATP_Site>  (359) 
nan

>  <Peripheral>  (359) 
nan

>  <Num_H_Atoms_ProtBoundConf>  (359) 
nan

>  <Num_Resolved_Atoms>  (359) 
nan

>  <Num_Not_Resolved_Atoms>  (359) 
nan

$$$$
CHEMBL4563765
     RDKit          3D

  0  0  0  0  0  0  0  0  0  0999 V3000
M  V30 BEGIN CTAB
M  V30 COUNTS 44 46 0 0 0
M  V30 BEGIN ATOM
M  V30 1 C -4.593565 -3.878352 1.317061 0
M  V30 2 O -3.545287 -2.913641 1.436358 0
M  V30 3 C -2.590943 -2.903108 0.416161 0
M  V30 4 C -2.692394 -3.794038 -0.632895 0
M  V30 5 C -1.734408 -3.758895 -1.624798 0
M  V30 6 C -0.695002 -2.849744 -1.568062 0
M  V30 7 C 0.385031 -2.618329 -2.425972 0
M  V30 8 C 0.685661 -3.283115 -3.596287 0
M  V30 9 C 1.830243 -2.830810 -4.217720 0
M  V30 10 N 2.569102 -1.833635 -3.711525 0
M  V30 11 C 2.276016 -1.177462 -2.559466 0
M  V30 12 C 3.146970 -0.112046 -2.046995 0
M  V30 13 C 1.126114 -1.583129 -1.874938 0
M  V30 14 N 0.550188 -1.170814 -0.725569 0
M  V30 15 C 0.982202 -0.096751 0.146694 0
M  V30 16 C 0.336414 1.226766 -0.171388 0
M  V30 17 C -1.171451 1.218560 -0.045741 0
M  V30 18 C -1.593659 2.654617 -0.408133 0
M  V30 19 C -0.974392 3.614878 0.526954 0
M  V30 20 N -1.334944 4.935502 0.207951 0
M  V30 21 O -0.251941 3.860006 1.513088 0
M  V30 22 C -0.555917 -1.938898 -0.534408 0
M  V30 23 C -1.537411 -2.014252 0.431063 0
M  V30 24 H -4.192695 -4.908831 1.253371 0
M  V30 25 H -5.351921 -3.745112 2.110241 0
M  V30 26 H -5.156326 -3.718837 0.353303 0
M  V30 27 H -3.507662 -4.498841 -0.666691 0
M  V30 28 H -1.828085 -4.469564 -2.447707 0
M  V30 29 H 0.076139 -4.079970 -3.979929 0
M  V30 30 H 2.161302 -3.276531 -5.139273 0
M  V30 31 H 3.828487 -0.479950 -1.225719 0
M  V30 32 H 2.700479 0.850305 -1.844225 0
M  V30 33 H 3.896460 0.105731 -2.870505 0
M  V30 34 H 0.590240 -0.347155 1.185568 0
M  V30 35 H 2.058785 -0.025663 0.292037 0
M  V30 36 H 0.710450 1.935776 0.608011 0
M  V30 37 H 0.604265 1.546953 -1.187016 0
M  V30 38 H -1.473729 1.014473 0.992473 0
M  V30 39 H -1.687965 0.589283 -0.769194 0
M  V30 40 H -2.712947 2.654857 -0.314912 0
M  V30 41 H -1.251236 2.857770 -1.423775 0
M  V30 42 H -1.814113 5.843056 0.017884 0
M  V30 43 H -1.028009 5.883699 -0.092408 0
M  V30 44 H -1.511896 -1.355801 1.264099 0
M  V30 END ATOM
M  V30 BEGIN BOND
M  V30 1 1 1 2
M  V30 2 1 2 3
M  V30 3 2 3 4
M  V30 4 1 4 5
M  V30 5 2 5 6
M  V30 6 1 6 7
M  V30 7 2 7 8
M  V30 8 1 8 9
M  V30 9 2 9 10
M  V30 10 1 10 11
M  V30 11 1 11 12
M  V30 12 2 11 13
M  V30 13 1 13 14
M  V30 14 1 14 15
M  V30 15 1 15 16
M  V30 16 1 16 17
M  V30 17 1 17 18
M  V30 18 1 18 19
M  V30 19 1 19 20
M  V30 20 2 19 21
M  V30 21 1 14 22
M  V30 22 2 22 23
M  V30 23 1 23 3
M  V30 24 1 22 6
M  V30 25 1 13 7
M  V30 26 1 1 24
M  V30 27 1 1 25
M  V30 28 1 1 26
M  V30 29 1 4 27
M  V30 30 1 5 28
M  V30 31 1 8 29
M  V30 32 1 9 30
M  V30 33 1 12 31
M  V30 34 1 12 32
M  V30 35 1 12 33
M  V30 36 1 15 34
M  V30 37 1 15 35
M  V30 38 1 16 36
M  V30 39 1 16 37
M  V30 40 1 17 38
M  V30 41 1 17 39
M  V30 42 1 18 40
M  V30 43 1 18 41
M  V30 44 1 20 42
M  V30 45 1 20 43
M  V30 46 1 23 44
M  V30 END BOND
M  V30 END CTAB
M  END
>  <Dataset>  (360) 
ChEMBL_Kinases

>  <Ligand_Instance>  (360) 
nan

>  <PDB_ID>  (360) 
nan

>  <Standardized_SMILES>  (360) 
COc1ccc2c3ccnc(C)c3n(CCCCC(N)=O)c2c1

>  <Name>  (360) 
nan

>  <Pocket>  (360) 
nan

>  <ATP_Site>  (360) 
nan

>  <Peripheral>  (360) 
nan

>  <Num_H_Atoms_ProtBoundConf>  (360) 
nan

>  <Num_Resolved_Atoms>  (360) 
nan

>  <Num_Not_Resolved_Atoms>  (360) 
nan

$$$$
CHEMBL4564805
     RDKit          3D

  0  0  0  0  0  0  0  0  0  0999 V3000
M  V30 BEGIN CTAB
M  V30 COUNTS 49 51 0 0 0
M  V30 BEGIN ATOM
M  V30 1 C -0.037241 -4.314858 3.722147 0
M  V30 2 N 0.256857 -2.953442 3.421302 0
M  V30 3 C -0.867426 -2.065098 3.486464 0
M  V30 4 C 1.152651 -2.733058 2.325488 0
M  V30 5 C 1.332476 -1.242823 2.170848 0
M  V30 6 C 2.246103 -0.862732 1.059894 0
M  V30 7 C 3.638800 -1.402095 1.201663 0
M  V30 8 C 2.397623 0.666147 1.128862 0
M  V30 9 N 1.723494 -1.177112 -0.251533 0
M  V30 10 C 0.537729 -0.583342 -0.735872 0
M  V30 11 N -0.173363 0.302436 -0.030821 0
M  V30 12 C -1.303850 0.893923 -0.452983 0
M  V30 13 C -2.040118 1.853159 0.361523 0
M  V30 14 C -1.622591 2.211515 1.622301 0
M  V30 15 C -2.380570 3.123393 2.318429 0
M  V30 16 N -3.493366 3.684303 1.854574 0
M  V30 17 C -3.939363 3.359528 0.618716 0
M  V30 18 C -3.196941 2.458356 -0.078507 0
M  V30 19 N -1.814934 0.609614 -1.686452 0
M  V30 20 C -1.160564 -0.284565 -2.484634 0
M  V30 21 C -1.642278 -0.599375 -3.735593 0
M  V30 22 N -1.006894 -1.472499 -4.519725 0
M  V30 23 C 0.131206 -2.058371 -4.076382 0
M  V30 24 C 0.597370 -1.730054 -2.821105 0
M  V30 25 C -0.009864 -0.839720 -1.966110 0
M  V30 26 H -1.141226 -4.430321 3.909912 0
M  V30 27 H 0.281004 -5.041587 2.962059 0
M  V30 28 H 0.429612 -4.537005 4.714859 0
M  V30 29 H -0.615891 -1.101392 3.968510 0
M  V30 30 H -1.608831 -2.558756 4.154266 0
M  V30 31 H -1.398809 -1.937249 2.513377 0
M  V30 32 H 2.148089 -3.147553 2.616825 0
M  V30 33 H 0.863204 -3.233295 1.387974 0
M  V30 34 H 0.327176 -0.830453 1.966592 0
M  V30 35 H 1.728515 -0.882194 3.140971 0
M  V30 36 H 3.700132 -2.495135 1.201625 0
M  V30 37 H 4.203651 -1.067070 0.288177 0
M  V30 38 H 4.160062 -0.910147 2.046554 0
M  V30 39 H 3.143415 0.840900 1.956480 0
M  V30 40 H 1.488539 1.170127 1.451297 0
M  V30 41 H 2.838978 1.050627 0.190872 0
M  V30 42 H 2.272095 -1.860510 -0.803232 0
M  V30 43 H -0.738468 1.802145 2.061305 0
M  V30 44 H -2.033131 3.392530 3.312191 0
M  V30 45 H -4.838464 3.802849 0.225161 0
M  V30 46 H -3.529424 2.173620 -1.081161 0
M  V30 47 H -2.536791 -0.140182 -4.086432 0
M  V30 48 H 0.618403 -2.759750 -4.737852 0
M  V30 49 H 1.506112 -2.250878 -2.567225 0
M  V30 END ATOM
M  V30 BEGIN BOND
M  V30 1 1 1 2
M  V30 2 1 2 3
M  V30 3 1 2 4
M  V30 4 1 4 5
M  V30 5 1 5 6
M  V30 6 1 6 7
M  V30 7 1 6 8
M  V30 8 1 6 9
M  V30 9 1 9 10
M  V30 10 2 10 11
M  V30 11 1 11 12
M  V30 12 1 12 13
M  V30 13 2 13 14
M  V30 14 1 14 15
M  V30 15 2 15 16
M  V30 16 1 16 17
M  V30 17 2 17 18
M  V30 18 2 12 19
M  V30 19 1 19 20
M  V30 20 2 20 21
M  V30 21 1 21 22
M  V30 22 2 22 23
M  V30 23 1 23 24
M  V30 24 2 24 25
M  V30 25 1 25 10
M  V30 26 1 18 13
M  V30 27 1 25 20
M  V30 28 1 1 26
M  V30 29 1 1 27
M  V30 30 1 1 28
M  V30 31 1 3 29
M  V30 32 1 3 30
M  V30 33 1 3 31
M  V30 34 1 4 32
M  V30 35 1 4 33
M  V30 36 1 5 34
M  V30 37 1 5 35
M  V30 38 1 7 36
M  V30 39 1 7 37
M  V30 40 1 7 38
M  V30 41 1 8 39
M  V30 42 1 8 40
M  V30 43 1 8 41
M  V30 44 1 9 42
M  V30 45 1 14 43
M  V30 46 1 15 44
M  V30 47 1 17 45
M  V30 48 1 18 46
M  V30 49 1 21 47
M  V30 50 1 23 48
M  V30 51 1 24 49
M  V30 END BOND
M  V30 END CTAB
M  END
>  <Dataset>  (361) 
ChEMBL_Kinases

>  <Ligand_Instance>  (361) 
nan

>  <PDB_ID>  (361) 
nan

>  <Standardized_SMILES>  (361) 
CN(C)CCC(C)(C)Nc1nc(-c2ccncc2)nc2cnccc12

>  <Name>  (361) 
nan

>  <Pocket>  (361) 
nan

>  <ATP_Site>  (361) 
nan

>  <Peripheral>  (361) 
nan

>  <Num_H_Atoms_ProtBoundConf>  (361) 
nan

>  <Num_Resolved_Atoms>  (361) 
nan

>  <Num_Not_Resolved_Atoms>  (361) 
nan

$$$$
CHEMBL4544854
     RDKit          3D

  0  0  0  0  0  0  0  0  0  0999 V3000
M  V30 BEGIN CTAB
M  V30 COUNTS 51 53 0 0 0
M  V30 BEGIN ATOM
M  V30 1 C 3.093253 -3.337803 4.099190 0
M  V30 2 C 2.616951 -3.436382 2.666989 0
M  V30 3 C 1.141601 -3.239307 2.625921 0
M  V30 4 C 3.422913 -2.674829 1.684616 0
M  V30 5 C 3.546509 -1.212588 1.845580 0 CFG=2
M  V30 6 C 4.443434 -0.737580 0.672997 0
M  V30 7 N 4.193241 -0.741146 3.026040 0
M  V30 8 C 2.275534 -0.417093 1.672365 0
M  V30 9 O 1.519359 -0.765728 0.545963 0
M  V30 10 C 0.315787 -0.129895 0.235635 0
M  V30 11 C -0.190853 0.887141 1.038023 0
M  V30 12 C -1.385743 1.503936 0.711939 0
M  V30 13 C -2.100367 1.127542 -0.410993 0
M  V30 14 C -3.366692 1.747764 -0.798198 0
M  V30 15 C -3.497950 3.127103 -0.765477 0
M  V30 16 C -4.752015 3.598143 -1.156872 0
M  V30 17 N -5.772079 2.795987 -1.540901 0
M  V30 18 C -5.514151 1.459253 -1.529091 0
M  V30 19 C -6.400541 0.461667 -1.879444 0
M  V30 20 C -5.670353 -0.697248 -1.700561 0
M  V30 21 N -4.425758 -0.409858 -1.270304 0
M  V30 22 N -4.342034 0.889712 -1.170435 0
M  V30 23 C -1.555691 0.103710 -1.187015 0
M  V30 24 C -0.364531 -0.546170 -0.905536 0
M  V30 25 C 0.108266 -1.620466 -1.810215 0
M  V30 26 F 1.310286 -1.164545 -2.361322 0
M  V30 27 F 0.388854 -2.783368 -1.149347 0
M  V30 28 H 4.150659 -3.618678 4.205177 0
M  V30 29 H 2.791611 -2.385232 4.529136 0
M  V30 30 H 2.507495 -4.115066 4.678925 0
M  V30 31 H 2.778168 -4.534911 2.391271 0
M  V30 32 H 0.673742 -4.185193 3.044284 0
M  V30 33 H 0.760164 -2.415834 3.263384 0
M  V30 34 H 0.699933 -3.132287 1.632283 0
M  V30 35 H 3.070514 -2.880751 0.651054 0
M  V30 36 H 4.469976 -3.102883 1.745284 0
M  V30 37 H 5.437793 -1.192656 0.724738 0
M  V30 38 H 4.425967 0.365311 0.710631 0
M  V30 39 H 3.875203 -1.049342 -0.231550 0
M  V30 40 H 4.751217 -1.404194 3.562051 0
M  V30 41 H 3.505340 -0.285501 3.654388 0
M  V30 42 H 1.672248 -0.332458 2.597893 0
M  V30 43 H 2.636215 0.648230 1.508192 0
M  V30 44 H 0.390771 1.159801 1.910021 0
M  V30 45 H -1.774664 2.297126 1.343402 0
M  V30 46 H -2.704660 3.780952 -0.465155 0
M  V30 47 H -4.869361 4.677488 -1.136144 0
M  V30 48 H -7.410758 0.526233 -2.212181 0
M  V30 49 H -5.965921 -1.730315 -1.856192 0
M  V30 50 H -2.104439 -0.196290 -2.062953 0
M  V30 51 H -0.556744 -1.808207 -2.652824 0
M  V30 END ATOM
M  V30 BEGIN BOND
M  V30 1 1 1 2
M  V30 2 1 2 3
M  V30 3 1 2 4
M  V30 4 1 4 5
M  V30 5 1 5 6
M  V30 6 1 5 7 CFG=1
M  V30 7 1 5 8
M  V30 8 1 8 9
M  V30 9 1 9 10
M  V30 10 2 10 11
M  V30 11 1 11 12
M  V30 12 2 12 13
M  V30 13 1 13 14
M  V30 14 2 14 15
M  V30 15 1 15 16
M  V30 16 2 16 17
M  V30 17 1 17 18
M  V30 18 2 18 19
M  V30 19 1 19 20
M  V30 20 2 20 21
M  V30 21 1 21 22
M  V30 22 1 13 23
M  V30 23 2 23 24
M  V30 24 1 24 25
M  V30 25 1 25 26
M  V30 26 1 25 27
M  V30 27 1 24 10
M  V30 28 1 22 14
M  V30 29 1 22 18
M  V30 30 1 1 28
M  V30 31 1 1 29
M  V30 32 1 1 30
M  V30 33 1 2 31
M  V30 34 1 3 32
M  V30 35 1 3 33
M  V30 36 1 3 34
M  V30 37 1 4 35
M  V30 38 1 4 36
M  V30 39 1 6 37
M  V30 40 1 6 38
M  V30 41 1 6 39
M  V30 42 1 7 40
M  V30 43 1 7 41
M  V30 44 1 8 42
M  V30 45 1 8 43
M  V30 46 1 11 44
M  V30 47 1 12 45
M  V30 48 1 15 46
M  V30 49 1 16 47
M  V30 50 1 19 48
M  V30 51 1 20 49
M  V30 52 1 23 50
M  V30 53 1 25 51
M  V30 END BOND
M  V30 END CTAB
M  END
>  <Dataset>  (362) 
ChEMBL_Kinases

>  <Ligand_Instance>  (362) 
nan

>  <PDB_ID>  (362) 
nan

>  <Standardized_SMILES>  (362) 
CC(C)C[C@](C)(N)COc1ccc(-c2ccnc3ccnn23)cc1C(F)F

>  <Name>  (362) 
nan

>  <Pocket>  (362) 
nan

>  <ATP_Site>  (362) 
nan

>  <Peripheral>  (362) 
nan

>  <Num_H_Atoms_ProtBoundConf>  (362) 
nan

>  <Num_Resolved_Atoms>  (362) 
nan

>  <Num_Not_Resolved_Atoms>  (362) 
nan

$$$$
CHEMBL4544794
     RDKit          3D

  0  0  0  0  0  0  0  0  0  0999 V3000
M  V30 BEGIN CTAB
M  V30 COUNTS 35 38 0 0 0
M  V30 BEGIN ATOM
M  V30 1 Cl 0.701295 -1.444521 6.374168 0
M  V30 2 C 1.094930 -1.348536 4.669578 0
M  V30 3 C 1.500436 -2.488296 3.975996 0
M  V30 4 C 1.794286 -2.329142 2.641698 0
M  V30 5 C 1.708338 -1.109515 1.962551 0
M  V30 6 N 2.033197 -0.976215 0.566520 0
M  V30 7 C 1.853935 0.306832 -0.001177 0
M  V30 8 N 2.827836 1.198900 0.189483 0
M  V30 9 C 2.876799 2.448370 -0.245321 0
M  V30 10 N 1.814287 2.849755 -0.959651 0
M  V30 11 C 0.771081 2.031064 -1.215211 0
M  V30 12 S -0.803815 2.163203 -2.111628 0
M  V30 13 C -1.359322 0.547324 -1.817244 0
M  V30 14 C -0.328871 -0.051067 -1.041686 0
M  V30 15 C 0.764383 0.707268 -0.731268 0
M  V30 16 C -0.754411 -1.446934 -0.766580 0
M  V30 17 C -2.095521 -1.311128 -0.044944 0
M  V30 18 C -3.126937 -1.053098 -1.096545 0
M  V30 19 C -2.558257 -0.224317 -2.183016 0
M  V30 20 C 1.297341 -0.030745 2.732885 0
M  V30 21 C 0.987455 -0.122830 4.073998 0
M  V30 22 H 1.578004 -3.450012 4.464718 0
M  V30 23 H 2.113899 -3.228114 2.094699 0
M  V30 24 H 2.369409 -1.842706 0.105845 0
M  V30 25 H 3.631348 3.206543 -0.120629 0
M  V30 26 H -0.095628 -2.010446 -0.115912 0
M  V30 27 H -0.937762 -2.011127 -1.710154 0
M  V30 28 H -2.272245 -2.242022 0.524782 0
M  V30 29 H -2.090595 -0.458834 0.651282 0
M  V30 30 H -3.486969 -2.034441 -1.517696 0
M  V30 31 H -4.032290 -0.604158 -0.621499 0
M  V30 32 H -2.437409 -0.814086 -3.114766 0
M  V30 33 H -3.333641 0.559335 -2.432429 0
M  V30 34 H 1.217330 0.949689 2.249325 0
M  V30 35 H 0.672250 0.792553 4.599118 0
M  V30 END ATOM
M  V30 BEGIN BOND
M  V30 1 1 1 2
M  V30 2 2 2 3
M  V30 3 1 3 4
M  V30 4 2 4 5
M  V30 5 1 5 6
M  V30 6 1 6 7
M  V30 7 2 7 8
M  V30 8 1 8 9
M  V30 9 2 9 10
M  V30 10 1 10 11
M  V30 11 1 11 12
M  V30 12 1 12 13
M  V30 13 2 13 14
M  V30 14 1 14 15
M  V30 15 1 14 16
M  V30 16 1 16 17
M  V30 17 1 17 18
M  V30 18 1 18 19
M  V30 19 1 5 20
M  V30 20 2 20 21
M  V30 21 1 21 2
M  V30 22 1 15 7
M  V30 23 2 15 11
M  V30 24 1 19 13
M  V30 25 1 3 22
M  V30 26 1 4 23
M  V30 27 1 6 24
M  V30 28 1 9 25
M  V30 29 1 16 26
M  V30 30 1 16 27
M  V30 31 1 17 28
M  V30 32 1 17 29
M  V30 33 1 18 30
M  V30 34 1 18 31
M  V30 35 1 19 32
M  V30 36 1 19 33
M  V30 37 1 20 34
M  V30 38 1 21 35
M  V30 END BOND
M  V30 END CTAB
M  END
>  <Dataset>  (363) 
ChEMBL_Kinases

>  <Ligand_Instance>  (363) 
nan

>  <PDB_ID>  (363) 
nan

>  <Standardized_SMILES>  (363) 
Clc1ccc(Nc2ncnc3sc4c(c23)CCCC4)cc1

>  <Name>  (363) 
nan

>  <Pocket>  (363) 
nan

>  <ATP_Site>  (363) 
nan

>  <Peripheral>  (363) 
nan

>  <Num_H_Atoms_ProtBoundConf>  (363) 
nan

>  <Num_Resolved_Atoms>  (363) 
nan

>  <Num_Not_Resolved_Atoms>  (363) 
nan

$$$$
CHEMBL4544743
     RDKit          3D

  0  0  0  0  0  0  0  0  0  0999 V3000
M  V30 BEGIN CTAB
M  V30 COUNTS 45 48 0 0 0
M  V30 BEGIN ATOM
M  V30 1 C 0.954543 -2.309508 1.528448 0
M  V30 2 C -0.343125 -2.041723 0.770311 0
M  V30 3 C -0.001866 -2.104515 -0.710785 0
M  V30 4 N -0.924111 -0.772264 1.076880 0
M  V30 5 C -0.175039 0.424330 0.913761 0
M  V30 6 N 1.097158 0.457720 0.482437 0
M  V30 7 C 1.829465 1.571223 0.324036 0
M  V30 8 C 3.204846 1.500678 -0.152479 0
M  V30 9 C 3.966584 2.636296 -0.318411 0
M  V30 10 C 5.286234 2.578719 -0.774808 0
M  V30 11 N 5.846759 1.389789 -1.065787 0
M  V30 12 C 5.147167 0.243228 -0.922029 0
M  V30 13 C 3.848364 0.324783 -0.470765 0
M  V30 14 N 1.311924 2.781020 0.599961 0
M  V30 15 C 0.038928 2.865621 1.041349 0
M  V30 16 C -0.502603 4.101444 1.327260 0
M  V30 17 N -1.788648 4.186826 1.772591 0
M  V30 18 C -2.526036 3.058161 1.931388 0
M  V30 19 C -1.952679 1.841865 1.636258 0
M  V30 20 C -0.660591 1.686174 1.183106 0
M  V30 21 C -1.342597 -3.105300 1.115689 0
M  V30 22 C -1.560224 -4.276026 0.427074 0
M  V30 23 C -2.490339 -5.220022 0.799715 0
M  V30 24 C -3.270249 -5.008231 1.931711 0
M  V30 25 C -3.061466 -3.839649 2.629517 0
M  V30 26 C -2.123733 -2.910846 2.235260 0
M  V30 27 H 1.131992 -3.403600 1.541257 0
M  V30 28 H 1.794252 -1.819387 1.024366 0
M  V30 29 H 0.854558 -1.953675 2.574433 0
M  V30 30 H 0.789423 -1.369109 -0.949385 0
M  V30 31 H -0.900835 -1.948655 -1.341739 0
M  V30 32 H 0.428747 -3.089570 -1.005853 0
M  V30 33 H -1.903529 -0.735961 1.417012 0
M  V30 34 H 3.520460 3.610356 -0.084398 0
M  V30 35 H 5.806537 3.539567 -0.872980 0
M  V30 36 H 5.623057 -0.711215 -1.164397 0
M  V30 37 H 3.321687 -0.608925 -0.368646 0
M  V30 38 H 0.089117 4.998855 1.199273 0
M  V30 39 H -3.535437 3.196706 2.286882 0
M  V30 40 H -2.631027 1.020549 1.800050 0
M  V30 41 H -0.958224 -4.446749 -0.452568 0
M  V30 42 H -2.597683 -6.118011 0.198107 0
M  V30 43 H -3.989330 -5.773164 2.191006 0
M  V30 44 H -3.716687 -3.752274 3.506398 0
M  V30 45 H -2.106908 -2.068534 2.909636 0
M  V30 END ATOM
M  V30 BEGIN BOND
M  V30 1 1 1 2
M  V30 2 1 2 3
M  V30 3 1 2 4
M  V30 4 1 4 5
M  V30 5 2 5 6
M  V30 6 1 6 7
M  V30 7 1 7 8
M  V30 8 2 8 9
M  V30 9 1 9 10
M  V30 10 2 10 11
M  V30 11 1 11 12
M  V30 12 2 12 13
M  V30 13 2 7 14
M  V30 14 1 14 15
M  V30 15 2 15 16
M  V30 16 1 16 17
M  V30 17 2 17 18
M  V30 18 1 18 19
M  V30 19 2 19 20
M  V30 20 1 2 21
M  V30 21 2 21 22
M  V30 22 1 22 23
M  V30 23 2 23 24
M  V30 24 1 24 25
M  V30 25 2 25 26
M  V30 26 1 20 5
M  V30 27 1 26 21
M  V30 28 1 13 8
M  V30 29 1 20 15
M  V30 30 1 1 27
M  V30 31 1 1 28
M  V30 32 1 1 29
M  V30 33 1 3 30
M  V30 34 1 3 31
M  V30 35 1 3 32
M  V30 36 1 4 33
M  V30 37 1 9 34
M  V30 38 1 10 35
M  V30 39 1 12 36
M  V30 40 1 13 37
M  V30 41 1 16 38
M  V30 42 1 18 39
M  V30 43 1 19 40
M  V30 44 1 22 41
M  V30 45 1 23 42
M  V30 46 1 24 43
M  V30 47 1 25 44
M  V30 48 1 26 45
M  V30 END BOND
M  V30 END CTAB
M  END
>  <Dataset>  (364) 
ChEMBL_Kinases

>  <Ligand_Instance>  (364) 
nan

>  <PDB_ID>  (364) 
nan

>  <Standardized_SMILES>  (364) 
CC(C)(Nc1nc(-c2ccncc2)nc2cnccc12)c1ccccc1

>  <Name>  (364) 
nan

>  <Pocket>  (364) 
nan

>  <ATP_Site>  (364) 
nan

>  <Peripheral>  (364) 
nan

>  <Num_H_Atoms_ProtBoundConf>  (364) 
nan

>  <Num_Resolved_Atoms>  (364) 
nan

>  <Num_Not_Resolved_Atoms>  (364) 
nan

$$$$
CHEMBL4544609
     RDKit          3D

  0  0  0  0  0  0  0  0  0  0999 V3000
M  V30 BEGIN CTAB
M  V30 COUNTS 52 56 0 0 0
M  V30 BEGIN ATOM
M  V30 1 C -2.751538 -6.861972 1.767834 0
M  V30 2 N -1.499374 -6.579838 1.071755 0
M  V30 3 C -1.039686 -5.321503 0.904354 0
M  V30 4 C 0.170783 -5.380230 0.206347 0
M  V30 5 C 0.935332 -4.187002 -0.140352 0
M  V30 6 C 0.854301 -3.130358 0.739512 0
M  V30 7 N 1.545758 -1.988729 0.469414 0
M  V30 8 C 2.305064 -1.906884 -0.662235 0
M  V30 9 C 3.106149 -0.920196 -1.215510 0
M  V30 10 C 3.277128 0.374790 -0.563782 0
M  V30 11 C 4.569353 0.978114 -0.438585 0
M  V30 12 S 4.163698 2.595048 0.465433 0
M  V30 13 C 2.485908 2.291497 0.553564 0
M  V30 14 C 1.581315 3.266733 1.196495 0
M  V30 15 O 2.126029 4.302998 1.658161 0
M  V30 16 N 0.197563 2.942614 1.230416 0
M  V30 17 C -0.955209 3.636542 1.762555 0 CFG=2
M  V30 18 C -1.547269 2.740425 2.820826 0
M  V30 19 C -1.978762 1.406005 2.306317 0
M  V30 20 C -2.578052 1.370293 0.965960 0
M  V30 21 C -2.555356 2.592845 0.143441 0
M  V30 22 C -2.054025 3.842440 0.767809 0 CFG=1
M  V30 23 O -3.126357 4.408024 1.488620 0
M  V30 24 C 2.258306 1.115229 -0.027331 0
M  V30 25 C 3.658735 -1.356143 -2.392220 0
M  V30 26 N 3.188204 -2.609968 -2.547618 0
M  V30 27 N 2.399418 -2.925358 -1.535780 0
M  V30 28 C 1.717273 -4.053498 -1.270676 0
M  V30 29 C 0.389605 -6.741181 -0.022837 0
M  V30 30 N -0.646186 -7.418951 0.518902 0
M  V30 31 H -2.683932 -6.365037 2.777365 0
M  V30 32 H -3.528921 -6.274129 1.208392 0
M  V30 33 H -2.963856 -7.930331 1.834841 0
M  V30 34 H -1.517773 -4.414961 1.247373 0
M  V30 35 H 0.253729 -3.189873 1.638058 0
M  V30 36 H 5.517368 0.442154 -0.858173 0
M  V30 37 H -0.135197 2.040463 0.808212 0
M  V30 38 H -0.678923 4.590407 2.220077 0
M  V30 39 H -2.387890 3.279944 3.303576 0
M  V30 40 H -0.739637 2.621926 3.590343 0
M  V30 41 H -1.048118 0.765369 2.334915 0
M  V30 42 H -2.628971 0.949599 3.088917 0
M  V30 43 H -3.638213 1.026153 1.071301 0
M  V30 44 H -2.119121 0.534341 0.363684 0
M  V30 45 H -1.963495 2.453044 -0.808338 0
M  V30 46 H -3.581841 2.845895 -0.260423 0
M  V30 47 H -1.802597 4.573542 -0.019330 0
M  V30 48 H -3.753907 3.693523 1.794596 0
M  V30 49 H 1.228801 0.779737 -0.051125 0
M  V30 50 H 4.321397 -0.806216 -3.039148 0
M  V30 51 H 1.748437 -4.908605 -1.929459 0
M  V30 52 H 1.268894 -7.085271 -0.552757 0
M  V30 END ATOM
M  V30 BEGIN BOND
M  V30 1 1 1 2
M  V30 2 1 2 3
M  V30 3 2 3 4
M  V30 4 1 4 5
M  V30 5 1 5 6
M  V30 6 2 6 7
M  V30 7 1 7 8
M  V30 8 2 8 9
M  V30 9 1 9 10
M  V30 10 2 10 11
M  V30 11 1 11 12
M  V30 12 1 12 13
M  V30 13 1 13 14
M  V30 14 2 14 15
M  V30 15 1 14 16
M  V30 16 1 16 17
M  V30 17 1 17 18
M  V30 18 1 18 19
M  V30 19 1 19 20
M  V30 20 1 20 21
M  V30 21 1 21 22
M  V30 22 1 22 23
M  V30 23 2 13 24
M  V30 24 1 9 25
M  V30 25 2 25 26
M  V30 26 1 26 27
M  V30 27 1 27 28
M  V30 28 1 4 29
M  V30 29 2 29 30
M  V30 30 1 30 2
M  V30 31 2 28 5
M  V30 32 1 27 8
M  V30 33 1 24 10
M  V30 34 1 22 17
M  V30 35 1 1 31
M  V30 36 1 1 32
M  V30 37 1 1 33
M  V30 38 1 3 34
M  V30 39 1 6 35
M  V30 40 1 11 36
M  V30 41 1 16 37
M  V30 42 1 17 38 CFG=1
M  V30 43 1 18 39
M  V30 44 1 18 40
M  V30 45 1 19 41
M  V30 46 1 19 42
M  V30 47 1 20 43
M  V30 48 1 20 44
M  V30 49 1 21 45
M  V30 50 1 21 46
M  V30 51 1 22 47 CFG=3
M  V30 52 1 23 48
M  V30 53 1 24 49
M  V30 54 1 25 50
M  V30 55 1 28 51
M  V30 56 1 29 52
M  V30 END BOND
M  V30 END CTAB
M  END
>  <Dataset>  (365) 
ChEMBL_Kinases

>  <Ligand_Instance>  (365) 
nan

>  <PDB_ID>  (365) 
nan

>  <Standardized_SMILES>  (365) 
Cn1cc(-c2cnc3c(-c4csc(C(=O)N[C@@H]5CCCC[C@H]5O)c4)cnn3c2)cn1

>  <Name>  (365) 
nan

>  <Pocket>  (365) 
nan

>  <ATP_Site>  (365) 
nan

>  <Peripheral>  (365) 
nan

>  <Num_H_Atoms_ProtBoundConf>  (365) 
nan

>  <Num_Resolved_Atoms>  (365) 
nan

>  <Num_Not_Resolved_Atoms>  (365) 
nan

$$$$
CHEMBL454447
     RDKit          3D

  0  0  0  0  0  0  0  0  0  0999 V3000
M  V30 BEGIN CTAB
M  V30 COUNTS 44 47 0 0 0
M  V30 BEGIN ATOM
M  V30 1 N 1.764002 -5.651369 4.516633 0
M  V30 2 C 1.715850 -5.087888 3.487615 0
M  V30 3 C 1.646098 -4.380672 2.235833 0
M  V30 4 C 1.216986 -4.986116 1.071190 0
M  V30 5 C 1.182401 -4.231593 -0.082131 0
M  V30 6 C 1.567393 -2.886415 -0.094942 0
M  V30 7 C 1.469241 -2.239574 -1.396994 0
M  V30 8 C 1.904833 -2.798051 -2.581457 0
M  V30 9 N 1.633985 -1.883243 -3.554038 0
M  V30 10 C 1.055704 -0.808031 -2.986742 0
M  V30 11 C 0.593548 0.377842 -3.516703 0
M  V30 12 C 0.045565 1.280815 -2.630010 0
M  V30 13 C -0.064404 1.066188 -1.260115 0
M  V30 14 N -0.637760 2.026973 -0.381375 0
M  V30 15 C -0.713132 1.728250 1.015694 0 CFG=1
M  V30 16 C 0.599334 1.479506 1.690378 0
M  V30 17 C 0.310599 0.609052 2.920119 0
M  V30 18 C -0.880718 1.123859 3.664321 0
M  V30 19 C -1.324215 2.496380 3.275590 0
M  V30 20 C -1.464857 2.739978 1.813246 0 CFG=2
M  V30 21 O -2.802070 2.731235 1.418990 0
M  V30 22 N 0.415976 -0.118494 -0.853666 0
M  V30 23 N 0.951140 -1.019932 -1.660608 0
M  V30 24 C 1.990941 -2.324785 1.102031 0
M  V30 25 C 2.030009 -3.058524 2.248455 0
M  V30 26 H 0.919100 -6.033205 1.089392 0
M  V30 27 H 0.836368 -4.752897 -0.977654 0
M  V30 28 H 2.373977 -3.772610 -2.733771 0
M  V30 29 H 0.644099 0.614251 -4.561221 0
M  V30 30 H -0.322095 2.217284 -3.030718 0
M  V30 31 H -0.978027 2.912977 -0.812156 0
M  V30 32 H -1.286364 0.757660 1.086845 0
M  V30 33 H 1.335577 0.945989 1.065184 0
M  V30 34 H 1.041706 2.422499 2.118304 0
M  V30 35 H 1.224461 0.557655 3.546170 0
M  V30 36 H 0.086413 -0.406703 2.527254 0
M  V30 37 H -1.725024 0.410128 3.605662 0
M  V30 38 H -0.612500 1.165562 4.746888 0
M  V30 39 H -2.340744 2.638201 3.744259 0
M  V30 40 H -0.693664 3.278115 3.787979 0
M  V30 41 H -1.079658 3.755012 1.507483 0
M  V30 42 H -2.870526 2.301071 0.530918 0
M  V30 43 H 2.268016 -1.290287 1.005275 0
M  V30 44 H 2.370317 -2.576913 3.170179 0
M  V30 END ATOM
M  V30 BEGIN BOND
M  V30 1 3 1 2
M  V30 2 1 2 3
M  V30 3 2 3 4
M  V30 4 1 4 5
M  V30 5 2 5 6
M  V30 6 1 6 7
M  V30 7 2 7 8
M  V30 8 1 8 9
M  V30 9 2 9 10
M  V30 10 1 10 11
M  V30 11 2 11 12
M  V30 12 1 12 13
M  V30 13 1 13 14
M  V30 14 1 14 15
M  V30 15 1 15 16
M  V30 16 1 16 17
M  V30 17 1 17 18
M  V30 18 1 18 19
M  V30 19 1 19 20
M  V30 20 1 20 21
M  V30 21 2 13 22
M  V30 22 1 22 23
M  V30 23 1 6 24
M  V30 24 2 24 25
M  V30 25 1 25 3
M  V30 26 1 23 7
M  V30 27 1 23 10
M  V30 28 1 20 15
M  V30 29 1 4 26
M  V30 30 1 5 27
M  V30 31 1 8 28
M  V30 32 1 11 29
M  V30 33 1 12 30
M  V30 34 1 14 31
M  V30 35 1 15 32 CFG=3
M  V30 36 1 16 33
M  V30 37 1 16 34
M  V30 38 1 17 35
M  V30 39 1 17 36
M  V30 40 1 18 37
M  V30 41 1 18 38
M  V30 42 1 19 39
M  V30 43 1 19 40
M  V30 44 1 20 41 CFG=1
M  V30 45 1 21 42
M  V30 46 1 24 43
M  V30 47 1 25 44
M  V30 END BOND
M  V30 END CTAB
M  END
>  <Dataset>  (366) 
ChEMBL_Kinases

>  <Ligand_Instance>  (366) 
nan

>  <PDB_ID>  (366) 
nan

>  <Standardized_SMILES>  (366) 
N#Cc1ccc(-c2cnc3ccc(N[C@H]4CCCC[C@@H]4O)nn23)cc1

>  <Name>  (366) 
nan

>  <Pocket>  (366) 
nan

>  <ATP_Site>  (366) 
nan

>  <Peripheral>  (366) 
nan

>  <Num_H_Atoms_ProtBoundConf>  (366) 
nan

>  <Num_Resolved_Atoms>  (366) 
nan

>  <Num_Not_Resolved_Atoms>  (366) 
nan

$$$$
CHEMBL4544411
     RDKit          3D

  0  0  0  0  0  0  0  0  0  0999 V3000
M  V30 BEGIN CTAB
M  V30 COUNTS 48 51 0 0 0
M  V30 BEGIN ATOM
M  V30 1 C -0.301222 -6.991683 1.191466 0
M  V30 2 N 0.723136 -6.041999 1.542303 0
M  V30 3 N 1.639303 -6.343016 2.465217 0
M  V30 4 C 2.443635 -5.288287 2.645238 0
M  V30 5 C 1.942997 -4.350406 1.770623 0
M  V30 6 C 0.843229 -4.813231 1.054430 0
M  V30 7 C 0.167634 -3.960368 0.117462 0
M  V30 8 O 0.377453 -2.669097 0.125879 0
M  V30 9 C -0.297231 -2.020303 -0.776683 0
M  V30 10 C -0.206057 -0.567339 -0.933543 0
M  V30 11 O -0.894282 -0.028375 -1.831771 0
M  V30 12 N 0.624641 0.241271 -0.113422 0
M  V30 13 C 0.777626 1.664716 -0.193036 0 CFG=2
M  V30 14 C 2.221799 2.002130 -0.375125 0
M  V30 15 N 2.567499 3.367706 -0.379531 0
M  V30 16 C 1.851845 4.225254 0.508737 0
M  V30 17 C 0.420683 3.845206 0.740306 0
M  V30 18 C 0.349319 2.364775 1.083896 0 CFG=1
M  V30 19 C -1.006426 1.962180 1.509419 0
M  V30 20 C -1.934139 2.201267 0.519232 0
M  V30 21 C -3.290105 1.903087 0.684641 0
M  V30 22 C -3.693839 1.347139 1.897189 0
M  V30 23 Cl -5.379132 0.954491 2.157668 0
M  V30 24 C -2.754641 1.113960 2.877555 0
M  V30 25 C -1.432353 1.410138 2.702795 0
M  V30 26 C -1.060084 -2.900879 -1.504713 0
M  V30 27 C -0.726010 -4.092075 -0.901030 0
M  V30 28 Br -1.461736 -5.696503 -1.564658 0
M  V30 29 H -0.393829 -7.764501 2.046192 0
M  V30 30 H -1.309107 -6.537763 1.215040 0
M  V30 31 H -0.112772 -7.562371 0.277162 0
M  V30 32 H 3.254541 -5.312968 3.345831 0
M  V30 33 H 2.502866 -3.401077 1.793059 0
M  V30 34 H 1.202581 -0.198321 0.638519 0
M  V30 35 H 0.158155 2.125545 -0.997132 0
M  V30 36 H 2.547056 1.525261 -1.326637 0
M  V30 37 H 2.778688 1.461772 0.429018 0
M  V30 38 H 3.584786 3.437508 -0.094722 0
M  V30 39 H 2.324727 4.358345 1.508097 0
M  V30 40 H 1.844526 5.238804 0.046202 0
M  V30 41 H 0.034933 4.491587 1.542798 0
M  V30 42 H -0.125272 3.970897 -0.231001 0
M  V30 43 H 1.120998 2.184649 1.860850 0
M  V30 44 H -1.756584 2.626012 -0.462863 0
M  V30 45 H -4.057093 2.067750 -0.051814 0
M  V30 46 H -3.028671 0.678050 3.846401 0
M  V30 47 H -0.617235 1.266419 3.407583 0
M  V30 48 H -1.722809 -2.662570 -2.318401 0
M  V30 END ATOM
M  V30 BEGIN BOND
M  V30 1 1 1 2
M  V30 2 1 2 3
M  V30 3 2 3 4
M  V30 4 1 4 5
M  V30 5 2 5 6
M  V30 6 1 6 7
M  V30 7 1 7 8
M  V30 8 1 8 9
M  V30 9 1 9 10
M  V30 10 2 10 11
M  V30 11 1 10 12
M  V30 12 1 12 13
M  V30 13 1 13 14
M  V30 14 1 14 15
M  V30 15 1 15 16
M  V30 16 1 16 17
M  V30 17 1 17 18
M  V30 18 1 18 19
M  V30 19 2 19 20
M  V30 20 1 20 21
M  V30 21 2 21 22
M  V30 22 1 22 23
M  V30 23 1 22 24
M  V30 24 2 24 25
M  V30 25 2 9 26
M  V30 26 1 26 27
M  V30 27 1 27 28
M  V30 28 1 6 2
M  V30 29 2 27 7
M  V30 30 1 18 13
M  V30 31 1 25 19
M  V30 32 1 1 29
M  V30 33 1 1 30
M  V30 34 1 1 31
M  V30 35 1 4 32
M  V30 36 1 5 33
M  V30 37 1 12 34
M  V30 38 1 13 35 CFG=3
M  V30 39 1 14 36
M  V30 40 1 14 37
M  V30 41 1 15 38
M  V30 42 1 16 39
M  V30 43 1 16 40
M  V30 44 1 17 41
M  V30 45 1 17 42
M  V30 46 1 18 43 CFG=1
M  V30 47 1 20 44
M  V30 48 1 21 45
M  V30 49 1 24 46
M  V30 50 1 25 47
M  V30 51 1 26 48
M  V30 END BOND
M  V30 END CTAB
M  END
>  <Dataset>  (367) 
ChEMBL_Kinases

>  <Ligand_Instance>  (367) 
nan

>  <PDB_ID>  (367) 
nan

>  <Standardized_SMILES>  (367) 
Cn1nccc1-c1oc(C(=O)N[C@@H]2CNCC[C@H]2c2ccc(Cl)cc2)cc1Br

>  <Name>  (367) 
nan

>  <Pocket>  (367) 
nan

>  <ATP_Site>  (367) 
nan

>  <Peripheral>  (367) 
nan

>  <Num_H_Atoms_ProtBoundConf>  (367) 
nan

>  <Num_Resolved_Atoms>  (367) 
nan

>  <Num_Not_Resolved_Atoms>  (367) 
nan

$$$$
CHEMBL4544284
     RDKit          3D

  0  0  0  0  0  0  0  0  0  0999 V3000
M  V30 BEGIN CTAB
M  V30 COUNTS 60 65 0 0 0
M  V30 BEGIN ATOM
M  V30 1 O 0.125831 -2.270915 1.235238 0
M  V30 2 C 0.448761 -3.475468 0.903142 0
M  V30 3 N 0.974588 -3.405924 -0.431511 0
M  V30 4 C 0.811395 -1.976843 -0.603514 0
M  V30 5 C 1.928807 -1.252878 -0.171508 0
M  V30 6 C 1.895756 0.137626 -0.245293 0
M  V30 7 C 2.977612 0.861767 0.175223 0
M  V30 8 N 2.813576 2.205067 0.055273 0
M  V30 9 C 1.696577 2.749342 -0.428438 0
M  V30 10 N 1.656753 4.166974 -0.490320 0
M  V30 11 C 2.816881 5.007290 -0.271251 0
M  V30 12 C 2.547908 5.806063 1.014709 0
M  V30 13 O 1.210841 5.618305 1.400317 0
M  V30 14 C 0.408441 6.035445 0.343805 0
M  V30 15 C 0.490403 4.996868 -0.749750 0
M  V30 16 N 0.657614 1.998460 -0.831367 0
M  V30 17 C 0.723227 0.637018 -0.752785 0
M  V30 18 C -0.376509 -0.052651 -1.179640 0
M  V30 19 C -0.333979 -1.415624 -1.103792 0
M  V30 20 N -1.423011 -2.178425 -1.582201 0
M  V30 21 C -2.722811 -1.521369 -1.686800 0
M  V30 22 C -3.854564 -2.499826 -1.856844 0
M  V30 23 C -3.749527 -3.672589 -0.940203 0
M  V30 24 C -2.439491 -4.365182 -1.153809 0
M  V30 25 C -1.524072 -3.546230 -2.051717 0
M  V30 26 C 0.225828 -4.564865 1.877669 0
M  V30 27 C 0.144931 -5.914406 1.619788 0
M  V30 28 N -0.078050 -6.470685 2.852047 0
M  V30 29 N -0.121152 -5.508152 3.753541 0
M  V30 30 C -0.314291 -5.541949 5.087670 0
M  V30 31 C -0.319848 -4.366694 5.839232 0
M  V30 32 C -0.128158 -3.114566 5.260489 0
M  V30 33 N 0.064146 -3.114993 3.908398 0
M  V30 34 C 0.058714 -4.286066 3.233708 0
M  V30 35 H 1.235678 -4.377410 -0.703007 0
M  V30 36 H 2.823769 -1.724699 0.221648 0
M  V30 37 H 3.868868 0.399907 0.563816 0
M  V30 38 H 3.718951 4.405950 -0.126343 0
M  V30 39 H 3.004596 5.700977 -1.116966 0
M  V30 40 H 2.692232 6.885142 0.864330 0
M  V30 41 H 3.195432 5.460275 1.818394 0
M  V30 42 H 0.793872 7.023046 -0.042674 0
M  V30 43 H -0.626192 6.140644 0.734733 0
M  V30 44 H -0.463114 4.403952 -0.686766 0
M  V30 45 H 0.541383 5.473173 -1.755105 0
M  V30 46 H -1.244076 0.471421 -1.559003 0
M  V30 47 H -2.928701 -0.915139 -0.765126 0
M  V30 48 H -2.766662 -0.814226 -2.533963 0
M  V30 49 H -4.791445 -1.914464 -1.680803 0
M  V30 50 H -3.928822 -2.793054 -2.935308 0
M  V30 51 H -3.848734 -3.305659 0.102700 0
M  V30 52 H -4.577382 -4.365516 -1.210107 0
M  V30 53 H -1.974407 -4.552801 -0.174076 0
M  V30 54 H -2.605865 -5.319219 -1.667313 0
M  V30 55 H -0.540253 -4.039791 -2.183070 0
M  V30 56 H -2.033515 -3.504165 -3.061338 0
M  V30 57 H 0.232960 -6.426624 0.680316 0
M  V30 58 H -0.468047 -6.518872 5.575346 0
M  V30 59 H -0.490297 -4.536280 6.911467 0
M  V30 60 H -0.156681 -2.305461 5.963581 0
M  V30 END ATOM
M  V30 BEGIN BOND
M  V30 1 2 1 2
M  V30 2 1 2 3
M  V30 3 1 3 4
M  V30 4 2 4 5
M  V30 5 1 5 6
M  V30 6 2 6 7
M  V30 7 1 7 8
M  V30 8 2 8 9
M  V30 9 1 9 10
M  V30 10 1 10 11
M  V30 11 1 11 12
M  V30 12 1 12 13
M  V30 13 1 13 14
M  V30 14 1 14 15
M  V30 15 1 9 16
M  V30 16 2 16 17
M  V30 17 1 17 18
M  V30 18 2 18 19
M  V30 19 1 19 20
M  V30 20 1 20 21
M  V30 21 1 21 22
M  V30 22 1 22 23
M  V30 23 1 23 24
M  V30 24 1 24 25
M  V30 25 1 2 26
M  V30 26 1 26 27
M  V30 27 2 27 28
M  V30 28 1 28 29
M  V30 29 1 29 30
M  V30 30 2 30 31
M  V30 31 1 31 32
M  V30 32 2 32 33
M  V30 33 1 33 34
M  V30 34 1 19 4
M  V30 35 1 25 20
M  V30 36 2 34 26
M  V30 37 1 17 6
M  V30 38 1 34 29
M  V30 39 1 15 10
M  V30 40 1 3 35
M  V30 41 1 5 36
M  V30 42 1 7 37
M  V30 43 1 11 38
M  V30 44 1 11 39
M  V30 45 1 12 40
M  V30 46 1 12 41
M  V30 47 1 14 42
M  V30 48 1 14 43
M  V30 49 1 15 44
M  V30 50 1 15 45
M  V30 51 1 18 46
M  V30 52 1 21 47
M  V30 53 1 21 48
M  V30 54 1 22 49
M  V30 55 1 22 50
M  V30 56 1 23 51
M  V30 57 1 23 52
M  V30 58 1 24 53
M  V30 59 1 24 54
M  V30 60 1 25 55
M  V30 61 1 25 56
M  V30 62 1 27 57
M  V30 63 1 30 58
M  V30 64 1 31 59
M  V30 65 1 32 60
M  V30 END BOND
M  V30 END CTAB
M  END
>  <Dataset>  (368) 
ChEMBL_Kinases

>  <Ligand_Instance>  (368) 
nan

>  <PDB_ID>  (368) 
nan

>  <Standardized_SMILES>  (368) 
O=C(Nc1cc2cnc(N3CCOCC3)nc2cc1N1CCCCC1)c1cnn2cccnc12

>  <Name>  (368) 
nan

>  <Pocket>  (368) 
nan

>  <ATP_Site>  (368) 
nan

>  <Peripheral>  (368) 
nan

>  <Num_H_Atoms_ProtBoundConf>  (368) 
nan

>  <Num_Resolved_Atoms>  (368) 
nan

>  <Num_Not_Resolved_Atoms>  (368) 
nan

$$$$
CHEMBL4640043
     RDKit          3D

  0  0  0  0  0  0  0  0  0  0999 V3000
M  V30 BEGIN CTAB
M  V30 COUNTS 62 66 0 0 0
M  V30 BEGIN ATOM
M  V30 1 C 2.530958 0.332960 5.180062 0
M  V30 2 C 3.051881 -0.493661 4.026184 0
M  V30 3 C 3.795486 -1.684161 4.590115 0
M  V30 4 O 1.934246 -0.932940 3.287762 0
M  V30 5 C 4.003592 0.273185 3.156764 0
M  V30 6 N 3.389361 1.461201 2.562305 0
M  V30 7 C 2.745489 1.434045 1.357687 0
M  V30 8 C 2.240859 2.680662 0.991874 0
M  V30 9 N 1.501156 3.050569 -0.188892 0
M  V30 10 C 1.358204 1.869601 -1.009133 0
M  V30 11 C 0.381261 0.921510 -0.699584 0
M  V30 12 C 0.206981 -0.261542 -1.435921 0
M  V30 13 O -0.814852 -0.981362 -0.893517 0
M  V30 14 C -2.124835 -1.063214 -1.272760 0
M  V30 15 C -2.834802 -0.515131 -2.310121 0
M  V30 16 N -4.084343 -0.994695 -2.102698 0
M  V30 17 C -5.174289 -0.653980 -3.012111 0
M  V30 18 C -5.190861 0.630049 -3.711327 0
M  V30 19 C -4.766129 -0.558050 -4.512677 0
M  V30 20 N -4.152632 -1.768341 -1.038214 0
M  V30 21 C -2.915513 -1.855937 -0.452342 0
M  V30 22 C -2.874402 -2.708121 0.759638 0
M  V30 23 C -2.814255 -4.151429 0.327051 0
M  V30 24 C -1.399119 -4.457575 -0.088392 0
M  V30 25 O -0.627328 -4.582496 1.063261 0
M  V30 26 C -1.107968 -3.829364 2.109663 0
M  V30 27 C -1.650346 -2.478409 1.617948 0
M  V30 28 C 1.051800 -0.456227 -2.499673 0
M  V30 29 C 2.008745 0.488504 -2.792767 0
M  V30 30 N 2.165368 1.607817 -2.084135 0
M  V30 31 C 2.632200 3.454588 2.067076 0
M  V30 32 N 3.302702 2.713293 2.971128 0
M  V30 33 H 1.578042 0.859773 4.929360 0
M  V30 34 H 3.320692 1.026081 5.475174 0
M  V30 35 H 2.336775 -0.312303 6.086875 0
M  V30 36 H 4.909544 -1.562549 4.493329 0
M  V30 37 H 3.543617 -2.623810 4.061103 0
M  V30 38 H 3.606379 -1.812776 5.676903 0
M  V30 39 H 2.225123 -1.365261 2.463328 0
M  V30 40 H 4.886254 0.549387 3.735432 0
M  V30 41 H 4.291303 -0.432646 2.326358 0
M  V30 42 H 2.663641 0.503727 0.778439 0
M  V30 43 H 1.199197 4.039161 -0.276864 0
M  V30 44 H -0.217503 1.216597 0.175587 0
M  V30 45 H -2.382654 0.119118 -3.034544 0
M  V30 46 H -6.145137 -1.163623 -2.868015 0
M  V30 47 H -6.185903 1.039592 -4.057470 0
M  V30 48 H -4.410963 1.406414 -3.499117 0
M  V30 49 H -3.665646 -0.660077 -4.686744 0
M  V30 50 H -5.429677 -1.012373 -5.254283 0
M  V30 51 H -3.806490 -2.580074 1.374201 0
M  V30 52 H -3.480472 -4.278469 -0.570597 0
M  V30 53 H -3.155010 -4.837100 1.140475 0
M  V30 54 H -1.352257 -5.384066 -0.709871 0
M  V30 55 H -0.984252 -3.657860 -0.726573 0
M  V30 56 H -1.817717 -4.320721 2.773550 0
M  V30 57 H -0.208369 -3.543650 2.732443 0
M  V30 58 H -0.806339 -2.010904 1.121696 0
M  V30 59 H -1.979328 -1.941848 2.534377 0
M  V30 60 H 0.841101 -1.381102 -2.997416 0
M  V30 61 H 2.638196 0.280145 -3.636594 0
M  V30 62 H 2.418054 4.527629 2.158910 0
M  V30 END ATOM
M  V30 BEGIN BOND
M  V30 1 1 1 2
M  V30 2 1 2 3
M  V30 3 1 2 4
M  V30 4 1 2 5
M  V30 5 1 5 6
M  V30 6 1 6 7
M  V30 7 2 7 8
M  V30 8 1 8 9
M  V30 9 1 9 10
M  V30 10 2 10 11
M  V30 11 1 11 12
M  V30 12 1 12 13
M  V30 13 1 13 14
M  V30 14 2 14 15
M  V30 15 1 15 16
M  V30 16 1 16 17
M  V30 17 1 17 18
M  V30 18 1 18 19
M  V30 19 1 16 20
M  V30 20 2 20 21
M  V30 21 1 21 22
M  V30 22 1 22 23
M  V30 23 1 23 24
M  V30 24 1 24 25
M  V30 25 1 25 26
M  V30 26 1 26 27
M  V30 27 2 12 28
M  V30 28 1 28 29
M  V30 29 2 29 30
M  V30 30 1 8 31
M  V30 31 2 31 32
M  V30 32 1 32 6
M  V30 33 1 30 10
M  V30 34 1 21 14
M  V30 35 1 27 22
M  V30 36 1 19 17
M  V30 37 1 1 33
M  V30 38 1 1 34
M  V30 39 1 1 35
M  V30 40 1 3 36
M  V30 41 1 3 37
M  V30 42 1 3 38
M  V30 43 1 4 39
M  V30 44 1 5 40
M  V30 45 1 5 41
M  V30 46 1 7 42
M  V30 47 1 9 43
M  V30 48 1 11 44
M  V30 49 1 15 45
M  V30 50 1 17 46
M  V30 51 1 18 47
M  V30 52 1 18 48
M  V30 53 1 19 49
M  V30 54 1 19 50
M  V30 55 1 22 51
M  V30 56 1 23 52
M  V30 57 1 23 53
M  V30 58 1 24 54
M  V30 59 1 24 55
M  V30 60 1 26 56
M  V30 61 1 26 57
M  V30 62 1 27 58
M  V30 63 1 27 59
M  V30 64 1 28 60
M  V30 65 1 29 61
M  V30 66 1 31 62
M  V30 END BOND
M  V30 END CTAB
M  END
>  <Dataset>  (369) 
ChEMBL_Kinases

>  <Ligand_Instance>  (369) 
nan

>  <PDB_ID>  (369) 
nan

>  <Standardized_SMILES>  (369) 
CC(C)(O)Cn1cc(Nc2cc(Oc3cn(C4CC4)nc3C3CCOCC3)ccn2)cn1

>  <Name>  (369) 
nan

>  <Pocket>  (369) 
nan

>  <ATP_Site>  (369) 
nan

>  <Peripheral>  (369) 
nan

>  <Num_H_Atoms_ProtBoundConf>  (369) 
nan

>  <Num_Resolved_Atoms>  (369) 
nan

>  <Num_Not_Resolved_Atoms>  (369) 
nan

$$$$
CHEMBL4544069
     RDKit          3D

  0  0  0  0  0  0  0  0  0  0999 V3000
M  V30 BEGIN CTAB
M  V30 COUNTS 50 53 0 0 0
M  V30 BEGIN ATOM
M  V30 1 C 5.516334 -2.345350 3.645085 0
M  V30 2 N 6.169899 -2.567321 2.372633 0
M  V30 3 N 7.359532 -3.145585 2.198581 0
M  V30 4 C 7.666627 -3.192326 0.893787 0
M  V30 5 C 6.578797 -2.599158 0.261582 0
M  V30 6 Br 6.480094 -2.396028 -1.628201 0
M  V30 7 C 5.634793 -2.205316 1.198621 0
M  V30 8 C 4.365552 -1.552576 0.942788 0
M  V30 9 C 4.287888 -0.498234 0.053257 0
M  V30 10 C 3.100937 0.152554 -0.220795 0
M  V30 11 C 1.970536 -0.289286 0.432765 0
M  V30 12 C 0.703572 0.395455 0.148472 0
M  V30 13 O 0.643264 1.367687 -0.675537 0
M  V30 14 N -0.495645 -0.020160 0.796896 0
M  V30 15 C -1.768543 0.642609 0.532636 0 CFG=2
M  V30 16 C -2.292358 1.156265 1.820788 0
M  V30 17 N -2.541064 0.109944 2.752072 0
M  V30 18 C -3.394399 -0.934407 2.273791 0
M  V30 19 C -3.110137 -1.383592 0.889642 0
M  V30 20 C -2.692748 -0.339758 -0.084745 0 CFG=1
M  V30 21 C -3.786649 0.233383 -0.894767 0
M  V30 22 C -4.945117 0.776655 -0.380782 0
M  V30 23 C -5.964990 1.318824 -1.134982 0
M  V30 24 C -5.851802 1.335600 -2.510247 0
M  V30 25 C -4.726832 0.813240 -3.113673 0
M  V30 26 F -4.561334 0.802281 -4.455004 0
M  V30 27 C -3.754498 0.290946 -2.289760 0
M  V30 28 N 2.031929 -1.315453 1.301984 0
M  V30 29 C 3.203286 -1.953723 1.569012 0
M  V30 30 H 4.879687 -3.225728 3.932406 0
M  V30 31 H 4.935131 -1.416465 3.687680 0
M  V30 32 H 6.294083 -2.298680 4.434170 0
M  V30 33 H 8.574189 -3.614570 0.529364 0
M  V30 34 H 5.208916 -0.175060 -0.447508 0
M  V30 35 H 3.041766 0.985659 -0.924200 0
M  V30 36 H -0.435213 -0.825180 1.476932 0
M  V30 37 H -1.520256 1.430056 -0.206858 0
M  V30 38 H -3.237021 1.758613 1.731195 0
M  V30 39 H -1.538028 1.840221 2.282172 0
M  V30 40 H -2.654956 0.355344 3.733564 0
M  V30 41 H -3.213169 -1.821579 2.949153 0
M  V30 42 H -4.458538 -0.684968 2.433100 0
M  V30 43 H -4.073095 -1.823004 0.497111 0
M  V30 44 H -2.419490 -2.277353 0.888159 0
M  V30 45 H -2.050367 -0.891829 -0.853974 0
M  V30 46 H -5.112074 0.797089 0.665208 0
M  V30 47 H -6.861280 1.737046 -0.693454 0
M  V30 48 H -6.618770 1.745738 -3.124309 0
M  V30 49 H -2.865468 -0.120438 -2.792932 0
M  V30 50 H 3.198550 -2.773519 2.276384 0
M  V30 END ATOM
M  V30 BEGIN BOND
M  V30 1 1 1 2
M  V30 2 1 2 3
M  V30 3 2 3 4
M  V30 4 1 4 5
M  V30 5 1 5 6
M  V30 6 2 5 7
M  V30 7 1 7 8
M  V30 8 2 8 9
M  V30 9 1 9 10
M  V30 10 2 10 11
M  V30 11 1 11 12
M  V30 12 2 12 13
M  V30 13 1 12 14
M  V30 14 1 14 15
M  V30 15 1 15 16
M  V30 16 1 16 17
M  V30 17 1 17 18
M  V30 18 1 18 19
M  V30 19 1 19 20
M  V30 20 1 20 21
M  V30 21 2 21 22
M  V30 22 1 22 23
M  V30 23 2 23 24
M  V30 24 1 24 25
M  V30 25 1 25 26
M  V30 26 2 25 27
M  V30 27 1 11 28
M  V30 28 2 28 29
M  V30 29 1 7 2
M  V30 30 1 29 8
M  V30 31 1 20 15
M  V30 32 1 27 21
M  V30 33 1 1 30
M  V30 34 1 1 31
M  V30 35 1 1 32
M  V30 36 1 4 33
M  V30 37 1 9 34
M  V30 38 1 10 35
M  V30 39 1 14 36
M  V30 40 1 15 37 CFG=3
M  V30 41 1 16 38
M  V30 42 1 16 39
M  V30 43 1 17 40
M  V30 44 1 18 41
M  V30 45 1 18 42
M  V30 46 1 19 43
M  V30 47 1 19 44
M  V30 48 1 20 45 CFG=3
M  V30 49 1 22 46
M  V30 50 1 23 47
M  V30 51 1 24 48
M  V30 52 1 27 49
M  V30 53 1 29 50
M  V30 END BOND
M  V30 END CTAB
M  END
>  <Dataset>  (370) 
ChEMBL_Kinases

>  <Ligand_Instance>  (370) 
nan

>  <PDB_ID>  (370) 
nan

>  <Standardized_SMILES>  (370) 
Cn1ncc(Br)c1-c1ccc(C(=O)N[C@@H]2CNCC[C@H]2c2cccc(F)c2)nc1

>  <Name>  (370) 
nan

>  <Pocket>  (370) 
nan

>  <ATP_Site>  (370) 
nan

>  <Peripheral>  (370) 
nan

>  <Num_H_Atoms_ProtBoundConf>  (370) 
nan

>  <Num_Resolved_Atoms>  (370) 
nan

>  <Num_Not_Resolved_Atoms>  (370) 
nan

$$$$
CHEMBL4544067
     RDKit          3D

  0  0  0  0  0  0  0  0  0  0999 V3000
M  V30 BEGIN CTAB
M  V30 COUNTS 53 56 0 0 0
M  V30 BEGIN ATOM
M  V30 1 C 2.862333 -2.028285 5.816774 0
M  V30 2 O 2.649924 -3.066678 4.896246 0
M  V30 3 C 2.396723 -2.786472 3.567371 0
M  V30 4 C 2.297404 -1.592583 2.878600 0
M  V30 5 C 2.034609 -1.598170 1.551785 0
M  V30 6 C 1.850807 -2.728138 0.801688 0
M  V30 7 C 1.583243 -2.646342 -0.565813 0
M  V30 8 C 1.462520 -1.416747 -1.262967 0
M  V30 9 C 2.472268 -0.567424 -1.837636 0
M  V30 10 C 1.861775 0.836213 -2.045925 0
M  V30 11 N 0.470056 0.814272 -1.631144 0
M  V30 12 C 0.051087 1.596629 -0.532550 0
M  V30 13 O 1.083223 2.216220 -0.099833 0
M  V30 14 C -1.251218 1.760060 0.087506 0
M  V30 15 C -1.913284 2.944033 0.340935 0
M  V30 16 C -3.152101 2.884153 0.948562 0
M  V30 17 C -3.744673 1.701620 1.306728 0
M  V30 18 O -4.986375 1.622607 1.916889 0
M  V30 19 C -6.163569 1.517458 1.111461 0
M  V30 20 F -6.053251 0.361162 0.351769 0
M  V30 21 F -6.309100 2.577775 0.246470 0
M  V30 22 F -7.285234 1.364250 1.909642 0
M  V30 23 C -3.084800 0.502062 1.055161 0
M  V30 24 N -3.699517 -0.730957 1.427222 0
M  V30 25 C -1.833939 0.537126 0.443267 0
M  V30 26 C -0.218981 -0.110245 -2.549068 0
M  V30 27 C 0.349517 -1.516195 -2.341577 0
M  V30 28 N 1.419087 -3.814128 -1.223557 0
M  V30 29 C 1.509396 -5.023709 -0.585880 0
M  V30 30 N 1.769230 -5.088366 0.743353 0
M  V30 31 C 1.937324 -3.958623 1.427461 0
M  V30 32 C 2.209820 -3.951105 2.803426 0
M  V30 33 H 2.625533 -1.019664 5.432713 0
M  V30 34 H 3.945567 -1.960016 6.128233 0
M  V30 35 H 2.215506 -2.136477 6.728262 0
M  V30 36 H 2.442956 -0.730503 3.474507 0
M  V30 37 H 1.985839 -0.611996 1.121815 0
M  V30 38 H 0.942367 -0.752011 -0.531735 0
M  V30 39 H 3.387061 -0.374412 -1.250621 0
M  V30 40 H 2.703202 -0.883615 -2.886673 0
M  V30 41 H 1.898294 1.186828 -3.078930 0
M  V30 42 H 2.372083 1.607152 -1.441022 0
M  V30 43 H -1.401972 3.834271 0.040040 0
M  V30 44 H -3.665098 3.810712 1.144279 0
M  V30 45 H -3.883801 -1.256680 0.521864 0
M  V30 46 H -3.890249 -0.978984 2.415224 0
M  V30 47 H -1.381186 -0.444823 0.280120 0
M  V30 48 H -1.277367 -0.169970 -2.212544 0
M  V30 49 H -0.104858 0.217356 -3.598773 0
M  V30 50 H 0.867111 -1.789104 -3.266088 0
M  V30 51 H -0.413440 -2.245297 -2.042158 0
M  V30 52 H 1.382653 -5.973105 -1.088112 0
M  V30 53 H 2.261562 -4.955118 3.220836 0
M  V30 END ATOM
M  V30 BEGIN BOND
M  V30 1 1 1 2
M  V30 2 1 2 3
M  V30 3 2 3 4
M  V30 4 1 4 5
M  V30 5 2 5 6
M  V30 6 1 6 7
M  V30 7 1 7 8
M  V30 8 1 8 9
M  V30 9 1 9 10
M  V30 10 1 10 11
M  V30 11 1 11 12
M  V30 12 2 12 13
M  V30 13 1 12 14
M  V30 14 2 14 15
M  V30 15 1 15 16
M  V30 16 2 16 17
M  V30 17 1 17 18
M  V30 18 1 18 19
M  V30 19 1 19 20
M  V30 20 1 19 21
M  V30 21 1 19 22
M  V30 22 1 17 23
M  V30 23 1 23 24
M  V30 24 2 23 25
M  V30 25 1 11 26
M  V30 26 1 26 27
M  V30 27 2 7 28
M  V30 28 1 28 29
M  V30 29 2 29 30
M  V30 30 1 30 31
M  V30 31 2 31 32
M  V30 32 1 32 3
M  V30 33 1 31 6
M  V30 34 1 27 8
M  V30 35 1 25 14
M  V30 36 1 1 33
M  V30 37 1 1 34
M  V30 38 1 1 35
M  V30 39 1 4 36
M  V30 40 1 5 37
M  V30 41 1 8 38
M  V30 42 1 9 39
M  V30 43 1 9 40
M  V30 44 1 10 41
M  V30 45 1 10 42
M  V30 46 1 15 43
M  V30 47 1 16 44
M  V30 48 1 24 45
M  V30 49 1 24 46
M  V30 50 1 25 47
M  V30 51 1 26 48
M  V30 52 1 26 49
M  V30 53 1 27 50
M  V30 54 1 27 51
M  V30 55 1 29 52
M  V30 56 1 32 53
M  V30 END BOND
M  V30 END CTAB
M  END
>  <Dataset>  (371) 
ChEMBL_Kinases

>  <Ligand_Instance>  (371) 
nan

>  <PDB_ID>  (371) 
nan

>  <Standardized_SMILES>  (371) 
COc1ccc2c(C3CCN(C(=O)c4ccc(OC(F)(F)F)c(N)c4)CC3)ncnc2c1

>  <Name>  (371) 
nan

>  <Pocket>  (371) 
nan

>  <ATP_Site>  (371) 
nan

>  <Peripheral>  (371) 
nan

>  <Num_H_Atoms_ProtBoundConf>  (371) 
nan

>  <Num_Resolved_Atoms>  (371) 
nan

>  <Num_Not_Resolved_Atoms>  (371) 
nan

$$$$
CHEMBL4543927
     RDKit          3D

  0  0  0  0  0  0  0  0  0  0999 V3000
M  V30 BEGIN CTAB
M  V30 COUNTS 56 59 0 0 0
M  V30 BEGIN ATOM
M  V30 1 C 3.848975 -2.470991 4.915678 0
M  V30 2 C 4.778357 -2.052450 3.809044 0
M  V30 3 C 4.050362 -1.412723 2.684277 0
M  V30 4 O 2.822322 -1.287611 2.853575 0
M  V30 5 N 4.650672 -0.969726 1.508157 0
M  V30 6 C 4.062609 -0.349958 0.380432 0
M  V30 7 C 4.856826 -0.027499 -0.690711 0
M  V30 8 C 4.362335 0.582217 -1.822841 0
M  V30 9 C 3.028819 0.907493 -1.947863 0
M  V30 10 O 2.444404 1.520308 -3.046840 0
M  V30 11 C 3.291926 1.834699 -4.134642 0
M  V30 12 C 2.205282 0.596254 -0.887153 0
M  V30 13 N 0.812992 0.922125 -0.943804 0
M  V30 14 C -0.193602 0.671446 0.022094 0
M  V30 15 N -0.987288 -0.425696 -0.070847 0
M  V30 16 C -1.945070 -0.684549 0.837572 0
M  V30 17 N -2.690394 -1.873930 0.576498 0
M  V30 18 C -3.804679 -1.638444 -0.268645 0
M  V30 19 C -4.134732 -0.405446 -0.776469 0
M  V30 20 C -5.182490 -0.076700 -1.602597 0
M  V30 21 C -6.024572 -1.134919 -1.976008 0
M  V30 22 C -5.776322 -2.409304 -1.517942 0
M  V30 23 C -4.705005 -2.609408 -0.703292 0
M  V30 24 C -4.504267 -3.977509 -0.254586 0
M  V30 25 N -5.323904 -5.070808 -0.654397 0
M  V30 26 O -3.768530 -4.680416 0.464898 0
M  V30 27 C -2.111383 0.195319 1.882307 0
M  V30 28 C -3.011633 0.127777 2.908382 0
M  V30 29 C -2.753399 1.247345 3.672280 0
M  V30 30 N -1.729285 1.952973 3.109517 0
M  V30 31 C -1.302229 1.319937 1.983325 0
M  V30 32 N -0.341501 1.557846 1.051007 0
M  V30 33 C 2.737482 -0.013276 0.226741 0
M  V30 34 H 3.204244 -3.286634 4.474581 0
M  V30 35 H 4.468060 -2.905287 5.711307 0
M  V30 36 H 3.217947 -1.638843 5.218394 0
M  V30 37 H 5.597342 -1.398645 4.175528 0
M  V30 38 H 5.245739 -2.973703 3.401559 0
M  V30 39 H 5.684982 -1.143116 1.506287 0
M  V30 40 H 5.911044 -0.240868 -0.687933 0
M  V30 41 H 5.015217 0.820396 -2.642765 0
M  V30 42 H 2.672069 2.112275 -5.037126 0
M  V30 43 H 3.955462 2.687003 -3.923992 0
M  V30 44 H 3.875130 0.942255 -4.468724 0
M  V30 45 H 0.436595 1.400868 -1.765295 0
M  V30 46 H -2.472472 -2.815052 0.943062 0
M  V30 47 H -3.509535 0.464716 -0.515328 0
M  V30 48 H -5.366955 0.926075 -1.956633 0
M  V30 49 H -6.845976 -0.897505 -2.620302 0
M  V30 50 H -6.439516 -3.200301 -1.821182 0
M  V30 51 H -6.181747 -5.359237 -0.097534 0
M  V30 52 H -5.282202 -5.732722 -1.454844 0
M  V30 53 H -3.749720 -0.618572 3.084295 0
M  V30 54 H -3.248239 1.570567 4.584011 0
M  V30 55 H -1.272150 2.844395 3.415115 0
M  V30 56 H 2.045110 -0.228303 1.013218 0
M  V30 END ATOM
M  V30 BEGIN BOND
M  V30 1 1 1 2
M  V30 2 1 2 3
M  V30 3 2 3 4
M  V30 4 1 3 5
M  V30 5 1 5 6
M  V30 6 2 6 7
M  V30 7 1 7 8
M  V30 8 2 8 9
M  V30 9 1 9 10
M  V30 10 1 10 11
M  V30 11 1 9 12
M  V30 12 1 12 13
M  V30 13 1 13 14
M  V30 14 2 14 15
M  V30 15 1 15 16
M  V30 16 1 16 17
M  V30 17 1 17 18
M  V30 18 2 18 19
M  V30 19 1 19 20
M  V30 20 2 20 21
M  V30 21 1 21 22
M  V30 22 2 22 23
M  V30 23 1 23 24
M  V30 24 1 24 25
M  V30 25 2 24 26
M  V30 26 2 16 27
M  V30 27 1 27 28
M  V30 28 2 28 29
M  V30 29 1 29 30
M  V30 30 1 30 31
M  V30 31 2 31 32
M  V30 32 2 12 33
M  V30 33 1 33 6
M  V30 34 1 32 14
M  V30 35 1 23 18
M  V30 36 1 31 27
M  V30 37 1 1 34
M  V30 38 1 1 35
M  V30 39 1 1 36
M  V30 40 1 2 37
M  V30 41 1 2 38
M  V30 42 1 5 39
M  V30 43 1 7 40
M  V30 44 1 8 41
M  V30 45 1 11 42
M  V30 46 1 11 43
M  V30 47 1 11 44
M  V30 48 1 13 45
M  V30 49 1 17 46
M  V30 50 1 19 47
M  V30 51 1 20 48
M  V30 52 1 21 49
M  V30 53 1 22 50
M  V30 54 1 25 51
M  V30 55 1 25 52
M  V30 56 1 28 53
M  V30 57 1 29 54
M  V30 58 1 30 55
M  V30 59 1 33 56
M  V30 END BOND
M  V30 END CTAB
M  END
>  <Dataset>  (372) 
ChEMBL_Kinases

>  <Ligand_Instance>  (372) 
nan

>  <PDB_ID>  (372) 
nan

>  <Standardized_SMILES>  (372) 
CCC(=O)Nc1ccc(OC)c(Nc2nc(Nc3ccccc3C(N)=O)c3cc[nH]c3n2)c1

>  <Name>  (372) 
nan

>  <Pocket>  (372) 
nan

>  <ATP_Site>  (372) 
nan

>  <Peripheral>  (372) 
nan

>  <Num_H_Atoms_ProtBoundConf>  (372) 
nan

>  <Num_Resolved_Atoms>  (372) 
nan

>  <Num_Not_Resolved_Atoms>  (372) 
nan

$$$$
CHEMBL4553900
     RDKit          3D

  0  0  0  0  0  0  0  0  0  0999 V3000
M  V30 BEGIN CTAB
M  V30 COUNTS 62 67 0 0 0
M  V30 BEGIN ATOM
M  V30 1 C 4.032307 -3.971240 3.151028 0
M  V30 2 C 3.422482 -2.629567 3.301610 0
M  V30 3 O 4.207980 -1.684481 3.050007 0
M  V30 4 N 2.083364 -2.360810 3.690066 0
M  V30 5 C 1.434786 -1.092762 3.846231 0
M  V30 6 C 0.803954 -0.586118 2.622947 0
M  V30 7 C 1.464726 -0.318450 1.453415 0
M  V30 8 C 0.923021 0.148119 0.274424 0
M  V30 9 C -0.461653 0.386006 0.236439 0
M  V30 10 N -1.090145 0.810534 -0.937352 0
M  V30 11 C -1.371191 1.995050 -1.451610 0
M  V30 12 C -1.151664 3.343318 -1.024746 0
M  V30 13 C -1.596304 4.355070 -1.849611 0
M  V30 14 C -1.435320 5.680373 -1.533632 0
M  V30 15 C -0.825187 6.106596 -0.383097 0
M  V30 16 N -0.387989 5.131816 0.428217 0
M  V30 17 C -0.562998 3.860515 0.086398 0
M  V30 18 N -0.034793 3.008253 1.069872 0
M  V30 19 N -1.980675 1.676618 -2.599416 0
M  V30 20 C -2.080758 0.364579 -2.802031 0
M  V30 21 C -2.657588 -0.251657 -3.891929 0
M  V30 22 C -2.633223 -1.651554 -3.861865 0
M  V30 23 C -2.051519 -2.267703 -2.776641 0
M  V30 24 C -1.991275 -3.719513 -2.679782 0
M  V30 25 C -2.489788 -4.586715 -3.625537 0
M  V30 26 C -2.427196 -5.958993 -3.523956 0
M  V30 27 C -1.838070 -6.536508 -2.424886 0
M  V30 28 C -1.319255 -5.733135 -1.441755 0
M  V30 29 C -1.413119 -4.356283 -1.601948 0
M  V30 30 N -1.518087 -1.557951 -1.767252 0
M  V30 31 C -1.492167 -0.217101 -1.703541 0
M  V30 32 C -1.198649 0.130482 1.406724 0
M  V30 33 C -0.560875 -0.336563 2.537877 0
M  V30 34 C 2.056104 -0.101733 4.790803 0
M  V30 35 C 1.599334 -1.048898 5.920850 0
M  V30 36 C 0.396066 -1.309920 4.987879 0
M  V30 37 H 3.263104 -4.746704 3.262591 0
M  V30 38 H 4.513193 -4.116743 2.169589 0
M  V30 39 H 4.765630 -4.148584 3.986493 0
M  V30 40 H 1.582784 -3.286269 3.862405 0
M  V30 41 H 2.510447 -0.461647 1.375872 0
M  V30 42 H 1.456039 0.348170 -0.619792 0
M  V30 43 H -2.106068 4.155358 -2.809273 0
M  V30 44 H -1.810681 6.411088 -2.231359 0
M  V30 45 H -0.746459 7.167485 -0.224403 0
M  V30 46 H 1.012009 2.909639 1.201127 0
M  V30 47 H 0.996019 2.886284 1.227580 0
M  V30 48 H -3.091090 0.320325 -4.699371 0
M  V30 49 H -3.071378 -2.186948 -4.690538 0
M  V30 50 H -2.964485 -4.192563 -4.512055 0
M  V30 51 H -2.823967 -6.616742 -4.276489 0
M  V30 52 H -1.728082 -7.595042 -2.230564 0
M  V30 53 H -0.841953 -6.127052 -0.550543 0
M  V30 54 H -0.990293 -3.735775 -0.801202 0
M  V30 55 H -2.257269 0.329016 1.325960 0
M  V30 56 H -1.247477 -0.486389 3.336360 0
M  V30 57 H 1.458653 0.807029 4.855145 0
M  V30 58 H 3.125991 0.073066 4.732397 0
M  V30 59 H 1.322194 -0.524874 6.847596 0
M  V30 60 H 2.309131 -1.873436 5.983381 0
M  V30 61 H -0.342856 -0.521555 5.082935 0
M  V30 62 H 0.051048 -2.329051 5.105664 0
M  V30 END ATOM
M  V30 BEGIN BOND
M  V30 1 1 1 2
M  V30 2 2 2 3
M  V30 3 1 2 4
M  V30 4 1 4 5
M  V30 5 1 5 6
M  V30 6 2 6 7
M  V30 7 1 7 8
M  V30 8 2 8 9
M  V30 9 1 9 10
M  V30 10 1 10 11
M  V30 11 1 11 12
M  V30 12 2 12 13
M  V30 13 1 13 14
M  V30 14 2 14 15
M  V30 15 1 15 16
M  V30 16 2 16 17
M  V30 17 1 17 18
M  V30 18 2 11 19
M  V30 19 1 19 20
M  V30 20 2 20 21
M  V30 21 1 21 22
M  V30 22 2 22 23
M  V30 23 1 23 24
M  V30 24 2 24 25
M  V30 25 1 25 26
M  V30 26 2 26 27
M  V30 27 1 27 28
M  V30 28 2 28 29
M  V30 29 1 23 30
M  V30 30 2 30 31
M  V30 31 1 9 32
M  V30 32 2 32 33
M  V30 33 1 5 34
M  V30 34 1 34 35
M  V30 35 1 35 36
M  V30 36 1 36 5
M  V30 37 1 33 6
M  V30 38 1 31 10
M  V30 39 1 17 12
M  V30 40 1 31 20
M  V30 41 1 29 24
M  V30 42 1 1 37
M  V30 43 1 1 38
M  V30 44 1 1 39
M  V30 45 1 4 40
M  V30 46 1 7 41
M  V30 47 1 8 42
M  V30 48 1 13 43
M  V30 49 1 14 44
M  V30 50 1 15 45
M  V30 51 1 18 46
M  V30 52 1 18 47
M  V30 53 1 21 48
M  V30 54 1 22 49
M  V30 55 1 25 50
M  V30 56 1 26 51
M  V30 57 1 27 52
M  V30 58 1 28 53
M  V30 59 1 29 54
M  V30 60 1 32 55
M  V30 61 1 33 56
M  V30 62 1 34 57
M  V30 63 1 34 58
M  V30 64 1 35 59
M  V30 65 1 35 60
M  V30 66 1 36 61
M  V30 67 1 36 62
M  V30 END BOND
M  V30 END CTAB
M  END
>  <Dataset>  (373) 
ChEMBL_Kinases

>  <Ligand_Instance>  (373) 
nan

>  <PDB_ID>  (373) 
nan

>  <Standardized_SMILES>  (373) 
CC(=O)NC1(c2ccc(-n3c(-c4cccnc4N)nc4ccc(-c5ccccc5)nc43)cc2)CCC1

>  <Name>  (373) 
nan

>  <Pocket>  (373) 
nan

>  <ATP_Site>  (373) 
nan

>  <Peripheral>  (373) 
nan

>  <Num_H_Atoms_ProtBoundConf>  (373) 
nan

>  <Num_Resolved_Atoms>  (373) 
nan

>  <Num_Not_Resolved_Atoms>  (373) 
nan

$$$$
CHEMBL4543879
     RDKit          3D

  0  0  0  0  0  0  0  0  0  0999 V3000
M  V30 BEGIN CTAB
M  V30 COUNTS 26 27 0 0 0
M  V30 BEGIN ATOM
M  V30 1 N 0.288902 -1.837062 3.635665 0
M  V30 2 C 0.938351 -2.374061 2.495072 0
M  V30 3 N 1.603748 -3.536404 2.761787 0
M  V30 4 C 2.284722 -4.201503 1.805087 0
M  V30 5 C 2.273342 -3.642383 0.536199 0
M  V30 6 C 1.603111 -2.459973 0.240290 0
M  V30 7 C 0.914782 -1.801333 1.239313 0
M  V30 8 C 0.172601 -0.557338 1.064749 0
M  V30 9 O -0.393690 -0.091192 2.064152 0
M  V30 10 N 0.097174 0.098795 -0.195038 0
M  V30 11 C -0.611268 1.306803 -0.409884 0
M  V30 12 C -0.024024 2.564037 -0.263312 0
M  V30 13 C -0.852092 3.662866 -0.510075 0
M  V30 14 N -2.139056 3.535181 -0.867966 0
M  V30 15 C -2.727337 2.315967 -1.015354 0
M  V30 16 C -1.942385 1.205955 -0.780487 0
M  V30 17 H -0.645784 -1.527395 3.984479 0
M  V30 18 H 0.747987 -1.609142 4.524893 0
M  V30 19 H 2.809221 -5.123784 2.029570 0
M  V30 20 H 2.819023 -4.164426 -0.256003 0
M  V30 21 H 1.595438 -2.030470 -0.738363 0
M  V30 22 H 0.571079 -0.288015 -1.039113 0
M  V30 23 H 1.012539 2.637118 0.025364 0
M  V30 24 H -0.388793 4.641406 -0.394261 0
M  V30 25 H -3.769272 2.285161 -1.306099 0
M  V30 26 H -2.462361 0.254262 -0.912522 0
M  V30 END ATOM
M  V30 BEGIN BOND
M  V30 1 1 1 2
M  V30 2 2 2 3
M  V30 3 1 3 4
M  V30 4 2 4 5
M  V30 5 1 5 6
M  V30 6 2 6 7
M  V30 7 1 7 8
M  V30 8 2 8 9
M  V30 9 1 8 10
M  V30 10 1 10 11
M  V30 11 2 11 12
M  V30 12 1 12 13
M  V30 13 2 13 14
M  V30 14 1 14 15
M  V30 15 2 15 16
M  V30 16 1 7 2
M  V30 17 1 16 11
M  V30 18 1 1 17
M  V30 19 1 1 18
M  V30 20 1 4 19
M  V30 21 1 5 20
M  V30 22 1 6 21
M  V30 23 1 10 22
M  V30 24 1 12 23
M  V30 25 1 13 24
M  V30 26 1 15 25
M  V30 27 1 16 26
M  V30 END BOND
M  V30 END CTAB
M  END
>  <Dataset>  (374) 
ChEMBL_Kinases

>  <Ligand_Instance>  (374) 
nan

>  <PDB_ID>  (374) 
nan

>  <Standardized_SMILES>  (374) 
Nc1ncccc1C(=O)Nc1ccncc1

>  <Name>  (374) 
nan

>  <Pocket>  (374) 
nan

>  <ATP_Site>  (374) 
nan

>  <Peripheral>  (374) 
nan

>  <Num_H_Atoms_ProtBoundConf>  (374) 
nan

>  <Num_Resolved_Atoms>  (374) 
nan

>  <Num_Not_Resolved_Atoms>  (374) 
nan

$$$$
CHEMBL4543869
     RDKit          3D

  0  0  0  0  0  0  0  0  0  0999 V3000
M  V30 BEGIN CTAB
M  V30 COUNTS 44 46 0 0 0
M  V30 BEGIN ATOM
M  V30 1 C -1.058216 -5.581266 0.310758 0
M  V30 2 O -1.254373 -4.707109 1.399370 0
M  V30 3 C -0.991562 -3.357173 1.369840 0
M  V30 4 C -0.494436 -2.730995 0.221568 0
M  V30 5 C -0.256729 -1.365486 0.276786 0
M  V30 6 N 0.221899 -0.680370 -0.782222 0
M  V30 7 C 0.452391 0.661833 -0.718467 0
M  V30 8 C 0.983510 1.405230 -1.903180 0
M  V30 9 N 0.262863 2.647321 -2.113025 0
M  V30 10 C 2.470397 1.622936 -1.805353 0
M  V30 11 C 2.907148 2.412960 -0.604263 0
M  V30 12 C 2.320968 3.786596 -0.550176 0
M  V30 13 C 4.408978 2.578990 -0.720241 0
M  V30 14 N 0.206503 1.359146 0.420305 0
M  V30 15 C -0.277917 0.731081 1.529166 0
M  V30 16 C -0.544336 1.447425 2.740865 0
M  V30 17 N -0.777757 2.034391 3.724053 0
M  V30 18 C -0.496113 -0.627569 1.418900 0
M  V30 19 C -0.986431 -1.240600 2.554031 0
M  V30 20 C -1.226893 -2.606219 2.507080 0
M  V30 21 C -1.745581 -3.280651 3.693213 0
M  V30 22 C -2.037606 -2.692573 4.909527 0
M  V30 23 N -2.484097 -3.690018 5.694275 0
M  V30 24 C -2.467736 -4.849074 4.987891 0
M  V30 25 O -2.018998 -4.556298 3.796953 0
M  V30 26 H -1.878981 -5.360955 -0.411689 0
M  V30 27 H -0.048822 -5.459282 -0.159702 0
M  V30 28 H -1.141345 -6.612503 0.721292 0
M  V30 29 H -0.302683 -3.283360 -0.671338 0
M  V30 30 H 0.841585 0.806658 -2.828076 0
M  V30 31 H -0.400894 2.584170 -2.916937 0
M  V30 32 H -0.370294 2.842416 -1.280048 0
M  V30 33 H 2.753657 2.194158 -2.703035 0
M  V30 34 H 2.980950 0.662111 -1.822372 0
M  V30 35 H 2.746234 1.835811 0.350863 0
M  V30 36 H 2.054104 4.117549 -1.559031 0
M  V30 37 H 1.511505 3.833071 0.197245 0
M  V30 38 H 3.083255 4.539547 -0.193928 0
M  V30 39 H 4.899110 1.685903 -1.168625 0
M  V30 40 H 4.861966 2.856588 0.266026 0
M  V30 41 H 4.595972 3.473421 -1.378352 0
M  V30 42 H -1.190674 -0.706362 3.474429 0
M  V30 43 H -1.916720 -1.632423 5.144871 0
M  V30 44 H -2.795911 -5.769844 5.458344 0
M  V30 END ATOM
M  V30 BEGIN BOND
M  V30 1 1 1 2
M  V30 2 1 2 3
M  V30 3 2 3 4
M  V30 4 1 4 5
M  V30 5 2 5 6
M  V30 6 1 6 7
M  V30 7 1 7 8
M  V30 8 1 8 9
M  V30 9 1 8 10
M  V30 10 1 10 11
M  V30 11 1 11 12
M  V30 12 1 11 13
M  V30 13 2 7 14
M  V30 14 1 14 15
M  V30 15 1 15 16
M  V30 16 3 16 17
M  V30 17 2 15 18
M  V30 18 1 18 19
M  V30 19 2 19 20
M  V30 20 1 20 21
M  V30 21 2 21 22
M  V30 22 1 22 23
M  V30 23 2 23 24
M  V30 24 1 24 25
M  V30 25 1 20 3
M  V30 26 1 25 21
M  V30 27 1 18 5
M  V30 28 1 1 26
M  V30 29 1 1 27
M  V30 30 1 1 28
M  V30 31 1 4 29
M  V30 32 1 8 30
M  V30 33 1 9 31
M  V30 34 1 9 32
M  V30 35 1 10 33
M  V30 36 1 10 34
M  V30 37 1 11 35
M  V30 38 1 12 36
M  V30 39 1 12 37
M  V30 40 1 12 38
M  V30 41 1 13 39
M  V30 42 1 13 40
M  V30 43 1 13 41
M  V30 44 1 19 42
M  V30 45 1 22 43
M  V30 46 1 24 44
M  V30 END BOND
M  V30 END CTAB
M  END
>  <Dataset>  (375) 
ChEMBL_Kinases

>  <Ligand_Instance>  (375) 
nan

>  <PDB_ID>  (375) 
nan

>  <Standardized_SMILES>  (375) 
COc1cc2nc(C(N)CC(C)C)nc(C#N)c2cc1-c1cnco1

>  <Name>  (375) 
nan

>  <Pocket>  (375) 
nan

>  <ATP_Site>  (375) 
nan

>  <Peripheral>  (375) 
nan

>  <Num_H_Atoms_ProtBoundConf>  (375) 
nan

>  <Num_Resolved_Atoms>  (375) 
nan

>  <Num_Not_Resolved_Atoms>  (375) 
nan

$$$$
CHEMBL4543839
     RDKit          3D

  0  0  0  0  0  0  0  0  0  0999 V3000
M  V30 BEGIN CTAB
M  V30 COUNTS 48 51 0 0 0
M  V30 BEGIN ATOM
M  V30 1 C 0.339537 -7.372750 2.465140 0
M  V30 2 N 1.333408 -6.379150 2.130871 0
M  V30 3 N 2.646565 -6.671542 2.162606 0
M  V30 4 C 3.334457 -5.595884 1.766726 0
M  V30 5 C 2.323461 -4.695963 1.516548 0
M  V30 6 Cl 3.045401 -3.170989 0.977214 0
M  V30 7 C 1.048112 -5.156573 1.736887 0
M  V30 8 C -0.096867 -4.344915 1.485731 0
M  V30 9 C -0.009586 -3.091555 0.962913 0
M  V30 10 C -1.127449 -2.331907 0.783088 0
M  V30 11 C -1.376201 -1.003723 0.265119 0
M  V30 12 O -2.548351 -0.609747 0.238501 0
M  V30 13 N -0.346125 -0.173621 -0.195713 0
M  V30 14 C -0.514858 1.176452 -0.731945 0 CFG=2
M  V30 15 C -0.105182 1.131688 -2.160724 0
M  V30 16 N 1.189904 1.587376 -2.502602 0
M  V30 17 C 1.978555 2.129766 -1.452869 0
M  V30 18 C 1.081029 3.100060 -0.701134 0
M  V30 19 C 0.169150 2.178473 0.117093 0 CFG=1
M  V30 20 C -0.702459 2.982486 0.986956 0
M  V30 21 C -1.708065 3.780914 0.478701 0
M  V30 22 C -2.568550 4.566961 1.247156 0
M  V30 23 C -2.390889 4.535395 2.618172 0
M  V30 24 Cl -3.441426 5.501372 3.630287 0
M  V30 25 C -1.401758 3.755392 3.180633 0
M  V30 26 C -0.568950 2.989686 2.379054 0
M  V30 27 S -2.491470 -3.328853 1.351235 0
M  V30 28 C -1.382989 -4.788416 1.819133 0
M  V30 29 Cl -2.322683 -6.002841 2.455935 0
M  V30 30 H -0.342754 -7.563294 1.624742 0
M  V30 31 H 0.899767 -8.383264 2.499599 0
M  V30 32 H -0.097497 -7.227581 3.461744 0
M  V30 33 H 4.395148 -5.745313 1.763139 0
M  V30 34 H 0.805754 -2.493562 0.617773 0
M  V30 35 H 0.626004 -0.573396 -0.143577 0
M  V30 36 H -1.610663 1.363021 -0.681996 0
M  V30 37 H -0.832004 1.745490 -2.771245 0
M  V30 38 H -0.214290 0.099567 -2.576932 0
M  V30 39 H 1.703141 0.967887 -3.155972 0
M  V30 40 H 2.866990 2.614772 -1.888055 0
M  V30 41 H 2.306487 1.294919 -0.802612 0
M  V30 42 H 1.711702 3.702892 -0.052396 0
M  V30 43 H 0.456083 3.647882 -1.423978 0
M  V30 44 H 0.886888 1.634251 0.780455 0
M  V30 45 H -1.863239 3.818594 -0.600488 0
M  V30 46 H -3.332705 5.168820 0.804045 0
M  V30 47 H -1.240880 3.713122 4.261985 0
M  V30 48 H 0.234372 2.350386 2.767784 0
M  V30 END ATOM
M  V30 BEGIN BOND
M  V30 1 1 1 2
M  V30 2 1 2 3
M  V30 3 2 3 4
M  V30 4 1 4 5
M  V30 5 1 5 6
M  V30 6 2 5 7
M  V30 7 1 7 8
M  V30 8 1 8 9
M  V30 9 2 9 10
M  V30 10 1 10 11
M  V30 11 2 11 12
M  V30 12 1 11 13
M  V30 13 1 13 14
M  V30 14 1 14 15
M  V30 15 1 15 16
M  V30 16 1 16 17
M  V30 17 1 17 18
M  V30 18 1 18 19
M  V30 19 1 19 20
M  V30 20 2 20 21
M  V30 21 1 21 22
M  V30 22 2 22 23
M  V30 23 1 23 24
M  V30 24 1 23 25
M  V30 25 2 25 26
M  V30 26 1 10 27
M  V30 27 1 27 28
M  V30 28 1 28 29
M  V30 29 1 7 2
M  V30 30 2 28 8
M  V30 31 1 19 14
M  V30 32 1 26 20
M  V30 33 1 1 30
M  V30 34 1 1 31
M  V30 35 1 1 32
M  V30 36 1 4 33
M  V30 37 1 9 34
M  V30 38 1 13 35
M  V30 39 1 14 36 CFG=3
M  V30 40 1 15 37
M  V30 41 1 15 38
M  V30 42 1 16 39
M  V30 43 1 17 40
M  V30 44 1 17 41
M  V30 45 1 18 42
M  V30 46 1 18 43
M  V30 47 1 19 44 CFG=1
M  V30 48 1 21 45
M  V30 49 1 22 46
M  V30 50 1 25 47
M  V30 51 1 26 48
M  V30 END BOND
M  V30 END CTAB
M  END
>  <Dataset>  (376) 
ChEMBL_Kinases

>  <Ligand_Instance>  (376) 
nan

>  <PDB_ID>  (376) 
nan

>  <Standardized_SMILES>  (376) 
Cn1ncc(Cl)c1-c1cc(C(=O)N[C@@H]2CNCC[C@H]2c2ccc(Cl)cc2)sc1Cl

>  <Name>  (376) 
nan

>  <Pocket>  (376) 
nan

>  <ATP_Site>  (376) 
nan

>  <Peripheral>  (376) 
nan

>  <Num_H_Atoms_ProtBoundConf>  (376) 
nan

>  <Num_Resolved_Atoms>  (376) 
nan

>  <Num_Not_Resolved_Atoms>  (376) 
nan

$$$$
CHEMBL4640049
     RDKit          3D

  0  0  0  0  0  0  0  0  0  0999 V3000
M  V30 BEGIN CTAB
M  V30 COUNTS 63 66 0 0 0
M  V30 BEGIN ATOM
M  V30 1 C 3.082356 -1.788627 5.771338 0
M  V30 2 N 2.588904 -0.412567 5.710572 0
M  V30 3 C 3.130242 0.423363 4.678369 0
M  V30 4 O 3.967881 -0.279476 4.016428 0
M  V30 5 C 2.592344 1.815401 4.662114 0
M  V30 6 O 3.129574 2.616618 3.650682 0
M  V30 7 C 2.993192 2.296018 2.312001 0
M  V30 8 C 2.363954 1.231114 1.713581 0
M  V30 9 C 2.333273 1.078989 0.345519 0
M  V30 10 C 1.687074 -0.013354 -0.195527 0
M  V30 11 C 1.668141 -0.151910 -1.568176 0
M  V30 12 N 1.012635 -1.262791 -2.168171 0
M  V30 13 C 0.310710 -2.156818 -1.278069 0
M  V30 14 N -0.992404 -1.790284 -1.156569 0
M  V30 15 C -1.851213 -2.472617 -0.376876 0
M  V30 16 N -3.209464 -2.064015 -0.275935 0
M  V30 17 C -4.218734 -2.715500 0.541295 0
M  V30 18 C -5.338288 -3.254337 -0.337520 0 CFG=2
M  V30 19 C -5.384481 -4.749781 -0.248052 0
M  V30 20 C -5.021837 -2.830451 -1.777481 0
M  V30 21 C -4.916145 -1.326400 -1.789777 0 CFG=2
M  V30 22 C -4.823231 -0.813662 -3.222240 0
M  V30 23 C -3.688114 -0.925409 -1.017484 0
M  V30 24 N -1.401296 -3.548085 0.299913 0
M  V30 25 C -0.122020 -3.939059 0.204318 0
M  V30 26 C 0.775915 -3.258470 -0.586187 0
M  V30 27 Cl 2.463562 -3.589386 -0.851973 0
M  V30 28 C 2.287920 0.789820 -2.402865 0
M  V30 29 C 2.932372 1.883453 -1.816402 0
M  V30 30 C 2.960686 2.038155 -0.429731 0
M  V30 31 N 3.576685 3.080889 0.154636 0
M  V30 32 C 4.218269 4.054121 -0.726778 0
M  V30 33 C 3.609082 3.234907 1.509771 0
M  V30 34 O 4.230361 4.272640 1.911016 0
M  V30 35 H 4.149364 -1.833378 6.102928 0
M  V30 36 H 2.444393 -2.375090 6.446910 0
M  V30 37 H 3.081873 -2.203401 4.740385 0
M  V30 38 H 1.868309 -0.100585 6.416990 0
M  V30 39 H 1.470217 1.781241 4.599848 0
M  V30 40 H 2.849795 2.255104 5.642422 0
M  V30 41 H 1.909624 0.552554 2.415852 0
M  V30 42 H 1.216491 -0.725272 0.475785 0
M  V30 43 H 1.048977 -1.407231 -3.200628 0
M  V30 44 H -4.625416 -1.970915 1.284232 0
M  V30 45 H -3.808536 -3.558169 1.122157 0
M  V30 46 H -6.264854 -2.765165 -0.034136 0
M  V30 47 H -6.162058 -5.058073 0.490161 0
M  V30 48 H -4.430245 -5.145896 0.117673 0
M  V30 49 H -5.578947 -5.239592 -1.228714 0
M  V30 50 H -3.993912 -3.216578 -2.013756 0
M  V30 51 H -5.771728 -3.207462 -2.479284 0
M  V30 52 H -5.857984 -0.903496 -1.350792 0
M  V30 53 H -4.579467 0.263780 -3.194951 0
M  V30 54 H -5.770135 -0.955332 -3.744846 0
M  V30 55 H -3.995266 -1.361030 -3.743711 0
M  V30 56 H -3.921044 -0.064808 -0.355290 0
M  V30 57 H -2.909811 -0.627483 -1.757971 0
M  V30 58 H 0.324358 -4.797693 0.718018 0
M  V30 59 H 2.244208 0.634762 -3.473045 0
M  V30 60 H 3.409213 2.609393 -2.459045 0
M  V30 61 H 4.754083 4.790603 -0.094921 0
M  V30 62 H 4.893485 3.587467 -1.468174 0
M  V30 63 H 3.401643 4.636687 -1.209549 0
M  V30 END ATOM
M  V30 BEGIN BOND
M  V30 1 1 1 2
M  V30 2 1 2 3
M  V30 3 2 3 4
M  V30 4 1 3 5
M  V30 5 1 5 6
M  V30 6 1 6 7
M  V30 7 2 7 8
M  V30 8 1 8 9
M  V30 9 2 9 10
M  V30 10 1 10 11
M  V30 11 1 11 12
M  V30 12 1 12 13
M  V30 13 2 13 14
M  V30 14 1 14 15
M  V30 15 1 15 16
M  V30 16 1 16 17
M  V30 17 1 17 18
M  V30 18 1 18 19
M  V30 19 1 18 20
M  V30 20 1 20 21
M  V30 21 1 21 22
M  V30 22 1 21 23
M  V30 23 2 15 24
M  V30 24 1 24 25
M  V30 25 2 25 26
M  V30 26 1 26 27
M  V30 27 2 11 28
M  V30 28 1 28 29
M  V30 29 2 29 30
M  V30 30 1 30 31
M  V30 31 1 31 32
M  V30 32 1 31 33
M  V30 33 2 33 34
M  V30 34 1 33 7
M  V30 35 1 30 9
M  V30 36 1 26 13
M  V30 37 1 23 16
M  V30 38 1 1 35
M  V30 39 1 1 36
M  V30 40 1 1 37
M  V30 41 1 2 38
M  V30 42 1 5 39
M  V30 43 1 5 40
M  V30 44 1 8 41
M  V30 45 1 10 42
M  V30 46 1 12 43
M  V30 47 1 17 44
M  V30 48 1 17 45
M  V30 49 1 18 46 CFG=1
M  V30 50 1 19 47
M  V30 51 1 19 48
M  V30 52 1 19 49
M  V30 53 1 20 50
M  V30 54 1 20 51
M  V30 55 1 21 52 CFG=1
M  V30 56 1 22 53
M  V30 57 1 22 54
M  V30 58 1 22 55
M  V30 59 1 23 56
M  V30 60 1 23 57
M  V30 61 1 25 58
M  V30 62 1 28 59
M  V30 63 1 29 60
M  V30 64 1 32 61
M  V30 65 1 32 62
M  V30 66 1 32 63
M  V30 END BOND
M  V30 END CTAB
M  END
>  <Dataset>  (377) 
ChEMBL_Kinases

>  <Ligand_Instance>  (377) 
nan

>  <PDB_ID>  (377) 
nan

>  <Standardized_SMILES>  (377) 
CNC(=O)COc1cc2cc(Nc3nc(N4C[C@H](C)C[C@H](C)C4)ncc3Cl)ccc2n(C)c1=O

>  <Name>  (377) 
nan

>  <Pocket>  (377) 
nan

>  <ATP_Site>  (377) 
nan

>  <Peripheral>  (377) 
nan

>  <Num_H_Atoms_ProtBoundConf>  (377) 
nan

>  <Num_Resolved_Atoms>  (377) 
nan

>  <Num_Not_Resolved_Atoms>  (377) 
nan

$$$$
CHEMBL4543687
     RDKit          3D

  0  0  0  0  0  0  0  0  0  0999 V3000
M  V30 BEGIN CTAB
M  V30 COUNTS 49 52 0 0 0
M  V30 BEGIN ATOM
M  V30 1 N 2.353678 -5.315385 -4.454555 0
M  V30 2 C 3.354847 -4.872499 -3.552557 0
M  V30 3 O 4.198191 -5.781672 -3.652753 0
M  V30 4 C 3.422991 -3.690822 -2.718685 0
M  V30 5 C 2.481637 -2.688310 -2.625268 0
M  V30 6 C 2.663108 -1.613968 -1.792134 0
M  V30 7 C 3.787254 -1.473878 -1.005740 0
M  V30 8 C 4.060097 -0.367662 -0.093214 0
M  V30 9 C 5.281461 0.295044 0.013271 0
M  V30 10 N 5.121354 1.223729 0.943927 0
M  V30 11 C 3.875532 1.207718 1.449202 0
M  V30 12 N 3.189416 1.900820 2.380140 0
M  V30 13 C 1.902644 1.662545 2.695390 0
M  V30 14 C 1.165855 0.673801 2.083105 0
M  V30 15 C -0.228351 0.357840 2.369829 0
M  V30 16 C -0.978244 0.962047 3.248680 0
M  V30 17 C -2.373001 0.715394 3.599246 0
M  V30 18 O -2.992708 1.368728 4.476912 0
M  V30 19 N -3.150803 -0.290439 2.972765 0
M  V30 20 C -4.527612 -0.641330 3.217631 0
M  V30 21 C -5.515224 0.281271 2.647314 0
M  V30 22 C -6.017531 0.118087 1.355917 0
M  V30 23 C -6.951230 1.003131 0.842359 0
M  V30 24 N -7.426579 2.053357 1.533202 0
M  V30 25 C -6.973358 2.259230 2.791707 0
M  V30 26 C -6.046456 1.377927 3.297343 0
M  V30 27 C 1.838659 -0.055464 1.124130 0
M  V30 28 C 3.157065 0.199850 0.811664 0
M  V30 29 C 4.717916 -2.504837 -1.124974 0
M  V30 30 C 4.569388 -3.602297 -1.953300 0
M  V30 31 H 1.352399 -5.585298 -4.542622 0
M  V30 32 H 1.550485 -5.368074 -3.765342 0
M  V30 33 H 1.601456 -2.801079 -3.243181 0
M  V30 34 H 1.919063 -0.832528 -1.726188 0
M  V30 35 H 6.184636 0.091330 -0.553408 0
M  V30 36 H 5.830083 1.906998 1.283479 0
M  V30 37 H 1.431759 2.261488 3.449796 0
M  V30 38 H -0.719150 -0.437066 1.830580 0
M  V30 39 H -0.497686 1.778382 3.813371 0
M  V30 40 H -2.665446 -0.867763 2.222341 0
M  V30 41 H -4.769191 -1.664551 2.860400 0
M  V30 42 H -4.745831 -0.664404 4.326575 0
M  V30 43 H -5.689748 -0.700138 0.730989 0
M  V30 44 H -7.386407 0.942306 -0.148501 0
M  V30 45 H -7.333325 3.098141 3.383814 0
M  V30 46 H -5.717826 1.585412 4.306692 0
M  V30 47 H 1.305100 -0.838587 0.618215 0
M  V30 48 H 5.625338 -2.423702 -0.512025 0
M  V30 49 H 5.357198 -4.350276 -1.969943 0
M  V30 END ATOM
M  V30 BEGIN BOND
M  V30 1 1 1 2
M  V30 2 2 2 3
M  V30 3 1 2 4
M  V30 4 2 4 5
M  V30 5 1 5 6
M  V30 6 2 6 7
M  V30 7 1 7 8
M  V30 8 2 8 9
M  V30 9 1 9 10
M  V30 10 1 10 11
M  V30 11 2 11 12
M  V30 12 1 12 13
M  V30 13 2 13 14
M  V30 14 1 14 15
M  V30 15 2 15 16
M  V30 16 1 16 17
M  V30 17 2 17 18
M  V30 18 1 17 19
M  V30 19 1 19 20
M  V30 20 1 20 21
M  V30 21 2 21 22
M  V30 22 1 22 23
M  V30 23 2 23 24
M  V30 24 1 24 25
M  V30 25 2 25 26
M  V30 26 1 14 27
M  V30 27 2 27 28
M  V30 28 1 7 29
M  V30 29 2 29 30
M  V30 30 1 30 4
M  V30 31 1 28 8
M  V30 32 1 28 11
M  V30 33 1 26 21
M  V30 34 1 1 31
M  V30 35 1 1 32
M  V30 36 1 5 33
M  V30 37 1 6 34
M  V30 38 1 9 35
M  V30 39 1 10 36
M  V30 40 1 13 37
M  V30 41 1 15 38
M  V30 42 1 16 39
M  V30 43 1 19 40
M  V30 44 1 20 41
M  V30 45 1 20 42
M  V30 46 1 22 43
M  V30 47 1 23 44
M  V30 48 1 25 45
M  V30 49 1 26 46
M  V30 50 1 27 47
M  V30 51 1 29 48
M  V30 52 1 30 49
M  V30 END BOND
M  V30 END CTAB
M  END
>  <Dataset>  (378) 
ChEMBL_Kinases

>  <Ligand_Instance>  (378) 
nan

>  <PDB_ID>  (378) 
nan

>  <Standardized_SMILES>  (378) 
NC(=O)c1ccc(-c2c[nH]c3ncc(/C=C/C(=O)NCc4ccncc4)cc23)cc1

>  <Name>  (378) 
nan

>  <Pocket>  (378) 
nan

>  <ATP_Site>  (378) 
nan

>  <Peripheral>  (378) 
nan

>  <Num_H_Atoms_ProtBoundConf>  (378) 
nan

>  <Num_Resolved_Atoms>  (378) 
nan

>  <Num_Not_Resolved_Atoms>  (378) 
nan

$$$$
CHEMBL4640063
     RDKit          3D

  0  0  0  0  0  0  0  0  0  0999 V3000
M  V30 BEGIN CTAB
M  V30 COUNTS 47 49 0 0 0
M  V30 BEGIN ATOM
M  V30 1 C -0.455775 -6.625949 1.946664 0
M  V30 2 C -0.472070 -6.356446 0.458697 0
M  V30 3 N -0.649236 -4.924837 0.191963 0
M  V30 4 C 0.296155 -3.976866 0.052308 0
M  V30 5 C -0.278304 -2.746061 -0.191719 0
M  V30 6 C 0.438729 -1.494119 -0.394687 0
M  V30 7 O 1.695313 -1.481926 -0.353153 0
M  V30 8 N -0.227014 -0.265144 -0.641623 0
M  V30 9 C 0.742668 0.797588 -0.801354 0
M  V30 10 C 1.302966 1.164689 -2.008445 0
M  V30 11 C 2.214713 2.201763 -1.987806 0
M  V30 12 C 2.560013 2.851985 -0.817782 0
M  V30 13 C 1.972896 2.453211 0.383427 0
M  V30 14 C 2.327083 3.130107 1.628476 0
M  V30 15 N 3.504059 3.746200 1.823971 0
M  V30 16 N 3.558311 4.277198 3.046015 0
M  V30 17 C 2.386433 3.971547 3.594181 0
M  V30 18 N 1.587512 3.257695 2.747916 0
M  V30 19 C 0.259238 2.744835 2.967580 0
M  V30 20 C 0.203139 1.251097 3.148883 0
M  V30 21 C -0.735258 3.261854 1.945687 0
M  V30 22 N 1.107438 1.457528 0.312995 0
M  V30 23 C -1.631942 -2.997723 -0.193012 0
M  V30 24 O -2.628356 -2.077904 -0.395112 0
M  V30 25 C -3.987855 -2.470473 -0.370959 0
M  V30 26 N -1.815090 -4.328643 0.042873 0
M  V30 27 H -0.285618 -5.677557 2.491006 0
M  V30 28 H 0.369185 -7.311980 2.256596 0
M  V30 29 H -1.418175 -7.037022 2.267032 0
M  V30 30 H 0.510438 -6.675930 0.053951 0
M  V30 31 H -1.257988 -6.962402 -0.003803 0
M  V30 32 H 1.367820 -4.160023 0.122941 0
M  V30 33 H -1.265440 -0.211779 -0.687497 0
M  V30 34 H 0.984770 0.613143 -2.871559 0
M  V30 35 H 2.653811 2.484804 -2.954797 0
M  V30 36 H 3.291698 3.675205 -0.842050 0
M  V30 37 H 2.120752 4.267950 4.601072 0
M  V30 38 H -0.081752 3.180547 3.953742 0
M  V30 39 H -0.132563 0.937168 4.175515 0
M  V30 40 H 1.191205 0.779644 3.028388 0
M  V30 41 H -0.579298 0.864055 2.467698 0
M  V30 42 H -1.522175 3.912942 2.381429 0
M  V30 43 H -1.303417 2.441359 1.443239 0
M  V30 44 H -0.235509 3.932634 1.186617 0
M  V30 45 H -4.399998 -2.526309 0.670669 0
M  V30 46 H -4.578971 -1.775397 -0.983349 0
M  V30 47 H -4.114459 -3.516527 -0.771225 0
M  V30 END ATOM
M  V30 BEGIN BOND
M  V30 1 1 1 2
M  V30 2 1 2 3
M  V30 3 1 3 4
M  V30 4 2 4 5
M  V30 5 1 5 6
M  V30 6 2 6 7
M  V30 7 1 6 8
M  V30 8 1 8 9
M  V30 9 2 9 10
M  V30 10 1 10 11
M  V30 11 2 11 12
M  V30 12 1 12 13
M  V30 13 1 13 14
M  V30 14 2 14 15
M  V30 15 1 15 16
M  V30 16 2 16 17
M  V30 17 1 17 18
M  V30 18 1 18 19
M  V30 19 1 19 20
M  V30 20 1 19 21
M  V30 21 2 13 22
M  V30 22 1 5 23
M  V30 23 1 23 24
M  V30 24 1 24 25
M  V30 25 2 23 26
M  V30 26 1 26 3
M  V30 27 1 22 9
M  V30 28 1 18 14
M  V30 29 1 1 27
M  V30 30 1 1 28
M  V30 31 1 1 29
M  V30 32 1 2 30
M  V30 33 1 2 31
M  V30 34 1 4 32
M  V30 35 1 8 33
M  V30 36 1 10 34
M  V30 37 1 11 35
M  V30 38 1 12 36
M  V30 39 1 17 37
M  V30 40 1 19 38
M  V30 41 1 20 39
M  V30 42 1 20 40
M  V30 43 1 20 41
M  V30 44 1 21 42
M  V30 45 1 21 43
M  V30 46 1 21 44
M  V30 47 1 25 45
M  V30 48 1 25 46
M  V30 49 1 25 47
M  V30 END BOND
M  V30 END CTAB
M  END
>  <Dataset>  (379) 
ChEMBL_Kinases

>  <Ligand_Instance>  (379) 
nan

>  <PDB_ID>  (379) 
nan

>  <Standardized_SMILES>  (379) 
CCn1cc(C(=O)Nc2cccc(-c3nncn3C(C)C)n2)c(OC)n1

>  <Name>  (379) 
nan

>  <Pocket>  (379) 
nan

>  <ATP_Site>  (379) 
nan

>  <Peripheral>  (379) 
nan

>  <Num_H_Atoms_ProtBoundConf>  (379) 
nan

>  <Num_Resolved_Atoms>  (379) 
nan

>  <Num_Not_Resolved_Atoms>  (379) 
nan

$$$$
CHEMBL4543331
     RDKit          3D

  0  0  0  0  0  0  0  0  0  0999 V3000
M  V30 BEGIN CTAB
M  V30 COUNTS 76 80 0 0 0
M  V30 BEGIN ATOM
M  V30 1 C 4.673314 -2.809047 3.920629 0
M  V30 2 C 4.251706 -2.356939 2.531624 0
M  V30 3 O 3.083099 -1.571207 2.601594 0
M  V30 4 C 2.473401 -1.029231 1.468315 0
M  V30 5 C 3.036442 -1.271109 0.233456 0
M  V30 6 C 2.472777 -0.758768 -0.922890 0
M  V30 7 C 2.978438 -0.963627 -2.315374 0
M  V30 8 C 1.963283 -1.843402 -3.034962 0
M  V30 9 C 2.338566 -2.005137 -4.483910 0
M  V30 10 N 2.483555 -0.741054 -5.128444 0
M  V30 11 C 3.479122 -0.724135 -6.162570 0
M  V30 12 C 2.462137 0.402932 -4.279399 0
M  V30 13 C 3.319928 0.284558 -3.040235 0
M  V30 14 C 1.325615 0.011807 -0.855685 0
M  V30 15 C 0.816002 0.213967 0.409336 0
M  V30 16 C 1.310286 -0.257141 1.605001 0
M  V30 17 N 0.733345 -0.025918 2.883056 0
M  V30 18 C -0.464087 0.743690 2.815602 0
M  V30 19 N -0.763548 2.021471 3.133450 0
M  V30 20 C -1.987886 2.535701 2.953020 0
M  V30 21 C -3.014761 1.787920 2.430897 0
M  V30 22 C -2.724895 0.483305 2.101491 0
M  V30 23 N -1.474088 0.019405 2.305698 0
M  V30 24 N -3.657749 -0.428492 1.543994 0
M  V30 25 C -3.713832 -1.856912 1.709839 0
M  V30 26 C -2.555272 -2.632719 1.678024 0
M  V30 27 S -1.922194 -3.392964 0.062010 0
M  V30 28 C -0.441826 -4.131470 0.793482 0
M  V30 29 C -0.486523 -3.791613 2.152076 0
M  V30 30 C -1.549964 -3.045941 2.569374 0
M  V30 31 C -1.660836 -2.703851 4.034767 0
M  V30 32 C -4.664157 0.276263 0.745345 0 CFG=2
M  V30 33 C -4.102904 0.951398 -0.460820 0
M  V30 34 C -3.432411 0.026327 -1.421714 0
M  V30 35 C -5.331735 1.319200 1.598750 0
M  V30 36 O -6.508885 1.607402 1.932218 0
M  V30 37 N -4.360453 2.201865 2.167328 0
M  V30 38 C -4.634385 3.599380 2.547816 0
M  V30 39 H 4.051976 -3.682769 4.256922 0
M  V30 40 H 4.473804 -1.994506 4.646632 0
M  V30 41 H 5.734200 -3.082125 3.993887 0
M  V30 42 H 4.122216 -3.203564 1.828729 0
M  V30 43 H 5.066046 -1.720093 2.134663 0
M  V30 44 H 3.940825 -1.868461 0.082268 0
M  V30 45 H 3.897246 -1.594169 -2.240838 0
M  V30 46 H 0.935755 -1.438693 -2.935490 0
M  V30 47 H 2.031784 -2.851056 -2.557751 0
M  V30 48 H 1.487925 -2.537280 -4.993571 0
M  V30 49 H 3.209331 -2.693692 -4.614505 0
M  V30 50 H 4.447433 -1.151391 -5.876912 0
M  V30 51 H 3.547155 0.275405 -6.621254 0
M  V30 52 H 3.088586 -1.404185 -6.976185 0
M  V30 53 H 1.399029 0.608227 -4.030470 0
M  V30 54 H 2.794617 1.273665 -4.905788 0
M  V30 55 H 4.384752 0.327723 -3.335453 0
M  V30 56 H 3.135110 1.212725 -2.466525 0
M  V30 57 H 0.829500 0.445345 -1.701755 0
M  V30 58 H -0.096999 0.825841 0.480897 0
M  V30 59 H 1.200400 -0.411352 3.704005 0
M  V30 60 H -2.215877 3.536908 3.205869 0
M  V30 61 H -4.285315 -2.019102 2.673487 0
M  V30 62 H -4.461851 -2.234024 0.937737 0
M  V30 63 H 0.247256 -4.685359 0.220095 0
M  V30 64 H 0.335030 -4.161940 2.733837 0
M  V30 65 H -0.696118 -2.607331 4.521188 0
M  V30 66 H -2.250742 -1.798828 4.190730 0
M  V30 67 H -2.225003 -3.523946 4.560584 0
M  V30 68 H -5.430489 -0.448369 0.423029 0
M  V30 69 H -4.981352 1.391987 -1.012560 0
M  V30 70 H -3.417537 1.793208 -0.215735 0
M  V30 71 H -2.484802 -0.356134 -0.985232 0
M  V30 72 H -4.111470 -0.774918 -1.759053 0
M  V30 73 H -3.138877 0.591940 -2.337669 0
M  V30 74 H -5.583403 3.899703 2.052221 0
M  V30 75 H -4.671701 3.698214 3.641274 0
M  V30 76 H -3.824465 4.236649 2.143956 0
M  V30 END ATOM
M  V30 BEGIN BOND
M  V30 1 1 1 2
M  V30 2 1 2 3
M  V30 3 1 3 4
M  V30 4 2 4 5
M  V30 5 1 5 6
M  V30 6 1 6 7
M  V30 7 1 7 8
M  V30 8 1 8 9
M  V30 9 1 9 10
M  V30 10 1 10 11
M  V30 11 1 10 12
M  V30 12 1 12 13
M  V30 13 2 6 14
M  V30 14 1 14 15
M  V30 15 2 15 16
M  V30 16 1 16 17
M  V30 17 1 17 18
M  V30 18 2 18 19
M  V30 19 1 19 20
M  V30 20 2 20 21
M  V30 21 1 21 22
M  V30 22 2 22 23
M  V30 23 1 22 24
M  V30 24 1 24 25
M  V30 25 1 25 26
M  V30 26 1 26 27
M  V30 27 1 27 28
M  V30 28 2 28 29
M  V30 29 1 29 30
M  V30 30 1 30 31
M  V30 31 1 24 32
M  V30 32 1 32 33
M  V30 33 1 33 34
M  V30 34 1 32 35
M  V30 35 2 35 36
M  V30 36 1 35 37
M  V30 37 1 37 38
M  V30 38 1 16 4
M  V30 39 1 23 18
M  V30 40 2 30 26
M  V30 41 1 13 7
M  V30 42 1 37 21
M  V30 43 1 1 39
M  V30 44 1 1 40
M  V30 45 1 1 41
M  V30 46 1 2 42
M  V30 47 1 2 43
M  V30 48 1 5 44
M  V30 49 1 7 45
M  V30 50 1 8 46
M  V30 51 1 8 47
M  V30 52 1 9 48
M  V30 53 1 9 49
M  V30 54 1 11 50
M  V30 55 1 11 51
M  V30 56 1 11 52
M  V30 57 1 12 53
M  V30 58 1 12 54
M  V30 59 1 13 55
M  V30 60 1 13 56
M  V30 61 1 14 57
M  V30 62 1 15 58
M  V30 63 1 17 59
M  V30 64 1 20 60
M  V30 65 1 25 61
M  V30 66 1 25 62
M  V30 67 1 28 63
M  V30 68 1 29 64
M  V30 69 1 31 65
M  V30 70 1 31 66
M  V30 71 1 31 67
M  V30 72 1 32 68 CFG=3
M  V30 73 1 33 69
M  V30 74 1 33 70
M  V30 75 1 34 71
M  V30 76 1 34 72
M  V30 77 1 34 73
M  V30 78 1 38 74
M  V30 79 1 38 75
M  V30 80 1 38 76
M  V30 END BOND
M  V30 END CTAB
M  END
>  <Dataset>  (380) 
ChEMBL_Kinases

>  <Ligand_Instance>  (380) 
nan

>  <PDB_ID>  (380) 
nan

>  <Standardized_SMILES>  (380) 
CCOc1cc(C2CCN(C)CC2)ccc1Nc1ncc2c(n1)N(Cc1sccc1C)[C@H](CC)C(=O)N2C

>  <Name>  (380) 
nan

>  <Pocket>  (380) 
nan

>  <ATP_Site>  (380) 
nan

>  <Peripheral>  (380) 
nan

>  <Num_H_Atoms_ProtBoundConf>  (380) 
nan

>  <Num_Resolved_Atoms>  (380) 
nan

>  <Num_Not_Resolved_Atoms>  (380) 
nan

$$$$
CHEMBL4543318
     RDKit          3D

  0  0  0  0  0  0  0  0  0  0999 V3000
M  V30 BEGIN CTAB
M  V30 COUNTS 34 35 0 0 0
M  V30 BEGIN ATOM
M  V30 1 N -1.029304 -3.125627 -2.647929 0
M  V30 2 C -0.751558 -2.234010 -1.958547 0
M  V30 3 C -0.410454 -1.112643 -1.086910 0
M  V30 4 C 0.611235 -1.279562 -0.143922 0
M  V30 5 N 1.457344 -2.406401 0.234932 0
M  V30 6 C 1.382579 -3.765859 -0.154958 0
M  V30 7 C 0.185113 -4.466923 0.464925 0
M  V30 8 C 0.266916 -4.434646 1.976939 0
M  V30 9 N 0.297285 -3.099523 2.489395 0
M  V30 10 S 0.687523 0.280190 0.629037 0
M  V30 11 C -0.605877 1.081541 -0.297905 0
M  V30 12 C -1.051119 2.438704 -0.128091 0
M  V30 13 O -1.967829 2.918417 -0.806725 0
M  V30 14 C -0.329143 3.269007 0.941302 0
M  V30 15 C -0.635728 4.501787 1.254800 0
M  V30 16 C 0.080108 5.119980 2.202885 0
M  V30 17 C 1.082647 4.461353 2.798023 0
M  V30 18 Br 2.591512 4.410140 4.133187 0
M  V30 19 S 1.005950 2.757743 1.911058 0
M  V30 20 C -1.001846 0.105340 -1.130223 0
M  V30 21 N -2.055841 0.426197 -2.039846 0
M  V30 22 H 2.236644 -2.157321 0.899885 0
M  V30 23 H 1.397475 -3.913795 -1.261298 0
M  V30 24 H 2.266989 -4.327684 0.201459 0
M  V30 25 H -0.785018 -4.067992 0.184154 0
M  V30 26 H 0.193195 -5.545428 0.193915 0
M  V30 27 H 1.065322 -5.070555 2.379269 0
M  V30 28 H -0.693562 -4.908667 2.337351 0
M  V30 29 H -0.569666 -2.854498 3.002440 0
M  V30 30 H 1.171586 -2.847946 2.967046 0
M  V30 31 H -1.400685 5.172365 0.882190 0
M  V30 32 H 0.162517 6.057609 2.727107 0
M  V30 33 H -3.006708 0.654004 -1.632612 0
M  V30 34 H -1.849209 0.421219 -3.064090 0
M  V30 END ATOM
M  V30 BEGIN BOND
M  V30 1 3 1 2
M  V30 2 1 2 3
M  V30 3 2 3 4
M  V30 4 1 4 5
M  V30 5 1 5 6
M  V30 6 1 6 7
M  V30 7 1 7 8
M  V30 8 1 8 9
M  V30 9 1 4 10
M  V30 10 1 10 11
M  V30 11 1 11 12
M  V30 12 2 12 13
M  V30 13 1 12 14
M  V30 14 2 14 15
M  V30 15 1 15 16
M  V30 16 2 16 17
M  V30 17 1 17 18
M  V30 18 1 17 19
M  V30 19 2 11 20
M  V30 20 1 20 21
M  V30 21 1 20 3
M  V30 22 1 19 14
M  V30 23 1 5 22
M  V30 24 1 6 23
M  V30 25 1 6 24
M  V30 26 1 7 25
M  V30 27 1 7 26
M  V30 28 1 8 27
M  V30 29 1 8 28
M  V30 30 1 9 29
M  V30 31 1 9 30
M  V30 32 1 15 31
M  V30 33 1 16 32
M  V30 34 1 21 33
M  V30 35 1 21 34
M  V30 END BOND
M  V30 END CTAB
M  END
>  <Dataset>  (381) 
ChEMBL_Kinases

>  <Ligand_Instance>  (381) 
nan

>  <PDB_ID>  (381) 
nan

>  <Standardized_SMILES>  (381) 
N#Cc1c(NCCCN)sc(C(=O)c2ccc(Br)s2)c1N

>  <Name>  (381) 
nan

>  <Pocket>  (381) 
nan

>  <ATP_Site>  (381) 
nan

>  <Peripheral>  (381) 
nan

>  <Num_H_Atoms_ProtBoundConf>  (381) 
nan

>  <Num_Resolved_Atoms>  (381) 
nan

>  <Num_Not_Resolved_Atoms>  (381) 
nan

$$$$
CHEMBL4543195
     RDKit          3D

  0  0  0  0  0  0  0  0  0  0999 V3000
M  V30 BEGIN CTAB
M  V30 COUNTS 49 53 0 0 0
M  V30 BEGIN ATOM
M  V30 1 C -1.873601 -9.824268 0.598171 0
M  V30 2 N -1.053357 -8.643932 0.798108 0
M  V30 3 C -1.253807 -7.471603 0.169979 0
M  V30 4 C -0.309386 -6.513730 0.559527 0
M  V30 5 C -0.260277 -5.135816 0.052982 0
M  V30 6 C 0.205880 -4.124147 0.868846 0
M  V30 7 N 0.229090 -2.862883 0.345117 0
M  V30 8 C -0.194346 -2.648409 -0.924171 0
M  V30 9 C -0.273858 -1.478828 -1.688824 0
M  V30 10 C 0.106295 -0.108101 -1.274209 0
M  V30 11 C 0.842943 0.631448 -2.160149 0
M  V30 12 S 1.086692 2.257735 -1.241311 0
M  V30 13 C 0.181774 1.719115 0.171740 0
M  V30 14 C -0.058728 2.534537 1.385477 0
M  V30 15 O -0.717673 2.057996 2.340941 0
M  V30 16 N 0.474927 3.846351 1.421188 0
M  V30 17 C 0.209047 4.583521 2.619043 0 CFG=2
M  V30 18 C -0.396038 5.953586 2.383211 0
M  V30 19 C 0.713692 6.635202 1.632198 0
M  V30 20 C 1.984995 6.079268 2.285637 0
M  V30 21 C 1.543774 4.983973 3.219747 0 CFG=1
M  V30 22 O 1.415747 5.456289 4.528764 0
M  V30 23 C -0.214563 0.489700 -0.080941 0
M  V30 24 C -0.788579 -1.854234 -2.935443 0
M  V30 25 N -1.003157 -3.197432 -2.901862 0
M  V30 26 N -0.645881 -3.656444 -1.701266 0
M  V30 27 C -0.703194 -4.940835 -1.261013 0
M  V30 28 C 0.472924 -7.198519 1.468276 0
M  V30 29 N -0.002194 -8.468516 1.584761 0
M  V30 30 H -1.927652 -10.357257 1.563585 0
M  V30 31 H -2.909980 -9.500429 0.294919 0
M  V30 32 H -1.490961 -10.417808 -0.227780 0
M  V30 33 H -2.043101 -7.250515 -0.560874 0
M  V30 34 H 0.532828 -4.358553 1.881337 0
M  V30 35 H 1.222869 0.377182 -3.174949 0
M  V30 36 H 1.029596 4.300051 0.663188 0
M  V30 37 H -0.386994 3.996367 3.354997 0
M  V30 38 H -0.428075 6.430750 3.396298 0
M  V30 39 H -1.355522 5.930493 1.881020 0
M  V30 40 H 0.691328 7.742970 1.706286 0
M  V30 41 H 0.640684 6.300108 0.573621 0
M  V30 42 H 2.539777 6.885322 2.806895 0
M  V30 43 H 2.653564 5.681510 1.496967 0
M  V30 44 H 2.188926 4.086267 3.164096 0
M  V30 45 H 1.448163 4.687941 5.157552 0
M  V30 46 H -0.807287 -0.065699 0.667011 0
M  V30 47 H -0.977482 -1.177719 -3.772799 0
M  V30 48 H -1.058699 -5.771348 -1.855456 0
M  V30 49 H 1.311779 -6.728107 1.965162 0
M  V30 END ATOM
M  V30 BEGIN BOND
M  V30 1 1 1 2
M  V30 2 1 2 3
M  V30 3 2 3 4
M  V30 4 1 4 5
M  V30 5 1 5 6
M  V30 6 2 6 7
M  V30 7 1 7 8
M  V30 8 2 8 9
M  V30 9 1 9 10
M  V30 10 2 10 11
M  V30 11 1 11 12
M  V30 12 1 12 13
M  V30 13 1 13 14
M  V30 14 2 14 15
M  V30 15 1 14 16
M  V30 16 1 16 17
M  V30 17 1 17 18
M  V30 18 1 18 19
M  V30 19 1 19 20
M  V30 20 1 20 21
M  V30 21 1 21 22
M  V30 22 2 13 23
M  V30 23 1 9 24
M  V30 24 2 24 25
M  V30 25 1 25 26
M  V30 26 1 26 27
M  V30 27 1 4 28
M  V30 28 2 28 29
M  V30 29 1 29 2
M  V30 30 2 27 5
M  V30 31 1 26 8
M  V30 32 1 23 10
M  V30 33 1 21 17
M  V30 34 1 1 30
M  V30 35 1 1 31
M  V30 36 1 1 32
M  V30 37 1 3 33
M  V30 38 1 6 34
M  V30 39 1 11 35
M  V30 40 1 16 36
M  V30 41 1 17 37 CFG=1
M  V30 42 1 18 38
M  V30 43 1 18 39
M  V30 44 1 19 40
M  V30 45 1 19 41
M  V30 46 1 20 42
M  V30 47 1 20 43
M  V30 48 1 21 44 CFG=1
M  V30 49 1 22 45
M  V30 50 1 23 46
M  V30 51 1 24 47
M  V30 52 1 27 48
M  V30 53 1 28 49
M  V30 END BOND
M  V30 END CTAB
M  END
>  <Dataset>  (382) 
ChEMBL_Kinases

>  <Ligand_Instance>  (382) 
nan

>  <PDB_ID>  (382) 
nan

>  <Standardized_SMILES>  (382) 
Cn1cc(-c2cnc3c(-c4csc(C(=O)N[C@@H]5CCC[C@H]5O)c4)cnn3c2)cn1

>  <Name>  (382) 
nan

>  <Pocket>  (382) 
nan

>  <ATP_Site>  (382) 
nan

>  <Peripheral>  (382) 
nan

>  <Num_H_Atoms_ProtBoundConf>  (382) 
nan

>  <Num_Resolved_Atoms>  (382) 
nan

>  <Num_Not_Resolved_Atoms>  (382) 
nan

$$$$
CHEMBL4543181
     RDKit          3D

  0  0  0  0  0  0  0  0  0  0999 V3000
M  V30 BEGIN CTAB
M  V30 COUNTS 54 58 0 0 0
M  V30 BEGIN ATOM
M  V30 1 C 3.168941 -6.635773 0.566818 0
M  V30 2 C 2.629013 -5.334597 1.017593 0
M  V30 3 C 1.275388 -5.138660 1.193246 0
M  V30 4 N 0.780587 -3.959713 1.602141 0
M  V30 5 C 1.559400 -2.892819 1.868270 0
M  V30 6 C 1.207737 -1.519186 2.322918 0
M  V30 7 C 1.035440 -0.537655 1.247426 0
M  V30 8 N 2.246635 -0.334875 0.633326 0
M  V30 9 C 2.131793 0.563176 -0.359611 0
M  V30 10 C 3.050970 1.089881 -1.252075 0
M  V30 11 N 2.568566 1.988282 -2.128626 0
M  V30 12 C 1.247776 2.339560 -2.115156 0
M  V30 13 C 0.853863 3.251913 -3.040759 0
M  V30 14 C -0.456100 3.623044 -3.058989 0
M  V30 15 C -1.416850 3.114408 -2.175300 0
M  V30 16 C -2.800483 3.627230 -2.333733 0
M  V30 17 F -3.272706 3.156714 -3.540797 0
M  V30 18 F -2.781719 5.017774 -2.420256 0
M  V30 19 F -3.616876 3.286999 -1.300043 0
M  V30 20 C -0.927325 2.199408 -1.276285 0
M  V30 21 C 0.371903 1.807580 -1.230331 0
M  V30 22 C 0.814133 0.894835 -0.323856 0
M  V30 23 N 0.112286 0.268557 0.616660 0
M  V30 24 C -1.180759 0.157892 1.185733 0 CFG=2
M  V30 25 C -1.203664 0.548087 2.662428 0
M  V30 26 C -2.192399 -0.189730 3.493199 0
M  V30 27 O -2.362993 -1.522420 3.223369 0
M  V30 28 C -2.793345 -1.660389 1.937925 0 CFG=2
M  V30 29 C -3.151008 -3.112148 1.597540 0
M  V30 30 C -1.775528 -1.230708 0.967048 0
M  V30 31 C 2.929451 -3.121360 1.681075 0
M  V30 32 N 3.446428 -4.296432 1.271510 0
M  V30 33 H 2.439115 -7.259851 0.051535 0
M  V30 34 H 4.069521 -6.512928 -0.101479 0
M  V30 35 H 3.563327 -7.184440 1.465721 0
M  V30 36 H 0.556056 -5.918763 1.011354 0
M  V30 37 H 0.331047 -1.660324 2.970964 0
M  V30 38 H 1.997844 -1.201288 3.025785 0
M  V30 39 H 4.084421 0.766422 -1.207265 0
M  V30 40 H 1.557646 3.666878 -3.736863 0
M  V30 41 H -0.743632 4.352949 -3.807792 0
M  V30 42 H -1.739340 1.894287 -0.680079 0
M  V30 43 H -1.977926 0.779062 0.796673 0
M  V30 44 H -0.176425 0.617800 3.062630 0
M  V30 45 H -1.538157 1.632897 2.790729 0
M  V30 46 H -1.802774 -0.146293 4.554786 0
M  V30 47 H -3.210936 0.263635 3.479888 0
M  V30 48 H -3.745034 -1.088159 1.850604 0
M  V30 49 H -4.239003 -3.299732 1.793912 0
M  V30 50 H -2.884138 -3.353500 0.551849 0
M  V30 51 H -2.602702 -3.737008 2.341675 0
M  V30 52 H -2.283872 -1.287439 -0.044891 0
M  V30 53 H -0.938409 -1.930855 0.853466 0
M  V30 54 H 3.675773 -2.365676 1.853085 0
M  V30 END ATOM
M  V30 BEGIN BOND
M  V30 1 1 1 2
M  V30 2 2 2 3
M  V30 3 1 3 4
M  V30 4 2 4 5
M  V30 5 1 5 6
M  V30 6 1 6 7
M  V30 7 2 7 8
M  V30 8 1 8 9
M  V30 9 2 9 10
M  V30 10 1 10 11
M  V30 11 2 11 12
M  V30 12 1 12 13
M  V30 13 2 13 14
M  V30 14 1 14 15
M  V30 15 1 15 16
M  V30 16 1 16 17
M  V30 17 1 16 18
M  V30 18 1 16 19
M  V30 19 2 15 20
M  V30 20 1 20 21
M  V30 21 2 21 22
M  V30 22 1 22 23
M  V30 23 1 23 24
M  V30 24 1 24 25
M  V30 25 1 25 26
M  V30 26 1 26 27
M  V30 27 1 27 28
M  V30 28 1 28 29
M  V30 29 1 28 30
M  V30 30 1 5 31
M  V30 31 2 31 32
M  V30 32 1 32 2
M  V30 33 1 23 7
M  V30 34 1 30 24
M  V30 35 1 22 9
M  V30 36 1 21 12
M  V30 37 1 1 33
M  V30 38 1 1 34
M  V30 39 1 1 35
M  V30 40 1 3 36
M  V30 41 1 6 37
M  V30 42 1 6 38
M  V30 43 1 10 39
M  V30 44 1 13 40
M  V30 45 1 14 41
M  V30 46 1 20 42
M  V30 47 1 24 43 CFG=3
M  V30 48 1 25 44
M  V30 49 1 25 45
M  V30 50 1 26 46
M  V30 51 1 26 47
M  V30 52 1 28 48 CFG=1
M  V30 53 1 29 49
M  V30 54 1 29 50
M  V30 55 1 29 51
M  V30 56 1 30 52
M  V30 57 1 30 53
M  V30 58 1 31 54
M  V30 END BOND
M  V30 END CTAB
M  END
>  <Dataset>  (383) 
ChEMBL_Kinases

>  <Ligand_Instance>  (383) 
nan

>  <PDB_ID>  (383) 
nan

>  <Standardized_SMILES>  (383) 
Cc1cnc(Cc2nc3cnc4ccc(C(F)(F)F)cc4c3n2[C@@H]2CCO[C@H](C)C2)cn1

>  <Name>  (383) 
nan

>  <Pocket>  (383) 
nan

>  <ATP_Site>  (383) 
nan

>  <Peripheral>  (383) 
nan

>  <Num_H_Atoms_ProtBoundConf>  (383) 
nan

>  <Num_Resolved_Atoms>  (383) 
nan

>  <Num_Not_Resolved_Atoms>  (383) 
nan

$$$$
CHEMBL4543158
     RDKit          3D

  0  0  0  0  0  0  0  0  0  0999 V3000
M  V30 BEGIN CTAB
M  V30 COUNTS 37 40 0 0 0
M  V30 BEGIN ATOM
M  V30 1 C -0.525387 -6.133517 1.785613 0
M  V30 2 C 0.832962 -5.680191 2.204094 0
M  V30 3 N 1.824073 -6.418743 2.768431 0
M  V30 4 N 2.890374 -5.676351 3.003303 0
M  V30 5 C 2.668082 -4.389979 2.605272 0
M  V30 6 C 1.387858 -4.421840 2.115105 0
M  V30 7 C 0.728250 -3.251024 1.575035 0
M  V30 8 C 1.137050 -1.963625 1.422050 0
M  V30 9 C 0.263501 -1.074274 0.866956 0
M  V30 10 N 0.434086 0.236667 0.614961 0
M  V30 11 C -0.504590 0.989550 0.066961 0
M  V30 12 C -0.167385 2.437276 -0.155333 0 CFG=2
M  V30 13 C -1.144760 3.049735 -1.136399 0
M  V30 14 C -0.651856 4.430483 -1.396423 0
M  V30 15 C 0.552962 4.911408 -1.112243 0
M  V30 16 C 1.518142 3.996536 -0.471381 0
M  V30 17 N 1.145594 2.593532 -0.714033 0
M  V30 18 N -1.727452 0.577501 -0.308580 0
M  V30 19 C -1.980736 -0.718452 -0.092359 0
M  V30 20 O -3.045245 -1.316876 -0.361040 0
M  V30 21 C -0.993262 -1.544886 0.492393 0
M  V30 22 S -0.942158 -3.266410 0.929383 0
M  V30 23 H -0.598935 -6.306695 0.704631 0
M  V30 24 H -0.695636 -7.126150 2.266932 0
M  V30 25 H -1.326210 -5.479854 2.182222 0
M  V30 26 H 3.756101 -6.070019 3.435342 0
M  V30 27 H 3.367111 -3.562256 2.676647 0
M  V30 28 H 2.136647 -1.724083 1.752645 0
M  V30 29 H -0.322187 2.940062 0.820267 0
M  V30 30 H -1.191354 2.418247 -2.035764 0
M  V30 31 H -2.114337 3.159641 -0.607064 0
M  V30 32 H -1.400294 5.077507 -1.873551 0
M  V30 33 H 0.821952 5.936254 -1.340471 0
M  V30 34 H 1.494248 4.126791 0.635453 0
M  V30 35 H 2.570923 4.174837 -0.810903 0
M  V30 36 H 1.866163 1.962993 -0.330130 0
M  V30 37 H -2.466647 1.149780 -0.735052 0
M  V30 END ATOM
M  V30 BEGIN BOND
M  V30 1 1 1 2
M  V30 2 2 2 3
M  V30 3 1 3 4
M  V30 4 1 4 5
M  V30 5 2 5 6
M  V30 6 1 6 7
M  V30 7 2 7 8
M  V30 8 1 8 9
M  V30 9 1 9 10
M  V30 10 2 10 11
M  V30 11 1 11 12
M  V30 12 1 12 13
M  V30 13 1 13 14
M  V30 14 2 14 15
M  V30 15 1 15 16
M  V30 16 1 16 17
M  V30 17 1 11 18
M  V30 18 1 18 19
M  V30 19 2 19 20
M  V30 20 1 19 21
M  V30 21 1 21 22
M  V30 22 1 6 2
M  V30 23 1 22 7
M  V30 24 2 21 9
M  V30 25 1 17 12
M  V30 26 1 1 23
M  V30 27 1 1 24
M  V30 28 1 1 25
M  V30 29 1 4 26
M  V30 30 1 5 27
M  V30 31 1 8 28
M  V30 32 1 12 29 CFG=1
M  V30 33 1 13 30
M  V30 34 1 13 31
M  V30 35 1 14 32
M  V30 36 1 15 33
M  V30 37 1 16 34
M  V30 38 1 16 35
M  V30 39 1 17 36
M  V30 40 1 18 37
M  V30 END BOND
M  V30 END CTAB
M  END
>  <Dataset>  (384) 
ChEMBL_Kinases

>  <Ligand_Instance>  (384) 
nan

>  <PDB_ID>  (384) 
nan

>  <Standardized_SMILES>  (384) 
Cc1n[nH]cc1-c1cc2nc([C@@H]3CC=CCN3)[nH]c(=O)c2s1

>  <Name>  (384) 
nan

>  <Pocket>  (384) 
nan

>  <ATP_Site>  (384) 
nan

>  <Peripheral>  (384) 
nan

>  <Num_H_Atoms_ProtBoundConf>  (384) 
nan

>  <Num_Resolved_Atoms>  (384) 
nan

>  <Num_Not_Resolved_Atoms>  (384) 
nan

$$$$
CHEMBL4543902
     RDKit          3D

  0  0  0  0  0  0  0  0  0  0999 V3000
M  V30 BEGIN CTAB
M  V30 COUNTS 51 54 0 0 0
M  V30 BEGIN ATOM
M  V30 1 C 4.828847 -10.260813 1.528478 0
M  V30 2 C 3.397334 -9.755475 1.588863 0
M  V30 3 C 3.456400 -8.252105 1.533940 0
M  V30 4 O 2.191512 -7.628768 1.581565 0
M  V30 5 C 2.178611 -6.242693 1.532306 0
M  V30 6 C 3.251433 -5.379713 1.441348 0
M  V30 7 C 3.144369 -4.007003 1.397591 0
M  V30 8 C 1.879466 -3.412292 1.446415 0
M  V30 9 N 1.633617 -2.132682 1.414278 0
M  V30 10 C 0.604224 -1.578154 1.452131 0
M  V30 11 N 0.054435 -0.250436 1.435985 0
M  V30 12 C -0.288300 0.360419 0.227357 0
M  V30 13 O -0.095758 -0.296325 -0.832888 0
M  V30 14 C -0.850674 1.709459 0.174396 0
M  V30 15 C -1.089511 2.531608 1.255994 0
M  V30 16 C -1.630494 3.793821 1.092238 0
M  V30 17 C -1.956747 4.292504 -0.149717 0
M  V30 18 N -2.511286 5.588088 -0.323338 0
M  V30 19 C -2.763138 6.559696 0.720132 0
M  V30 20 C -4.284086 6.678247 0.868639 0
M  V30 21 O -4.882835 6.732305 -0.389414 0
M  V30 22 C -3.995527 7.132662 -1.365216 0
M  V30 23 C -2.901830 6.091241 -1.623417 0
M  V30 24 C -1.733765 3.502701 -1.256726 0
M  V30 25 C -1.193235 2.247096 -1.070450 0
M  V30 26 S -0.489905 -3.099225 1.568014 0
M  V30 27 C 0.832161 -4.234080 1.534648 0
M  V30 28 C 0.932033 -5.650267 1.580312 0
M  V30 29 H 5.059765 -10.748149 0.549658 0
M  V30 30 H 5.040759 -11.009166 2.321872 0
M  V30 31 H 5.571370 -9.423524 1.627915 0
M  V30 32 H 2.948382 -10.150065 2.503837 0
M  V30 33 H 2.888847 -10.136164 0.670088 0
M  V30 34 H 3.921805 -7.968811 0.568232 0
M  V30 35 H 4.091600 -7.881602 2.361766 0
M  V30 36 H 4.224087 -5.891714 1.405845 0
M  V30 37 H 4.116654 -3.495467 1.325167 0
M  V30 38 H -0.079555 0.242440 2.361860 0
M  V30 39 H -0.833466 2.138289 2.225414 0
M  V30 40 H -1.785271 4.371576 1.991151 0
M  V30 41 H -2.436977 7.583828 0.410278 0
M  V30 42 H -2.364995 6.300523 1.699704 0
M  V30 43 H -4.570752 7.632150 1.373404 0
M  V30 44 H -4.686564 5.832977 1.428627 0
M  V30 45 H -4.582572 7.171101 -2.318997 0
M  V30 46 H -3.576332 8.136251 -1.190274 0
M  V30 47 H -3.361630 5.257204 -2.221041 0
M  V30 48 H -2.062590 6.570222 -2.163663 0
M  V30 49 H -1.951825 3.792768 -2.275002 0
M  V30 50 H -1.011989 1.611018 -1.946351 0
M  V30 51 H -0.028397 -6.102210 1.651708 0
M  V30 END ATOM
M  V30 BEGIN BOND
M  V30 1 1 1 2
M  V30 2 1 2 3
M  V30 3 1 3 4
M  V30 4 1 4 5
M  V30 5 2 5 6
M  V30 6 1 6 7
M  V30 7 2 7 8
M  V30 8 1 8 9
M  V30 9 2 9 10
M  V30 10 1 10 11
M  V30 11 1 11 12
M  V30 12 2 12 13
M  V30 13 1 12 14
M  V30 14 2 14 15
M  V30 15 1 15 16
M  V30 16 2 16 17
M  V30 17 1 17 18
M  V30 18 1 18 19
M  V30 19 1 19 20
M  V30 20 1 20 21
M  V30 21 1 21 22
M  V30 22 1 22 23
M  V30 23 1 17 24
M  V30 24 2 24 25
M  V30 25 1 10 26
M  V30 26 1 26 27
M  V30 27 2 27 28
M  V30 28 1 28 5
M  V30 29 1 27 8
M  V30 30 1 25 14
M  V30 31 1 23 18
M  V30 32 1 1 29
M  V30 33 1 1 30
M  V30 34 1 1 31
M  V30 35 1 2 32
M  V30 36 1 2 33
M  V30 37 1 3 34
M  V30 38 1 3 35
M  V30 39 1 6 36
M  V30 40 1 7 37
M  V30 41 1 11 38
M  V30 42 1 15 39
M  V30 43 1 16 40
M  V30 44 1 19 41
M  V30 45 1 19 42
M  V30 46 1 20 43
M  V30 47 1 20 44
M  V30 48 1 22 45
M  V30 49 1 22 46
M  V30 50 1 23 47
M  V30 51 1 23 48
M  V30 52 1 24 49
M  V30 53 1 25 50
M  V30 54 1 28 51
M  V30 END BOND
M  V30 END CTAB
M  END
>  <Dataset>  (385) 
ChEMBL_Kinases

>  <Ligand_Instance>  (385) 
nan

>  <PDB_ID>  (385) 
nan

>  <Standardized_SMILES>  (385) 
CCCOc1ccc2nc(NC(=O)c3ccc(N4CCOCC4)cc3)sc2c1

>  <Name>  (385) 
nan

>  <Pocket>  (385) 
nan

>  <ATP_Site>  (385) 
nan

>  <Peripheral>  (385) 
nan

>  <Num_H_Atoms_ProtBoundConf>  (385) 
nan

>  <Num_Resolved_Atoms>  (385) 
nan

>  <Num_Not_Resolved_Atoms>  (385) 
nan

$$$$
CHEMBL4639818
     RDKit          3D

  0  0  0  0  0  0  0  0  0  0999 V3000
M  V30 BEGIN CTAB
M  V30 COUNTS 56 59 0 0 0
M  V30 BEGIN ATOM
M  V30 1 C 0.771879 -2.480071 4.882042 0
M  V30 2 O 1.715587 -3.169101 4.121980 0
M  V30 3 C 2.910282 -2.515508 4.024685 0
M  V30 4 C 2.902931 -1.172166 3.399629 0
M  V30 5 N 2.450727 -1.110877 2.029098 0
M  V30 6 C 3.443236 -1.784159 1.177039 0
M  V30 7 C 1.299380 -0.552387 1.387126 0
M  V30 8 C 1.735802 0.667685 0.857114 0
M  V30 9 C 0.866599 1.544685 0.202262 0
M  V30 10 C -0.484169 1.212500 0.061363 0
M  V30 11 C -1.425139 2.072651 -0.596899 0
M  V30 12 C -2.231444 2.787368 -1.139585 0
M  V30 13 C -3.210926 3.684036 -1.796537 0
M  V30 14 C -4.617504 3.372301 -1.273931 0
M  V30 15 O -2.840385 4.962768 -1.466858 0
M  V30 16 C -3.262252 3.421126 -3.260729 0
M  V30 17 N -3.046971 2.398612 -4.000390 0
M  V30 18 C -3.189540 2.518202 -5.304210 0
M  V30 19 C -3.585815 3.797918 -5.878506 0
M  V30 20 S -3.719443 4.790261 -4.267007 0
M  V30 21 C -0.851297 -0.003394 0.603803 0
M  V30 22 C -0.010730 -0.881458 1.251162 0
M  V30 23 N -0.413147 -2.101152 1.789118 0
M  V30 24 C -0.195916 -3.473100 1.593698 0
M  V30 25 N -0.710891 -4.339303 2.488078 0
M  V30 26 C -0.565286 -5.664320 2.366073 0
M  V30 27 N 0.106918 -6.205999 1.338035 0
M  V30 28 C 0.652224 -5.410905 0.400520 0
M  V30 29 N 1.354261 -5.648406 -0.718590 0
M  V30 30 C 1.657473 -4.478665 -1.313899 0
M  V30 31 C 1.116057 -3.501027 -0.520658 0
M  V30 32 C 0.478523 -4.039630 0.563195 0
M  V30 33 H -0.147287 -3.096107 4.901802 0
M  V30 34 H 1.061581 -2.338879 5.937975 0
M  V30 35 H 0.475868 -1.519598 4.383704 0
M  V30 36 H 3.594756 -3.202386 3.443857 0
M  V30 37 H 3.357155 -2.501303 5.054761 0
M  V30 38 H 2.363396 -0.406130 4.024923 0
M  V30 39 H 3.972200 -0.798145 3.446636 0
M  V30 40 H 4.475043 -1.559150 1.448889 0
M  V30 41 H 3.282199 -2.871982 1.309353 0
M  V30 42 H 3.281076 -1.523789 0.106868 0
M  V30 43 H 2.722660 1.136772 0.842130 0
M  V30 44 H 1.105256 2.503774 -0.238076 0
M  V30 45 H -5.054002 2.528373 -1.876458 0
M  V30 46 H -4.617194 3.025176 -0.231780 0
M  V30 47 H -5.285477 4.239528 -1.447734 0
M  V30 48 H -3.584212 5.576849 -1.268092 0
M  V30 49 H -2.957713 1.528566 -5.739059 0
M  V30 50 H -3.626469 3.568695 -7.104933 0
M  V30 51 H -1.886071 -0.349662 0.543262 0
M  V30 52 H -1.059601 -1.772775 2.547889 0
M  V30 53 H -1.006455 -6.299663 3.124692 0
M  V30 54 H 1.647649 -6.574797 -1.110655 0
M  V30 55 H 2.214643 -4.331361 -2.232404 0
M  V30 56 H 1.193478 -2.466354 -0.742925 0
M  V30 END ATOM
M  V30 BEGIN BOND
M  V30 1 1 1 2
M  V30 2 1 2 3
M  V30 3 1 3 4
M  V30 4 1 4 5
M  V30 5 1 5 6
M  V30 6 1 5 7
M  V30 7 2 7 8
M  V30 8 1 8 9
M  V30 9 2 9 10
M  V30 10 1 10 11
M  V30 11 3 11 12
M  V30 12 1 12 13
M  V30 13 1 13 14
M  V30 14 1 13 15
M  V30 15 1 13 16
M  V30 16 2 16 17
M  V30 17 1 17 18
M  V30 18 2 18 19
M  V30 19 1 19 20
M  V30 20 1 10 21
M  V30 21 2 21 22
M  V30 22 1 22 23
M  V30 23 1 23 24
M  V30 24 2 24 25
M  V30 25 1 25 26
M  V30 26 2 26 27
M  V30 27 1 27 28
M  V30 28 1 28 29
M  V30 29 1 29 30
M  V30 30 2 30 31
M  V30 31 1 31 32
M  V30 32 1 22 7
M  V30 33 1 32 24
M  V30 34 1 20 16
M  V30 35 2 32 28
M  V30 36 1 1 33
M  V30 37 1 1 34
M  V30 38 1 1 35
M  V30 39 1 3 36
M  V30 40 1 3 37
M  V30 41 1 4 38
M  V30 42 1 4 39
M  V30 43 1 6 40
M  V30 44 1 6 41
M  V30 45 1 6 42
M  V30 46 1 8 43
M  V30 47 1 9 44
M  V30 48 1 14 45
M  V30 49 1 14 46
M  V30 50 1 14 47
M  V30 51 1 15 48
M  V30 52 1 18 49
M  V30 53 1 19 50
M  V30 54 1 21 51
M  V30 55 1 23 52
M  V30 56 1 26 53
M  V30 57 1 29 54
M  V30 58 1 30 55
M  V30 59 1 31 56
M  V30 END BOND
M  V30 END CTAB
M  END
>  <Dataset>  (386) 
ChEMBL_Kinases

>  <Ligand_Instance>  (386) 
nan

>  <PDB_ID>  (386) 
nan

>  <Standardized_SMILES>  (386) 
COCCN(C)c1ccc(C#CC(C)(O)c2nccs2)cc1Nc1ncnc2[nH]ccc12

>  <Name>  (386) 
nan

>  <Pocket>  (386) 
nan

>  <ATP_Site>  (386) 
nan

>  <Peripheral>  (386) 
nan

>  <Num_H_Atoms_ProtBoundConf>  (386) 
nan

>  <Num_Resolved_Atoms>  (386) 
nan

>  <Num_Not_Resolved_Atoms>  (386) 
nan

$$$$
CHEMBL4639842
     RDKit          3D

  0  0  0  0  0  0  0  0  0  0999 V3000
M  V30 BEGIN CTAB
M  V30 COUNTS 44 47 0 0 0
M  V30 BEGIN ATOM
M  V30 1 C -2.402986 -4.913206 2.045171 0
M  V30 2 C -1.169478 -4.688216 1.222144 0
M  V30 3 C -0.984367 -3.407199 0.710632 0
M  V30 4 C 0.133456 -3.090749 -0.069128 0
M  V30 5 C 0.256701 -1.723442 -0.569570 0
M  V30 6 C 0.875459 -1.399275 -1.771582 0
M  V30 7 C 0.926945 -0.071071 -2.133209 0
M  V30 8 C 0.390264 0.924795 -1.347210 0
M  V30 9 N 0.325791 2.272365 -1.498836 0
M  V30 10 C -0.314949 2.780819 -0.423711 0
M  V30 11 N -0.769471 3.993947 0.176197 0
M  V30 12 C 0.149191 4.601025 1.078267 0
M  V30 13 C 1.389723 4.042289 1.339932 0
M  V30 14 C 2.311438 4.599710 2.213070 0
M  V30 15 C 1.989441 5.774974 2.864132 0
M  V30 16 C 2.940359 6.349441 3.766569 0
M  V30 17 N 3.713839 6.833591 4.490850 0
M  V30 18 C 0.765006 6.372643 2.637862 0
M  V30 19 C -0.131454 5.790887 1.760923 0
M  V30 20 N -0.627113 1.743532 0.357559 0
M  V30 21 N -0.211264 0.585496 -0.173848 0
M  V30 22 C -0.275766 -0.714853 0.206188 0
M  V30 23 C 1.045112 -4.099421 -0.310780 0
M  V30 24 C 0.845615 -5.362827 0.204050 0
M  V30 25 C 1.812910 -6.456615 -0.046616 0
M  V30 26 C -0.256854 -5.687254 0.976894 0
M  V30 27 O -0.512880 -6.935822 1.521581 0
M  V30 28 H -2.150066 -5.565144 2.900629 0
M  V30 29 H -2.773306 -3.958071 2.467563 0
M  V30 30 H -3.188992 -5.362717 1.406053 0
M  V30 31 H -1.714052 -2.640983 0.916227 0
M  V30 32 H 1.285819 -2.177224 -2.369171 0
M  V30 33 H 1.388169 0.249581 -3.045458 0
M  V30 34 H -1.685785 4.502592 0.046620 0
M  V30 35 H 1.670680 3.121831 0.845423 0
M  V30 36 H 3.272772 4.088458 2.361641 0
M  V30 37 H 0.544394 7.293704 3.165101 0
M  V30 38 H -1.094598 6.237715 1.565972 0
M  V30 39 H -0.778329 -0.843041 1.155808 0
M  V30 40 H 1.898158 -3.871476 -0.902076 0
M  V30 41 H 2.528958 -6.596619 0.785113 0
M  V30 42 H 1.282652 -7.420572 -0.234354 0
M  V30 43 H 2.434650 -6.250409 -0.952710 0
M  V30 44 H 0.262090 -7.594009 1.537673 0
M  V30 END ATOM
M  V30 BEGIN BOND
M  V30 1 1 1 2
M  V30 2 2 2 3
M  V30 3 1 3 4
M  V30 4 1 4 5
M  V30 5 1 5 6
M  V30 6 2 6 7
M  V30 7 1 7 8
M  V30 8 2 8 9
M  V30 9 1 9 10
M  V30 10 1 10 11
M  V30 11 1 11 12
M  V30 12 2 12 13
M  V30 13 1 13 14
M  V30 14 2 14 15
M  V30 15 1 15 16
M  V30 16 3 16 17
M  V30 17 1 15 18
M  V30 18 2 18 19
M  V30 19 2 10 20
M  V30 20 1 20 21
M  V30 21 1 21 22
M  V30 22 2 4 23
M  V30 23 1 23 24
M  V30 24 1 24 25
M  V30 25 2 24 26
M  V30 26 1 26 27
M  V30 27 1 26 2
M  V30 28 2 22 5
M  V30 29 1 21 8
M  V30 30 1 19 12
M  V30 31 1 1 28
M  V30 32 1 1 29
M  V30 33 1 1 30
M  V30 34 1 3 31
M  V30 35 1 6 32
M  V30 36 1 7 33
M  V30 37 1 11 34
M  V30 38 1 13 35
M  V30 39 1 14 36
M  V30 40 1 18 37
M  V30 41 1 19 38
M  V30 42 1 22 39
M  V30 43 1 23 40
M  V30 44 1 25 41
M  V30 45 1 25 42
M  V30 46 1 25 43
M  V30 47 1 27 44
M  V30 END BOND
M  V30 END CTAB
M  END
>  <Dataset>  (387) 
ChEMBL_Kinases

>  <Ligand_Instance>  (387) 
nan

>  <PDB_ID>  (387) 
nan

>  <Standardized_SMILES>  (387) 
Cc1cc(-c2ccc3nc(Nc4ccc(C#N)cc4)nn3c2)cc(C)c1O

>  <Name>  (387) 
nan

>  <Pocket>  (387) 
nan

>  <ATP_Site>  (387) 
nan

>  <Peripheral>  (387) 
nan

>  <Num_H_Atoms_ProtBoundConf>  (387) 
nan

>  <Num_Resolved_Atoms>  (387) 
nan

>  <Num_Not_Resolved_Atoms>  (387) 
nan

$$$$
CHEMBL4547308
     RDKit          3D

  0  0  0  0  0  0  0  0  0  0999 V3000
M  V30 BEGIN CTAB
M  V30 COUNTS 37 40 0 0 0
M  V30 BEGIN ATOM
M  V30 1 C 0.488643 -4.588472 0.125821 0
M  V30 2 N 1.382550 -3.853152 0.950005 0
M  V30 3 C 0.843545 -2.769809 1.690713 0
M  V30 4 C 0.362536 -1.577698 0.927372 0
M  V30 5 C 1.257808 -1.219515 -0.196725 0
M  V30 6 C 2.253152 -2.153864 -0.375045 0
M  V30 7 S 3.223712 -1.472178 -1.797306 0
M  V30 8 C 2.186298 -0.015682 -1.990887 0
M  V30 9 N 2.282016 0.986202 -2.875201 0
M  V30 10 C 1.424226 1.988247 -2.889011 0
M  V30 11 N 0.483099 1.907440 -1.964263 0
M  V30 12 C 0.353897 0.926403 -1.067573 0
M  V30 13 N -0.766286 1.190413 -0.264809 0
M  V30 14 C -1.345423 1.262268 1.033402 0
M  V30 15 C -2.395870 0.642707 1.664097 0
M  V30 16 C -2.658650 0.949811 2.969996 0
M  V30 17 C -1.920742 1.853717 3.693179 0
M  V30 18 Cl -2.366448 2.155102 5.361474 0
M  V30 19 C -0.848204 2.498903 3.078952 0
M  V30 20 C -0.571988 2.192257 1.744602 0
M  V30 21 F 0.510686 2.923988 1.341437 0
M  V30 22 C 1.218592 -0.128971 -1.016543 0
M  V30 23 C 2.581477 -3.386177 0.269585 0
M  V30 24 H -0.501697 -4.114723 0.002096 0
M  V30 25 H 0.364317 -5.593239 0.601913 0
M  V30 26 H 0.935067 -4.802274 -0.882667 0
M  V30 27 H 1.649692 -2.432743 2.395101 0
M  V30 28 H 0.002825 -3.080460 2.350680 0
M  V30 29 H -0.689059 -1.720114 0.580319 0
M  V30 30 H 0.374808 -0.753396 1.717679 0
M  V30 31 H 1.641383 2.703616 -3.657401 0
M  V30 32 H -1.679195 1.479602 -0.707233 0
M  V30 33 H -2.872215 -0.028408 0.963817 0
M  V30 34 H -3.508233 0.407560 3.365298 0
M  V30 35 H -0.322584 3.194185 3.718899 0
M  V30 36 H 3.380712 -3.357824 1.048722 0
M  V30 37 H 2.843199 -4.170147 -0.467524 0
M  V30 END ATOM
M  V30 BEGIN BOND
M  V30 1 1 1 2
M  V30 2 1 2 3
M  V30 3 1 3 4
M  V30 4 1 4 5
M  V30 5 2 5 6
M  V30 6 1 6 7
M  V30 7 1 7 8
M  V30 8 2 8 9
M  V30 9 1 9 10
M  V30 10 2 10 11
M  V30 11 1 11 12
M  V30 12 1 12 13
M  V30 13 1 13 14
M  V30 14 2 14 15
M  V30 15 1 15 16
M  V30 16 2 16 17
M  V30 17 1 17 18
M  V30 18 1 17 19
M  V30 19 2 19 20
M  V30 20 1 20 21
M  V30 21 2 12 22
M  V30 22 1 6 23
M  V30 23 1 23 2
M  V30 24 1 22 5
M  V30 25 1 22 8
M  V30 26 1 20 14
M  V30 27 1 1 24
M  V30 28 1 1 25
M  V30 29 1 1 26
M  V30 30 1 3 27
M  V30 31 1 3 28
M  V30 32 1 4 29
M  V30 33 1 4 30
M  V30 34 1 10 31
M  V30 35 1 13 32
M  V30 36 1 15 33
M  V30 37 1 16 34
M  V30 38 1 19 35
M  V30 39 1 23 36
M  V30 40 1 23 37
M  V30 END BOND
M  V30 END CTAB
M  END
>  <Dataset>  (388) 
ChEMBL_Kinases

>  <Ligand_Instance>  (388) 
nan

>  <PDB_ID>  (388) 
nan

>  <Standardized_SMILES>  (388) 
CN1CCc2c(sc3ncnc(Nc4ccc(Cl)cc4F)c23)C1

>  <Name>  (388) 
nan

>  <Pocket>  (388) 
nan

>  <ATP_Site>  (388) 
nan

>  <Peripheral>  (388) 
nan

>  <Num_H_Atoms_ProtBoundConf>  (388) 
nan

>  <Num_Resolved_Atoms>  (388) 
nan

>  <Num_Not_Resolved_Atoms>  (388) 
nan

$$$$
CHEMBL4547251
     RDKit          3D

  0  0  0  0  0  0  0  0  0  0999 V3000
M  V30 BEGIN CTAB
M  V30 COUNTS 45 47 0 0 0
M  V30 BEGIN ATOM
M  V30 1 C 0.677681 -2.794293 1.725680 0
M  V30 2 C 0.327855 -2.782475 0.231627 0
M  V30 3 C 0.190957 -4.274964 -0.127915 0
M  V30 4 C 1.470165 -2.189007 -0.525486 0
M  V30 5 O 1.729980 -0.861438 -0.232224 0
M  V30 6 C 2.821271 -0.410536 -1.001039 0
M  V30 7 C 3.998842 -1.234976 -0.672058 0
M  V30 8 O 5.012410 -0.864360 -1.343781 0
M  V30 9 O 4.689371 -2.239684 -0.018364 0
M  V30 10 N -0.942441 -2.143798 0.026391 0
M  V30 11 C -1.216119 -0.822415 0.493284 0
M  V30 12 N -0.356553 -0.066163 1.159518 0
M  V30 13 C -0.566021 1.174790 1.625155 0
M  V30 14 C 0.465387 1.911584 2.348339 0
M  V30 15 C 0.195111 3.184069 2.806924 0
M  V30 16 C 1.203231 3.852385 3.491191 0
M  V30 17 N 2.403692 3.265069 3.694277 0
M  V30 18 C 2.667060 2.032356 3.250613 0
M  V30 19 C 1.702063 1.343661 2.573953 0
M  V30 20 N -1.769725 1.734092 1.405292 0
M  V30 21 C -2.746586 1.066448 0.732646 0
M  V30 22 C -3.970601 1.664100 0.521583 0
M  V30 23 N -4.940080 0.980423 -0.155520 0
M  V30 24 C -4.688592 -0.274025 -0.610900 0
M  V30 25 C -3.454117 -0.829996 -0.377405 0
M  V30 26 C -2.433304 -0.203399 0.294463 0
M  V30 27 H 1.497087 -3.521737 1.914830 0
M  V30 28 H 0.956866 -1.810714 2.103217 0
M  V30 29 H -0.225440 -3.207990 2.258282 0
M  V30 30 H 0.992220 -4.807353 0.417439 0
M  V30 31 H 0.222542 -4.422969 -1.224072 0
M  V30 32 H -0.792384 -4.564590 0.307286 0
M  V30 33 H 2.425144 -2.733632 -0.317741 0
M  V30 34 H 1.328253 -2.316996 -1.635146 0
M  V30 35 H 3.053094 0.639524 -0.801856 0
M  V30 36 H 2.514354 -0.598552 -2.056424 0
M  V30 37 H 5.253310 -2.096445 0.789836 0
M  V30 38 H -1.645284 -2.687602 -0.476304 0
M  V30 39 H -0.776433 3.611186 2.621246 0
M  V30 40 H 0.952212 4.860096 3.840091 0
M  V30 41 H 3.668387 1.631571 3.459420 0
M  V30 42 H 1.966250 0.359347 2.240192 0
M  V30 43 H -4.178013 2.661885 0.880919 0
M  V30 44 H -5.493292 -0.772903 -1.142696 0
M  V30 45 H -3.360976 -1.812581 -0.774617 0
M  V30 END ATOM
M  V30 BEGIN BOND
M  V30 1 1 1 2
M  V30 2 1 2 3
M  V30 3 1 2 4
M  V30 4 1 4 5
M  V30 5 1 5 6
M  V30 6 1 6 7
M  V30 7 2 7 8
M  V30 8 1 7 9
M  V30 9 1 2 10
M  V30 10 1 10 11
M  V30 11 2 11 12
M  V30 12 1 12 13
M  V30 13 1 13 14
M  V30 14 2 14 15
M  V30 15 1 15 16
M  V30 16 2 16 17
M  V30 17 1 17 18
M  V30 18 2 18 19
M  V30 19 2 13 20
M  V30 20 1 20 21
M  V30 21 2 21 22
M  V30 22 1 22 23
M  V30 23 2 23 24
M  V30 24 1 24 25
M  V30 25 2 25 26
M  V30 26 1 26 11
M  V30 27 1 19 14
M  V30 28 1 26 21
M  V30 29 1 1 27
M  V30 30 1 1 28
M  V30 31 1 1 29
M  V30 32 1 3 30
M  V30 33 1 3 31
M  V30 34 1 3 32
M  V30 35 1 4 33
M  V30 36 1 4 34
M  V30 37 1 6 35
M  V30 38 1 6 36
M  V30 39 1 9 37
M  V30 40 1 10 38
M  V30 41 1 15 39
M  V30 42 1 16 40
M  V30 43 1 18 41
M  V30 44 1 19 42
M  V30 45 1 22 43
M  V30 46 1 24 44
M  V30 47 1 25 45
M  V30 END BOND
M  V30 END CTAB
M  END
>  <Dataset>  (389) 
ChEMBL_Kinases

>  <Ligand_Instance>  (389) 
nan

>  <PDB_ID>  (389) 
nan

>  <Standardized_SMILES>  (389) 
CC(C)(COCC(=O)O)Nc1nc(-c2ccncc2)nc2cnccc12

>  <Name>  (389) 
nan

>  <Pocket>  (389) 
nan

>  <ATP_Site>  (389) 
nan

>  <Peripheral>  (389) 
nan

>  <Num_H_Atoms_ProtBoundConf>  (389) 
nan

>  <Num_Resolved_Atoms>  (389) 
nan

>  <Num_Not_Resolved_Atoms>  (389) 
nan

$$$$
CHEMBL4639853
     RDKit          3D

  0  0  0  0  0  0  0  0  0  0999 V3000
M  V30 BEGIN CTAB
M  V30 COUNTS 35 37 0 0 0
M  V30 BEGIN ATOM
M  V30 1 C 1.645491 -4.859717 2.700522 0
M  V30 2 C 2.694577 -3.816660 2.410277 0
M  V30 3 C 2.478159 -2.638460 1.721279 0
M  V30 4 C 3.655028 -1.898569 1.633468 0
M  V30 5 N 3.830039 -0.617000 0.999059 0
M  V30 6 C 2.603703 -0.138163 0.397693 0
M  V30 7 C 2.442531 -0.303324 -0.961197 0
M  V30 8 C 1.249492 0.143175 -1.488261 0
M  V30 9 Cl 0.826454 0.041610 -3.178410 0
M  V30 10 N 0.306007 0.709154 -0.696278 0
M  V30 11 C 0.483596 0.863697 0.636900 0
M  V30 12 O -0.526762 1.460150 1.420115 0
M  V30 13 C -1.671321 1.830482 0.674296 0
M  V30 14 C -2.593067 0.791261 0.801801 0
M  V30 15 C -3.839145 0.841348 0.170170 0
M  V30 16 C -4.048967 1.988591 -0.563499 0
M  V30 17 N -5.302294 2.101782 -1.239521 0 CHG=1 VAL=4
M  V30 18 O -6.232939 1.281170 -1.258776 0
M  V30 19 O -5.669481 3.203914 -2.010801 0 CHG=-1 VAL=1
M  V30 20 C -3.170495 3.036620 -0.714877 0
M  V30 21 C -1.956046 2.941263 -0.074609 0
M  V30 22 N 1.653056 0.432006 1.186830 0
M  V30 23 N 4.571901 -2.673315 2.289808 0
M  V30 24 N 4.003775 -3.762049 2.725086 0
M  V30 25 H 1.106882 -4.655337 3.638098 0
M  V30 26 H 0.944282 -4.894341 1.821373 0
M  V30 27 H 2.097614 -5.890801 2.736368 0
M  V30 28 H 1.497629 -2.378810 1.328837 0
M  V30 29 H 4.764713 -0.161292 1.014380 0
M  V30 30 H 3.164737 -0.745195 -1.631405 0
M  V30 31 H -2.488773 -0.152108 1.368156 0
M  V30 32 H -4.590127 0.068330 0.233905 0
M  V30 33 H -3.331050 3.925598 -1.282767 0
M  V30 34 H -1.131609 3.626022 -0.050995 0
M  V30 35 H 4.426572 -4.572489 3.272266 0
M  V30 END ATOM
M  V30 BEGIN BOND
M  V30 1 1 1 2
M  V30 2 2 2 3
M  V30 3 1 3 4
M  V30 4 1 4 5
M  V30 5 1 5 6
M  V30 6 2 6 7
M  V30 7 1 7 8
M  V30 8 1 8 9
M  V30 9 2 8 10
M  V30 10 1 10 11
M  V30 11 1 11 12
M  V30 12 1 12 13
M  V30 13 2 13 14
M  V30 14 1 14 15
M  V30 15 2 15 16
M  V30 16 1 16 17
M  V30 17 2 17 18
M  V30 18 1 17 19
M  V30 19 1 16 20
M  V30 20 2 20 21
M  V30 21 2 11 22
M  V30 22 2 4 23
M  V30 23 1 23 24
M  V30 24 1 24 2
M  V30 25 1 22 6
M  V30 26 1 21 13
M  V30 27 1 1 25
M  V30 28 1 1 26
M  V30 29 1 1 27
M  V30 30 1 3 28
M  V30 31 1 5 29
M  V30 32 1 7 30
M  V30 33 1 14 31
M  V30 34 1 15 32
M  V30 35 1 20 33
M  V30 36 1 21 34
M  V30 37 1 24 35
M  V30 END BOND
M  V30 END CTAB
M  END
>  <Dataset>  (390) 
ChEMBL_Kinases

>  <Ligand_Instance>  (390) 
nan

>  <PDB_ID>  (390) 
nan

>  <Standardized_SMILES>  (390) 
Cc1cc(Nc2cc(Cl)nc(Oc3ccc([N+](=O)[O-])cc3)n2)n[nH]1

>  <Name>  (390) 
nan

>  <Pocket>  (390) 
nan

>  <ATP_Site>  (390) 
nan

>  <Peripheral>  (390) 
nan

>  <Num_H_Atoms_ProtBoundConf>  (390) 
nan

>  <Num_Resolved_Atoms>  (390) 
nan

>  <Num_Not_Resolved_Atoms>  (390) 
nan

$$$$
CHEMBL4546641
     RDKit          3D

  0  0  0  0  0  0  0  0  0  0999 V3000
M  V30 BEGIN CTAB
M  V30 COUNTS 51 55 0 0 0
M  V30 BEGIN ATOM
M  V30 1 F 1.080149 -6.147806 0.574454 0
M  V30 2 C 1.132111 -4.788164 0.476973 0
M  V30 3 C 0.723434 -4.203877 -0.698182 0
M  V30 4 C 0.744287 -2.820245 -0.880604 0
M  V30 5 C 1.189101 -2.025710 0.153232 0
M  V30 6 C 1.316466 -0.577370 0.232630 0
M  V30 7 N 2.359488 0.203991 0.406047 0
M  V30 8 C 2.364669 1.387618 0.464221 0
M  V30 9 C 3.384612 2.476440 0.625608 0
M  V30 10 C 3.032763 3.753059 -0.031334 0
M  V30 11 C 2.059475 4.595086 0.725310 0
M  V30 12 N 2.535906 4.826945 2.088308 0
M  V30 13 C 2.447121 3.495864 2.717798 0
M  V30 14 C 3.587611 2.699513 2.120576 0
M  V30 15 S 0.544214 1.798026 0.247209 0
M  V30 16 C 0.099397 0.042262 0.103322 0
M  V30 17 C -1.328085 -0.332640 -0.102398 0
M  V30 18 C -1.888786 0.044117 -1.307834 0
M  V30 19 C -3.203387 -0.261904 -1.582039 0
M  V30 20 N -3.914681 -0.928136 -0.656697 0
M  V30 21 C -3.380113 -1.304293 0.528747 0
M  V30 22 N -4.156977 -2.011692 1.487080 0
M  V30 23 C -4.046736 -3.449224 1.414257 0
M  V30 24 C -3.222024 -4.035004 0.468063 0
M  V30 25 C -3.080377 -5.415185 0.361046 0
M  V30 26 C -3.824535 -6.150215 1.269748 0
M  V30 27 N -4.620095 -5.563552 2.181520 0
M  V30 28 N -4.727719 -4.250009 2.251170 0
M  V30 29 N -2.092747 -0.994697 0.775589 0
M  V30 30 C 1.598947 -2.641646 1.336957 0
M  V30 31 C 1.581274 -4.009945 1.524863 0
M  V30 32 H 0.361619 -4.766355 -1.552993 0
M  V30 33 H 0.451666 -2.252375 -1.747747 0
M  V30 34 H 4.378623 2.093791 0.276127 0
M  V30 35 H 2.606915 3.545492 -1.059980 0
M  V30 36 H 3.967224 4.349043 -0.123582 0
M  V30 37 H 1.050952 4.175492 0.853838 0
M  V30 38 H 1.897694 5.567687 0.198969 0
M  V30 39 H 1.771827 5.387466 2.566311 0
M  V30 40 H 2.606073 3.583555 3.795174 0
M  V30 41 H 1.491652 3.023192 2.475542 0
M  V30 42 H 4.547847 3.243501 2.260367 0
M  V30 43 H 3.687244 1.704935 2.623897 0
M  V30 44 H -1.403594 0.577341 -2.108143 0
M  V30 45 H -3.761511 -0.025105 -2.485838 0
M  V30 46 H -4.769939 -1.585617 2.202193 0
M  V30 47 H -2.645470 -3.453028 -0.238650 0
M  V30 48 H -2.435513 -5.876255 -0.377814 0
M  V30 49 H -3.728063 -7.232468 1.202580 0
M  V30 50 H 1.972163 -2.111662 2.228175 0
M  V30 51 H 1.905530 -4.486942 2.460593 0
M  V30 END ATOM
M  V30 BEGIN BOND
M  V30 1 1 1 2
M  V30 2 2 2 3
M  V30 3 1 3 4
M  V30 4 2 4 5
M  V30 5 1 5 6
M  V30 6 1 6 7
M  V30 7 2 7 8
M  V30 8 1 8 9
M  V30 9 1 9 10
M  V30 10 1 10 11
M  V30 11 1 11 12
M  V30 12 1 12 13
M  V30 13 1 13 14
M  V30 14 1 8 15
M  V30 15 1 15 16
M  V30 16 1 16 17
M  V30 17 2 17 18
M  V30 18 1 18 19
M  V30 19 2 19 20
M  V30 20 1 20 21
M  V30 21 1 21 22
M  V30 22 1 22 23
M  V30 23 2 23 24
M  V30 24 1 24 25
M  V30 25 2 25 26
M  V30 26 1 26 27
M  V30 27 2 27 28
M  V30 28 2 21 29
M  V30 29 1 5 30
M  V30 30 2 30 31
M  V30 31 1 31 2
M  V30 32 2 16 6
M  V30 33 1 29 17
M  V30 34 1 14 9
M  V30 35 1 28 23
M  V30 36 1 3 32
M  V30 37 1 4 33
M  V30 38 1 9 34
M  V30 39 1 10 35
M  V30 40 1 10 36
M  V30 41 1 11 37
M  V30 42 1 11 38
M  V30 43 1 12 39
M  V30 44 1 13 40
M  V30 45 1 13 41
M  V30 46 1 14 42
M  V30 47 1 14 43
M  V30 48 1 18 44
M  V30 49 1 19 45
M  V30 50 1 22 46
M  V30 51 1 24 47
M  V30 52 1 25 48
M  V30 53 1 26 49
M  V30 54 1 30 50
M  V30 55 1 31 51
M  V30 END BOND
M  V30 END CTAB
M  END
>  <Dataset>  (391) 
ChEMBL_Kinases

>  <Ligand_Instance>  (391) 
nan

>  <PDB_ID>  (391) 
nan

>  <Standardized_SMILES>  (391) 
Fc1ccc(-c2nc(C3CCNCC3)sc2-c2ccnc(Nc3cccnn3)n2)cc1

>  <Name>  (391) 
nan

>  <Pocket>  (391) 
nan

>  <ATP_Site>  (391) 
nan

>  <Peripheral>  (391) 
nan

>  <Num_H_Atoms_ProtBoundConf>  (391) 
nan

>  <Num_Resolved_Atoms>  (391) 
nan

>  <Num_Not_Resolved_Atoms>  (391) 
nan

$$$$
CHEMBL454662
     RDKit          3D

  0  0  0  0  0  0  0  0  0  0999 V3000
M  V30 BEGIN CTAB
M  V30 COUNTS 45 46 0 0 0
M  V30 BEGIN ATOM
M  V30 1 C -3.260402 -8.621059 -0.004937 0
M  V30 2 O -1.892842 -8.365660 -0.264915 0
M  V30 3 C -1.263393 -7.164121 -0.167435 0
M  V30 4 C 0.071942 -7.137176 -0.473214 0
M  V30 5 C 0.778373 -5.969557 -0.402772 0
M  V30 6 C 0.150462 -4.824154 -0.023766 0
M  V30 7 C 0.869715 -3.515724 0.024291 0
M  V30 8 C 2.137242 -3.169924 -0.287452 0
M  V30 9 C 2.756356 -1.791861 -0.199361 0
M  V30 10 O 3.769599 -2.286404 -0.608332 0
M  V30 11 C 1.740812 -0.873538 0.293135 0
M  V30 12 C 2.292449 0.354414 0.357464 0
M  V30 13 O 3.638483 0.441788 -0.044416 0
M  V30 14 C 1.548499 1.519364 0.815592 0
M  V30 15 C 1.932105 2.774511 0.921895 0
M  V30 16 C 1.137356 3.862404 1.388495 0
M  V30 17 C -0.134082 3.795740 1.895903 0
M  V30 18 C -0.974174 4.786272 2.341743 0
M  V30 19 C -0.428009 6.077688 2.259201 0
M  V30 20 O -1.195783 7.159423 2.685796 0
M  V30 21 C -0.567192 8.444784 2.567179 0
M  V30 22 C 0.846730 6.186624 1.755553 0
M  V30 23 C 1.651575 5.176691 1.322093 0
M  V30 24 C -1.198959 -4.748586 0.307525 0
M  V30 25 C -1.860502 -5.974546 0.213320 0
M  V30 26 H -3.784377 -8.345503 -0.957052 0
M  V30 27 H -3.442272 -9.692218 0.204397 0
M  V30 28 H -3.636107 -7.932055 0.776339 0
M  V30 29 H 0.579792 -8.057187 -0.776521 0
M  V30 30 H 1.826895 -6.019934 -0.658167 0
M  V30 31 H 0.262063 -2.670541 0.378560 0
M  V30 32 H 2.458351 -4.194109 -0.591374 0
M  V30 33 H 0.731686 -0.874745 0.608177 0
M  V30 34 H 4.268144 -0.199650 0.455713 0
M  V30 35 H 0.518621 1.348244 1.118479 0
M  V30 36 H 2.962081 2.935393 0.611465 0
M  V30 37 H -0.580007 2.782664 1.968809 0
M  V30 38 H -1.965276 4.573187 2.719734 0
M  V30 39 H -1.182314 9.255959 2.941870 0
M  V30 40 H -0.416146 8.574603 1.468655 0
M  V30 41 H 0.399317 8.411512 3.107308 0
M  V30 42 H 1.308817 7.183074 1.675128 0
M  V30 43 H 2.649040 5.284896 0.927315 0
M  V30 44 H -1.759815 -3.885449 0.614358 0
M  V30 45 H -2.916020 -5.988539 0.454366 0
M  V30 END ATOM
M  V30 BEGIN BOND
M  V30 1 1 1 2
M  V30 2 1 2 3
M  V30 3 2 3 4
M  V30 4 1 4 5
M  V30 5 2 5 6
M  V30 6 1 6 7
M  V30 7 2 7 8
M  V30 8 1 8 9
M  V30 9 2 9 10
M  V30 10 1 9 11
M  V30 11 2 11 12
M  V30 12 1 12 13
M  V30 13 1 12 14
M  V30 14 2 14 15
M  V30 15 1 15 16
M  V30 16 2 16 17
M  V30 17 1 17 18
M  V30 18 2 18 19
M  V30 19 1 19 20
M  V30 20 1 20 21
M  V30 21 1 19 22
M  V30 22 2 22 23
M  V30 23 1 6 24
M  V30 24 2 24 25
M  V30 25 1 25 3
M  V30 26 1 23 16
M  V30 27 1 1 26
M  V30 28 1 1 27
M  V30 29 1 1 28
M  V30 30 1 4 29
M  V30 31 1 5 30
M  V30 32 1 7 31
M  V30 33 1 8 32
M  V30 34 1 11 33
M  V30 35 1 13 34
M  V30 36 1 14 35
M  V30 37 1 15 36
M  V30 38 1 17 37
M  V30 39 1 18 38
M  V30 40 1 21 39
M  V30 41 1 21 40
M  V30 42 1 21 41
M  V30 43 1 22 42
M  V30 44 1 23 43
M  V30 45 1 24 44
M  V30 46 1 25 45
M  V30 END BOND
M  V30 END CTAB
M  END
>  <Dataset>  (392) 
ChEMBL_Kinases

>  <Ligand_Instance>  (392) 
nan

>  <PDB_ID>  (392) 
nan

>  <Standardized_SMILES>  (392) 
COc1ccc(/C=C/C(=O)/C=C(O)/C=C/c2ccc(OC)cc2)cc1

>  <Name>  (392) 
nan

>  <Pocket>  (392) 
nan

>  <ATP_Site>  (392) 
nan

>  <Peripheral>  (392) 
nan

>  <Num_H_Atoms_ProtBoundConf>  (392) 
nan

>  <Num_Resolved_Atoms>  (392) 
nan

>  <Num_Not_Resolved_Atoms>  (392) 
nan

$$$$
CHEMBL4639860
     RDKit          3D

  0  0  0  0  0  0  0  0  0  0999 V3000
M  V30 BEGIN CTAB
M  V30 COUNTS 47 49 0 0 0
M  V30 BEGIN ATOM
M  V30 1 C -3.054411 -8.069214 -3.769574 0
M  V30 2 N -2.899355 -7.455251 -2.476205 0
M  V30 3 C -2.454046 -6.108566 -2.410068 0
M  V30 4 O -2.188802 -5.428425 -3.438004 0
M  V30 5 N -2.319313 -5.554335 -1.105479 0
M  V30 6 C -1.895182 -4.235971 -0.729243 0
M  V30 7 C -0.538904 -4.126210 -0.539277 0
M  V30 8 C 0.004787 -2.915405 -0.175201 0
M  V30 9 C -0.779958 -1.794129 0.007241 0
M  V30 10 C -0.310739 -0.465571 0.391676 0
M  V30 11 C -0.734272 0.722474 -0.217612 0
M  V30 12 N -0.089341 1.752928 0.398203 0
M  V30 13 C 0.673374 1.193355 1.321871 0
M  V30 14 C 1.553772 1.755249 2.255385 0
M  V30 15 N 1.740160 3.175209 2.310072 0
M  V30 16 C 2.626207 3.845429 3.237891 0
M  V30 17 C 2.615041 5.344152 3.060567 0
M  V30 18 C 1.270500 5.952610 3.267608 0
M  V30 19 C 3.580901 5.947076 4.059208 0
M  V30 20 N 2.267211 1.023589 3.142314 0
M  V30 21 C 2.143166 -0.320788 3.149823 0
M  V30 22 C 1.281848 -0.901086 2.239886 0
M  V30 23 N 0.583387 -0.149306 1.367669 0
M  V30 24 C -2.147595 -1.927566 -0.189932 0
M  V30 25 C -2.718599 -3.142591 -0.558325 0
M  V30 26 H -4.100151 -8.468766 -3.883955 0
M  V30 27 H -2.784763 -7.388004 -4.579452 0
M  V30 28 H -2.402843 -8.985379 -3.813876 0
M  V30 29 H -3.131308 -8.060105 -1.663799 0
M  V30 30 H -2.543245 -6.128468 -0.237811 0
M  V30 31 H 0.162358 -4.945443 -0.657201 0
M  V30 32 H 1.067405 -2.785600 -0.015664 0
M  V30 33 H -1.439587 0.774839 -1.020664 0
M  V30 34 H 1.206752 3.782363 1.640586 0
M  V30 35 H 3.639923 3.450062 3.271833 0
M  V30 36 H 2.187147 3.642418 4.254055 0
M  V30 37 H 2.960494 5.551036 2.026922 0
M  V30 38 H 0.597499 5.833356 2.401140 0
M  V30 39 H 1.439512 7.066306 3.347062 0
M  V30 40 H 0.819466 5.674929 4.230228 0
M  V30 41 H 3.210320 6.945906 4.426817 0
M  V30 42 H 3.699621 5.304608 4.956423 0
M  V30 43 H 4.578273 6.068021 3.584533 0
M  V30 44 H 2.681174 -0.947918 3.826988 0
M  V30 45 H 1.177734 -1.976804 2.240554 0
M  V30 46 H -2.895089 -1.128888 -0.082580 0
M  V30 47 H -3.750443 -3.340401 -0.731033 0
M  V30 END ATOM
M  V30 BEGIN BOND
M  V30 1 1 1 2
M  V30 2 1 2 3
M  V30 3 2 3 4
M  V30 4 1 3 5
M  V30 5 1 5 6
M  V30 6 2 6 7
M  V30 7 1 7 8
M  V30 8 2 8 9
M  V30 9 1 9 10
M  V30 10 2 10 11
M  V30 11 1 11 12
M  V30 12 2 12 13
M  V30 13 1 13 14
M  V30 14 1 14 15
M  V30 15 1 15 16
M  V30 16 1 16 17
M  V30 17 1 17 18
M  V30 18 1 17 19
M  V30 19 2 14 20
M  V30 20 1 20 21
M  V30 21 2 21 22
M  V30 22 1 22 23
M  V30 23 1 9 24
M  V30 24 2 24 25
M  V30 25 1 25 6
M  V30 26 1 23 10
M  V30 27 1 23 13
M  V30 28 1 1 26
M  V30 29 1 1 27
M  V30 30 1 1 28
M  V30 31 1 2 29
M  V30 32 1 5 30
M  V30 33 1 7 31
M  V30 34 1 8 32
M  V30 35 1 11 33
M  V30 36 1 15 34
M  V30 37 1 16 35
M  V30 38 1 16 36
M  V30 39 1 17 37
M  V30 40 1 18 38
M  V30 41 1 18 39
M  V30 42 1 18 40
M  V30 43 1 19 41
M  V30 44 1 19 42
M  V30 45 1 19 43
M  V30 46 1 21 44
M  V30 47 1 22 45
M  V30 48 1 24 46
M  V30 49 1 25 47
M  V30 END BOND
M  V30 END CTAB
M  END
>  <Dataset>  (393) 
ChEMBL_Kinases

>  <Ligand_Instance>  (393) 
nan

>  <PDB_ID>  (393) 
nan

>  <Standardized_SMILES>  (393) 
CNC(=O)Nc1ccc(-c2cnc3c(NCC(C)C)nccn23)cc1

>  <Name>  (393) 
nan

>  <Pocket>  (393) 
nan

>  <ATP_Site>  (393) 
nan

>  <Peripheral>  (393) 
nan

>  <Num_H_Atoms_ProtBoundConf>  (393) 
nan

>  <Num_Resolved_Atoms>  (393) 
nan

>  <Num_Not_Resolved_Atoms>  (393) 
nan

$$$$
CHEMBL454646
     RDKit          3D

  0  0  0  0  0  0  0  0  0  0999 V3000
M  V30 BEGIN CTAB
M  V30 COUNTS 52 54 0 0 0
M  V30 BEGIN ATOM
M  V30 1 C 3.964255 -4.601286 2.551666 0
M  V30 2 C 3.937787 -4.784559 1.026916 0
M  V30 3 C 2.500171 -4.940198 0.664541 0
M  V30 4 N 2.407503 -4.945376 -0.784547 0
M  V30 5 C 2.639756 -3.599397 -1.201889 0
M  V30 6 C 3.982792 -3.048305 -0.807713 0
M  V30 7 C 3.807705 -1.565571 -0.683017 0
M  V30 8 O 4.368605 -0.595377 -1.294822 0
M  V30 9 N 2.847979 -1.188132 0.287698 0
M  V30 10 C 2.375063 0.140108 0.724052 0
M  V30 11 N 2.708242 0.865548 1.525505 0
M  V30 12 C 2.239077 2.048465 1.867399 0
M  V30 13 C 1.170131 2.521749 1.164042 0
M  V30 14 S 0.201151 4.017386 1.238953 0
M  V30 15 C -1.215274 3.820998 2.377809 0
M  V30 16 C -2.176859 2.811268 1.831952 0
M  V30 17 N -2.095157 1.479700 2.116860 0
M  V30 18 C -3.128342 0.889502 1.447164 0
M  V30 19 C -3.796696 1.900189 0.779413 0
M  V30 20 C -4.966552 1.477251 -0.020758 0
M  V30 21 C -5.636351 2.645873 -0.719393 0
M  V30 22 C -5.942057 0.821959 0.943822 0
M  V30 23 C -4.571433 0.474182 -1.092107 0
M  V30 24 O -3.201364 3.048344 1.029360 0
M  V30 25 S 0.903650 1.078680 -0.052223 0
M  V30 26 C 4.661508 -3.696521 0.326881 0
M  V30 27 H 3.722305 -5.543290 3.066638 0
M  V30 28 H 4.958284 -4.251353 2.878407 0
M  V30 29 H 3.239910 -3.838402 2.892647 0
M  V30 30 H 4.421567 -5.784976 0.880621 0
M  V30 31 H 1.839645 -4.172683 1.117301 0
M  V30 32 H 2.177170 -5.967344 0.976754 0
M  V30 33 H 1.452155 -5.204979 -1.098511 0
M  V30 34 H 1.840645 -2.972348 -0.735818 0
M  V30 35 H 2.451242 -3.551653 -2.302987 0
M  V30 36 H 4.597962 -3.145857 -1.747812 0
M  V30 37 H 2.284225 -1.822504 0.889856 0
M  V30 38 H 2.657452 2.650083 2.666782 0
M  V30 39 H -0.813032 3.451207 3.339511 0
M  V30 40 H -1.669415 4.812649 2.512981 0
M  V30 41 H -3.210660 -0.175160 1.564212 0
M  V30 42 H -6.382689 2.207510 -1.430172 0
M  V30 43 H -4.859636 3.226814 -1.264354 0
M  V30 44 H -6.132028 3.331178 -0.017715 0
M  V30 45 H -5.325587 0.210064 1.646336 0
M  V30 46 H -6.703882 0.223423 0.409883 0
M  V30 47 H -6.392448 1.647362 1.542314 0
M  V30 48 H -5.437066 0.390334 -1.779642 0
M  V30 49 H -4.277745 -0.495788 -0.693375 0
M  V30 50 H -3.719449 0.890089 -1.671225 0
M  V30 51 H 5.652272 -4.124643 -0.016468 0
M  V30 52 H 5.007852 -2.962756 1.109963 0
M  V30 END ATOM
M  V30 BEGIN BOND
M  V30 1 1 1 2
M  V30 2 1 2 3
M  V30 3 1 3 4
M  V30 4 1 4 5
M  V30 5 1 5 6
M  V30 6 1 6 7
M  V30 7 2 7 8
M  V30 8 1 7 9
M  V30 9 1 9 10
M  V30 10 2 10 11
M  V30 11 1 11 12
M  V30 12 2 12 13
M  V30 13 1 13 14
M  V30 14 1 14 15
M  V30 15 1 15 16
M  V30 16 2 16 17
M  V30 17 1 17 18
M  V30 18 2 18 19
M  V30 19 1 19 20
M  V30 20 1 20 21
M  V30 21 1 20 22
M  V30 22 1 20 23
M  V30 23 1 19 24
M  V30 24 1 13 25
M  V30 25 1 6 26
M  V30 26 1 26 2
M  V30 27 1 25 10
M  V30 28 1 24 16
M  V30 29 1 1 27
M  V30 30 1 1 28
M  V30 31 1 1 29
M  V30 32 1 2 30
M  V30 33 1 3 31
M  V30 34 1 3 32
M  V30 35 1 4 33
M  V30 36 1 5 34
M  V30 37 1 5 35
M  V30 38 1 6 36
M  V30 39 1 9 37
M  V30 40 1 12 38
M  V30 41 1 15 39
M  V30 42 1 15 40
M  V30 43 1 18 41
M  V30 44 1 21 42
M  V30 45 1 21 43
M  V30 46 1 21 44
M  V30 47 1 22 45
M  V30 48 1 22 46
M  V30 49 1 22 47
M  V30 50 1 23 48
M  V30 51 1 23 49
M  V30 52 1 23 50
M  V30 53 1 26 51
M  V30 54 1 26 52
M  V30 END BOND
M  V30 END CTAB
M  END
>  <Dataset>  (394) 
ChEMBL_Kinases

>  <Ligand_Instance>  (394) 
nan

>  <PDB_ID>  (394) 
nan

>  <Standardized_SMILES>  (394) 
CC1CNCC(C(=O)Nc2ncc(SCc3ncc(C(C)(C)C)o3)s2)C1

>  <Name>  (394) 
nan

>  <Pocket>  (394) 
nan

>  <ATP_Site>  (394) 
nan

>  <Peripheral>  (394) 
nan

>  <Num_H_Atoms_ProtBoundConf>  (394) 
nan

>  <Num_Resolved_Atoms>  (394) 
nan

>  <Num_Not_Resolved_Atoms>  (394) 
nan

$$$$
CHEMBL454645
     RDKit          3D

  0  0  0  0  0  0  0  0  0  0999 V3000
M  V30 BEGIN CTAB
M  V30 COUNTS 52 54 0 0 0
M  V30 BEGIN ATOM
M  V30 1 C 3.533778 -7.163161 1.778369 0
M  V30 2 C 2.474425 -6.850143 0.741179 0
M  V30 3 C 1.257491 -6.202312 1.346506 0
M  V30 4 C 1.257566 -4.702292 1.153438 0
M  V30 5 C 2.675065 -4.292245 0.957894 0
M  V30 6 C 2.871473 -2.806153 1.098977 0
M  V30 7 O 3.618320 -2.203515 1.946754 0
M  V30 8 N 2.179929 -1.964768 0.227649 0
M  V30 9 C 2.264963 -0.518506 0.239710 0
M  V30 10 N 2.936790 0.262524 -0.280015 0
M  V30 11 C 2.915627 1.567885 -0.184984 0
M  V30 12 C 1.996412 2.087077 0.620244 0
M  V30 13 S 1.574102 3.781115 1.076256 0
M  V30 14 C 0.176894 3.772065 2.258320 0
M  V30 15 C -1.064849 3.276701 1.650707 0
M  V30 16 N -1.476314 1.996808 1.620551 0
M  V30 17 C -2.667959 2.000148 0.964148 0
M  V30 18 C -2.947108 3.300676 0.611193 0
M  V30 19 C -4.174335 3.671662 -0.120962 0
M  V30 20 C -5.044341 2.466651 -0.412637 0
M  V30 21 C -3.856299 4.311839 -1.465348 0
M  V30 22 C -5.035091 4.670316 0.643581 0
M  V30 23 O -1.956668 4.035924 1.043477 0
M  V30 24 S 1.172775 0.615872 1.227104 0
M  V30 25 C 3.174312 -4.799907 -0.355950 0
M  V30 26 N 2.990071 -6.210868 -0.422519 0
M  V30 27 H 3.740161 -8.260898 1.862117 0
M  V30 28 H 4.523755 -6.720186 1.552560 0
M  V30 29 H 3.124454 -6.888772 2.772305 0
M  V30 30 H 2.106198 -7.862773 0.389682 0
M  V30 31 H 0.308017 -6.633880 0.960856 0
M  V30 32 H 1.252416 -6.394601 2.456661 0
M  V30 33 H 0.639898 -4.511159 0.228301 0
M  V30 34 H 0.772414 -4.221956 2.029283 0
M  V30 35 H 3.264646 -4.701794 1.802499 0
M  V30 36 H 1.516831 -2.266627 -0.539911 0
M  V30 37 H 3.590153 2.265132 -0.711726 0
M  V30 38 H 0.103418 4.765476 2.725144 0
M  V30 39 H 0.487046 3.044089 3.050889 0
M  V30 40 H -3.170117 1.052125 0.833122 0
M  V30 41 H -6.113573 2.758679 -0.537236 0
M  V30 42 H -5.037551 1.790565 0.479240 0
M  V30 43 H -4.719082 1.888061 -1.298155 0
M  V30 44 H -3.658418 3.554916 -2.251875 0
M  V30 45 H -2.960673 4.964456 -1.416883 0
M  V30 46 H -4.717190 4.916386 -1.822136 0
M  V30 47 H -4.896485 5.703846 0.215762 0
M  V30 48 H -6.121822 4.443883 0.468137 0
M  V30 49 H -4.847321 4.665769 1.725574 0
M  V30 50 H 2.596380 -4.345116 -1.188705 0
M  V30 51 H 4.212443 -4.455439 -0.496673 0
M  V30 52 H 2.521316 -6.550121 -1.268784 0
M  V30 END ATOM
M  V30 BEGIN BOND
M  V30 1 1 1 2
M  V30 2 1 2 3
M  V30 3 1 3 4
M  V30 4 1 4 5
M  V30 5 1 5 6
M  V30 6 2 6 7
M  V30 7 1 6 8
M  V30 8 1 8 9
M  V30 9 2 9 10
M  V30 10 1 10 11
M  V30 11 2 11 12
M  V30 12 1 12 13
M  V30 13 1 13 14
M  V30 14 1 14 15
M  V30 15 2 15 16
M  V30 16 1 16 17
M  V30 17 2 17 18
M  V30 18 1 18 19
M  V30 19 1 19 20
M  V30 20 1 19 21
M  V30 21 1 19 22
M  V30 22 1 18 23
M  V30 23 1 12 24
M  V30 24 1 5 25
M  V30 25 1 25 26
M  V30 26 1 26 2
M  V30 27 1 24 9
M  V30 28 1 23 15
M  V30 29 1 1 27
M  V30 30 1 1 28
M  V30 31 1 1 29
M  V30 32 1 2 30
M  V30 33 1 3 31
M  V30 34 1 3 32
M  V30 35 1 4 33
M  V30 36 1 4 34
M  V30 37 1 5 35
M  V30 38 1 8 36
M  V30 39 1 11 37
M  V30 40 1 14 38
M  V30 41 1 14 39
M  V30 42 1 17 40
M  V30 43 1 20 41
M  V30 44 1 20 42
M  V30 45 1 20 43
M  V30 46 1 21 44
M  V30 47 1 21 45
M  V30 48 1 21 46
M  V30 49 1 22 47
M  V30 50 1 22 48
M  V30 51 1 22 49
M  V30 52 1 25 50
M  V30 53 1 25 51
M  V30 54 1 26 52
M  V30 END BOND
M  V30 END CTAB
M  END
>  <Dataset>  (395) 
ChEMBL_Kinases

>  <Ligand_Instance>  (395) 
nan

>  <PDB_ID>  (395) 
nan

>  <Standardized_SMILES>  (395) 
CC1CCC(C(=O)Nc2ncc(SCc3ncc(C(C)(C)C)o3)s2)CN1

>  <Name>  (395) 
nan

>  <Pocket>  (395) 
nan

>  <ATP_Site>  (395) 
nan

>  <Peripheral>  (395) 
nan

>  <Num_H_Atoms_ProtBoundConf>  (395) 
nan

>  <Num_Resolved_Atoms>  (395) 
nan

>  <Num_Not_Resolved_Atoms>  (395) 
nan

$$$$
CHEMBL4546415
     RDKit          3D

  0  0  0  0  0  0  0  0  0  0999 V3000
M  V30 BEGIN CTAB
M  V30 COUNTS 45 48 0 0 0
M  V30 BEGIN ATOM
M  V30 1 C 7.122773 -0.964115 -2.022232 0
M  V30 2 O 6.399562 -0.259821 -1.034436 0
M  V30 3 C 5.011708 -0.250558 -0.982006 0
M  V30 4 N 4.331678 -0.955581 -1.930630 0
M  V30 5 C 2.968519 -0.949775 -1.883653 0
M  V30 6 N 2.161632 -1.657792 -2.832756 0
M  V30 7 N 2.283770 -0.275870 -0.938704 0
M  V30 8 C 2.933450 0.431724 0.014320 0
M  V30 9 C 4.313026 0.440434 -0.013196 0
M  V30 10 C 4.812746 1.206894 1.024948 0
M  V30 11 C 3.699472 1.663181 1.683343 0
M  V30 12 N 2.577997 1.198282 1.077072 0
M  V30 13 C 1.209538 1.426181 1.429180 0
M  V30 14 C 0.764898 2.742952 1.461829 0
M  V30 15 C -0.572679 2.957497 1.806545 0
M  V30 16 C -1.448494 1.931568 2.108999 0
M  V30 17 C -0.935900 0.629971 2.057122 0
M  V30 18 C -1.883852 -0.411597 2.379974 0
M  V30 19 C -2.694203 -1.274650 2.643925 0
M  V30 20 C -3.692017 -2.300230 2.965983 0
M  V30 21 C -4.318944 -1.949827 4.290727 0
M  V30 22 O -3.087896 -3.561070 3.128636 0
M  V30 23 C -4.682499 -2.339254 1.871098 0
M  V30 24 N -5.852082 -2.199018 1.554047 0
M  V30 25 C -6.288230 -2.363752 0.318636 0
M  V30 26 C -5.288085 -2.746483 -0.763211 0
M  V30 27 S -3.786254 -2.805394 0.267161 0
M  V30 28 C 0.374524 0.362079 1.723200 0
M  V30 29 H 6.563891 -1.023186 -2.998720 0
M  V30 30 H 8.088588 -0.474106 -2.261902 0
M  V30 31 H 7.349216 -2.013508 -1.746909 0
M  V30 32 H 1.642959 -2.535580 -2.645673 0
M  V30 33 H 1.923618 -1.485318 -3.831918 0
M  V30 34 H 5.815393 1.450014 1.330086 0
M  V30 35 H 3.583968 2.298944 2.559638 0
M  V30 36 H 1.428651 3.571084 1.229279 0
M  V30 37 H -0.977035 3.976939 1.847950 0
M  V30 38 H -2.484699 2.139740 2.373282 0
M  V30 39 H -5.133132 -1.216519 4.123076 0
M  V30 40 H -3.521887 -1.574173 4.964221 0
M  V30 41 H -4.688463 -2.890809 4.746677 0
M  V30 42 H -2.484993 -3.696484 2.331140 0
M  V30 43 H -7.378283 -2.172274 0.336119 0
M  V30 44 H -6.045287 -2.805858 -1.741190 0
M  V30 45 H 0.712171 -0.647891 1.699069 0
M  V30 END ATOM
M  V30 BEGIN BOND
M  V30 1 1 1 2
M  V30 2 1 2 3
M  V30 3 2 3 4
M  V30 4 1 4 5
M  V30 5 1 5 6
M  V30 6 2 5 7
M  V30 7 1 7 8
M  V30 8 2 8 9
M  V30 9 1 9 10
M  V30 10 2 10 11
M  V30 11 1 11 12
M  V30 12 1 12 13
M  V30 13 2 13 14
M  V30 14 1 14 15
M  V30 15 2 15 16
M  V30 16 1 16 17
M  V30 17 1 17 18
M  V30 18 3 18 19
M  V30 19 1 19 20
M  V30 20 1 20 21
M  V30 21 1 20 22
M  V30 22 1 20 23
M  V30 23 2 23 24
M  V30 24 1 24 25
M  V30 25 2 25 26
M  V30 26 1 26 27
M  V30 27 2 17 28
M  V30 28 1 9 3
M  V30 29 1 28 13
M  V30 30 1 12 8
M  V30 31 1 27 23
M  V30 32 1 1 29
M  V30 33 1 1 30
M  V30 34 1 1 31
M  V30 35 1 6 32
M  V30 36 1 6 33
M  V30 37 1 10 34
M  V30 38 1 11 35
M  V30 39 1 14 36
M  V30 40 1 15 37
M  V30 41 1 16 38
M  V30 42 1 21 39
M  V30 43 1 21 40
M  V30 44 1 21 41
M  V30 45 1 22 42
M  V30 46 1 25 43
M  V30 47 1 26 44
M  V30 48 1 28 45
M  V30 END BOND
M  V30 END CTAB
M  END
>  <Dataset>  (396) 
ChEMBL_Kinases

>  <Ligand_Instance>  (396) 
nan

>  <PDB_ID>  (396) 
nan

>  <Standardized_SMILES>  (396) 
COc1nc(N)nc2c1ccn2-c1cccc(C#CC(C)(O)c2nccs2)c1

>  <Name>  (396) 
nan

>  <Pocket>  (396) 
nan

>  <ATP_Site>  (396) 
nan

>  <Peripheral>  (396) 
nan

>  <Num_H_Atoms_ProtBoundConf>  (396) 
nan

>  <Num_Resolved_Atoms>  (396) 
nan

>  <Num_Not_Resolved_Atoms>  (396) 
nan

$$$$
CHEMBL4544916
     RDKit          3D

  0  0  0  0  0  0  0  0  0  0999 V3000
M  V30 BEGIN CTAB
M  V30 COUNTS 65 70 0 0 0
M  V30 BEGIN ATOM
M  V30 1 C 5.683374 1.468444 7.007526 0
M  V30 2 N 4.559181 2.372110 7.097902 0
M  V30 3 C 3.314640 1.722167 7.325016 0
M  V30 4 C 2.582278 1.322567 6.071769 0
M  V30 5 N 3.100731 2.003301 4.874525 0
M  V30 6 C 2.507243 1.573654 3.647388 0
M  V30 7 C 1.434791 0.677799 3.656685 0
M  V30 8 C 0.896126 0.287537 2.450708 0
M  V30 9 C 1.326650 0.708104 1.213176 0
M  V30 10 N 0.774993 0.318769 -0.032279 0
M  V30 11 C -0.375219 -0.479372 -0.267005 0
M  V30 12 N -1.176183 -0.993999 0.672768 0
M  V30 13 C -2.263208 -1.745829 0.461571 0
M  V30 14 C -2.614423 -2.033355 -0.836886 0
M  V30 15 C -3.720456 -2.799522 -1.137886 0
M  V30 16 O -4.435941 -3.255010 -0.182764 0
M  V30 17 C -3.998097 -3.035362 -2.472702 0
M  V30 18 C -5.163498 -3.840723 -2.826677 0
M  V30 19 C -6.347455 -3.151124 -3.011180 0
M  V30 20 Cl -6.473798 -1.399569 -2.835685 0
M  V30 21 C -7.506280 -3.844601 -3.352583 0
M  V30 22 C -7.485273 -5.219420 -3.509489 0
M  V30 23 C -6.272782 -5.885193 -3.315762 0
M  V30 24 C -5.117394 -5.205164 -2.976689 0
M  V30 25 Cl -3.606569 -6.047352 -2.737205 0
M  V30 26 C -3.176878 -2.508497 -3.448716 0
M  V30 27 N -2.095938 -1.759010 -3.116881 0
M  V30 28 C -1.254632 -1.228731 -4.123575 0
M  V30 29 C -0.647937 -2.284715 -4.815708 0
M  V30 30 C 0.239216 -2.058745 -5.867650 0
M  V30 31 C 0.505146 -0.748163 -6.210806 0
M  V30 32 C -0.086862 0.303889 -5.535691 0
M  V30 33 C -0.971973 0.053177 -4.485770 0
M  V30 34 C -1.794937 -1.507730 -1.811020 0
M  V30 35 N -0.717271 -0.759916 -1.533612 0
M  V30 36 C 2.383007 1.588885 1.238611 0
M  V30 37 C 2.953553 2.007047 2.416917 0
M  V30 38 C 4.125361 3.053709 4.749558 0
M  V30 39 C 4.568135 3.402804 6.121162 0
M  V30 40 H 6.613484 2.057715 6.995497 0
M  V30 41 H 5.638718 0.754865 7.855612 0
M  V30 42 H 5.604000 0.878389 6.068493 0
M  V30 43 H 2.699620 2.349889 8.003931 0
M  V30 44 H 3.528323 0.784309 7.883055 0
M  V30 45 H 2.567077 0.229232 5.919381 0
M  V30 46 H 1.530679 1.655978 6.173532 0
M  V30 47 H 1.025101 0.291701 4.604127 0
M  V30 48 H 0.081593 -0.398207 2.523263 0
M  V30 49 H 1.286492 0.666626 -0.889865 0
M  V30 50 H -2.866151 -2.129035 1.265072 0
M  V30 51 H -8.436109 -3.273098 -3.493416 0
M  V30 52 H -8.419951 -5.702228 -3.776272 0
M  V30 53 H -6.282675 -6.973378 -3.446717 0
M  V30 54 H -3.371606 -2.676679 -4.509450 0
M  V30 55 H -0.771193 -3.358216 -4.646130 0
M  V30 56 H 0.732370 -2.820660 -6.432268 0
M  V30 57 H 1.181481 -0.487739 -7.015150 0
M  V30 58 H 0.072039 1.348333 -5.747471 0
M  V30 59 H -1.504902 0.771907 -3.873361 0
M  V30 60 H 2.808549 1.990113 0.313736 0
M  V30 61 H 3.796421 2.713826 2.376328 0
M  V30 62 H 4.931773 2.664697 4.128580 0
M  V30 63 H 3.606253 3.917786 4.259956 0
M  V30 64 H 5.626869 3.764021 6.040434 0
M  V30 65 H 3.989264 4.299185 6.462833 0
M  V30 END ATOM
M  V30 BEGIN BOND
M  V30 1 1 1 2
M  V30 2 1 2 3
M  V30 3 1 3 4
M  V30 4 1 4 5
M  V30 5 1 5 6
M  V30 6 2 6 7
M  V30 7 1 7 8
M  V30 8 2 8 9
M  V30 9 1 9 10
M  V30 10 1 10 11
M  V30 11 2 11 12
M  V30 12 1 12 13
M  V30 13 2 13 14
M  V30 14 1 14 15
M  V30 15 2 15 16
M  V30 16 1 15 17
M  V30 17 1 17 18
M  V30 18 2 18 19
M  V30 19 1 19 20
M  V30 20 1 19 21
M  V30 21 2 21 22
M  V30 22 1 22 23
M  V30 23 2 23 24
M  V30 24 1 24 25
M  V30 25 2 17 26
M  V30 26 1 26 27
M  V30 27 1 27 28
M  V30 28 2 28 29
M  V30 29 1 29 30
M  V30 30 2 30 31
M  V30 31 1 31 32
M  V30 32 2 32 33
M  V30 33 1 27 34
M  V30 34 2 34 35
M  V30 35 1 9 36
M  V30 36 2 36 37
M  V30 37 1 5 38
M  V30 38 1 38 39
M  V30 39 1 39 2
M  V30 40 1 37 6
M  V30 41 1 35 11
M  V30 42 1 34 14
M  V30 43 1 24 18
M  V30 44 1 33 28
M  V30 45 1 1 40
M  V30 46 1 1 41
M  V30 47 1 1 42
M  V30 48 1 3 43
M  V30 49 1 3 44
M  V30 50 1 4 45
M  V30 51 1 4 46
M  V30 52 1 7 47
M  V30 53 1 8 48
M  V30 54 1 10 49
M  V30 55 1 13 50
M  V30 56 1 21 51
M  V30 57 1 22 52
M  V30 58 1 23 53
M  V30 59 1 26 54
M  V30 60 1 29 55
M  V30 61 1 30 56
M  V30 62 1 31 57
M  V30 63 1 32 58
M  V30 64 1 33 59
M  V30 65 1 36 60
M  V30 66 1 37 61
M  V30 67 1 38 62
M  V30 68 1 38 63
M  V30 69 1 39 64
M  V30 70 1 39 65
M  V30 END BOND
M  V30 END CTAB
M  END
>  <Dataset>  (397) 
ChEMBL_Kinases

>  <Ligand_Instance>  (397) 
nan

>  <PDB_ID>  (397) 
nan

>  <Standardized_SMILES>  (397) 
CN1CCN(c2ccc(Nc3ncc4c(=O)c(-c5c(Cl)cccc5Cl)cn(-c5ccccc5)c4n3)cc2)CC1

>  <Name>  (397) 
nan

>  <Pocket>  (397) 
nan

>  <ATP_Site>  (397) 
nan

>  <Peripheral>  (397) 
nan

>  <Num_H_Atoms_ProtBoundConf>  (397) 
nan

>  <Num_Resolved_Atoms>  (397) 
nan

>  <Num_Not_Resolved_Atoms>  (397) 
nan

$$$$
CHEMBL4546384
     RDKit          3D

  0  0  0  0  0  0  0  0  0  0999 V3000
M  V30 BEGIN CTAB
M  V30 COUNTS 43 45 0 0 0
M  V30 BEGIN ATOM
M  V30 1 C -2.564102 -6.004737 -0.568280 0
M  V30 2 O -2.438164 -5.238115 -1.736710 0
M  V30 3 C -1.353633 -4.424640 -2.017538 0
M  V30 4 C -0.296763 -4.312761 -1.141244 0
M  V30 5 C 0.743873 -3.481883 -1.495058 0
M  V30 6 C 0.827238 -2.743996 -2.656581 0
M  V30 7 C 1.975199 -1.858465 -2.987383 0
M  V30 8 N 1.753620 -0.506561 -2.509331 0
M  V30 9 C 1.856958 -0.040075 -1.190221 0
M  V30 10 O 2.171705 -0.811896 -0.264578 0
M  V30 11 N 1.615680 1.315913 -0.818733 0
M  V30 12 C 1.735987 1.728745 0.539480 0
M  V30 13 N 2.724012 2.212445 1.322080 0
M  V30 14 C 2.240392 2.431845 2.572514 0
M  V30 15 C 2.853591 2.913054 3.709067 0
M  V30 16 C 2.144772 3.056287 4.905835 0
M  V30 17 C 0.817478 2.699933 4.905410 0
M  V30 18 C 0.122279 2.864870 6.166403 0
M  V30 19 O 0.848082 3.334988 7.118796 0
M  V30 20 C -1.159160 2.700450 6.835690 0
M  V30 21 Br -2.477607 1.939769 5.635263 0
M  V30 22 C 0.249235 2.224595 3.746916 0
M  V30 23 C 0.910094 2.067798 2.547754 0
M  V30 24 N 0.616619 1.643162 1.308996 0
M  V30 25 C -0.257945 -2.894818 -3.496170 0
M  V30 26 C -1.347181 -3.717045 -3.205735 0
M  V30 27 H -2.150492 -5.531214 0.343591 0
M  V30 28 H -2.014190 -6.971264 -0.715806 0
M  V30 29 H -3.626249 -6.276573 -0.411446 0
M  V30 30 H -0.303054 -4.859804 -0.222915 0
M  V30 31 H 1.547401 -3.432548 -0.772254 0
M  V30 32 H 2.049624 -1.836478 -4.080945 0
M  V30 33 H 2.911542 -2.201696 -2.496390 0
M  V30 34 H 1.478766 0.254712 -3.199346 0
M  V30 35 H 1.346165 2.013015 -1.560387 0
M  V30 36 H 3.897111 3.171367 3.629697 0
M  V30 37 H 2.756764 3.444841 5.711182 0
M  V30 38 H -1.100166 1.978148 7.701306 0
M  V30 39 H -1.521833 3.673528 7.242095 0
M  V30 40 H -0.774990 1.944888 3.725433 0
M  V30 41 H -0.359655 1.320903 1.092618 0
M  V30 42 H -0.281141 -2.344339 -4.449637 0
M  V30 43 H -2.192896 -3.825728 -3.874650 0
M  V30 END ATOM
M  V30 BEGIN BOND
M  V30 1 1 1 2
M  V30 2 1 2 3
M  V30 3 2 3 4
M  V30 4 1 4 5
M  V30 5 2 5 6
M  V30 6 1 6 7
M  V30 7 1 7 8
M  V30 8 1 8 9
M  V30 9 2 9 10
M  V30 10 1 9 11
M  V30 11 1 11 12
M  V30 12 2 12 13
M  V30 13 1 13 14
M  V30 14 2 14 15
M  V30 15 1 15 16
M  V30 16 2 16 17
M  V30 17 1 17 18
M  V30 18 2 18 19
M  V30 19 1 18 20
M  V30 20 1 20 21
M  V30 21 1 17 22
M  V30 22 2 22 23
M  V30 23 1 23 24
M  V30 24 1 6 25
M  V30 25 2 25 26
M  V30 26 1 26 3
M  V30 27 1 24 12
M  V30 28 1 23 14
M  V30 29 1 1 27
M  V30 30 1 1 28
M  V30 31 1 1 29
M  V30 32 1 4 30
M  V30 33 1 5 31
M  V30 34 1 7 32
M  V30 35 1 7 33
M  V30 36 1 8 34
M  V30 37 1 11 35
M  V30 38 1 15 36
M  V30 39 1 16 37
M  V30 40 1 20 38
M  V30 41 1 20 39
M  V30 42 1 22 40
M  V30 43 1 24 41
M  V30 44 1 25 42
M  V30 45 1 26 43
M  V30 END BOND
M  V30 END CTAB
M  END
>  <Dataset>  (398) 
ChEMBL_Kinases

>  <Ligand_Instance>  (398) 
nan

>  <PDB_ID>  (398) 
nan

>  <Standardized_SMILES>  (398) 
COc1ccc(CNC(=O)Nc2nc3ccc(C(=O)CBr)cc3[nH]2)cc1

>  <Name>  (398) 
nan

>  <Pocket>  (398) 
nan

>  <ATP_Site>  (398) 
nan

>  <Peripheral>  (398) 
nan

>  <Num_H_Atoms_ProtBoundConf>  (398) 
nan

>  <Num_Resolved_Atoms>  (398) 
nan

>  <Num_Not_Resolved_Atoms>  (398) 
nan

$$$$
CHEMBL4546314
     RDKit          3D

  0  0  0  0  0  0  0  0  0  0999 V3000
M  V30 BEGIN CTAB
M  V30 COUNTS 40 44 0 0 0
M  V30 BEGIN ATOM
M  V30 1 C 0.786978 -4.920524 1.982697 0
M  V30 2 C 0.927150 -3.566802 2.676048 0
M  V30 3 N 0.818947 -2.364431 1.936035 0
M  V30 4 C 0.107607 -1.407825 1.184961 0
M  V30 5 N 0.713193 -0.319230 0.679986 0
M  V30 6 C 0.073411 0.606571 -0.033289 0
M  V30 7 C 0.849741 1.737964 -0.522080 0
M  V30 8 C 2.197303 1.864981 -0.267164 0
M  V30 9 C 2.922325 2.948453 -0.739772 0
M  V30 10 C 2.192767 3.870946 -1.473200 0
M  V30 11 N 2.612837 5.011222 -2.054882 0
M  V30 12 N 1.623286 5.635576 -2.673133 0
M  V30 13 C 0.488101 4.896589 -2.508257 0
M  V30 14 C 0.844632 3.785250 -1.753078 0
M  V30 15 C 0.163090 2.679771 -1.256564 0
M  V30 16 N -1.235301 0.456795 -0.264910 0
M  V30 17 C -1.966184 -0.564130 0.168866 0
M  V30 18 C -3.311482 -0.700321 -0.076968 0
M  V30 19 N -3.978787 -1.779919 0.410997 0
M  V30 20 C -3.329742 -2.730111 1.141915 0
M  V30 21 C -1.981611 -2.544879 1.358796 0
M  V30 22 C -1.238535 -1.479932 0.897796 0
M  V30 23 C 1.769543 -3.578078 3.978854 0
M  V30 24 C 0.315018 -3.614573 4.086140 0
M  V30 25 H 1.532691 -5.602443 2.427599 0
M  V30 26 H -0.218242 -5.304917 2.246068 0
M  V30 27 H 0.878897 -4.820421 0.883510 0
M  V30 28 H 1.848249 -2.098179 2.008457 0
M  V30 29 H 2.689053 1.099658 0.313416 0
M  V30 30 H 3.975191 3.067209 -0.552327 0
M  V30 31 H 3.567567 5.452414 -2.085235 0
M  V30 32 H -0.539825 5.055574 -2.856407 0
M  V30 33 H -0.896352 2.572291 -1.452401 0
M  V30 34 H -3.834812 0.065266 -0.665907 0
M  V30 35 H -3.874870 -3.582891 1.523101 0
M  V30 36 H -1.525800 -3.321967 1.942234 0
M  V30 37 H 2.308119 -2.606867 4.171417 0
M  V30 38 H 2.370043 -4.471602 4.145868 0
M  V30 39 H -0.301301 -2.727931 4.329074 0
M  V30 40 H -0.139416 -4.547004 4.447567 0
M  V30 END ATOM
M  V30 BEGIN BOND
M  V30 1 1 1 2
M  V30 2 1 2 3
M  V30 3 1 3 4
M  V30 4 2 4 5
M  V30 5 1 5 6
M  V30 6 1 6 7
M  V30 7 2 7 8
M  V30 8 1 8 9
M  V30 9 2 9 10
M  V30 10 1 10 11
M  V30 11 1 11 12
M  V30 12 2 12 13
M  V30 13 1 13 14
M  V30 14 2 14 15
M  V30 15 2 6 16
M  V30 16 1 16 17
M  V30 17 2 17 18
M  V30 18 1 18 19
M  V30 19 2 19 20
M  V30 20 1 20 21
M  V30 21 2 21 22
M  V30 22 1 2 23
M  V30 23 1 23 24
M  V30 24 1 24 2
M  V30 25 1 22 4
M  V30 26 1 15 7
M  V30 27 1 22 17
M  V30 28 1 14 10
M  V30 29 1 1 25
M  V30 30 1 1 26
M  V30 31 1 1 27
M  V30 32 1 3 28
M  V30 33 1 8 29
M  V30 34 1 9 30
M  V30 35 1 11 31
M  V30 36 1 13 32
M  V30 37 1 15 33
M  V30 38 1 18 34
M  V30 39 1 20 35
M  V30 40 1 21 36
M  V30 41 1 23 37
M  V30 42 1 23 38
M  V30 43 1 24 39
M  V30 44 1 24 40
M  V30 END BOND
M  V30 END CTAB
M  END
>  <Dataset>  (399) 
ChEMBL_Kinases

>  <Ligand_Instance>  (399) 
nan

>  <PDB_ID>  (399) 
nan

>  <Standardized_SMILES>  (399) 
CC1(Nc2nc(-c3ccc4[nH]ncc4c3)nc3cnccc23)CC1

>  <Name>  (399) 
nan

>  <Pocket>  (399) 
nan

>  <ATP_Site>  (399) 
nan

>  <Peripheral>  (399) 
nan

>  <Num_H_Atoms_ProtBoundConf>  (399) 
nan

>  <Num_Resolved_Atoms>  (399) 
nan

>  <Num_Not_Resolved_Atoms>  (399) 
nan

$$$$
CHEMBL4546145
     RDKit          3D

  0  0  0  0  0  0  0  0  0  0999 V3000
M  V30 BEGIN CTAB
M  V30 COUNTS 60 66 0 0 0
M  V30 BEGIN ATOM
M  V30 1 C 5.895899 -3.578642 5.404990 0
M  V30 2 N 5.345280 -2.879359 4.283565 0
M  V30 3 C 5.744395 -1.513593 4.243694 0
M  V30 4 C 5.997935 -1.120584 2.805645 0
M  V30 5 N 4.869333 -1.528090 2.030285 0
M  V30 6 C 3.821071 -0.744278 1.481550 0
M  V30 7 C 3.856719 0.615935 1.697495 0
M  V30 8 C 2.778216 1.291080 1.115046 0
M  V30 9 C 1.786506 0.621808 0.395923 0
M  V30 10 C 0.697871 1.403514 -0.180231 0
M  V30 11 N 0.774132 2.560373 -0.863378 0
M  V30 12 N -0.427112 2.975824 -1.232353 0
M  V30 13 C -1.313607 2.051232 -0.769473 0
M  V30 14 C -2.708618 2.033818 -0.899487 0
M  V30 15 C -3.481936 0.995263 -0.357053 0
M  V30 16 C -4.927182 1.080469 -0.533487 0 CFG=2
M  V30 17 C -5.915702 0.220774 0.119012 0
M  V30 18 C -5.758742 0.167549 -1.329224 0 CFG=1
M  V30 19 C -6.748276 0.802089 -2.250900 0
M  V30 20 O -7.367537 1.868542 -1.924970 0
M  V30 21 N -6.862343 0.060268 -3.456408 0
M  V30 22 C -5.986368 -1.047550 -3.290837 0
M  V30 23 C -5.824805 -2.029074 -4.247794 0
M  V30 24 C -4.975694 -3.080593 -4.003547 0
M  V30 25 C -4.304349 -3.136042 -2.813914 0
M  V30 26 C -4.516330 -2.120289 -1.908303 0
M  V30 27 C -5.340690 -1.021176 -2.046649 0
M  V30 28 C -2.746258 0.030318 0.293938 0
M  V30 29 C -1.376584 0.023381 0.435647 0
M  V30 30 C -0.634138 1.051891 -0.104313 0
M  V30 31 C 1.838337 -0.752480 0.233030 0
M  V30 32 N 2.875151 -1.405491 0.792422 0
M  V30 33 C 4.946295 -2.987510 1.864108 0
M  V30 34 C 5.527716 -3.637791 3.092274 0
M  V30 35 H 6.531836 -2.926202 6.040878 0
M  V30 36 H 6.538141 -4.431469 5.100470 0
M  V30 37 H 5.035682 -4.014666 5.988363 0
M  V30 38 H 6.695952 -1.414302 4.815099 0
M  V30 39 H 5.026280 -0.824570 4.740510 0
M  V30 40 H 6.158448 -0.024378 2.819107 0
M  V30 41 H 6.966165 -1.583092 2.502011 0
M  V30 42 H 4.597771 1.148726 2.239404 0
M  V30 43 H 2.723504 2.373452 1.234777 0
M  V30 44 H -0.627858 3.851720 -1.775449 0
M  V30 45 H -3.175966 2.864939 -1.442890 0
M  V30 46 H -5.247479 2.167618 -0.656049 0
M  V30 47 H -6.883714 0.655406 0.481925 0
M  V30 48 H -5.633750 -0.699545 0.685073 0
M  V30 49 H -7.483711 0.346891 -4.241223 0
M  V30 50 H -6.318750 -2.051233 -5.203745 0
M  V30 51 H -4.826395 -3.864236 -4.729164 0
M  V30 52 H -3.640719 -3.957313 -2.621839 0
M  V30 53 H -3.957998 -2.234057 -0.990789 0
M  V30 54 H -3.299955 -0.765811 0.725005 0
M  V30 55 H -0.863635 -0.761776 0.957003 0
M  V30 56 H 1.100040 -1.296052 -0.309520 0
M  V30 57 H 3.916802 -3.343895 1.670513 0
M  V30 58 H 5.561870 -3.262735 0.993747 0
M  V30 59 H 6.570278 -3.970429 2.927517 0
M  V30 60 H 4.955245 -4.599537 3.237831 0
M  V30 END ATOM
M  V30 BEGIN BOND
M  V30 1 1 1 2
M  V30 2 1 2 3
M  V30 3 1 3 4
M  V30 4 1 4 5
M  V30 5 1 5 6
M  V30 6 2 6 7
M  V30 7 1 7 8
M  V30 8 2 8 9
M  V30 9 1 9 10
M  V30 10 2 10 11
M  V30 11 1 11 12
M  V30 12 1 12 13
M  V30 13 2 13 14
M  V30 14 1 14 15
M  V30 15 1 15 16
M  V30 16 1 16 17
M  V30 17 1 18 17 CFG=1
M  V30 18 1 18 19
M  V30 19 2 19 20
M  V30 20 1 19 21
M  V30 21 1 21 22
M  V30 22 2 22 23
M  V30 23 1 23 24
M  V30 24 2 24 25
M  V30 25 1 25 26
M  V30 26 2 26 27
M  V30 27 2 15 28
M  V30 28 1 28 29
M  V30 29 2 29 30
M  V30 30 1 9 31
M  V30 31 2 31 32
M  V30 32 1 5 33
M  V30 33 1 33 34
M  V30 34 1 34 2
M  V30 35 1 32 6
M  V30 36 1 30 10
M  V30 37 1 30 13
M  V30 38 1 18 16
M  V30 39 1 27 22
M  V30 40 1 27 18
M  V30 41 1 1 35
M  V30 42 1 1 36
M  V30 43 1 1 37
M  V30 44 1 3 38
M  V30 45 1 3 39
M  V30 46 1 4 40
M  V30 47 1 4 41
M  V30 48 1 7 42
M  V30 49 1 8 43
M  V30 50 1 12 44
M  V30 51 1 14 45
M  V30 52 1 16 46 CFG=3
M  V30 53 1 17 47
M  V30 54 1 17 48
M  V30 55 1 21 49
M  V30 56 1 23 50
M  V30 57 1 24 51
M  V30 58 1 25 52
M  V30 59 1 26 53
M  V30 60 1 28 54
M  V30 61 1 29 55
M  V30 62 1 31 56
M  V30 63 1 33 57
M  V30 64 1 33 58
M  V30 65 1 34 59
M  V30 66 1 34 60
M  V30 END BOND
M  V30 END CTAB
M  END
>  <Dataset>  (400) 
ChEMBL_Kinases

>  <Ligand_Instance>  (400) 
nan

>  <PDB_ID>  (400) 
nan

>  <Standardized_SMILES>  (400) 
CN1CCN(c2ccc(-c3n[nH]c4cc([C@@H]5C[C@@]56C(=O)Nc5ccccc56)ccc34)cn2)CC1

>  <Name>  (400) 
nan

>  <Pocket>  (400) 
nan

>  <ATP_Site>  (400) 
nan

>  <Peripheral>  (400) 
nan

>  <Num_H_Atoms_ProtBoundConf>  (400) 
nan

>  <Num_Resolved_Atoms>  (400) 
nan

>  <Num_Not_Resolved_Atoms>  (400) 
nan

$$$$
CHEMBL4546105
     RDKit          3D

  0  0  0  0  0  0  0  0  0  0999 V3000
M  V30 BEGIN CTAB
M  V30 COUNTS 41 43 0 0 0
M  V30 BEGIN ATOM
M  V30 1 C -2.498698 -3.552058 -0.625301 0
M  V30 2 C -1.540821 -2.418302 -0.311811 0
M  V30 3 C -2.324000 -1.112925 -0.514568 0
M  V30 4 C -0.367185 -2.526174 -1.230469 0
M  V30 5 N -1.127771 -2.407368 1.084566 0
M  V30 6 C -0.186669 -1.421679 1.539378 0
M  V30 7 N 0.315702 -0.521913 0.678163 0
M  V30 8 C 1.203713 0.418363 1.053211 0
M  V30 9 C 1.663024 1.322291 0.035109 0
M  V30 10 C 1.195444 1.212661 -1.254702 0
M  V30 11 C 1.561159 2.027761 -2.304135 0
M  V30 12 N 2.456068 3.034067 -2.083467 0
M  V30 13 C 2.929090 3.162954 -0.830700 0
M  V30 14 C 2.565973 2.341813 0.243740 0
M  V30 15 C 3.151923 2.561979 1.566747 0
M  V30 16 F 3.890868 1.492160 2.049043 0
M  V30 17 F 4.062550 3.602011 1.496637 0
M  V30 18 F 2.218377 2.990943 2.499801 0
M  V30 19 N 1.553052 0.404514 2.321326 0
M  V30 20 C 1.128927 -0.434382 3.279876 0
M  V30 21 C 1.558354 -0.366011 4.589406 0
M  V30 22 N 1.062120 -1.266502 5.474519 0
M  V30 23 C 0.163383 -2.223290 5.109483 0
M  V30 24 C -0.251650 -2.272651 3.795012 0
M  V30 25 C 0.221194 -1.381664 2.855431 0
M  V30 26 H -3.091654 -3.236573 -1.500930 0
M  V30 27 H -1.915338 -4.438885 -0.930428 0
M  V30 28 H -3.189285 -3.742443 0.205658 0
M  V30 29 H -2.834197 -0.871720 0.439715 0
M  V30 30 H -3.052202 -1.225372 -1.342520 0
M  V30 31 H -1.596992 -0.305061 -0.707059 0
M  V30 32 H -0.456656 -1.701065 -1.986419 0
M  V30 33 H -0.390206 -3.477408 -1.837038 0
M  V30 34 H 0.587740 -2.461243 -0.669971 0
M  V30 35 H -1.565442 -3.137720 1.645054 0
M  V30 36 H 0.486123 0.466375 -1.580880 0
M  V30 37 H 1.206275 1.955609 -3.314059 0
M  V30 38 H 3.645336 3.969687 -0.658031 0
M  V30 39 H 2.268978 0.392996 4.870767 0
M  V30 40 H -0.189793 -2.908522 5.868905 0
M  V30 41 H -0.963981 -3.041300 3.536022 0
M  V30 END ATOM
M  V30 BEGIN BOND
M  V30 1 1 1 2
M  V30 2 1 2 3
M  V30 3 1 2 4
M  V30 4 1 2 5
M  V30 5 1 5 6
M  V30 6 2 6 7
M  V30 7 1 7 8
M  V30 8 1 8 9
M  V30 9 2 9 10
M  V30 10 1 10 11
M  V30 11 2 11 12
M  V30 12 1 12 13
M  V30 13 2 13 14
M  V30 14 1 14 15
M  V30 15 1 15 16
M  V30 16 1 15 17
M  V30 17 1 15 18
M  V30 18 2 8 19
M  V30 19 1 19 20
M  V30 20 2 20 21
M  V30 21 1 21 22
M  V30 22 2 22 23
M  V30 23 1 23 24
M  V30 24 2 24 25
M  V30 25 1 25 6
M  V30 26 1 14 9
M  V30 27 1 25 20
M  V30 28 1 1 26
M  V30 29 1 1 27
M  V30 30 1 1 28
M  V30 31 1 3 29
M  V30 32 1 3 30
M  V30 33 1 3 31
M  V30 34 1 4 32
M  V30 35 1 4 33
M  V30 36 1 4 34
M  V30 37 1 5 35
M  V30 38 1 10 36
M  V30 39 1 11 37
M  V30 40 1 13 38
M  V30 41 1 21 39
M  V30 42 1 23 40
M  V30 43 1 24 41
M  V30 END BOND
M  V30 END CTAB
M  END
>  <Dataset>  (401) 
ChEMBL_Kinases

>  <Ligand_Instance>  (401) 
nan

>  <PDB_ID>  (401) 
nan

>  <Standardized_SMILES>  (401) 
CC(C)(C)Nc1nc(-c2ccncc2C(F)(F)F)nc2cnccc12

>  <Name>  (401) 
nan

>  <Pocket>  (401) 
nan

>  <ATP_Site>  (401) 
nan

>  <Peripheral>  (401) 
nan

>  <Num_H_Atoms_ProtBoundConf>  (401) 
nan

>  <Num_Resolved_Atoms>  (401) 
nan

>  <Num_Not_Resolved_Atoms>  (401) 
nan

$$$$
CHEMBL4545883
     RDKit          3D

  0  0  0  0  0  0  0  0  0  0999 V3000
M  V30 BEGIN CTAB
M  V30 COUNTS 56 59 0 0 0
M  V30 BEGIN ATOM
M  V30 1 C 2.384617 -1.088578 4.076482 0
M  V30 2 C 2.947742 0.046771 3.251580 0
M  V30 3 C 3.236088 1.190507 4.192585 0
M  V30 4 C 3.729282 2.407454 3.449782 0
M  V30 5 C 3.898399 2.120489 1.978254 0
M  V30 6 C 2.703370 1.418303 1.362829 0
M  V30 7 N 2.096669 0.420433 2.159848 0
M  V30 8 C 1.615497 -0.684818 1.450497 0
M  V30 9 C 0.424358 -0.574164 0.577414 0
M  V30 10 C -0.820008 -0.112393 1.317350 0
M  V30 11 C 0.595679 0.273517 -0.644287 0
M  V30 12 N 0.143348 -1.938842 0.051398 0
M  V30 13 C -1.009372 -2.277962 -0.734370 0
M  V30 14 N -1.978449 -1.412690 -1.060672 0
M  V30 15 C -3.071411 -1.662573 -1.765343 0
M  V30 16 C -4.044417 -0.613377 -2.039979 0
M  V30 17 C -5.185605 -0.919028 -2.785439 0
M  V30 18 C -6.086195 0.108016 -3.022086 0
M  V30 19 N -5.899074 1.371306 -2.563406 0
M  V30 20 C -4.789113 1.603902 -1.856204 0
M  V30 21 C -3.833866 0.650997 -1.567440 0
M  V30 22 N -3.220996 -2.924131 -2.198674 0
M  V30 23 C -2.310794 -3.877831 -1.930732 0
M  V30 24 C -2.509031 -5.155951 -2.397604 0
M  V30 25 N -1.592854 -6.113511 -2.128093 0
M  V30 26 C -0.493972 -5.843565 -1.414861 0
M  V30 27 C -0.289203 -4.568753 -0.944975 0
M  V30 28 C -1.186876 -3.561128 -1.189739 0
M  V30 29 H 1.285192 -1.030503 4.196236 0
M  V30 30 H 2.688130 -2.088398 3.701897 0
M  V30 31 H 2.814176 -1.002773 5.095619 0
M  V30 32 H 3.906039 -0.313956 2.813908 0
M  V30 33 H 2.322721 1.480200 4.740836 0
M  V30 34 H 3.981524 0.858346 4.935602 0
M  V30 35 H 3.059700 3.265364 3.589666 0
M  V30 36 H 4.720795 2.676706 3.856741 0
M  V30 37 H 4.782703 1.475360 1.807099 0
M  V30 38 H 4.062446 3.055846 1.410913 0
M  V30 39 H 3.101611 0.937519 0.433093 0
M  V30 40 H 1.980712 2.202839 1.006150 0
M  V30 41 H 1.416087 -1.535163 2.160242 0
M  V30 42 H 2.417594 -1.158994 0.778564 0
M  V30 43 H -0.530291 0.051622 2.372633 0
M  V30 44 H -1.195591 0.875906 0.948581 0
M  V30 45 H -1.661856 -0.824178 1.215286 0
M  V30 46 H 0.397414 1.341754 -0.438609 0
M  V30 47 H 1.593911 0.183645 -1.128391 0
M  V30 48 H -0.198841 -0.009650 -1.415844 0
M  V30 49 H 0.838418 -2.662267 0.282808 0
M  V30 50 H -5.378469 -1.911482 -3.173880 0
M  V30 51 H -7.010556 -0.034437 -3.598032 0
M  V30 52 H -4.647725 2.630725 -1.490358 0
M  V30 53 H -2.956919 0.919781 -0.986613 0
M  V30 54 H -3.397551 -5.367074 -2.973365 0
M  V30 55 H 0.178953 -6.677074 -1.252178 0
M  V30 56 H 0.599363 -4.427930 -0.389873 0
M  V30 END ATOM
M  V30 BEGIN BOND
M  V30 1 1 1 2
M  V30 2 1 2 3
M  V30 3 1 3 4
M  V30 4 1 4 5
M  V30 5 1 5 6
M  V30 6 1 6 7
M  V30 7 1 7 8
M  V30 8 1 8 9
M  V30 9 1 9 10
M  V30 10 1 9 11
M  V30 11 1 9 12
M  V30 12 1 12 13
M  V30 13 2 13 14
M  V30 14 1 14 15
M  V30 15 1 15 16
M  V30 16 2 16 17
M  V30 17 1 17 18
M  V30 18 2 18 19
M  V30 19 1 19 20
M  V30 20 2 20 21
M  V30 21 2 15 22
M  V30 22 1 22 23
M  V30 23 2 23 24
M  V30 24 1 24 25
M  V30 25 2 25 26
M  V30 26 1 26 27
M  V30 27 2 27 28
M  V30 28 1 7 2
M  V30 29 1 28 13
M  V30 30 1 21 16
M  V30 31 1 28 23
M  V30 32 1 1 29
M  V30 33 1 1 30
M  V30 34 1 1 31
M  V30 35 1 2 32
M  V30 36 1 3 33
M  V30 37 1 3 34
M  V30 38 1 4 35
M  V30 39 1 4 36
M  V30 40 1 5 37
M  V30 41 1 5 38
M  V30 42 1 6 39
M  V30 43 1 6 40
M  V30 44 1 8 41
M  V30 45 1 8 42
M  V30 46 1 10 43
M  V30 47 1 10 44
M  V30 48 1 10 45
M  V30 49 1 11 46
M  V30 50 1 11 47
M  V30 51 1 11 48
M  V30 52 1 12 49
M  V30 53 1 17 50
M  V30 54 1 18 51
M  V30 55 1 20 52
M  V30 56 1 21 53
M  V30 57 1 24 54
M  V30 58 1 26 55
M  V30 59 1 27 56
M  V30 END BOND
M  V30 END CTAB
M  END
>  <Dataset>  (402) 
ChEMBL_Kinases

>  <Ligand_Instance>  (402) 
nan

>  <PDB_ID>  (402) 
nan

>  <Standardized_SMILES>  (402) 
CC1CCCCN1CC(C)(C)Nc1nc(-c2ccncc2)nc2cnccc12

>  <Name>  (402) 
nan

>  <Pocket>  (402) 
nan

>  <ATP_Site>  (402) 
nan

>  <Peripheral>  (402) 
nan

>  <Num_H_Atoms_ProtBoundConf>  (402) 
nan

>  <Num_Resolved_Atoms>  (402) 
nan

>  <Num_Not_Resolved_Atoms>  (402) 
nan

$$$$
CHEMBL4545734
     RDKit          3D

  0  0  0  0  0  0  0  0  0  0999 V3000
M  V30 BEGIN CTAB
M  V30 COUNTS 51 54 0 0 0
M  V30 BEGIN ATOM
M  V30 1 C 6.164971 -0.719972 4.176237 0
M  V30 2 N 6.236225 -1.059895 2.769078 0
M  V30 3 N 7.350263 -1.554750 2.249123 0
M  V30 4 C 7.153186 -1.777567 0.944812 0
M  V30 5 C 5.859108 -1.386248 0.723554 0
M  V30 6 Cl 5.292851 -1.555137 -0.902451 0
M  V30 7 C 5.262253 -0.927460 1.873792 0
M  V30 8 C 3.907398 -0.446123 1.955175 0
M  V30 9 C 3.424807 -0.010275 3.193151 0
M  V30 10 S 1.673494 0.522274 2.868369 0
M  V30 11 C 1.770081 0.110727 1.131776 0
M  V30 12 C 0.660744 0.290807 0.201979 0
M  V30 13 O 0.782608 -0.015507 -1.011142 0
M  V30 14 N -0.559081 0.819011 0.695084 0
M  V30 15 C -1.655022 0.994553 -0.234430 0 CFG=2
M  V30 16 C -2.023959 2.448830 -0.391939 0
M  V30 17 N -2.830970 2.953520 0.665782 0
M  V30 18 C -3.984112 2.155685 0.971275 0
M  V30 19 C -4.071696 0.972682 0.011094 0
M  V30 20 C -2.819778 0.148473 0.229194 0 CFG=1
M  V30 21 C -2.944806 -1.132326 -0.506193 0
M  V30 22 C -3.055842 -1.229936 -1.896226 0
M  V30 23 C -3.168970 -2.469715 -2.502442 0
M  V30 24 C -3.177443 -3.649734 -1.775740 0
M  V30 25 Cl -3.323235 -5.187304 -2.600063 0
M  V30 26 C -3.068080 -3.558299 -0.403380 0
M  V30 27 C -3.079798 -4.840789 0.353092 0
M  V30 28 F -2.010171 -5.610373 -0.075626 0
M  V30 29 F -4.302461 -5.466617 0.116852 0
M  V30 30 F -2.953461 -4.588964 1.724439 0
M  V30 31 C -2.955868 -2.324692 0.195254 0
M  V30 32 C 2.996196 -0.348176 0.964033 0
M  V30 33 H 5.403401 -1.282574 4.719716 0
M  V30 34 H 7.170129 -0.852241 4.655911 0
M  V30 35 H 5.940252 0.364072 4.238379 0
M  V30 36 H 7.969108 -2.186646 0.353718 0
M  V30 37 H 3.682642 0.131911 4.258430 0
M  V30 38 H -0.693030 1.086050 1.708935 0
M  V30 39 H -1.309528 0.653466 -1.241848 0
M  V30 40 H -2.485624 2.631289 -1.371223 0
M  V30 41 H -1.071417 3.024909 -0.395523 0
M  V30 42 H -2.301616 3.261617 1.507242 0
M  V30 43 H -3.986549 1.749189 1.989203 0
M  V30 44 H -4.878088 2.815914 0.874886 0
M  V30 45 H -4.041375 1.360467 -1.019158 0
M  V30 46 H -4.990954 0.394135 0.226343 0
M  V30 47 H -2.746874 -0.046900 1.323333 0
M  V30 48 H -3.049747 -0.319093 -2.463354 0
M  V30 49 H -3.254919 -2.539214 -3.582599 0
M  V30 50 H -2.871569 -2.286317 1.275961 0
M  V30 51 H 3.214028 -0.643445 -0.047208 0
M  V30 END ATOM
M  V30 BEGIN BOND
M  V30 1 1 1 2
M  V30 2 1 2 3
M  V30 3 2 3 4
M  V30 4 1 4 5
M  V30 5 1 5 6
M  V30 6 2 5 7
M  V30 7 1 7 8
M  V30 8 2 8 9
M  V30 9 1 9 10
M  V30 10 1 10 11
M  V30 11 1 11 12
M  V30 12 2 12 13
M  V30 13 1 12 14
M  V30 14 1 14 15
M  V30 15 1 15 16
M  V30 16 1 16 17
M  V30 17 1 17 18
M  V30 18 1 18 19
M  V30 19 1 19 20
M  V30 20 1 20 21
M  V30 21 2 21 22
M  V30 22 1 22 23
M  V30 23 2 23 24
M  V30 24 1 24 25
M  V30 25 1 24 26
M  V30 26 1 26 27
M  V30 27 1 27 28
M  V30 28 1 27 29
M  V30 29 1 27 30
M  V30 30 2 26 31
M  V30 31 2 11 32
M  V30 32 1 7 2
M  V30 33 1 32 8
M  V30 34 1 20 15
M  V30 35 1 31 21
M  V30 36 1 1 33
M  V30 37 1 1 34
M  V30 38 1 1 35
M  V30 39 1 4 36
M  V30 40 1 9 37
M  V30 41 1 14 38
M  V30 42 1 15 39 CFG=3
M  V30 43 1 16 40
M  V30 44 1 16 41
M  V30 45 1 17 42
M  V30 46 1 18 43
M  V30 47 1 18 44
M  V30 48 1 19 45
M  V30 49 1 19 46
M  V30 50 1 20 47 CFG=1
M  V30 51 1 22 48
M  V30 52 1 23 49
M  V30 53 1 31 50
M  V30 54 1 32 51
M  V30 END BOND
M  V30 END CTAB
M  END
>  <Dataset>  (403) 
ChEMBL_Kinases

>  <Ligand_Instance>  (403) 
nan

>  <PDB_ID>  (403) 
nan

>  <Standardized_SMILES>  (403) 
Cn1ncc(Cl)c1-c1csc(C(=O)N[C@@H]2CNCC[C@H]2c2ccc(Cl)c(C(F)(F)F)c2)c1

>  <Name>  (403) 
nan

>  <Pocket>  (403) 
nan

>  <ATP_Site>  (403) 
nan

>  <Peripheral>  (403) 
nan

>  <Num_H_Atoms_ProtBoundConf>  (403) 
nan

>  <Num_Resolved_Atoms>  (403) 
nan

>  <Num_Not_Resolved_Atoms>  (403) 
nan

$$$$
CHEMBL4639991
     RDKit          3D

  0  0  0  0  0  0  0  0  0  0999 V3000
M  V30 BEGIN CTAB
M  V30 COUNTS 42 45 0 0 0
M  V30 BEGIN ATOM
M  V30 1 C 0.215791 -5.459924 2.753923 0
M  V30 2 C -0.305281 -4.036424 2.843769 0 CFG=2
M  V30 3 C -1.079850 -3.649110 1.586734 0
M  V30 4 N -0.620140 -2.392070 1.106839 0
M  V30 5 C -0.703073 -2.111891 -0.311128 0
M  V30 6 S -1.392680 -3.349007 -1.542761 0
M  V30 7 N -1.162141 -2.337307 -2.902114 0
M  V30 8 C -0.587913 -1.124068 -2.417963 0
M  V30 9 C -0.274691 -0.087503 -3.263074 0
M  V30 10 C 0.276431 1.060143 -2.747220 0
M  V30 11 C 0.512068 1.170955 -1.401927 0
M  V30 12 C 1.090948 2.343951 -0.763032 0
M  V30 13 C 1.278750 2.336862 0.599619 0
M  V30 14 C 1.832960 3.442598 1.245956 0
M  V30 15 C 2.207214 4.568859 0.545876 0
M  V30 16 F 2.751028 5.687137 1.080198 0
M  V30 17 C 1.985623 4.499690 -0.829396 0
M  V30 18 C 1.441202 3.434059 -1.526731 0
M  V30 19 N 0.185689 0.129476 -0.636492 0
M  V30 20 C -0.351804 -1.002669 -1.100610 0
M  V30 21 C -0.057358 -1.302964 1.843877 0
M  V30 22 C 0.297307 -1.863399 3.231900 0 CFG=2
M  V30 23 C 1.419403 -1.027687 3.839677 0
M  V30 24 O 0.770504 -3.179357 3.062631 0
M  V30 25 H -0.381239 -6.047544 1.996323 0
M  V30 26 H 1.284599 -5.509858 2.462726 0
M  V30 27 H 0.110951 -6.012244 3.706631 0
M  V30 28 H -0.972763 -3.971296 3.748124 0
M  V30 29 H -0.998743 -4.433832 0.798672 0
M  V30 30 H -2.158505 -3.496440 1.889524 0
M  V30 31 H -0.444681 -0.135758 -4.325302 0
M  V30 32 H 0.516764 1.862967 -3.412881 0
M  V30 33 H 1.026132 1.517562 1.252324 0
M  V30 34 H 1.983806 3.448057 2.310922 0
M  V30 35 H 2.270840 5.370537 -1.401822 0
M  V30 36 H 1.326214 3.516429 -2.594744 0
M  V30 37 H -0.818714 -0.486644 1.981101 0
M  V30 38 H 0.851748 -0.867408 1.410882 0
M  V30 39 H -0.595790 -1.827358 3.885034 0
M  V30 40 H 1.277556 0.063424 3.626786 0
M  V30 41 H 1.440746 -1.178256 4.934779 0
M  V30 42 H 2.415987 -1.355232 3.464081 0
M  V30 END ATOM
M  V30 BEGIN BOND
M  V30 1 1 1 2
M  V30 2 1 2 3
M  V30 3 1 3 4
M  V30 4 1 4 5
M  V30 5 1 5 6
M  V30 6 1 6 7
M  V30 7 2 7 8
M  V30 8 1 8 9
M  V30 9 2 9 10
M  V30 10 1 10 11
M  V30 11 1 11 12
M  V30 12 2 12 13
M  V30 13 1 13 14
M  V30 14 2 14 15
M  V30 15 1 15 16
M  V30 16 1 15 17
M  V30 17 2 17 18
M  V30 18 2 11 19
M  V30 19 1 19 20
M  V30 20 1 4 21
M  V30 21 1 21 22
M  V30 22 1 22 23
M  V30 23 1 22 24
M  V30 24 1 24 2
M  V30 25 2 20 5
M  V30 26 1 20 8
M  V30 27 1 18 12
M  V30 28 1 1 25
M  V30 29 1 1 26
M  V30 30 1 1 27
M  V30 31 1 2 28 CFG=1
M  V30 32 1 3 29
M  V30 33 1 3 30
M  V30 34 1 9 31
M  V30 35 1 10 32
M  V30 36 1 13 33
M  V30 37 1 14 34
M  V30 38 1 17 35
M  V30 39 1 18 36
M  V30 40 1 21 37
M  V30 41 1 21 38
M  V30 42 1 22 39 CFG=1
M  V30 43 1 23 40
M  V30 44 1 23 41
M  V30 45 1 23 42
M  V30 END BOND
M  V30 END CTAB
M  END
>  <Dataset>  (404) 
ChEMBL_Kinases

>  <Ligand_Instance>  (404) 
nan

>  <PDB_ID>  (404) 
nan

>  <Standardized_SMILES>  (404) 
C[C@@H]1CN(c2snc3ccc(-c4ccc(F)cc4)nc23)C[C@H](C)O1

>  <Name>  (404) 
nan

>  <Pocket>  (404) 
nan

>  <ATP_Site>  (404) 
nan

>  <Peripheral>  (404) 
nan

>  <Num_H_Atoms_ProtBoundConf>  (404) 
nan

>  <Num_Resolved_Atoms>  (404) 
nan

>  <Num_Not_Resolved_Atoms>  (404) 
nan

$$$$
CHEMBL4545407
     RDKit          3D

  0  0  0  0  0  0  0  0  0  0999 V3000
M  V30 BEGIN CTAB
M  V30 COUNTS 61 64 0 0 0
M  V30 BEGIN ATOM
M  V30 1 C -0.819048 -2.458014 6.637384 0
M  V30 2 O -0.677061 -3.119299 5.380901 0
M  V30 3 C 0.191646 -2.643496 4.407545 0
M  V30 4 C 0.879310 -1.494059 4.781536 0
M  V30 5 C 1.763820 -0.947097 3.875298 0
M  V30 6 N 2.438572 0.161697 4.220753 0
M  V30 7 C 3.312969 0.732216 3.373692 0
M  V30 8 N 3.521109 0.196128 2.167079 0
M  V30 9 C 2.903626 -0.904967 1.719491 0
M  V30 10 C 3.101388 -1.485349 0.381737 0
M  V30 11 C 4.095646 -0.633441 -0.359102 0
M  V30 12 C 3.578922 0.728794 -0.699491 0
M  V30 13 N 2.246394 0.656112 -1.249946 0
M  V30 14 C 1.414295 1.835910 -1.270206 0
M  V30 15 O 1.978435 2.849772 -0.793451 0
M  V30 16 C 0.116518 1.455059 -1.867102 0
M  V30 17 C -0.178080 1.182964 -3.168323 0
M  V30 18 C -1.468177 0.831267 -3.458913 0
M  V30 19 C -2.476005 0.735150 -2.532422 0
M  V30 20 O -3.727824 0.374674 -2.916161 0
M  V30 21 C -4.885796 0.218045 -2.174630 0
M  V30 22 C -5.266213 -1.247659 -1.992787 0
M  V30 23 C -6.037667 0.958176 -2.795301 0
M  V30 24 C -2.214439 1.007777 -1.180247 0
M  V30 25 C -0.899874 1.362916 -0.908108 0
M  V30 26 C 1.987347 -0.700390 -1.712989 0
M  V30 27 C 1.858654 -1.602369 -0.463401 0
M  V30 28 C 2.006910 -1.480965 2.606315 0
M  V30 29 C 1.286104 -2.614731 2.324043 0
M  V30 30 C 0.387552 -3.217888 3.173822 0
M  V30 31 O -0.363422 -4.349198 2.957467 0
M  V30 32 C -0.316548 -5.125228 1.776894 0
M  V30 33 H -1.115734 -1.397369 6.486715 0
M  V30 34 H -1.563727 -2.998202 7.247407 0
M  V30 35 H 0.147816 -2.480075 7.166344 0
M  V30 36 H 0.765994 -0.997981 5.743679 0
M  V30 37 H 3.836449 1.639166 3.717200 0
M  V30 38 H 3.520600 -2.517829 0.517432 0
M  V30 39 H 5.013443 -0.552673 0.288805 0
M  V30 40 H 4.480937 -1.152680 -1.274442 0
M  V30 41 H 4.276692 1.247539 -1.414594 0
M  V30 42 H 3.483770 1.367062 0.211005 0
M  V30 43 H 0.657947 1.278359 -3.836925 0
M  V30 44 H -1.660575 0.622046 -4.519341 0
M  V30 45 H -4.742905 0.604684 -1.145679 0
M  V30 46 H -4.692946 -1.895462 -2.702859 0
M  V30 47 H -5.130970 -1.594931 -0.945501 0
M  V30 48 H -6.336676 -1.396803 -2.240522 0
M  V30 49 H -6.580479 1.600277 -2.080606 0
M  V30 50 H -5.667864 1.578694 -3.652593 0
M  V30 51 H -6.764107 0.243176 -3.262158 0
M  V30 52 H -2.931583 0.957992 -0.396566 0
M  V30 53 H -0.717053 1.570785 0.150615 0
M  V30 54 H 2.765174 -1.089663 -2.380623 0
M  V30 55 H 1.020020 -0.807154 -2.240714 0
M  V30 56 H 1.787521 -2.610206 -0.913945 0
M  V30 57 H 0.938723 -1.236494 0.017117 0
M  V30 58 H 1.416520 -3.110525 1.374668 0
M  V30 59 H 0.691579 -5.011914 1.342394 0
M  V30 60 H -1.006134 -4.629069 1.044410 0
M  V30 61 H -0.659314 -6.153874 1.893326 0
M  V30 END ATOM
M  V30 BEGIN BOND
M  V30 1 1 1 2
M  V30 2 1 2 3
M  V30 3 2 3 4
M  V30 4 1 4 5
M  V30 5 2 5 6
M  V30 6 1 6 7
M  V30 7 2 7 8
M  V30 8 1 8 9
M  V30 9 1 9 10
M  V30 10 1 10 11
M  V30 11 1 11 12
M  V30 12 1 12 13
M  V30 13 1 13 14
M  V30 14 2 14 15
M  V30 15 1 14 16
M  V30 16 2 16 17
M  V30 17 1 17 18
M  V30 18 2 18 19
M  V30 19 1 19 20
M  V30 20 1 20 21
M  V30 21 1 21 22
M  V30 22 1 21 23
M  V30 23 1 19 24
M  V30 24 2 24 25
M  V30 25 1 13 26
M  V30 26 1 26 27
M  V30 27 2 9 28
M  V30 28 1 28 29
M  V30 29 2 29 30
M  V30 30 1 30 31
M  V30 31 1 31 32
M  V30 32 1 30 3
M  V30 33 1 28 5
M  V30 34 1 27 10
M  V30 35 1 25 16
M  V30 36 1 1 33
M  V30 37 1 1 34
M  V30 38 1 1 35
M  V30 39 1 4 36
M  V30 40 1 7 37
M  V30 41 1 10 38
M  V30 42 1 11 39
M  V30 43 1 11 40
M  V30 44 1 12 41
M  V30 45 1 12 42
M  V30 46 1 17 43
M  V30 47 1 18 44
M  V30 48 1 21 45
M  V30 49 1 22 46
M  V30 50 1 22 47
M  V30 51 1 22 48
M  V30 52 1 23 49
M  V30 53 1 23 50
M  V30 54 1 23 51
M  V30 55 1 24 52
M  V30 56 1 25 53
M  V30 57 1 26 54
M  V30 58 1 26 55
M  V30 59 1 27 56
M  V30 60 1 27 57
M  V30 61 1 29 58
M  V30 62 1 32 59
M  V30 63 1 32 60
M  V30 64 1 32 61
M  V30 END BOND
M  V30 END CTAB
M  END
>  <Dataset>  (405) 
ChEMBL_Kinases

>  <Ligand_Instance>  (405) 
nan

>  <PDB_ID>  (405) 
nan

>  <Standardized_SMILES>  (405) 
COc1cc2ncnc(C3CCN(C(=O)c4ccc(OC(C)C)cc4)CC3)c2cc1OC

>  <Name>  (405) 
nan

>  <Pocket>  (405) 
nan

>  <ATP_Site>  (405) 
nan

>  <Peripheral>  (405) 
nan

>  <Num_H_Atoms_ProtBoundConf>  (405) 
nan

>  <Num_Resolved_Atoms>  (405) 
nan

>  <Num_Not_Resolved_Atoms>  (405) 
nan

$$$$
CHEMBL4545175
     RDKit          3D

  0  0  0  0  0  0  0  0  0  0999 V3000
M  V30 BEGIN CTAB
M  V30 COUNTS 72 77 0 0 0
M  V30 BEGIN ATOM
M  V30 1 C 7.092784 -6.513757 3.803651 0
M  V30 2 O 7.276062 -5.207962 4.274065 0
M  V30 3 C 6.393683 -4.188446 3.905661 0
M  V30 4 C 5.293132 -4.312106 3.084037 0
M  V30 5 C 4.525935 -3.169830 2.830127 0
M  V30 6 C 4.872817 -1.939763 3.398310 0
M  V30 7 C 3.921574 -0.920565 2.977038 0
M  V30 8 N 3.651106 -0.389680 1.760653 0
M  V30 9 N 2.708137 0.511445 1.847781 0
M  V30 10 C 2.314883 1.161371 0.641474 0
M  V30 11 C 3.159277 2.087165 0.063550 0
M  V30 12 C 2.763248 2.707101 -1.103933 0
M  V30 13 C 1.534828 2.353832 -1.619068 0
M  V30 14 C 0.660237 1.441525 -1.084065 0
M  V30 15 N -0.601926 1.064143 -1.595187 0
M  V30 16 C -1.282068 1.500401 -2.751359 0
M  V30 17 O -0.728976 2.351149 -3.471559 0
M  V30 18 C -2.593237 1.034917 -3.180705 0
M  V30 19 C -3.111059 1.570163 -4.359372 0
M  V30 20 C -4.368964 1.157042 -4.817736 0
M  V30 21 C -5.085091 0.212050 -4.082276 0
M  V30 22 N -6.321125 -0.105630 -4.667957 0
M  V30 23 C -6.997740 -1.236791 -5.263462 0
M  V30 24 C -8.262835 -1.631080 -4.538234 0
M  V30 25 O -8.783781 -0.536498 -3.815100 0
M  V30 26 C -8.648191 0.554066 -4.698138 0
M  V30 27 C -7.221781 1.042327 -4.698109 0
M  V30 28 C -4.596028 -0.319335 -2.932362 0
M  V30 29 C -5.365511 -1.318252 -2.159812 0
M  V30 30 F -5.648542 -2.470008 -2.819717 0
M  V30 31 F -6.535042 -0.656965 -1.760583 0
M  V30 32 F -4.638720 -1.674067 -1.027501 0
M  V30 33 C -3.355584 0.107675 -2.508117 0
M  V30 34 C 1.097912 0.849494 0.079085 0
M  V30 35 C 2.333399 0.592599 3.144477 0
M  V30 36 C 3.088794 -0.308234 3.890206 0
M  V30 37 C 2.867817 -0.406698 5.328002 0
M  V30 38 C 3.691068 -0.109516 6.393099 0
M  V30 39 C 3.242827 -0.294853 7.682628 0
M  V30 40 N 2.017445 -0.760754 7.970912 0
M  V30 41 C 1.205270 -1.054168 6.942449 0
M  V30 42 C 1.588432 -0.893012 5.624468 0
M  V30 43 C 5.977978 -1.855224 4.213029 0
M  V30 44 C 6.736840 -2.979072 4.465742 0
M  V30 45 Cl 8.107196 -2.689419 5.524264 0
M  V30 46 H 7.597398 -6.728358 2.860749 0
M  V30 47 H 7.527357 -7.193325 4.590039 0
M  V30 48 H 6.028469 -6.810059 3.729497 0
M  V30 49 H 5.103003 -5.290960 2.693473 0
M  V30 50 H 3.690087 -3.394894 2.171949 0
M  V30 51 H 4.107978 2.309458 0.530153 0
M  V30 52 H 3.394373 3.438472 -1.589767 0
M  V30 53 H 1.266050 2.862512 -2.531184 0
M  V30 54 H -1.161249 0.354139 -1.073945 0
M  V30 55 H -2.575363 2.317988 -4.966818 0
M  V30 56 H -4.726388 1.613767 -5.753709 0
M  V30 57 H -6.341009 -2.138080 -5.373144 0
M  V30 58 H -7.307524 -0.921811 -6.306917 0
M  V30 59 H -9.081662 -1.883809 -5.259760 0
M  V30 60 H -8.129926 -2.491487 -3.854422 0
M  V30 61 H -9.336245 1.337061 -4.322864 0
M  V30 62 H -8.894956 0.205197 -5.707122 0
M  V30 63 H -7.053645 1.581533 -5.653426 0
M  V30 64 H -7.076538 1.710210 -3.832216 0
M  V30 65 H -2.984172 -0.327150 -1.591474 0
M  V30 66 H 0.477313 0.107809 0.587658 0
M  V30 67 H 1.555308 1.297511 3.393421 0
M  V30 68 H 4.652351 0.259117 6.070082 0
M  V30 69 H 4.001166 -0.018239 8.431908 0
M  V30 70 H 0.222706 -1.428840 7.253876 0
M  V30 71 H 0.814139 -1.175928 4.903621 0
M  V30 72 H 6.136768 -0.866745 4.580618 0
M  V30 END ATOM
M  V30 BEGIN BOND
M  V30 1 1 1 2
M  V30 2 1 2 3
M  V30 3 2 3 4
M  V30 4 1 4 5
M  V30 5 2 5 6
M  V30 6 1 6 7
M  V30 7 2 7 8
M  V30 8 1 8 9
M  V30 9 1 9 10
M  V30 10 2 10 11
M  V30 11 1 11 12
M  V30 12 2 12 13
M  V30 13 1 13 14
M  V30 14 1 14 15
M  V30 15 1 15 16
M  V30 16 2 16 17
M  V30 17 1 16 18
M  V30 18 2 18 19
M  V30 19 1 19 20
M  V30 20 2 20 21
M  V30 21 1 21 22
M  V30 22 1 22 23
M  V30 23 1 23 24
M  V30 24 1 24 25
M  V30 25 1 25 26
M  V30 26 1 26 27
M  V30 27 1 21 28
M  V30 28 1 28 29
M  V30 29 1 29 30
M  V30 30 1 29 31
M  V30 31 1 29 32
M  V30 32 2 28 33
M  V30 33 2 14 34
M  V30 34 1 9 35
M  V30 35 2 35 36
M  V30 36 1 36 37
M  V30 37 2 37 38
M  V30 38 1 38 39
M  V30 39 2 39 40
M  V30 40 1 40 41
M  V30 41 2 41 42
M  V30 42 1 6 43
M  V30 43 2 43 44
M  V30 44 1 44 45
M  V30 45 1 44 3
M  V30 46 1 36 7
M  V30 47 1 42 37
M  V30 48 1 34 10
M  V30 49 1 33 18
M  V30 50 1 27 22
M  V30 51 1 1 46
M  V30 52 1 1 47
M  V30 53 1 1 48
M  V30 54 1 4 49
M  V30 55 1 5 50
M  V30 56 1 11 51
M  V30 57 1 12 52
M  V30 58 1 13 53
M  V30 59 1 15 54
M  V30 60 1 19 55
M  V30 61 1 20 56
M  V30 62 1 23 57
M  V30 63 1 23 58
M  V30 64 1 24 59
M  V30 65 1 24 60
M  V30 66 1 26 61
M  V30 67 1 26 62
M  V30 68 1 27 63
M  V30 69 1 27 64
M  V30 70 1 33 65
M  V30 71 1 34 66
M  V30 72 1 35 67
M  V30 73 1 38 68
M  V30 74 1 39 69
M  V30 75 1 41 70
M  V30 76 1 42 71
M  V30 77 1 43 72
M  V30 END BOND
M  V30 END CTAB
M  END
>  <Dataset>  (406) 
ChEMBL_Kinases

>  <Ligand_Instance>  (406) 
nan

>  <PDB_ID>  (406) 
nan

>  <Standardized_SMILES>  (406) 
COc1ccc(-c2nn(-c3cccc(NC(=O)c4ccc(N5CCOCC5)c(C(F)(F)F)c4)c3)cc2-c2ccncc2)cc1Cl

>  <Name>  (406) 
nan

>  <Pocket>  (406) 
nan

>  <ATP_Site>  (406) 
nan

>  <Peripheral>  (406) 
nan

>  <Num_H_Atoms_ProtBoundConf>  (406) 
nan

>  <Num_Resolved_Atoms>  (406) 
nan

>  <Num_Not_Resolved_Atoms>  (406) 
nan

$$$$
CHEMBL4640031
     RDKit          3D

  0  0  0  0  0  0  0  0  0  0999 V3000
M  V30 BEGIN CTAB
M  V30 COUNTS 67 71 0 0 0
M  V30 BEGIN ATOM
M  V30 1 C 3.568441 2.411748 6.333181 0
M  V30 2 C 2.786955 3.130819 5.251897 0 CFG=2
M  V30 3 C 1.809511 2.153000 4.661864 0
M  V30 4 N 2.076380 2.052216 3.242207 0
M  V30 5 C 2.297627 0.849191 2.476525 0
M  V30 6 O 2.527173 0.862768 1.219026 0
M  V30 7 N 2.288233 -0.453271 3.005843 0
M  V30 8 C 2.548021 -1.377678 1.927758 0
M  V30 9 C 1.462369 -1.866836 1.231198 0
M  V30 10 C 1.614783 -2.757342 0.182629 0
M  V30 11 C 0.397119 -3.210385 -0.484437 0
M  V30 12 C -0.612808 -2.306085 -0.833047 0
M  V30 13 N -1.605695 -3.023303 -1.432610 0
M  V30 14 C -2.822252 -2.402566 -1.927526 0 CFG=1
M  V30 15 C -3.522026 -1.629193 -0.821856 0
M  V30 16 C -4.816625 -1.086118 -1.315786 0
M  V30 17 C -4.940500 -0.910901 -2.782162 0 CFG=1
M  V30 18 C -5.769308 -2.038802 -3.409657 0
M  V30 19 O -5.715500 0.255124 -2.995791 0
M  V30 20 C -3.675831 -0.719384 -3.547110 0
M  V30 21 C -2.462889 -1.360901 -2.972982 0
M  V30 22 C -1.263893 -4.323957 -1.473664 0
M  V30 23 C -1.895778 -5.448611 -1.962070 0
M  V30 24 N -1.286446 -6.650851 -1.856714 0
M  V30 25 C -0.073210 -6.758010 -1.281354 0
M  V30 26 C 0.625229 -5.673314 -0.766835 0
M  V30 27 C -0.021800 -4.461218 -0.889020 0
M  V30 28 C 2.907646 -3.136240 -0.136895 0
M  V30 29 C 3.987137 -2.641367 0.565868 0
M  V30 30 N 3.786589 -1.773675 1.582200 0
M  V30 31 C 2.128115 3.298751 2.501847 0
M  V30 32 C 3.078739 4.224891 3.241625 0 CFG=2
M  V30 33 C 4.161389 4.686066 2.289573 0
M  V30 34 O 3.709156 3.596755 4.316653 0
M  V30 35 H 4.258678 3.147892 6.807230 0
M  V30 36 H 4.234231 1.676540 5.797404 0
M  V30 37 H 2.899773 1.903053 7.060583 0
M  V30 38 H 2.271229 4.012088 5.715462 0
M  V30 39 H 0.764189 2.546537 4.786138 0
M  V30 40 H 1.851337 1.160932 5.123051 0
M  V30 41 H 2.104510 -0.560718 4.047504 0
M  V30 42 H 0.471607 -1.540654 1.518896 0
M  V30 43 H -0.621030 -1.235761 -0.665916 0
M  V30 44 H -3.458510 -3.189944 -2.330398 0
M  V30 45 H -2.849316 -0.749855 -0.599976 0
M  V30 46 H -3.595272 -2.204452 0.106994 0
M  V30 47 H -5.606877 -1.828764 -0.999044 0
M  V30 48 H -5.101789 -0.159816 -0.750148 0
M  V30 49 H -6.513713 -1.657477 -4.134572 0
M  V30 50 H -5.102144 -2.712861 -4.012848 0
M  V30 51 H -6.354363 -2.575045 -2.641120 0
M  V30 52 H -6.521932 0.276432 -2.448565 0
M  V30 53 H -3.481301 0.370472 -3.762008 0
M  V30 54 H -3.829321 -1.161780 -4.559812 0
M  V30 55 H -1.905573 -0.569574 -2.420623 0
M  V30 56 H -1.750844 -1.757156 -3.719966 0
M  V30 57 H -2.854015 -5.330359 -2.411138 0
M  V30 58 H 0.378896 -7.755505 -1.220058 0
M  V30 59 H 1.599403 -5.755002 -0.304190 0
M  V30 60 H 3.005701 -3.830703 -0.956768 0
M  V30 61 H 4.982046 -2.964836 0.281937 0
M  V30 62 H 1.103186 3.755392 2.435719 0
M  V30 63 H 2.440533 3.166606 1.450350 0
M  V30 64 H 2.490689 5.089768 3.613987 0
M  V30 65 H 5.155181 4.259432 2.561372 0
M  V30 66 H 3.972994 4.360548 1.242480 0
M  V30 67 H 4.296527 5.803036 2.352440 0
M  V30 END ATOM
M  V30 BEGIN BOND
M  V30 1 1 1 2
M  V30 2 1 2 3
M  V30 3 1 3 4
M  V30 4 1 4 5
M  V30 5 2 5 6
M  V30 6 1 5 7
M  V30 7 1 7 8
M  V30 8 2 8 9
M  V30 9 1 9 10
M  V30 10 1 10 11
M  V30 11 2 11 12
M  V30 12 1 12 13
M  V30 13 1 13 14
M  V30 14 1 14 15
M  V30 15 1 15 16
M  V30 16 1 16 17
M  V30 17 1 17 18
M  V30 18 1 17 19 CFG=1
M  V30 19 1 17 20
M  V30 20 1 20 21
M  V30 21 1 13 22
M  V30 22 2 22 23
M  V30 23 1 23 24
M  V30 24 2 24 25
M  V30 25 1 25 26
M  V30 26 2 26 27
M  V30 27 2 10 28
M  V30 28 1 28 29
M  V30 29 2 29 30
M  V30 30 1 4 31
M  V30 31 1 31 32
M  V30 32 1 32 33
M  V30 33 1 32 34
M  V30 34 1 34 2
M  V30 35 1 30 8
M  V30 36 1 27 11
M  V30 37 1 21 14
M  V30 38 1 27 22
M  V30 39 1 1 35
M  V30 40 1 1 36
M  V30 41 1 1 37
M  V30 42 1 2 38 CFG=1
M  V30 43 1 3 39
M  V30 44 1 3 40
M  V30 45 1 7 41
M  V30 46 1 9 42
M  V30 47 1 12 43
M  V30 48 1 14 44 CFG=3
M  V30 49 1 15 45
M  V30 50 1 15 46
M  V30 51 1 16 47
M  V30 52 1 16 48
M  V30 53 1 18 49
M  V30 54 1 18 50
M  V30 55 1 18 51
M  V30 56 1 19 52
M  V30 57 1 20 53
M  V30 58 1 20 54
M  V30 59 1 21 55
M  V30 60 1 21 56
M  V30 61 1 23 57
M  V30 62 1 25 58
M  V30 63 1 26 59
M  V30 64 1 28 60
M  V30 65 1 29 61
M  V30 66 1 31 62
M  V30 67 1 31 63
M  V30 68 1 32 64 CFG=1
M  V30 69 1 33 65
M  V30 70 1 33 66
M  V30 71 1 33 67
M  V30 END BOND
M  V30 END CTAB
M  END
>  <Dataset>  (407) 
ChEMBL_Kinases

>  <Ligand_Instance>  (407) 
nan

>  <PDB_ID>  (407) 
nan

>  <Standardized_SMILES>  (407) 
C[C@@H]1CN(C(=O)Nc2cc(-c3cn([C@H]4CC[C@@](C)(O)CC4)c4cnccc34)ccn2)C[C@H](C)O1

>  <Name>  (407) 
nan

>  <Pocket>  (407) 
nan

>  <ATP_Site>  (407) 
nan

>  <Peripheral>  (407) 
nan

>  <Num_H_Atoms_ProtBoundConf>  (407) 
nan

>  <Num_Resolved_Atoms>  (407) 
nan

>  <Num_Not_Resolved_Atoms>  (407) 
nan

$$$$
CHEMBL4544973
     RDKit          3D

  0  0  0  0  0  0  0  0  0  0999 V3000
M  V30 BEGIN CTAB
M  V30 COUNTS 50 52 0 0 0
M  V30 BEGIN ATOM
M  V30 1 C 0.469852 -4.529468 3.589268 0
M  V30 2 N 0.830393 -3.152715 3.377525 0
M  V30 3 C -0.185484 -2.211434 3.761053 0
M  V30 4 C 1.418471 -2.890529 2.105100 0
M  V30 5 C 1.744939 -1.413810 2.021030 0
M  V30 6 C 2.368872 -1.029795 0.720501 0
M  V30 7 C 3.666857 -1.797152 0.524154 0
M  V30 8 C 2.777761 0.432390 0.810836 0
M  V30 9 N 1.512409 -1.172411 -0.433865 0
M  V30 10 C 0.322418 -0.501073 -0.803439 0
M  V30 11 C -0.270747 0.498606 -0.079869 0
M  V30 12 C -1.420612 1.182641 -0.405856 0
M  V30 13 C -2.015780 2.241798 0.397915 0
M  V30 14 C -1.535051 2.725342 1.595686 0
M  V30 15 C -2.178859 3.736477 2.279411 0
M  V30 16 N -3.309294 4.303418 1.813127 0
M  V30 17 C -3.802385 3.851036 0.644692 0
M  V30 18 C -3.173878 2.843944 -0.050354 0
M  V30 19 N -2.013053 0.806624 -1.578558 0
M  V30 20 C -1.486019 -0.166249 -2.338545 0
M  V30 21 C -2.140926 -0.487175 -3.504107 0
M  V30 22 N -1.691438 -1.459204 -4.348207 0
M  V30 23 C -0.555706 -2.121210 -4.007178 0
M  V30 24 C 0.078827 -1.787602 -2.846631 0
M  V30 25 C -0.338819 -0.817298 -1.969784 0
M  V30 26 H -0.601067 -4.754760 3.487027 0
M  V30 27 H 1.062841 -5.179171 2.894125 0
M  V30 28 H 0.772533 -4.800852 4.621539 0
M  V30 29 H 0.358551 -1.343581 4.207521 0
M  V30 30 H -0.772146 -1.844350 2.888896 0
M  V30 31 H -0.909611 -2.604777 4.475802 0
M  V30 32 H 2.297990 -3.528417 1.961567 0
M  V30 33 H 0.655953 -3.108828 1.302282 0
M  V30 34 H 0.889805 -0.818179 2.300342 0
M  V30 35 H 2.531879 -1.199137 2.803828 0
M  V30 36 H 4.140016 -1.946975 1.501266 0
M  V30 37 H 3.483996 -2.763955 -0.026008 0
M  V30 38 H 4.339950 -1.178406 -0.113341 0
M  V30 39 H 2.346002 0.866651 1.734215 0
M  V30 40 H 2.354193 1.008279 -0.046912 0
M  V30 41 H 3.891456 0.562759 0.801255 0
M  V30 42 H 1.874867 -1.902621 -1.061532 0
M  V30 43 H 0.143493 0.838136 0.834919 0
M  V30 44 H -0.642684 2.292880 1.984605 0
M  V30 45 H -1.752613 4.084759 3.230449 0
M  V30 46 H -4.722242 4.306591 0.257315 0
M  V30 47 H -3.598501 2.508267 -0.982213 0
M  V30 48 H -3.045922 0.026216 -3.795309 0
M  V30 49 H -0.226702 -2.886449 -4.699136 0
M  V30 50 H 0.956738 -2.360668 -2.667140 0
M  V30 END ATOM
M  V30 BEGIN BOND
M  V30 1 1 1 2
M  V30 2 1 2 3
M  V30 3 1 2 4
M  V30 4 1 4 5
M  V30 5 1 5 6
M  V30 6 1 6 7
M  V30 7 1 6 8
M  V30 8 1 6 9
M  V30 9 1 9 10
M  V30 10 2 10 11
M  V30 11 1 11 12
M  V30 12 1 12 13
M  V30 13 2 13 14
M  V30 14 1 14 15
M  V30 15 2 15 16
M  V30 16 1 16 17
M  V30 17 2 17 18
M  V30 18 2 12 19
M  V30 19 1 19 20
M  V30 20 2 20 21
M  V30 21 1 21 22
M  V30 22 2 22 23
M  V30 23 1 23 24
M  V30 24 2 24 25
M  V30 25 1 25 10
M  V30 26 1 18 13
M  V30 27 1 25 20
M  V30 28 1 1 26
M  V30 29 1 1 27
M  V30 30 1 1 28
M  V30 31 1 3 29
M  V30 32 1 3 30
M  V30 33 1 3 31
M  V30 34 1 4 32
M  V30 35 1 4 33
M  V30 36 1 5 34
M  V30 37 1 5 35
M  V30 38 1 7 36
M  V30 39 1 7 37
M  V30 40 1 7 38
M  V30 41 1 8 39
M  V30 42 1 8 40
M  V30 43 1 8 41
M  V30 44 1 9 42
M  V30 45 1 11 43
M  V30 46 1 14 44
M  V30 47 1 15 45
M  V30 48 1 17 46
M  V30 49 1 18 47
M  V30 50 1 21 48
M  V30 51 1 23 49
M  V30 52 1 24 50
M  V30 END BOND
M  V30 END CTAB
M  END
>  <Dataset>  (408) 
ChEMBL_Kinases

>  <Ligand_Instance>  (408) 
nan

>  <PDB_ID>  (408) 
nan

>  <Standardized_SMILES>  (408) 
CN(C)CCC(C)(C)Nc1cc(-c2ccncc2)nc2cnccc12

>  <Name>  (408) 
nan

>  <Pocket>  (408) 
nan

>  <ATP_Site>  (408) 
nan

>  <Peripheral>  (408) 
nan

>  <Num_H_Atoms_ProtBoundConf>  (408) 
nan

>  <Num_Resolved_Atoms>  (408) 
nan

>  <Num_Not_Resolved_Atoms>  (408) 
nan

$$$$
CHEMBL4544934
     RDKit          3D

  0  0  0  0  0  0  0  0  0  0999 V3000
M  V30 BEGIN CTAB
M  V30 COUNTS 56 61 0 0 0
M  V30 BEGIN ATOM
M  V30 1 O 0.714318 -0.583596 1.621298 0
M  V30 2 C -0.069854 -0.920791 2.573948 0
M  V30 3 N 1.220287 -0.447182 2.898024 0
M  V30 4 C 2.439632 0.041999 2.343626 0
M  V30 5 C 3.662928 -0.441944 2.679826 0
M  V30 6 C 4.779909 0.086482 2.077205 0
M  V30 7 C 4.679788 1.092906 1.143294 0
M  V30 8 C 3.410845 1.523653 0.861905 0
M  V30 9 N 2.325839 1.019059 1.439817 0
M  V30 10 C 2.814465 2.508850 -0.023477 0
M  V30 11 N 3.224898 2.391949 -1.286811 0
M  V30 12 N 2.595615 3.354558 -1.982877 0
M  V30 13 C 1.836572 3.996696 -1.077435 0
M  V30 14 N 1.941802 3.493531 0.191837 0
M  V30 15 C 1.179511 4.145457 1.186480 0
M  V30 16 C -0.294792 3.896830 1.223755 0
M  V30 17 C -0.590339 2.467313 1.534807 0
M  V30 18 C -2.070121 2.201114 1.663525 0
M  V30 19 O -2.305777 0.893444 2.025809 0
M  V30 20 C -2.039237 -0.286966 1.455145 0
M  V30 21 C -3.013834 -0.569039 0.508530 0
M  V30 22 C -3.002215 -1.739427 -0.250775 0
M  V30 23 C -2.050947 -2.702010 -0.139933 0
M  V30 24 N -1.932361 -3.917850 -0.844620 0
M  V30 25 C -2.732892 -4.553250 -1.874897 0
M  V30 26 C -2.013871 -5.812631 -1.607858 0
M  V30 27 C -1.657910 -6.718920 -2.702313 0
M  V30 28 O -2.055025 -7.782254 -1.860092 0
M  V30 29 C -2.702374 -6.944321 -0.929962 0
M  V30 30 C -1.011555 -5.034654 -0.869474 0
M  V30 31 C -1.074886 -2.404756 0.816519 0
M  V30 32 C -1.072770 -1.256050 1.572923 0
M  V30 33 H 1.363617 -0.452344 3.957324 0
M  V30 34 H 3.730893 -1.211855 3.398238 0
M  V30 35 H 5.784280 -0.210569 2.259109 0
M  V30 36 H 5.361483 1.663139 0.537558 0
M  V30 37 H 1.298611 4.801236 -1.612760 0
M  V30 38 H 1.416999 5.239550 1.283688 0
M  V30 39 H 1.563775 3.739256 2.183142 0
M  V30 40 H -0.787431 4.166909 0.246234 0
M  V30 41 H -0.740618 4.550121 2.011759 0
M  V30 42 H -0.118678 2.208323 2.501722 0
M  V30 43 H -0.240512 1.811068 0.692858 0
M  V30 44 H -2.478390 2.876622 2.474544 0
M  V30 45 H -2.611310 2.469303 0.725246 0
M  V30 46 H -3.889857 0.036343 0.221654 0
M  V30 47 H -3.742722 -2.002753 -1.003743 0
M  V30 48 H -2.517182 -4.081953 -2.853267 0
M  V30 49 H -3.824555 -4.551970 -1.674299 0
M  V30 50 H -2.326649 -6.739647 -3.590612 0
M  V30 51 H -0.572118 -6.805535 -2.946161 0
M  V30 52 H -3.807454 -6.942623 -1.028276 0
M  V30 53 H -2.329727 -7.042205 0.115493 0
M  V30 54 H -0.038738 -4.827396 -1.357191 0
M  V30 55 H -0.789912 -5.494689 0.132910 0
M  V30 56 H -0.215948 -3.002396 1.079929 0
M  V30 END ATOM
M  V30 BEGIN BOND
M  V30 1 2 1 2
M  V30 2 1 2 3
M  V30 3 1 3 4
M  V30 4 1 4 5
M  V30 5 2 5 6
M  V30 6 1 6 7
M  V30 7 2 7 8
M  V30 8 1 8 9
M  V30 9 1 8 10
M  V30 10 2 10 11
M  V30 11 1 11 12
M  V30 12 2 12 13
M  V30 13 1 13 14
M  V30 14 1 14 15
M  V30 15 1 15 16
M  V30 16 1 16 17
M  V30 17 1 17 18
M  V30 18 1 18 19
M  V30 19 1 19 20
M  V30 20 2 20 21
M  V30 21 1 21 22
M  V30 22 2 22 23
M  V30 23 1 23 24
M  V30 24 1 24 25
M  V30 25 1 25 26
M  V30 26 1 26 27
M  V30 27 1 27 28
M  V30 28 1 28 29
M  V30 29 1 26 30
M  V30 30 1 23 31
M  V30 31 2 31 32
M  V30 32 1 32 2
M  V30 33 2 9 4
M  V30 34 1 14 10
M  V30 35 1 32 20
M  V30 36 1 30 24
M  V30 37 1 29 26
M  V30 38 1 3 33
M  V30 39 1 5 34
M  V30 40 1 6 35
M  V30 41 1 7 36
M  V30 42 1 13 37
M  V30 43 1 15 38
M  V30 44 1 15 39
M  V30 45 1 16 40
M  V30 46 1 16 41
M  V30 47 1 17 42
M  V30 48 1 17 43
M  V30 49 1 18 44
M  V30 50 1 18 45
M  V30 51 1 21 46
M  V30 52 1 22 47
M  V30 53 1 25 48
M  V30 54 1 25 49
M  V30 55 1 27 50
M  V30 56 1 27 51
M  V30 57 1 29 52
M  V30 58 1 29 53
M  V30 59 1 30 54
M  V30 60 1 30 55
M  V30 61 1 31 56
M  V30 END BOND
M  V30 END CTAB
M  END
>  <Dataset>  (409) 
ChEMBL_Kinases

>  <Ligand_Instance>  (409) 
nan

>  <PDB_ID>  (409) 
nan

>  <Standardized_SMILES>  (409) 
O=C1Nc2cccc(n2)-c2nncn2CCCCOc2ccc(N3CC4(COC4)C3)cc21

>  <Name>  (409) 
nan

>  <Pocket>  (409) 
nan

>  <ATP_Site>  (409) 
nan

>  <Peripheral>  (409) 
nan

>  <Num_H_Atoms_ProtBoundConf>  (409) 
nan

>  <Num_Resolved_Atoms>  (409) 
nan

>  <Num_Not_Resolved_Atoms>  (409) 
nan

$$$$
CHEMBL4546392
     RDKit          3D

  0  0  0  0  0  0  0  0  0  0999 V3000
M  V30 BEGIN CTAB
M  V30 COUNTS 66 70 0 0 0
M  V30 BEGIN ATOM
M  V30 1 C 2.971226 -3.095752 1.817150 0
M  V30 2 N 4.414657 -2.947267 1.948756 0
M  V30 3 N 5.129553 -4.039611 2.198212 0
M  V30 4 C 6.423356 -3.706862 2.284163 0
M  V30 5 C 6.421677 -2.350495 2.069344 0
M  V30 6 Cl 7.974155 -1.591210 2.116184 0
M  V30 7 C 5.169010 -1.845849 1.855263 0
M  V30 8 C 4.737252 -0.498633 1.594125 0
M  V30 9 C 3.430576 -0.120811 1.395870 0
M  V30 10 C 3.303868 1.249732 1.161805 0
M  V30 11 C 2.157560 2.121361 0.900982 0
M  V30 12 O 2.267937 3.344498 0.707212 0
M  V30 13 N 0.867589 1.523747 0.871471 0
M  V30 14 C -0.434569 2.119051 0.639853 0 CFG=2
M  V30 15 C -1.204151 1.998466 1.926303 0
M  V30 16 N -1.398837 0.603453 2.209458 0
M  V30 17 C -2.150499 -0.108513 1.245549 0 CFG=2
M  V30 18 C -1.925152 -1.613281 1.529087 0
M  V30 19 C -2.704981 -2.380089 0.527132 0
M  V30 20 N -2.608766 -3.809257 0.656980 0
M  V30 21 C -3.389259 -4.510075 -0.344301 0
M  V30 22 C -2.459076 -4.678514 -1.517227 0
M  V30 23 C -1.091351 -4.732771 -0.894442 0
M  V30 24 C -1.294114 -4.332648 0.543402 0
M  V30 25 C -1.692435 0.151029 -0.146814 0
M  V30 26 C -1.188625 1.499566 -0.472110 0 CFG=1
M  V30 27 C -2.242008 2.394768 -0.971644 0
M  V30 28 C -1.959796 3.127775 -2.136467 0
M  V30 29 C -2.852444 4.015555 -2.748833 0
M  V30 30 C -4.084657 4.199322 -2.198197 0
M  V30 31 Cl -5.230701 5.292003 -2.920244 0
M  V30 32 C -4.409195 3.515447 -1.072205 0
M  V30 33 Cl -5.972989 3.738520 -0.360923 0
M  V30 34 C -3.508294 2.654421 -0.501253 0
M  V30 35 O 4.548971 1.707305 1.219009 0
M  V30 36 C 5.362870 0.709488 1.465357 0
M  V30 37 Cl 7.060327 1.031519 1.591997 0
M  V30 38 H 2.464126 -2.557500 2.625090 0
M  V30 39 H 2.696819 -2.837525 0.791371 0
M  V30 40 H 2.665600 -4.158861 1.941839 0
M  V30 41 H 7.165635 -4.464759 2.483560 0
M  V30 42 H 2.484895 -0.608242 1.375143 0
M  V30 43 H 0.793126 0.494552 1.033541 0
M  V30 44 H -0.178607 3.208281 0.431016 0
M  V30 45 H -0.516061 2.377322 2.749388 0
M  V30 46 H -2.149919 2.578721 1.952726 0
M  V30 47 H -0.526603 0.158624 2.521394 0
M  V30 48 H -3.233327 0.107744 1.402650 0
M  V30 49 H -2.312923 -1.864677 2.550870 0
M  V30 50 H -0.854856 -1.826947 1.546978 0
M  V30 51 H -3.764309 -2.070748 0.549500 0
M  V30 52 H -2.297216 -2.155087 -0.503100 0
M  V30 53 H -4.316733 -3.982153 -0.571222 0
M  V30 54 H -3.597706 -5.522608 0.064314 0
M  V30 55 H -2.716949 -5.624116 -2.050325 0
M  V30 56 H -2.571699 -3.855779 -2.249631 0
M  V30 57 H -0.351266 -4.092138 -1.420697 0
M  V30 58 H -0.710880 -5.774997 -1.012648 0
M  V30 59 H -0.481218 -3.742520 0.959956 0
M  V30 60 H -1.286840 -5.299812 1.126788 0
M  V30 61 H -2.487060 -0.190743 -0.900232 0
M  V30 62 H -0.883749 -0.624577 -0.359035 0
M  V30 63 H -0.497648 1.361107 -1.380080 0
M  V30 64 H -1.014379 3.060918 -2.658069 0
M  V30 65 H -2.592299 4.557812 -3.644145 0
M  V30 66 H -3.809856 2.139022 0.370295 0
M  V30 END ATOM
M  V30 BEGIN BOND
M  V30 1 1 1 2
M  V30 2 1 2 3
M  V30 3 2 3 4
M  V30 4 1 4 5
M  V30 5 1 5 6
M  V30 6 2 5 7
M  V30 7 1 7 8
M  V30 8 1 8 9
M  V30 9 2 9 10
M  V30 10 1 10 11
M  V30 11 2 11 12
M  V30 12 1 11 13
M  V30 13 1 13 14
M  V30 14 1 14 15
M  V30 15 1 15 16
M  V30 16 1 16 17
M  V30 17 1 17 18
M  V30 18 1 18 19
M  V30 19 1 19 20
M  V30 20 1 20 21
M  V30 21 1 21 22
M  V30 22 1 22 23
M  V30 23 1 23 24
M  V30 24 1 17 25
M  V30 25 1 25 26
M  V30 26 1 26 27
M  V30 27 2 27 28
M  V30 28 1 28 29
M  V30 29 2 29 30
M  V30 30 1 30 31
M  V30 31 1 30 32
M  V30 32 1 32 33
M  V30 33 2 32 34
M  V30 34 1 10 35
M  V30 35 1 35 36
M  V30 36 1 36 37
M  V30 37 1 7 2
M  V30 38 2 36 8
M  V30 39 1 26 14
M  V30 40 1 34 27
M  V30 41 1 24 20
M  V30 42 1 1 38
M  V30 43 1 1 39
M  V30 44 1 1 40
M  V30 45 1 4 41
M  V30 46 1 9 42
M  V30 47 1 13 43
M  V30 48 1 14 44 CFG=3
M  V30 49 1 15 45
M  V30 50 1 15 46
M  V30 51 1 16 47
M  V30 52 1 17 48 CFG=3
M  V30 53 1 18 49
M  V30 54 1 18 50
M  V30 55 1 19 51
M  V30 56 1 19 52
M  V30 57 1 21 53
M  V30 58 1 21 54
M  V30 59 1 22 55
M  V30 60 1 22 56
M  V30 61 1 23 57
M  V30 62 1 23 58
M  V30 63 1 24 59
M  V30 64 1 24 60
M  V30 65 1 25 61
M  V30 66 1 25 62
M  V30 67 1 26 63 CFG=3
M  V30 68 1 28 64
M  V30 69 1 29 65
M  V30 70 1 34 66
M  V30 END BOND
M  V30 END CTAB
M  END
>  <Dataset>  (410) 
ChEMBL_Kinases

>  <Ligand_Instance>  (410) 
nan

>  <PDB_ID>  (410) 
nan

>  <Standardized_SMILES>  (410) 
Cn1ncc(Cl)c1-c1cc(C(=O)N[C@@H]2CN[C@H](CCN3CCCC3)C[C@H]2c2ccc(Cl)c(Cl)c2)oc1Cl

>  <Name>  (410) 
nan

>  <Pocket>  (410) 
nan

>  <ATP_Site>  (410) 
nan

>  <Peripheral>  (410) 
nan

>  <Num_H_Atoms_ProtBoundConf>  (410) 
nan

>  <Num_Resolved_Atoms>  (410) 
nan

>  <Num_Not_Resolved_Atoms>  (410) 
nan

$$$$
CHEMBL4541215
     RDKit          3D

  0  0  0  0  0  0  0  0  0  0999 V3000
M  V30 BEGIN CTAB
M  V30 COUNTS 38 40 0 0 0
M  V30 BEGIN ATOM
M  V30 1 C -0.380514 -2.106648 2.986953 0
M  V30 2 C -0.897717 -2.642775 1.661343 0
M  V30 3 C -2.318938 -3.114760 1.803408 0
M  V30 4 C -0.004726 -3.845218 1.345431 0
M  V30 5 N 1.340940 -3.307315 1.266819 0
M  V30 6 C -0.728695 -1.682991 0.552891 0
M  V30 7 C -1.152330 -2.031740 -0.711461 0
M  V30 8 C -0.996819 -1.129255 -1.769534 0
M  V30 9 C -0.409762 0.110784 -1.504840 0
M  V30 10 C 0.018366 0.458716 -0.218224 0
M  V30 11 C 0.600942 1.788881 -0.150541 0
M  V30 12 C -0.033945 2.828454 -0.782350 0
M  V30 13 C 0.438521 4.137701 -0.778866 0
M  V30 14 N 1.594515 4.399726 -0.111301 0
M  V30 15 C 2.254511 3.404536 0.526335 0
M  V30 16 N 3.398343 3.375809 1.251312 0
M  V30 17 N 3.623184 2.126829 1.672360 0
M  V30 18 C 2.625989 1.306552 1.229694 0
M  V30 19 C 1.768184 2.098262 0.513474 0
M  V30 20 C -0.158381 -0.467389 0.788553 0
M  V30 21 H -0.686380 -2.880424 3.748233 0
M  V30 22 H -0.803445 -1.128340 3.224018 0
M  V30 23 H 0.729395 -2.137872 2.995287 0
M  V30 24 H -2.367620 -4.224977 1.810264 0
M  V30 25 H -2.695621 -2.786974 2.790427 0
M  V30 26 H -2.980828 -2.775555 0.982441 0
M  V30 27 H -0.351576 -4.311814 0.402812 0
M  V30 28 H -0.115431 -4.611568 2.149318 0
M  V30 29 H 1.952048 -3.548799 2.053367 0
M  V30 30 H 1.754069 -3.334463 0.330485 0
M  V30 31 H -1.601135 -3.008723 -0.856866 0
M  V30 32 H -1.328710 -1.404382 -2.756319 0
M  V30 33 H -0.326555 0.747148 -2.372695 0
M  V30 34 H -0.953687 2.649581 -1.320115 0
M  V30 35 H -0.093527 4.946167 -1.294272 0
M  V30 36 H 4.037864 4.169700 1.475191 0
M  V30 37 H 2.534658 0.248433 1.409290 0
M  V30 38 H 0.189533 -0.136429 1.739859 0
M  V30 END ATOM
M  V30 BEGIN BOND
M  V30 1 1 1 2
M  V30 2 1 2 3
M  V30 3 1 2 4
M  V30 4 1 4 5
M  V30 5 1 2 6
M  V30 6 2 6 7
M  V30 7 1 7 8
M  V30 8 2 8 9
M  V30 9 1 9 10
M  V30 10 1 10 11
M  V30 11 2 11 12
M  V30 12 1 12 13
M  V30 13 2 13 14
M  V30 14 1 14 15
M  V30 15 1 15 16
M  V30 16 1 16 17
M  V30 17 2 17 18
M  V30 18 1 18 19
M  V30 19 2 10 20
M  V30 20 1 20 6
M  V30 21 1 19 11
M  V30 22 2 19 15
M  V30 23 1 1 21
M  V30 24 1 1 22
M  V30 25 1 1 23
M  V30 26 1 3 24
M  V30 27 1 3 25
M  V30 28 1 3 26
M  V30 29 1 4 27
M  V30 30 1 4 28
M  V30 31 1 5 29
M  V30 32 1 5 30
M  V30 33 1 7 31
M  V30 34 1 8 32
M  V30 35 1 9 33
M  V30 36 1 12 34
M  V30 37 1 13 35
M  V30 38 1 16 36
M  V30 39 1 18 37
M  V30 40 1 20 38
M  V30 END BOND
M  V30 END CTAB
M  END
>  <Dataset>  (411) 
ChEMBL_Kinases

>  <Ligand_Instance>  (411) 
nan

>  <PDB_ID>  (411) 
nan

>  <Standardized_SMILES>  (411) 
CC(C)(CN)c1cccc(-c2ccnc3[nH]ncc23)c1

>  <Name>  (411) 
nan

>  <Pocket>  (411) 
nan

>  <ATP_Site>  (411) 
nan

>  <Peripheral>  (411) 
nan

>  <Num_H_Atoms_ProtBoundConf>  (411) 
nan

>  <Num_Resolved_Atoms>  (411) 
nan

>  <Num_Not_Resolved_Atoms>  (411) 
nan

$$$$
CHEMBL4640445
     RDKit          3D

  0  0  0  0  0  0  0  0  0  0999 V3000
M  V30 BEGIN CTAB
M  V30 COUNTS 49 51 0 0 0
M  V30 BEGIN ATOM
M  V30 1 C 0.419911 -4.834122 1.561775 0
M  V30 2 S 1.597283 -3.994412 0.562373 0
M  V30 3 O 2.777405 -4.936899 0.387616 0
M  V30 4 O 2.172625 -2.776484 1.281735 0
M  V30 5 C 0.976408 -3.492445 -0.989226 0
M  V30 6 C 1.064912 -4.255071 -2.146414 0
M  V30 7 C 0.550266 -3.755105 -3.321162 0
M  V30 8 C -0.053290 -2.525292 -3.404663 0
M  V30 9 C -0.180118 -1.700969 -2.281463 0
M  V30 10 N -0.784978 -0.412678 -2.303689 0
M  V30 11 C -1.056443 0.109671 -1.011280 0
M  V30 12 N -0.205520 0.735368 -0.154015 0
M  V30 13 C -0.619357 1.164011 1.052976 0
M  V30 14 N 0.283234 1.812801 1.934018 0
M  V30 15 C 1.591345 2.254584 1.626792 0
M  V30 16 C 2.510782 2.602383 2.715895 0
M  V30 17 C 2.074436 2.453812 4.118052 0
M  V30 18 C 0.907123 1.491721 4.262443 0 CFG=2
M  V30 19 N 1.268923 0.145506 3.879779 0
M  V30 20 C -0.145610 2.050443 3.310352 0
M  V30 21 N -1.900532 0.964170 1.403959 0
M  V30 22 C -2.812778 0.355165 0.620537 0
M  V30 23 C -2.358308 -0.072942 -0.609125 0
M  V30 24 C -3.341127 -0.725134 -1.457065 0
M  V30 25 N -4.704907 -1.001478 -1.216137 0
M  V30 26 O -3.328686 -1.230786 -2.596219 0
M  V30 27 C 0.362199 -2.266942 -1.121527 0
M  V30 28 H 0.709024 -4.704230 2.647517 0
M  V30 29 H 0.390527 -5.931162 1.391654 0
M  V30 30 H -0.604971 -4.454602 1.359994 0
M  V30 31 H 1.549587 -5.209807 -2.013589 0
M  V30 32 H 0.648823 -4.402672 -4.202483 0
M  V30 33 H -0.457207 -2.149822 -4.355790 0
M  V30 34 H -0.949366 -0.020894 -3.264308 0
M  V30 35 H 2.060421 1.451394 0.980944 0
M  V30 36 H 1.501240 3.117333 0.896521 0
M  V30 37 H 3.496049 2.051471 2.596495 0
M  V30 38 H 2.838426 3.684695 2.594713 0
M  V30 39 H 2.919775 2.101752 4.758174 0
M  V30 40 H 1.689354 3.444802 4.504042 0
M  V30 41 H 0.481840 1.491728 5.265110 0
M  V30 42 H 2.035148 0.126459 3.154074 0
M  V30 43 H 1.465693 -0.467401 4.679486 0
M  V30 44 H -1.075116 1.494996 3.556319 0
M  V30 45 H -0.315123 3.112782 3.513261 0
M  V30 46 H -3.855630 0.212448 0.951112 0
M  V30 47 H -5.653135 -0.796845 -0.841512 0
M  V30 48 H -5.638684 -0.761689 -0.826474 0
M  V30 49 H 0.291029 -1.657064 -0.205977 0
M  V30 END ATOM
M  V30 BEGIN BOND
M  V30 1 1 1 2
M  V30 2 2 2 3
M  V30 3 2 2 4
M  V30 4 1 2 5
M  V30 5 2 5 6
M  V30 6 1 6 7
M  V30 7 2 7 8
M  V30 8 1 8 9
M  V30 9 1 9 10
M  V30 10 1 10 11
M  V30 11 2 11 12
M  V30 12 1 12 13
M  V30 13 1 13 14
M  V30 14 1 14 15
M  V30 15 1 15 16
M  V30 16 1 16 17
M  V30 17 1 17 18
M  V30 18 1 18 19
M  V30 19 1 18 20
M  V30 20 2 13 21
M  V30 21 1 21 22
M  V30 22 2 22 23
M  V30 23 1 23 24
M  V30 24 1 24 25
M  V30 25 2 24 26
M  V30 26 2 9 27
M  V30 27 1 27 5
M  V30 28 1 23 11
M  V30 29 1 20 14
M  V30 30 1 1 28
M  V30 31 1 1 29
M  V30 32 1 1 30
M  V30 33 1 6 31
M  V30 34 1 7 32
M  V30 35 1 8 33
M  V30 36 1 10 34
M  V30 37 1 15 35
M  V30 38 1 15 36
M  V30 39 1 16 37
M  V30 40 1 16 38
M  V30 41 1 17 39
M  V30 42 1 17 40
M  V30 43 1 18 41 CFG=1
M  V30 44 1 19 42
M  V30 45 1 19 43
M  V30 46 1 20 44
M  V30 47 1 20 45
M  V30 48 1 22 46
M  V30 49 1 25 47
M  V30 50 1 25 48
M  V30 51 1 27 49
M  V30 END BOND
M  V30 END CTAB
M  END
>  <Dataset>  (412) 
ChEMBL_Kinases

>  <Ligand_Instance>  (412) 
nan

>  <PDB_ID>  (412) 
nan

>  <Standardized_SMILES>  (412) 
CS(=O)(=O)c1cccc(Nc2nc(N3CCC[C@H](N)C3)ncc2C(N)=O)c1

>  <Name>  (412) 
nan

>  <Pocket>  (412) 
nan

>  <ATP_Site>  (412) 
nan

>  <Peripheral>  (412) 
nan

>  <Num_H_Atoms_ProtBoundConf>  (412) 
nan

>  <Num_Resolved_Atoms>  (412) 
nan

>  <Num_Not_Resolved_Atoms>  (412) 
nan

$$$$
CHEMBL4541128
     RDKit          3D

  0  0  0  0  0  0  0  0  0  0999 V3000
M  V30 BEGIN CTAB
M  V30 COUNTS 58 62 0 0 0
M  V30 BEGIN ATOM
M  V30 1 C 5.649124 -5.386144 2.707065 0
M  V30 2 O 5.999972 -4.047916 2.373921 0
M  V30 3 C 5.076753 -3.168734 1.813456 0
M  V30 4 C 3.749376 -3.427111 1.505624 0
M  V30 5 C 2.965527 -2.429477 0.947244 0
M  V30 6 C 3.479152 -1.159325 0.683235 0
M  V30 7 C 2.491718 -0.254014 0.098358 0
M  V30 8 N 1.397731 0.272590 0.695199 0
M  V30 9 N 0.740559 1.058857 -0.159057 0
M  V30 10 C -0.457276 1.773048 0.152127 0
M  V30 11 C -0.767070 2.958123 -0.506742 0
M  V30 12 C -1.934555 3.675977 -0.216658 0
M  V30 13 C -2.808202 3.198611 0.750625 0
M  V30 14 C -2.508201 2.021879 1.410249 0
M  V30 15 N -3.360702 1.453690 2.432699 0
M  V30 16 C -4.313603 0.583036 1.839158 0
M  V30 17 O -4.228942 0.485345 0.590832 0
M  V30 18 N -5.298286 -0.140601 2.533376 0
M  V30 19 C -6.287658 -1.026067 2.043182 0
M  V30 20 C -6.496230 -1.362781 0.725371 0
M  V30 21 C -7.462651 -2.225421 0.278273 0
M  V30 22 C -8.303001 -2.814467 1.194777 0
M  V30 23 Cl -9.534000 -3.914624 0.638340 0
M  V30 24 C -8.118110 -2.495974 2.522857 0
M  V30 25 Cl -9.149619 -3.210461 3.732061 0
M  V30 26 C -7.130704 -1.621977 2.918994 0
M  V30 27 C -1.349034 1.329271 1.107716 0
M  V30 28 C 1.402100 1.058120 -1.342615 0
M  V30 29 C 2.504768 0.235454 -1.190639 0
M  V30 30 C 3.452260 -0.003792 -2.269515 0
M  V30 31 C 4.774859 0.342491 -2.350223 0
M  V30 32 C 5.529961 0.022513 -3.468586 0
M  V30 33 N 4.952440 -0.644534 -4.501199 0
M  V30 34 C 3.655795 -0.992880 -4.439511 0
M  V30 35 C 2.883914 -0.687349 -3.341268 0
M  V30 36 C 4.799532 -0.909373 0.991922 0
M  V30 37 C 5.574184 -1.907817 1.547897 0
M  V30 38 Cl 7.222405 -1.428803 1.879954 0
M  V30 39 H 5.705122 -6.044888 1.802006 0
M  V30 40 H 4.635622 -5.476292 3.127058 0
M  V30 41 H 6.407092 -5.797955 3.408253 0
M  V30 42 H 3.416978 -4.422344 1.732427 0
M  V30 43 H 1.934467 -2.742916 0.745478 0
M  V30 44 H -0.102611 3.357460 -1.269648 0
M  V30 45 H -2.203913 4.599369 -0.708468 0
M  V30 46 H -3.735421 3.658787 1.060892 0
M  V30 47 H -3.382348 1.577961 3.469589 0
M  V30 48 H -5.240037 0.043597 3.556667 0
M  V30 49 H -5.875420 -0.939195 -0.044719 0
M  V30 50 H -7.582505 -2.453937 -0.774742 0
M  V30 51 H -7.029823 -1.407452 3.977466 0
M  V30 52 H -1.062831 0.400260 1.594393 0
M  V30 53 H 1.050393 1.637730 -2.209951 0
M  V30 54 H 5.147200 0.864222 -1.499078 0
M  V30 55 H 6.559033 0.333328 -3.446065 0
M  V30 56 H 3.346645 -1.510071 -5.325916 0
M  V30 57 H 1.839210 -1.019473 -3.398283 0
M  V30 58 H 5.123469 0.094596 0.761408 0
M  V30 END ATOM
M  V30 BEGIN BOND
M  V30 1 1 1 2
M  V30 2 1 2 3
M  V30 3 2 3 4
M  V30 4 1 4 5
M  V30 5 2 5 6
M  V30 6 1 6 7
M  V30 7 2 7 8
M  V30 8 1 8 9
M  V30 9 1 9 10
M  V30 10 2 10 11
M  V30 11 1 11 12
M  V30 12 2 12 13
M  V30 13 1 13 14
M  V30 14 1 14 15
M  V30 15 1 15 16
M  V30 16 2 16 17
M  V30 17 1 16 18
M  V30 18 1 18 19
M  V30 19 2 19 20
M  V30 20 1 20 21
M  V30 21 2 21 22
M  V30 22 1 22 23
M  V30 23 1 22 24
M  V30 24 1 24 25
M  V30 25 2 24 26
M  V30 26 2 14 27
M  V30 27 1 9 28
M  V30 28 2 28 29
M  V30 29 1 29 30
M  V30 30 2 30 31
M  V30 31 1 31 32
M  V30 32 2 32 33
M  V30 33 1 33 34
M  V30 34 2 34 35
M  V30 35 1 6 36
M  V30 36 2 36 37
M  V30 37 1 37 38
M  V30 38 1 37 3
M  V30 39 1 29 7
M  V30 40 1 35 30
M  V30 41 1 27 10
M  V30 42 1 26 19
M  V30 43 1 1 39
M  V30 44 1 1 40
M  V30 45 1 1 41
M  V30 46 1 4 42
M  V30 47 1 5 43
M  V30 48 1 11 44
M  V30 49 1 12 45
M  V30 50 1 13 46
M  V30 51 1 15 47
M  V30 52 1 18 48
M  V30 53 1 20 49
M  V30 54 1 21 50
M  V30 55 1 26 51
M  V30 56 1 27 52
M  V30 57 1 28 53
M  V30 58 1 31 54
M  V30 59 1 32 55
M  V30 60 1 34 56
M  V30 61 1 35 57
M  V30 62 1 36 58
M  V30 END BOND
M  V30 END CTAB
M  END
>  <Dataset>  (413) 
ChEMBL_Kinases

>  <Ligand_Instance>  (413) 
nan

>  <PDB_ID>  (413) 
nan

>  <Standardized_SMILES>  (413) 
COc1ccc(-c2nn(-c3cccc(NC(=O)Nc4ccc(Cl)c(Cl)c4)c3)cc2-c2ccncc2)cc1Cl

>  <Name>  (413) 
nan

>  <Pocket>  (413) 
nan

>  <ATP_Site>  (413) 
nan

>  <Peripheral>  (413) 
nan

>  <Num_H_Atoms_ProtBoundConf>  (413) 
nan

>  <Num_Resolved_Atoms>  (413) 
nan

>  <Num_Not_Resolved_Atoms>  (413) 
nan

$$$$
CHEMBL454103
     RDKit          3D

  0  0  0  0  0  0  0  0  0  0999 V3000
M  V30 BEGIN CTAB
M  V30 COUNTS 51 52 0 0 0
M  V30 BEGIN ATOM
M  V30 1 C 0.147260 -0.621479 3.270946 0
M  V30 2 C 1.529923 -0.931705 3.747696 0
M  V30 3 C 1.431638 -1.717068 5.052744 0
M  V30 4 C 2.250455 -1.784639 2.726772 0
M  V30 5 C 2.350960 0.293288 4.068078 0
M  V30 6 C 2.507260 1.172811 2.881543 0
M  V30 7 O 3.118656 2.232181 2.619647 0
M  V30 8 O 1.883345 0.897684 1.669912 0
M  V30 9 C 2.100742 1.804736 0.602882 0
M  V30 10 C 1.319295 1.329032 -0.603587 0
M  V30 11 C 1.557516 2.285953 -1.741825 0
M  V30 12 O 1.155764 3.570929 -1.424455 0
M  V30 13 C -0.155491 1.217228 -0.266944 0
M  V30 14 C -0.545590 -0.101418 -0.815485 0
M  V30 15 C -1.740259 -0.532844 -1.173771 0
M  V30 16 C -2.065085 -1.839506 -1.710959 0
M  V30 17 C -1.433323 -2.570031 -2.692072 0
M  V30 18 C -1.840801 -3.803250 -3.082736 0
M  V30 19 C -2.942916 -4.417704 -2.506387 0
M  V30 20 C -3.564894 -3.674582 -1.527151 0
M  V30 21 C -3.178675 -2.399781 -1.092842 0
M  V30 22 C -3.968443 -1.744927 -0.018519 0
M  V30 23 F -4.990548 -2.584764 0.370317 0
M  V30 24 F -3.185421 -1.366684 1.052733 0
M  V30 25 F -4.603441 -0.625939 -0.579371 0
M  V30 26 C 0.688063 -0.870494 -0.858503 0
M  V30 27 O 0.648475 -2.151636 -0.779091 0
M  V30 28 O 1.744775 0.055868 -0.988311 0
M  V30 29 H -0.138757 0.403271 3.580051 0
M  V30 30 H -0.565225 -1.309069 3.748365 0
M  V30 31 H 0.125913 -0.718407 2.165888 0
M  V30 32 H 0.970519 -2.694530 4.858436 0
M  V30 33 H 2.435337 -1.812247 5.524005 0
M  V30 34 H 0.739591 -1.094296 5.694162 0
M  V30 35 H 1.825351 -1.542630 1.729890 0
M  V30 36 H 3.341601 -1.618419 2.744270 0
M  V30 37 H 2.034760 -2.863230 2.927729 0
M  V30 38 H 3.330863 -0.007693 4.435866 0
M  V30 39 H 1.790830 0.853092 4.852873 0
M  V30 40 H 1.768271 2.813872 0.905996 0
M  V30 41 H 3.163773 1.873833 0.346852 0
M  V30 42 H 1.011427 1.964680 -2.666344 0
M  V30 43 H 2.652400 2.296278 -1.915954 0
M  V30 44 H 0.650368 3.617377 -0.591911 0
M  V30 45 H -0.663926 2.070310 -0.756553 0
M  V30 46 H -0.306863 1.244394 0.833727 0
M  V30 47 H -2.532951 0.220692 -1.028157 0
M  V30 48 H -0.581444 -2.087946 -3.152377 0
M  V30 49 H -1.307377 -4.319654 -3.850193 0
M  V30 50 H -3.285926 -5.385454 -2.791550 0
M  V30 51 H -4.430072 -4.152192 -1.071670 0
M  V30 END ATOM
M  V30 BEGIN BOND
M  V30 1 1 1 2
M  V30 2 1 2 3
M  V30 3 1 2 4
M  V30 4 1 2 5
M  V30 5 1 5 6
M  V30 6 2 6 7
M  V30 7 1 6 8
M  V30 8 1 8 9
M  V30 9 1 9 10
M  V30 10 1 10 11
M  V30 11 1 11 12
M  V30 12 1 10 13
M  V30 13 1 13 14
M  V30 14 2 14 15
M  V30 15 1 15 16
M  V30 16 2 16 17
M  V30 17 1 17 18
M  V30 18 2 18 19
M  V30 19 1 19 20
M  V30 20 2 20 21
M  V30 21 1 21 22
M  V30 22 1 22 23
M  V30 23 1 22 24
M  V30 24 1 22 25
M  V30 25 1 14 26
M  V30 26 2 26 27
M  V30 27 1 26 28
M  V30 28 1 28 10
M  V30 29 1 21 16
M  V30 30 1 1 29
M  V30 31 1 1 30
M  V30 32 1 1 31
M  V30 33 1 3 32
M  V30 34 1 3 33
M  V30 35 1 3 34
M  V30 36 1 4 35
M  V30 37 1 4 36
M  V30 38 1 4 37
M  V30 39 1 5 38
M  V30 40 1 5 39
M  V30 41 1 9 40
M  V30 42 1 9 41
M  V30 43 1 11 42
M  V30 44 1 11 43
M  V30 45 1 12 44
M  V30 46 1 13 45
M  V30 47 1 13 46
M  V30 48 1 15 47
M  V30 49 1 17 48
M  V30 50 1 18 49
M  V30 51 1 19 50
M  V30 52 1 20 51
M  V30 END BOND
M  V30 END CTAB
M  END
>  <Dataset>  (414) 
ChEMBL_Kinases

>  <Ligand_Instance>  (414) 
nan

>  <PDB_ID>  (414) 
nan

>  <Standardized_SMILES>  (414) 
CC(C)(C)CC(=O)OCC1(CO)C/C(=C/c2ccccc2C(F)(F)F)C(=O)O1

>  <Name>  (414) 
nan

>  <Pocket>  (414) 
nan

>  <ATP_Site>  (414) 
nan

>  <Peripheral>  (414) 
nan

>  <Num_H_Atoms_ProtBoundConf>  (414) 
nan

>  <Num_Resolved_Atoms>  (414) 
nan

>  <Num_Not_Resolved_Atoms>  (414) 
nan

$$$$
CHEMBL454102
     RDKit          3D

  0  0  0  0  0  0  0  0  0  0999 V3000
M  V30 BEGIN CTAB
M  V30 COUNTS 45 46 0 0 0
M  V30 BEGIN ATOM
M  V30 1 C -0.089301 -4.767775 1.463351 0
M  V30 2 C -0.150808 -3.269606 1.179525 0
M  V30 3 C -0.640188 -2.558138 2.419514 0
M  V30 4 C -1.059196 -2.993428 -0.007084 0
M  V30 5 C 1.223878 -2.814357 0.856855 0
M  V30 6 O 2.055248 -3.746869 0.882762 0
M  V30 7 O 1.479453 -1.483822 0.568584 0
M  V30 8 C 2.793183 -1.107218 0.266620 0
M  V30 9 C 2.921231 0.371358 -0.021786 0
M  V30 10 C 4.354114 0.721750 -0.351572 0
M  V30 11 O 4.381570 2.103529 -0.526547 0
M  V30 12 C 2.425710 1.117809 1.210020 0
M  V30 13 C 0.956216 1.209938 0.874979 0
M  V30 14 C -0.112688 1.148209 1.644846 0
M  V30 15 C -1.472197 1.256394 1.131798 0
M  V30 16 C -2.052659 0.637280 0.045767 0
M  V30 17 C -3.364078 0.907110 -0.284604 0
M  V30 18 C -4.092582 1.796893 0.475582 0
M  V30 19 F -5.367749 1.966580 0.035924 0
M  V30 20 C -3.526669 2.422374 1.564271 0
M  V30 21 Br -4.613232 3.637863 2.551308 0
M  V30 22 C -2.202205 2.157033 1.905715 0
M  V30 23 C 0.973695 1.424142 -0.585933 0
M  V30 24 O 0.055811 2.095812 -1.162663 0
M  V30 25 O 2.119761 0.778281 -1.100639 0
M  V30 26 H -1.081346 -5.236847 1.500064 0
M  V30 27 H 0.576727 -5.221195 0.707130 0
M  V30 28 H 0.439603 -4.862228 2.455919 0
M  V30 29 H -0.839283 -3.281450 3.242096 0
M  V30 30 H 0.116974 -1.840835 2.815086 0
M  V30 31 H -1.593483 -1.998448 2.215069 0
M  V30 32 H -1.262623 -3.922034 -0.546958 0
M  V30 33 H -0.517178 -2.327787 -0.723352 0
M  V30 34 H -1.982730 -2.453473 0.281434 0
M  V30 35 H 3.172322 -1.684548 -0.589819 0
M  V30 36 H 3.426739 -1.373937 1.136078 0
M  V30 37 H 5.060536 0.367868 0.428236 0
M  V30 38 H 4.571155 0.261516 -1.335308 0
M  V30 39 H 5.211027 2.505204 -0.147093 0
M  V30 40 H 2.527649 0.541195 2.130316 0
M  V30 41 H 2.892996 2.114108 1.271490 0
M  V30 42 H 0.101739 1.009058 2.698401 0
M  V30 43 H -1.406344 -0.049541 -0.477166 0
M  V30 44 H -3.723545 0.366765 -1.155632 0
M  V30 45 H -1.858418 2.702460 2.777562 0
M  V30 END ATOM
M  V30 BEGIN BOND
M  V30 1 1 1 2
M  V30 2 1 2 3
M  V30 3 1 2 4
M  V30 4 1 2 5
M  V30 5 2 5 6
M  V30 6 1 5 7
M  V30 7 1 7 8
M  V30 8 1 8 9
M  V30 9 1 9 10
M  V30 10 1 10 11
M  V30 11 1 9 12
M  V30 12 1 12 13
M  V30 13 2 13 14
M  V30 14 1 14 15
M  V30 15 2 15 16
M  V30 16 1 16 17
M  V30 17 2 17 18
M  V30 18 1 18 19
M  V30 19 1 18 20
M  V30 20 1 20 21
M  V30 21 2 20 22
M  V30 22 1 13 23
M  V30 23 2 23 24
M  V30 24 1 23 25
M  V30 25 1 25 9
M  V30 26 1 22 15
M  V30 27 1 1 26
M  V30 28 1 1 27
M  V30 29 1 1 28
M  V30 30 1 3 29
M  V30 31 1 3 30
M  V30 32 1 3 31
M  V30 33 1 4 32
M  V30 34 1 4 33
M  V30 35 1 4 34
M  V30 36 1 8 35
M  V30 37 1 8 36
M  V30 38 1 10 37
M  V30 39 1 10 38
M  V30 40 1 11 39
M  V30 41 1 12 40
M  V30 42 1 12 41
M  V30 43 1 14 42
M  V30 44 1 16 43
M  V30 45 1 17 44
M  V30 46 1 22 45
M  V30 END BOND
M  V30 END CTAB
M  END
>  <Dataset>  (415) 
ChEMBL_Kinases

>  <Ligand_Instance>  (415) 
nan

>  <PDB_ID>  (415) 
nan

>  <Standardized_SMILES>  (415) 
CC(C)(C)C(=O)OCC1(CO)C/C(=C/c2ccc(F)c(Br)c2)C(=O)O1

>  <Name>  (415) 
nan

>  <Pocket>  (415) 
nan

>  <ATP_Site>  (415) 
nan

>  <Peripheral>  (415) 
nan

>  <Num_H_Atoms_ProtBoundConf>  (415) 
nan

>  <Num_Resolved_Atoms>  (415) 
nan

>  <Num_Not_Resolved_Atoms>  (415) 
nan

$$$$
CHEMBL4540971
     RDKit          3D

  0  0  0  0  0  0  0  0  0  0999 V3000
M  V30 BEGIN CTAB
M  V30 COUNTS 33 35 0 0 0
M  V30 BEGIN ATOM
M  V30 1 N 3.329062 -0.316811 3.160254 0
M  V30 2 C 3.675816 -1.470962 2.397906 0
M  V30 3 N 4.744194 -2.145652 2.828783 0
M  V30 4 C 5.107756 -3.247833 2.133584 0
M  V30 5 C 4.370011 -3.622611 1.025018 0
M  V30 6 N 3.292001 -2.926870 0.604697 0
M  V30 7 C 2.944809 -1.850663 1.291411 0
M  V30 8 C 1.803080 -1.018239 0.938422 0
M  V30 9 O 1.527485 -0.007347 1.634680 0
M  V30 10 N 0.952748 -1.277076 -0.172362 0
M  V30 11 C -0.160203 -0.431698 -0.483720 0
M  V30 12 C 0.012675 0.645886 -1.330062 0
M  V30 13 C -1.040036 1.503701 -1.667642 0
M  V30 14 C -2.295276 1.249875 -1.125298 0
M  V30 15 C -2.464230 0.159668 -0.270721 0
M  V30 16 C -3.836540 -0.066977 0.284567 0
M  V30 17 C -4.699726 1.073872 0.570453 0
M  V30 18 C -5.017107 0.130756 -0.590940 0
M  V30 19 C -1.409578 -0.675361 0.049446 0
M  V30 20 H 3.531233 0.716635 3.256874 0
M  V30 21 H 2.619692 -0.620844 3.874705 0
M  V30 22 H 5.977856 -3.854177 2.429630 0
M  V30 23 H 4.704030 -4.520808 0.496697 0
M  V30 24 H 1.220236 -2.135296 -0.729535 0
M  V30 25 H 0.999229 0.828914 -1.744128 0
M  V30 26 H -0.807314 2.323042 -2.339758 0
M  V30 27 H -3.104059 1.911672 -1.386689 0
M  V30 28 H -3.910793 -0.947116 0.956939 0
M  V30 29 H -4.507532 2.101924 0.245087 0
M  V30 30 H -5.399736 1.045335 1.445280 0
M  V30 31 H -5.916780 -0.493937 -0.440941 0
M  V30 32 H -4.757203 0.475089 -1.618930 0
M  V30 33 H -1.544820 -1.518164 0.711402 0
M  V30 END ATOM
M  V30 BEGIN BOND
M  V30 1 1 1 2
M  V30 2 2 2 3
M  V30 3 1 3 4
M  V30 4 2 4 5
M  V30 5 1 5 6
M  V30 6 2 6 7
M  V30 7 1 7 8
M  V30 8 2 8 9
M  V30 9 1 8 10
M  V30 10 1 10 11
M  V30 11 2 11 12
M  V30 12 1 12 13
M  V30 13 2 13 14
M  V30 14 1 14 15
M  V30 15 1 15 16
M  V30 16 1 16 17
M  V30 17 1 17 18
M  V30 18 2 15 19
M  V30 19 1 7 2
M  V30 20 1 19 11
M  V30 21 1 18 16
M  V30 22 1 1 20
M  V30 23 1 1 21
M  V30 24 1 4 22
M  V30 25 1 5 23
M  V30 26 1 10 24
M  V30 27 1 12 25
M  V30 28 1 13 26
M  V30 29 1 14 27
M  V30 30 1 16 28
M  V30 31 1 17 29
M  V30 32 1 17 30
M  V30 33 1 18 31
M  V30 34 1 18 32
M  V30 35 1 19 33
M  V30 END BOND
M  V30 END CTAB
M  END
>  <Dataset>  (416) 
ChEMBL_Kinases

>  <Ligand_Instance>  (416) 
nan

>  <PDB_ID>  (416) 
nan

>  <Standardized_SMILES>  (416) 
Nc1nccnc1C(=O)Nc1cccc(C2CC2)c1

>  <Name>  (416) 
nan

>  <Pocket>  (416) 
nan

>  <ATP_Site>  (416) 
nan

>  <Peripheral>  (416) 
nan

>  <Num_H_Atoms_ProtBoundConf>  (416) 
nan

>  <Num_Resolved_Atoms>  (416) 
nan

>  <Num_Not_Resolved_Atoms>  (416) 
nan

$$$$
CHEMBL4640479
     RDKit          3D

  0  0  0  0  0  0  0  0  0  0999 V3000
M  V30 BEGIN CTAB
M  V30 COUNTS 59 62 0 0 0
M  V30 BEGIN ATOM
M  V30 1 C 0.183264 -4.296956 3.711353 0
M  V30 2 C 1.665933 -4.170704 3.391754 0
M  V30 3 O 1.848230 -2.931101 2.771491 0
M  V30 4 C 3.050719 -2.430840 2.323475 0
M  V30 5 O 3.885436 -3.329772 2.603922 0
M  V30 6 C 3.236620 -1.134968 1.675907 0
M  V30 7 C 4.544261 -0.840613 1.307305 0
M  V30 8 N 4.810298 0.332430 0.704059 0
M  V30 9 C 3.846114 1.232423 0.445748 0
M  V30 10 C 4.074608 2.442940 -0.168680 0
M  V30 11 C 3.016039 3.294961 -0.387673 0
M  V30 12 C 1.729641 2.994349 -0.019829 0
M  V30 13 C 0.575072 3.859889 -0.228445 0
M  V30 14 C -0.650721 3.401064 0.203829 0
M  V30 15 C -1.812312 4.128924 0.061810 0
M  V30 16 Cl -3.366960 3.538674 0.613987 0
M  V30 17 C -1.737219 5.374902 -0.542525 0
M  V30 18 O -2.875829 6.163743 -0.717501 0
M  V30 19 C -0.497892 5.834635 -0.977598 0
M  V30 20 Cl -0.407601 7.413521 -1.742541 0
M  V30 21 C 0.679130 5.094478 -0.832445 0
M  V30 22 N 1.545746 1.803900 0.577264 0
M  V30 23 C 2.553347 0.934725 0.813327 0
M  V30 24 C 2.205173 -0.245914 1.434562 0
M  V30 25 N 0.895612 -0.614340 1.838671 0
M  V30 26 C -0.017985 -1.321262 1.005639 0
M  V30 27 C 0.414068 -1.656496 -0.260050 0
M  V30 28 C -0.500360 -2.342521 -1.040386 0
M  V30 29 C -1.779956 -2.676509 -0.580684 0
M  V30 30 C -2.706686 -3.414888 -1.478371 0
M  V30 31 N -2.578731 -4.842932 -1.342737 0
M  V30 32 C -2.884966 -5.180221 0.035823 0
M  V30 33 C -3.610377 -5.457995 -2.158784 0
M  V30 34 C -2.130605 -2.297116 0.712550 0
M  V30 35 C -1.256976 -1.609117 1.538832 0
M  V30 36 H -0.187422 -3.273037 3.973542 0
M  V30 37 H -0.319973 -4.571959 2.783520 0
M  V30 38 H 0.009781 -4.978926 4.568082 0
M  V30 39 H 1.990121 -5.003393 2.743017 0
M  V30 40 H 2.200502 -4.298572 4.346303 0
M  V30 41 H 5.409775 -1.465155 1.452170 0
M  V30 42 H 5.088573 2.677645 -0.457563 0
M  V30 43 H 3.204663 4.233619 -0.866126 0
M  V30 44 H -0.795794 2.445709 0.682516 0
M  V30 45 H -3.657571 5.703556 -1.164860 0
M  V30 46 H 1.612998 5.467802 -1.173042 0
M  V30 47 H 0.673112 -0.311517 2.812925 0
M  V30 48 H 1.383897 -1.415749 -0.639174 0
M  V30 49 H -0.257263 -2.644663 -2.033916 0
M  V30 50 H -2.540772 -3.153926 -2.540569 0
M  V30 51 H -3.734141 -3.109153 -1.182274 0
M  V30 52 H -3.038321 -6.277215 0.070013 0
M  V30 53 H -3.863366 -4.661136 0.245048 0
M  V30 54 H -2.081604 -4.796957 0.665963 0
M  V30 55 H -4.071161 -4.701091 -2.858349 0
M  V30 56 H -3.201786 -6.267150 -2.797391 0
M  V30 57 H -4.466111 -5.812638 -1.551934 0
M  V30 58 H -3.113969 -2.543251 1.091934 0
M  V30 59 H -1.519434 -1.309072 2.546654 0
M  V30 END ATOM
M  V30 BEGIN BOND
M  V30 1 1 1 2
M  V30 2 1 2 3
M  V30 3 1 3 4
M  V30 4 2 4 5
M  V30 5 1 4 6
M  V30 6 2 6 7
M  V30 7 1 7 8
M  V30 8 2 8 9
M  V30 9 1 9 10
M  V30 10 2 10 11
M  V30 11 1 11 12
M  V30 12 1 12 13
M  V30 13 2 13 14
M  V30 14 1 14 15
M  V30 15 1 15 16
M  V30 16 2 15 17
M  V30 17 1 17 18
M  V30 18 1 17 19
M  V30 19 1 19 20
M  V30 20 2 19 21
M  V30 21 2 12 22
M  V30 22 1 22 23
M  V30 23 2 23 24
M  V30 24 1 24 25
M  V30 25 1 25 26
M  V30 26 2 26 27
M  V30 27 1 27 28
M  V30 28 2 28 29
M  V30 29 1 29 30
M  V30 30 1 30 31
M  V30 31 1 31 32
M  V30 32 1 31 33
M  V30 33 1 29 34
M  V30 34 2 34 35
M  V30 35 1 24 6
M  V30 36 1 35 26
M  V30 37 1 23 9
M  V30 38 1 21 13
M  V30 39 1 1 36
M  V30 40 1 1 37
M  V30 41 1 1 38
M  V30 42 1 2 39
M  V30 43 1 2 40
M  V30 44 1 7 41
M  V30 45 1 10 42
M  V30 46 1 11 43
M  V30 47 1 14 44
M  V30 48 1 18 45
M  V30 49 1 21 46
M  V30 50 1 25 47
M  V30 51 1 27 48
M  V30 52 1 28 49
M  V30 53 1 30 50
M  V30 54 1 30 51
M  V30 55 1 32 52
M  V30 56 1 32 53
M  V30 57 1 32 54
M  V30 58 1 33 55
M  V30 59 1 33 56
M  V30 60 1 33 57
M  V30 61 1 34 58
M  V30 62 1 35 59
M  V30 END BOND
M  V30 END CTAB
M  END
>  <Dataset>  (417) 
ChEMBL_Kinases

>  <Ligand_Instance>  (417) 
nan

>  <PDB_ID>  (417) 
nan

>  <Standardized_SMILES>  (417) 
CCOC(=O)c1cnc2ccc(-c3cc(Cl)c(O)c(Cl)c3)nc2c1Nc1ccc(CN(C)C)cc1

>  <Name>  (417) 
nan

>  <Pocket>  (417) 
nan

>  <ATP_Site>  (417) 
nan

>  <Peripheral>  (417) 
nan

>  <Num_H_Atoms_ProtBoundConf>  (417) 
nan

>  <Num_Resolved_Atoms>  (417) 
nan

>  <Num_Not_Resolved_Atoms>  (417) 
nan

$$$$
CHEMBL4540859
     RDKit          3D

  0  0  0  0  0  0  0  0  0  0999 V3000
M  V30 BEGIN CTAB
M  V30 COUNTS 70 75 0 0 0
M  V30 BEGIN ATOM
M  V30 1 C -0.047119 -1.720134 5.127247 0
M  V30 2 C 0.558667 -2.309517 3.898692 0
M  V30 3 C 1.063749 -1.515499 2.888800 0
M  V30 4 C 1.627375 -2.086802 1.739842 0
M  V30 5 C 2.109095 -1.066567 0.782394 0
M  V30 6 C 3.285452 -0.969613 0.049371 0
M  V30 7 N 3.229308 0.168515 -0.681611 0
M  V30 8 N 2.083649 0.785903 -0.445394 0
M  V30 9 C 1.604141 1.958802 -0.956671 0
M  V30 10 N 2.288388 2.751763 -1.903671 0
M  V30 11 C 2.082890 3.131725 -3.277831 0
M  V30 12 C 1.925781 1.984946 -4.229316 0 CFG=1
M  V30 13 C 0.722505 1.175630 -3.806210 0
M  V30 14 C 0.177039 0.343570 -4.958251 0
M  V30 15 C -0.508670 1.299923 -5.906499 0 CFG=2
M  V30 16 O -0.513926 0.807675 -7.218553 0
M  V30 17 C 0.190611 2.649458 -5.816440 0
M  V30 18 C 1.667206 2.462498 -5.646584 0
M  V30 19 C 0.353601 2.368598 -0.517956 0
M  V30 20 C -0.384030 1.620991 0.401418 0
M  V30 21 O -1.609967 2.174395 0.727851 0
M  V30 22 C -2.539652 1.665609 1.584898 0
M  V30 23 C -2.589065 0.534993 2.362358 0
M  V30 24 C -3.690717 0.294766 3.138578 0
M  V30 25 C -4.773151 1.154207 3.174592 0
M  V30 26 N -4.733669 2.266519 2.414241 0
M  V30 27 C -3.643969 2.527113 1.631569 0
M  V30 28 N 0.171252 0.480222 0.847981 0
M  V30 29 C 1.381741 0.057381 0.441619 0
M  V30 30 C 1.694770 -3.460403 1.583113 0
M  V30 31 C 1.188236 -4.248881 2.595461 0
M  V30 32 C 0.632568 -3.679962 3.727860 0
M  V30 33 C 0.113044 -4.587148 4.764032 0
M  V30 34 O 0.635792 -4.816510 5.905069 0
M  V30 35 N -1.092942 -5.267697 4.445528 0
M  V30 36 C -1.779573 -6.203386 5.310466 0
M  V30 37 C -2.717447 -7.198311 4.765332 0
M  V30 38 C -3.297669 -5.965611 5.365133 0
M  V30 39 H 0.361178 -2.262936 5.995823 0
M  V30 40 H 0.196929 -0.640258 5.167314 0
M  V30 41 H -1.145028 -1.859368 5.093645 0
M  V30 42 H 0.981743 -0.450842 3.070639 0
M  V30 43 H 4.061897 -1.723004 0.113758 0
M  V30 44 H 3.119016 3.091798 -1.376542 0
M  V30 45 H 1.206144 3.820798 -3.297597 0
M  V30 46 H 2.931206 3.742819 -3.663872 0
M  V30 47 H 2.829561 1.369372 -4.255391 0
M  V30 48 H -0.065165 1.863922 -3.440674 0
M  V30 49 H 1.033426 0.528711 -2.984928 0
M  V30 50 H -0.551701 -0.350180 -4.531260 0
M  V30 51 H 1.023612 -0.171974 -5.438730 0
M  V30 52 H -1.550911 1.461224 -5.602924 0
M  V30 53 H 0.299185 0.266220 -7.378930 0
M  V30 54 H 0.024744 3.170322 -6.793567 0
M  V30 55 H -0.193796 3.214715 -4.962827 0
M  V30 56 H 1.993725 1.630011 -6.331347 0
M  V30 57 H 2.247512 3.368145 -5.902702 0
M  V30 58 H -0.027609 3.308431 -0.926667 0
M  V30 59 H -1.687148 -0.053250 2.249202 0
M  V30 60 H -3.646227 -0.612627 3.713491 0
M  V30 61 H -5.618220 0.918279 3.803201 0
M  V30 62 H -3.798881 3.456168 1.104264 0
M  V30 63 H 2.151390 -3.789026 0.652221 0
M  V30 64 H 1.260399 -5.316848 2.435802 0
M  V30 65 H -1.574182 -5.111137 3.508604 0
M  V30 66 H -1.302701 -6.382624 6.285270 0
M  V30 67 H -2.877097 -8.133377 5.347065 0
M  V30 68 H -2.722640 -7.307848 3.659407 0
M  V30 69 H -3.788117 -5.973842 6.356988 0
M  V30 70 H -3.755768 -5.275277 4.641312 0
M  V30 END ATOM
M  V30 BEGIN BOND
M  V30 1 1 1 2
M  V30 2 2 2 3
M  V30 3 1 3 4
M  V30 4 1 4 5
M  V30 5 1 5 6
M  V30 6 2 6 7
M  V30 7 1 7 8
M  V30 8 1 8 9
M  V30 9 1 9 10
M  V30 10 1 10 11
M  V30 11 1 11 12
M  V30 12 1 12 13
M  V30 13 1 13 14
M  V30 14 1 14 15
M  V30 15 1 15 16
M  V30 16 1 15 17
M  V30 17 1 17 18
M  V30 18 2 9 19
M  V30 19 1 19 20
M  V30 20 1 20 21
M  V30 21 1 21 22
M  V30 22 2 22 23
M  V30 23 1 23 24
M  V30 24 2 24 25
M  V30 25 1 25 26
M  V30 26 2 26 27
M  V30 27 2 20 28
M  V30 28 1 28 29
M  V30 29 2 4 30
M  V30 30 1 30 31
M  V30 31 2 31 32
M  V30 32 1 32 33
M  V30 33 2 33 34
M  V30 34 1 33 35
M  V30 35 1 35 36
M  V30 36 1 36 37
M  V30 37 1 37 38
M  V30 38 1 32 2
M  V30 39 1 38 36
M  V30 40 2 29 5
M  V30 41 1 29 8
M  V30 42 1 18 12
M  V30 43 1 27 22
M  V30 44 1 1 39
M  V30 45 1 1 40
M  V30 46 1 1 41
M  V30 47 1 3 42
M  V30 48 1 6 43
M  V30 49 1 10 44
M  V30 50 1 11 45
M  V30 51 1 11 46
M  V30 52 1 12 47 CFG=3
M  V30 53 1 13 48
M  V30 54 1 13 49
M  V30 55 1 14 50
M  V30 56 1 14 51
M  V30 57 1 15 52 CFG=1
M  V30 58 1 16 53
M  V30 59 1 17 54
M  V30 60 1 17 55
M  V30 61 1 18 56
M  V30 62 1 18 57
M  V30 63 1 19 58
M  V30 64 1 23 59
M  V30 65 1 24 60
M  V30 66 1 25 61
M  V30 67 1 27 62
M  V30 68 1 30 63
M  V30 69 1 31 64
M  V30 70 1 35 65
M  V30 71 1 36 66
M  V30 72 1 37 67
M  V30 73 1 37 68
M  V30 74 1 38 69
M  V30 75 1 38 70
M  V30 END BOND
M  V30 END CTAB
M  END
>  <Dataset>  (418) 
ChEMBL_Kinases

>  <Ligand_Instance>  (418) 
nan

>  <PDB_ID>  (418) 
nan

>  <Standardized_SMILES>  (418) 
Cc1cc(-c2cnn3c(NC[C@H]4CC[C@H](O)CC4)cc(Oc4cccnc4)nc23)ccc1C(=O)NC1CC1

>  <Name>  (418) 
nan

>  <Pocket>  (418) 
nan

>  <ATP_Site>  (418) 
nan

>  <Peripheral>  (418) 
nan

>  <Num_H_Atoms_ProtBoundConf>  (418) 
nan

>  <Num_Resolved_Atoms>  (418) 
nan

>  <Num_Not_Resolved_Atoms>  (418) 
nan

$$$$
CHEMBL4540853
     RDKit          3D

  0  0  0  0  0  0  0  0  0  0999 V3000
M  V30 BEGIN CTAB
M  V30 COUNTS 37 40 0 0 0
M  V30 BEGIN ATOM
M  V30 1 C 0.553882 -4.552747 0.039295 0
M  V30 2 N 1.411809 -3.850599 0.928089 0
M  V30 3 C 0.805301 -2.807174 1.684196 0
M  V30 4 C 0.401085 -1.577174 0.940464 0
M  V30 5 C 1.360859 -1.223240 -0.138761 0
M  V30 6 C 2.368924 -2.120468 -0.300105 0
M  V30 7 S 3.412183 -1.362334 -1.678347 0
M  V30 8 C 2.352365 0.046496 -1.844287 0
M  V30 9 N 2.482561 1.070055 -2.678101 0
M  V30 10 C 1.623754 2.069242 -2.706516 0
M  V30 11 N 0.633136 1.966005 -1.843535 0
M  V30 12 C 0.456780 0.955835 -0.982863 0
M  V30 13 N -0.701279 1.104381 -0.202119 0
M  V30 14 C -1.315552 1.274209 1.067125 0
M  V30 15 C -2.258582 0.431626 1.633873 0
M  V30 16 C -2.711692 0.735083 2.896334 0
M  V30 17 C -2.245968 1.830474 3.561482 0
M  V30 18 F -2.734485 2.061174 4.794562 0
M  V30 19 C -1.295393 2.686423 2.997634 0
M  V30 20 C -0.832728 2.395592 1.736980 0
M  V30 21 F 0.086894 3.262934 1.243433 0
M  V30 22 C 1.338421 -0.101150 -0.929187 0
M  V30 23 C 2.656927 -3.383416 0.362326 0
M  V30 24 H -0.504072 -4.178020 0.161571 0
M  V30 25 H 0.474140 -5.633996 0.349148 0
M  V30 26 H 0.822078 -4.506511 -1.022124 0
M  V30 27 H 1.518359 -2.516057 2.496849 0
M  V30 28 H -0.096431 -3.195890 2.215059 0
M  V30 29 H -0.616615 -1.665835 0.500214 0
M  V30 30 H 0.419120 -0.769202 1.740978 0
M  V30 31 H 1.855148 2.823913 -3.434460 0
M  V30 32 H -1.568885 1.101403 -0.803563 0
M  V30 33 H -2.549939 -0.405886 0.996776 0
M  V30 34 H -3.453618 0.005850 3.249956 0
M  V30 35 H -0.970735 3.540040 3.591066 0
M  V30 36 H 3.398286 -3.334834 1.188191 0
M  V30 37 H 3.021611 -4.132626 -0.368666 0
M  V30 END ATOM
M  V30 BEGIN BOND
M  V30 1 1 1 2
M  V30 2 1 2 3
M  V30 3 1 3 4
M  V30 4 1 4 5
M  V30 5 2 5 6
M  V30 6 1 6 7
M  V30 7 1 7 8
M  V30 8 2 8 9
M  V30 9 1 9 10
M  V30 10 2 10 11
M  V30 11 1 11 12
M  V30 12 1 12 13
M  V30 13 1 13 14
M  V30 14 2 14 15
M  V30 15 1 15 16
M  V30 16 2 16 17
M  V30 17 1 17 18
M  V30 18 1 17 19
M  V30 19 2 19 20
M  V30 20 1 20 21
M  V30 21 2 12 22
M  V30 22 1 6 23
M  V30 23 1 23 2
M  V30 24 1 22 5
M  V30 25 1 22 8
M  V30 26 1 20 14
M  V30 27 1 1 24
M  V30 28 1 1 25
M  V30 29 1 1 26
M  V30 30 1 3 27
M  V30 31 1 3 28
M  V30 32 1 4 29
M  V30 33 1 4 30
M  V30 34 1 10 31
M  V30 35 1 13 32
M  V30 36 1 15 33
M  V30 37 1 16 34
M  V30 38 1 19 35
M  V30 39 1 23 36
M  V30 40 1 23 37
M  V30 END BOND
M  V30 END CTAB
M  END
>  <Dataset>  (419) 
ChEMBL_Kinases

>  <Ligand_Instance>  (419) 
nan

>  <PDB_ID>  (419) 
nan

>  <Standardized_SMILES>  (419) 
CN1CCc2c(sc3ncnc(Nc4ccc(F)cc4F)c23)C1

>  <Name>  (419) 
nan

>  <Pocket>  (419) 
nan

>  <ATP_Site>  (419) 
nan

>  <Peripheral>  (419) 
nan

>  <Num_H_Atoms_ProtBoundConf>  (419) 
nan

>  <Num_Resolved_Atoms>  (419) 
nan

>  <Num_Not_Resolved_Atoms>  (419) 
nan

$$$$
CHEMBL45408
     RDKit          3D

  0  0  0  0  0  0  0  0  0  0999 V3000
M  V30 BEGIN CTAB
M  V30 COUNTS 36 38 0 0 0
M  V30 BEGIN ATOM
M  V30 1 C 0.364967 -6.759182 1.112785 0
M  V30 2 C 0.395399 -5.297683 0.679927 0
M  V30 3 N 0.918112 -4.397967 1.123905 0
M  V30 4 C 0.966709 -3.137743 0.783734 0
M  V30 5 C 1.701700 -2.027730 1.464074 0
M  V30 6 C 0.257314 -2.844480 -0.308057 0
M  V30 7 C -0.028145 -1.626390 -1.091891 0
M  V30 8 C -0.871173 -1.664278 -2.179950 0
M  V30 9 C -1.081534 -0.466432 -2.868207 0
M  V30 10 N -0.482113 0.648761 -2.471594 0
M  V30 11 C 0.350651 0.679550 -1.395962 0
M  V30 12 N 0.916568 1.944534 -1.081351 0
M  V30 13 C 0.618748 2.607834 0.139920 0
M  V30 14 C 1.043987 3.880759 0.475220 0
M  V30 15 C 0.755384 4.498271 1.677655 0
M  V30 16 C -0.003042 3.773730 2.571078 0
M  V30 17 C -0.465379 2.503494 2.315948 0
M  V30 18 N -1.242341 1.780205 3.260500 0 CHG=1 VAL=4
M  V30 19 O -1.540934 2.267009 4.363206 0
M  V30 20 O -1.666142 0.512894 2.931390 0 CHG=-1 VAL=1
M  V30 21 C -0.139347 1.951917 1.097890 0
M  V30 22 N 0.559388 -0.473125 -0.724849 0
M  V30 23 S -0.435880 -4.403178 -0.775662 0
M  V30 24 H -0.061609 -6.784237 2.123523 0
M  V30 25 H 1.403333 -7.148347 1.049944 0
M  V30 26 H -0.232767 -7.345683 0.408733 0
M  V30 27 H 2.213345 -1.368954 0.763965 0
M  V30 28 H 2.510285 -2.428901 2.142635 0
M  V30 29 H 0.995969 -1.483440 2.140801 0
M  V30 30 H -1.353539 -2.593876 -2.488259 0
M  V30 31 H -1.732203 -0.434984 -3.728371 0
M  V30 32 H 1.571702 2.417772 -1.752621 0
M  V30 33 H 1.641858 4.399545 -0.282743 0
M  V30 34 H 1.119220 5.500669 1.882604 0
M  V30 35 H -0.244040 4.242798 3.532968 0
M  V30 36 H -0.510785 0.949997 0.902098 0
M  V30 END ATOM
M  V30 BEGIN BOND
M  V30 1 1 1 2
M  V30 2 2 2 3
M  V30 3 1 3 4
M  V30 4 1 4 5
M  V30 5 2 4 6
M  V30 6 1 6 7
M  V30 7 2 7 8
M  V30 8 1 8 9
M  V30 9 2 9 10
M  V30 10 1 10 11
M  V30 11 1 11 12
M  V30 12 1 12 13
M  V30 13 2 13 14
M  V30 14 1 14 15
M  V30 15 2 15 16
M  V30 16 1 16 17
M  V30 17 1 17 18
M  V30 18 2 18 19
M  V30 19 1 18 20
M  V30 20 2 17 21
M  V30 21 2 11 22
M  V30 22 1 6 23
M  V30 23 1 23 2
M  V30 24 1 22 7
M  V30 25 1 21 13
M  V30 26 1 1 24
M  V30 27 1 1 25
M  V30 28 1 1 26
M  V30 29 1 5 27
M  V30 30 1 5 28
M  V30 31 1 5 29
M  V30 32 1 8 30
M  V30 33 1 9 31
M  V30 34 1 12 32
M  V30 35 1 14 33
M  V30 36 1 15 34
M  V30 37 1 16 35
M  V30 38 1 21 36
M  V30 END BOND
M  V30 END CTAB
M  END
>  <Dataset>  (420) 
ChEMBL_Kinases

>  <Ligand_Instance>  (420) 
nan

>  <PDB_ID>  (420) 
nan

>  <Standardized_SMILES>  (420) 
Cc1nc(C)c(-c2ccnc(Nc3cccc([N+](=O)[O-])c3)n2)s1

>  <Name>  (420) 
nan

>  <Pocket>  (420) 
nan

>  <ATP_Site>  (420) 
nan

>  <Peripheral>  (420) 
nan

>  <Num_H_Atoms_ProtBoundConf>  (420) 
nan

>  <Num_Resolved_Atoms>  (420) 
nan

>  <Num_Not_Resolved_Atoms>  (420) 
nan

$$$$
CHEMBL4540715
     RDKit          3D

  0  0  0  0  0  0  0  0  0  0999 V3000
M  V30 BEGIN CTAB
M  V30 COUNTS 56 60 0 0 0
M  V30 BEGIN ATOM
M  V30 1 O 1.473328 3.570211 0.434329 0
M  V30 2 C 1.616189 2.889004 1.476473 0
M  V30 3 C 2.191194 3.601781 2.671777 0
M  V30 4 C 3.632926 3.852577 2.424153 0
M  V30 5 C 4.416525 2.838216 2.996129 0
M  V30 6 C 5.812204 2.885411 2.860606 0
M  V30 7 C 6.391428 3.924888 2.168171 0
M  V30 8 C 5.547173 4.876356 1.638917 0
M  V30 9 C 6.228367 5.982759 0.874892 0
M  V30 10 F 6.279358 5.514484 -0.448838 0
M  V30 11 F 7.523650 6.163420 1.317497 0
M  V30 12 F 5.494185 7.140033 0.860288 0
M  V30 13 C 4.175262 4.901573 1.728889 0
M  V30 14 N 1.219510 1.519461 1.404687 0
M  V30 15 C 0.702499 1.140751 0.135558 0
M  V30 16 C -0.660066 1.068997 -0.053563 0
M  V30 17 C -1.214599 0.733240 -1.258694 0
M  V30 18 O -2.596438 0.632074 -1.522816 0
M  V30 19 C -3.119039 -0.652005 -1.482718 0
M  V30 20 C -4.494308 -0.916345 -1.515316 0
M  V30 21 C -5.096223 -2.149161 -1.482812 0
M  V30 22 C -4.278489 -3.285783 -1.409089 0
M  V30 23 N -4.566757 -4.561349 -1.369511 0
M  V30 24 C -3.908183 -5.481321 -1.315394 0
M  V30 25 N -4.076390 -6.951368 -1.249000 0
M  V30 26 C -4.001149 -7.235353 0.142773 0
M  V30 27 O -3.830957 -6.292694 0.975205 0
M  V30 28 C -4.100584 -8.596614 0.784346 0
M  V30 29 C -3.362082 -8.803974 2.058781 0
M  V30 30 C -4.812295 -8.634459 2.148735 0
M  V30 31 S -2.166770 -4.691361 -1.291356 0
M  V30 32 C -2.937760 -2.960674 -1.380651 0
M  V30 33 C -2.270442 -1.739342 -1.410105 0
M  V30 34 C -0.411034 0.453293 -2.338771 0
M  V30 35 C 0.977355 0.505071 -2.225545 0
M  V30 36 C 1.470777 0.852859 -0.968944 0
M  V30 37 F 2.820672 0.909271 -0.840281 0
M  V30 38 H 1.978258 3.072468 3.599408 0
M  V30 39 H 1.653755 4.594908 2.717187 0
M  V30 40 H 4.041040 1.989469 3.552783 0
M  V30 41 H 6.414199 2.098843 3.304800 0
M  V30 42 H 7.464511 3.978369 2.052585 0
M  V30 43 H 3.518038 5.647973 1.316882 0
M  V30 44 H 1.365022 0.974469 2.310763 0
M  V30 45 H -1.388773 1.272989 0.742759 0
M  V30 46 H -5.084238 0.019423 -1.571077 0
M  V30 47 H -6.170074 -2.202497 -1.515841 0
M  V30 48 H -4.231051 -7.733137 -1.855691 0
M  V30 49 H -4.274625 -9.403994 0.081109 0
M  V30 50 H -2.748734 -7.953308 2.411917 0
M  V30 51 H -2.909982 -9.787151 2.302411 0
M  V30 52 H -5.288664 -7.667333 2.477342 0
M  V30 53 H -5.446397 -9.503933 2.371765 0
M  V30 54 H -1.213409 -1.693095 -1.380301 0
M  V30 55 H -0.802916 0.185677 -3.306685 0
M  V30 56 H 1.678508 0.300070 -3.028074 0
M  V30 END ATOM
M  V30 BEGIN BOND
M  V30 1 2 1 2
M  V30 2 1 2 3
M  V30 3 1 3 4
M  V30 4 2 4 5
M  V30 5 1 5 6
M  V30 6 2 6 7
M  V30 7 1 7 8
M  V30 8 1 8 9
M  V30 9 1 9 10
M  V30 10 1 9 11
M  V30 11 1 9 12
M  V30 12 2 8 13
M  V30 13 1 2 14
M  V30 14 1 14 15
M  V30 15 2 15 16
M  V30 16 1 16 17
M  V30 17 1 17 18
M  V30 18 1 18 19
M  V30 19 2 19 20
M  V30 20 1 20 21
M  V30 21 2 21 22
M  V30 22 1 22 23
M  V30 23 2 23 24
M  V30 24 1 24 25
M  V30 25 1 25 26
M  V30 26 2 26 27
M  V30 27 1 26 28
M  V30 28 1 28 29
M  V30 29 1 29 30
M  V30 30 1 24 31
M  V30 31 1 31 32
M  V30 32 2 32 33
M  V30 33 2 17 34
M  V30 34 1 34 35
M  V30 35 2 35 36
M  V30 36 1 36 37
M  V30 37 1 13 4
M  V30 38 1 36 15
M  V30 39 1 33 19
M  V30 40 1 32 22
M  V30 41 1 30 28
M  V30 42 1 3 38
M  V30 43 1 3 39
M  V30 44 1 5 40
M  V30 45 1 6 41
M  V30 46 1 7 42
M  V30 47 1 13 43
M  V30 48 1 14 44
M  V30 49 1 16 45
M  V30 50 1 20 46
M  V30 51 1 21 47
M  V30 52 1 25 48
M  V30 53 1 28 49
M  V30 54 1 29 50
M  V30 55 1 29 51
M  V30 56 1 30 52
M  V30 57 1 30 53
M  V30 58 1 33 54
M  V30 59 1 34 55
M  V30 60 1 35 56
M  V30 END BOND
M  V30 END CTAB
M  END
>  <Dataset>  (421) 
ChEMBL_Kinases

>  <Ligand_Instance>  (421) 
nan

>  <PDB_ID>  (421) 
nan

>  <Standardized_SMILES>  (421) 
O=C(Cc1cccc(C(F)(F)F)c1)Nc1cc(Oc2ccc3nc(NC(=O)C4CC4)sc3c2)ccc1F

>  <Name>  (421) 
nan

>  <Pocket>  (421) 
nan

>  <ATP_Site>  (421) 
nan

>  <Peripheral>  (421) 
nan

>  <Num_H_Atoms_ProtBoundConf>  (421) 
nan

>  <Num_Resolved_Atoms>  (421) 
nan

>  <Num_Not_Resolved_Atoms>  (421) 
nan

$$$$
CHEMBL4542888
     RDKit          3D

  0  0  0  0  0  0  0  0  0  0999 V3000
M  V30 BEGIN CTAB
M  V30 COUNTS 32 34 0 0 0
M  V30 BEGIN ATOM
M  V30 1 C -1.265814 -0.984618 2.931883 0
M  V30 2 C 0.107839 -1.530357 3.093247 0
M  V30 3 N 0.570562 -2.123324 4.227257 0
M  V30 4 N 1.826666 -2.504781 4.064573 0
M  V30 5 C 2.233384 -2.173378 2.811430 0
M  V30 6 C 3.429854 -2.341129 2.140321 0
M  V30 7 C 3.482762 -1.868018 0.842614 0
M  V30 8 N 2.430348 -1.264185 0.228883 0
M  V30 9 C 1.245301 -1.095369 0.886535 0
M  V30 10 O 0.153083 -0.498134 0.327256 0
M  V30 11 C 0.020602 0.032785 -0.950380 0
M  V30 12 C -1.041922 -0.696477 -1.702926 0
M  V30 13 C -2.410409 -0.080766 -1.542096 0
M  V30 14 O -2.512001 0.755718 -0.457873 0
M  V30 15 C -1.660731 1.848376 -0.517544 0
M  V30 16 C -0.277453 1.509319 -0.975751 0
M  V30 17 C 1.152607 -1.554012 2.183093 0
M  V30 18 H -1.551194 -0.894477 1.877190 0
M  V30 19 H -1.976088 -1.754535 3.354431 0
M  V30 20 H -1.439524 -0.071274 3.527074 0
M  V30 21 H 2.476311 -2.986732 4.731589 0
M  V30 22 H 4.279285 -2.819818 2.612821 0
M  V30 23 H 4.393813 -1.963655 0.246929 0
M  V30 24 H 0.988453 -0.108406 -1.478589 0
M  V30 25 H -1.027909 -1.761007 -1.329718 0
M  V30 26 H -0.746271 -0.739854 -2.773312 0
M  V30 27 H -2.677981 0.392209 -2.507785 0
M  V30 28 H -3.143715 -0.901068 -1.399982 0
M  V30 29 H -2.124494 2.709744 -1.074356 0
M  V30 30 H -1.570154 2.212529 0.532554 0
M  V30 31 H -0.196423 1.814642 -2.040733 0
M  V30 32 H 0.529098 2.095754 -0.461262 0
M  V30 END ATOM
M  V30 BEGIN BOND
M  V30 1 1 1 2
M  V30 2 2 2 3
M  V30 3 1 3 4
M  V30 4 1 4 5
M  V30 5 2 5 6
M  V30 6 1 6 7
M  V30 7 2 7 8
M  V30 8 1 8 9
M  V30 9 1 9 10
M  V30 10 1 10 11
M  V30 11 1 11 12
M  V30 12 1 12 13
M  V30 13 1 13 14
M  V30 14 1 14 15
M  V30 15 1 15 16
M  V30 16 2 9 17
M  V30 17 1 17 2
M  V30 18 1 17 5
M  V30 19 1 16 11
M  V30 20 1 1 18
M  V30 21 1 1 19
M  V30 22 1 1 20
M  V30 23 1 4 21
M  V30 24 1 6 22
M  V30 25 1 7 23
M  V30 26 1 11 24
M  V30 27 1 12 25
M  V30 28 1 12 26
M  V30 29 1 13 27
M  V30 30 1 13 28
M  V30 31 1 15 29
M  V30 32 1 15 30
M  V30 33 1 16 31
M  V30 34 1 16 32
M  V30 END BOND
M  V30 END CTAB
M  END
>  <Dataset>  (422) 
ChEMBL_Kinases

>  <Ligand_Instance>  (422) 
nan

>  <PDB_ID>  (422) 
nan

>  <Standardized_SMILES>  (422) 
Cc1n[nH]c2ccnc(OC3CCOCC3)c12

>  <Name>  (422) 
nan

>  <Pocket>  (422) 
nan

>  <ATP_Site>  (422) 
nan

>  <Peripheral>  (422) 
nan

>  <Num_H_Atoms_ProtBoundConf>  (422) 
nan

>  <Num_Resolved_Atoms>  (422) 
nan

>  <Num_Not_Resolved_Atoms>  (422) 
nan

$$$$
CHEMBL4640492
     RDKit          3D

  0  0  0  0  0  0  0  0  0  0999 V3000
M  V30 BEGIN CTAB
M  V30 COUNTS 53 55 0 0 0
M  V30 BEGIN ATOM
M  V30 1 C -3.988673 0.709162 -1.593248 0
M  V30 2 C -3.964348 -0.172455 -0.358028 0
M  V30 3 C -5.374941 -0.418910 0.075044 0
M  V30 4 C -3.346468 -1.472381 -0.678015 0
M  V30 5 N -2.855111 -2.493890 -0.947361 0
M  V30 6 C -3.158656 0.510554 0.702232 0
M  V30 7 C -3.822325 1.357360 1.563451 0
M  V30 8 C -3.108240 1.990896 2.547065 0
M  V30 9 C -1.757691 1.775755 2.659275 0
M  V30 10 C -1.027619 0.928148 1.815091 0
M  V30 11 N 0.367928 0.714798 1.959407 0
M  V30 12 C 1.252346 0.102920 1.042174 0
M  V30 13 N 0.885312 -0.325840 -0.172922 0
M  V30 14 C 1.665904 -0.910181 -1.074704 0
M  V30 15 N 1.237164 -1.340996 -2.353151 0
M  V30 16 C -0.100089 -1.234934 -2.901083 0
M  V30 17 C -0.033772 -0.041933 -3.860715 0
M  V30 18 C 1.199971 -0.114875 -4.693264 0
M  V30 19 C 1.862436 -1.475685 -4.718093 0 CFG=2
M  V30 20 N 1.136126 -2.430521 -5.498217 0
M  V30 21 C 2.148334 -1.957649 -3.291016 0
M  V30 22 N 2.943895 -1.084766 -0.727468 0
M  V30 23 C 3.424123 -0.694430 0.465025 0
M  V30 24 C 2.571487 -0.092107 1.364918 0
M  V30 25 C 3.156901 0.310809 2.631085 0
M  V30 26 N 4.529141 0.052798 2.897925 0
M  V30 27 O 2.781457 0.876937 3.673116 0
M  V30 28 C -1.814611 0.333843 0.859799 0
M  V30 29 H -3.116404 1.387423 -1.552281 0
M  V30 30 H -3.994523 0.048537 -2.487020 0
M  V30 31 H -4.895369 1.359597 -1.567063 0
M  V30 32 H -5.440641 -0.320159 1.166748 0
M  V30 33 H -6.073501 0.294223 -0.435083 0
M  V30 34 H -5.685261 -1.433976 -0.174950 0
M  V30 35 H -4.871986 1.590182 1.554682 0
M  V30 36 H -3.567687 2.668830 3.257020 0
M  V30 37 H -1.204303 2.295827 3.457678 0
M  V30 38 H 0.710224 1.075932 2.868836 0
M  V30 39 H -0.824951 -0.968808 -2.102215 0
M  V30 40 H -0.399572 -2.146779 -3.442677 0
M  V30 41 H -0.980490 0.010034 -4.414888 0
M  V30 42 H -0.008303 0.863491 -3.185565 0
M  V30 43 H 0.970330 0.177340 -5.718327 0
M  V30 44 H 1.957224 0.596566 -4.260265 0
M  V30 45 H 2.857359 -1.336066 -5.191808 0
M  V30 46 H 0.244573 -2.064453 -5.890055 0
M  V30 47 H 1.071795 -3.385072 -5.110645 0
M  V30 48 H 3.195056 -1.694495 -2.999933 0
M  V30 49 H 2.074258 -3.042687 -3.252187 0
M  V30 50 H 4.465396 -0.886330 0.633021 0
M  V30 51 H 5.355846 -0.103228 2.289275 0
M  V30 52 H 5.097759 -0.052960 3.751924 0
M  V30 53 H -1.404038 -0.339940 0.147867 0
M  V30 END ATOM
M  V30 BEGIN BOND
M  V30 1 1 1 2
M  V30 2 1 2 3
M  V30 3 1 2 4
M  V30 4 3 4 5
M  V30 5 1 2 6
M  V30 6 2 6 7
M  V30 7 1 7 8
M  V30 8 2 8 9
M  V30 9 1 9 10
M  V30 10 1 10 11
M  V30 11 1 11 12
M  V30 12 2 12 13
M  V30 13 1 13 14
M  V30 14 1 14 15
M  V30 15 1 15 16
M  V30 16 1 16 17
M  V30 17 1 17 18
M  V30 18 1 18 19
M  V30 19 1 19 20
M  V30 20 1 19 21
M  V30 21 2 14 22
M  V30 22 1 22 23
M  V30 23 2 23 24
M  V30 24 1 24 25
M  V30 25 1 25 26
M  V30 26 2 25 27
M  V30 27 2 10 28
M  V30 28 1 28 6
M  V30 29 1 24 12
M  V30 30 1 21 15
M  V30 31 1 1 29
M  V30 32 1 1 30
M  V30 33 1 1 31
M  V30 34 1 3 32
M  V30 35 1 3 33
M  V30 36 1 3 34
M  V30 37 1 7 35
M  V30 38 1 8 36
M  V30 39 1 9 37
M  V30 40 1 11 38
M  V30 41 1 16 39
M  V30 42 1 16 40
M  V30 43 1 17 41
M  V30 44 1 17 42
M  V30 45 1 18 43
M  V30 46 1 18 44
M  V30 47 1 19 45 CFG=3
M  V30 48 1 20 46
M  V30 49 1 20 47
M  V30 50 1 21 48
M  V30 51 1 21 49
M  V30 52 1 23 50
M  V30 53 1 26 51
M  V30 54 1 26 52
M  V30 55 1 28 53
M  V30 END BOND
M  V30 END CTAB
M  END
>  <Dataset>  (423) 
ChEMBL_Kinases

>  <Ligand_Instance>  (423) 
nan

>  <PDB_ID>  (423) 
nan

>  <Standardized_SMILES>  (423) 
CC(C)(C#N)c1cccc(Nc2nc(N3CCC[C@H](N)C3)ncc2C(N)=O)c1

>  <Name>  (423) 
nan

>  <Pocket>  (423) 
nan

>  <ATP_Site>  (423) 
nan

>  <Peripheral>  (423) 
nan

>  <Num_H_Atoms_ProtBoundConf>  (423) 
nan

>  <Num_Resolved_Atoms>  (423) 
nan

>  <Num_Not_Resolved_Atoms>  (423) 
nan

$$$$
CHEMBL4540052
     RDKit          3D

  0  0  0  0  0  0  0  0  0  0999 V3000
M  V30 BEGIN CTAB
M  V30 COUNTS 45 48 0 0 0
M  V30 BEGIN ATOM
M  V30 1 O 0.287288 1.027276 2.090108 0
M  V30 2 C 0.956559 0.242585 1.369408 0
M  V30 3 N 0.657134 -1.156054 1.394738 0
M  V30 4 C -0.351031 -1.872571 2.158006 0 CFG=2
M  V30 5 C 0.217835 -2.895892 3.088763 0
M  V30 6 N 0.498939 -4.126383 2.393719 0
M  V30 7 C -0.609925 -4.676415 1.675061 0
M  V30 8 C -1.845468 -3.777746 1.804109 0
M  V30 9 C -1.421559 -2.439881 1.232953 0 CFG=1
M  V30 10 C -2.550497 -1.504127 1.066958 0
M  V30 11 C -3.295971 -1.077406 2.143254 0
M  V30 12 C -4.337364 -0.202272 1.916062 0
M  V30 13 C -4.679837 0.275344 0.663914 0
M  V30 14 Cl -6.019120 1.393346 0.417921 0
M  V30 15 C -3.920335 -0.164158 -0.403173 0
M  V30 16 C -2.879741 -1.039193 -0.172585 0
M  V30 17 C 2.049023 0.595012 0.470336 0
M  V30 18 C 2.851430 -0.161157 -0.362425 0
M  V30 19 C 3.741885 0.673601 -1.002258 0
M  V30 20 C 3.429022 1.927090 -0.514734 0
M  V30 21 C 4.090941 3.172191 -0.884265 0
M  V30 22 C 3.759374 4.409960 -0.382956 0
M  V30 23 N 4.580536 5.306613 -0.951467 0
M  V30 24 N 5.414884 4.692805 -1.788129 0
M  V30 25 C 5.132012 3.362714 -1.765760 0
M  V30 26 O 2.441639 1.839092 0.337015 0
M  V30 27 H 1.138801 -1.902752 0.845154 0
M  V30 28 H -0.898936 -1.098467 2.770439 0
M  V30 29 H -0.397585 -3.033491 3.990638 0
M  V30 30 H 1.197500 -2.497618 3.442563 0
M  V30 31 H 0.999333 -4.800031 3.002483 0
M  V30 32 H -0.338447 -4.613941 0.582565 0
M  V30 33 H -0.837084 -5.725454 1.873776 0
M  V30 34 H -2.176015 -3.723154 2.842893 0
M  V30 35 H -2.652802 -4.225968 1.206061 0
M  V30 36 H -0.929170 -2.678680 0.254796 0
M  V30 37 H -3.045992 -1.436532 3.122367 0
M  V30 38 H -4.935075 0.145283 2.745452 0
M  V30 39 H -4.175917 0.198562 -1.376644 0
M  V30 40 H -2.328610 -1.340736 -1.054722 0
M  V30 41 H 2.730962 -1.242162 -0.440293 0
M  V30 42 H 4.495667 0.372741 -1.715000 0
M  V30 43 H 2.993835 4.696584 0.337726 0
M  V30 44 H 6.165380 5.139592 -2.371029 0
M  V30 45 H 5.625337 2.568844 -2.333653 0
M  V30 END ATOM
M  V30 BEGIN BOND
M  V30 1 2 1 2
M  V30 2 1 2 3
M  V30 3 1 3 4
M  V30 4 1 4 5
M  V30 5 1 5 6
M  V30 6 1 6 7
M  V30 7 1 7 8
M  V30 8 1 8 9
M  V30 9 1 9 10
M  V30 10 2 10 11
M  V30 11 1 11 12
M  V30 12 2 12 13
M  V30 13 1 13 14
M  V30 14 1 13 15
M  V30 15 2 15 16
M  V30 16 1 2 17
M  V30 17 2 17 18
M  V30 18 1 18 19
M  V30 19 2 19 20
M  V30 20 1 20 21
M  V30 21 1 21 22
M  V30 22 2 22 23
M  V30 23 1 23 24
M  V30 24 1 24 25
M  V30 25 1 20 26
M  V30 26 1 9 4
M  V30 27 1 16 10
M  V30 28 1 26 17
M  V30 29 2 25 21
M  V30 30 1 3 27
M  V30 31 1 4 28 CFG=1
M  V30 32 1 5 29
M  V30 33 1 5 30
M  V30 34 1 6 31
M  V30 35 1 7 32
M  V30 36 1 7 33
M  V30 37 1 8 34
M  V30 38 1 8 35
M  V30 39 1 9 36 CFG=3
M  V30 40 1 11 37
M  V30 41 1 12 38
M  V30 42 1 15 39
M  V30 43 1 16 40
M  V30 44 1 18 41
M  V30 45 1 19 42
M  V30 46 1 22 43
M  V30 47 1 24 44
M  V30 48 1 25 45
M  V30 END BOND
M  V30 END CTAB
M  END
>  <Dataset>  (424) 
ChEMBL_Kinases

>  <Ligand_Instance>  (424) 
nan

>  <PDB_ID>  (424) 
nan

>  <Standardized_SMILES>  (424) 
O=C(N[C@@H]1CNCC[C@H]1c1ccc(Cl)cc1)c1ccc(-c2cn[nH]c2)o1

>  <Name>  (424) 
nan

>  <Pocket>  (424) 
nan

>  <ATP_Site>  (424) 
nan

>  <Peripheral>  (424) 
nan

>  <Num_H_Atoms_ProtBoundConf>  (424) 
nan

>  <Num_Resolved_Atoms>  (424) 
nan

>  <Num_Not_Resolved_Atoms>  (424) 
nan

$$$$
CHEMBL4539999
     RDKit          3D

  0  0  0  0  0  0  0  0  0  0999 V3000
M  V30 BEGIN CTAB
M  V30 COUNTS 40 42 0 0 0
M  V30 BEGIN ATOM
M  V30 1 C 0.285497 -4.591840 3.882184 0
M  V30 2 O -0.031214 -3.228545 3.664585 0
M  V30 3 C 0.512432 -2.627334 2.535209 0
M  V30 4 C 1.323107 -3.334301 1.670227 0
M  V30 5 C 1.841182 -2.698016 0.561181 0
M  V30 6 C 1.578538 -1.374250 0.281863 0
M  V30 7 C 1.941266 -0.517117 -0.705507 0
M  V30 8 C 2.744006 -0.700486 -1.813037 0
M  V30 9 C 2.951424 0.369235 -2.658605 0
M  V30 10 N 2.368280 1.519740 -2.362864 0
M  V30 11 C 1.568343 1.743705 -1.279451 0
M  V30 12 C 0.981830 3.079429 -1.033550 0
M  V30 13 C 1.347858 0.678368 -0.418132 0
M  V30 14 N 0.607700 0.662126 0.707848 0
M  V30 15 C -0.172405 1.594058 1.413975 0
M  V30 16 C -1.594095 1.798674 1.192756 0
M  V30 17 C -2.578627 0.714587 1.343408 0
M  V30 18 C -2.463135 -0.424958 0.407990 0
M  V30 19 O -1.840027 -0.875055 -0.587888 0
M  V30 20 O -2.872935 -1.661172 -0.025325 0
M  V30 21 C 0.776259 -0.638283 1.119351 0
M  V30 22 C 0.262115 -1.305410 2.238084 0
M  V30 23 H 0.106501 -5.232889 2.989250 0
M  V30 24 H -0.328882 -5.047746 4.684648 0
M  V30 25 H 1.378276 -4.656458 4.063729 0
M  V30 26 H 1.563568 -4.376524 1.839411 0
M  V30 27 H 2.478326 -3.216590 -0.138525 0
M  V30 28 H 3.183425 -1.687084 -1.975633 0
M  V30 29 H 3.578530 0.243002 -3.532453 0
M  V30 30 H -0.098578 3.125347 -0.985184 0
M  V30 31 H 1.199310 3.686859 -1.970480 0
M  V30 32 H 1.542763 3.663922 -0.275304 0
M  V30 33 H -0.061154 1.337168 2.527911 0
M  V30 34 H 0.305021 2.631950 1.451977 0
M  V30 35 H -1.924834 2.586946 1.955828 0
M  V30 36 H -1.889036 2.350091 0.245268 0
M  V30 37 H -3.589955 1.180396 1.143786 0
M  V30 38 H -2.696509 0.342769 2.386329 0
M  V30 39 H -3.706130 -2.170396 0.223211 0
M  V30 40 H -0.374564 -0.792363 2.937755 0
M  V30 END ATOM
M  V30 BEGIN BOND
M  V30 1 1 1 2
M  V30 2 1 2 3
M  V30 3 2 3 4
M  V30 4 1 4 5
M  V30 5 2 5 6
M  V30 6 1 6 7
M  V30 7 2 7 8
M  V30 8 1 8 9
M  V30 9 2 9 10
M  V30 10 1 10 11
M  V30 11 1 11 12
M  V30 12 2 11 13
M  V30 13 1 13 14
M  V30 14 1 14 15
M  V30 15 1 15 16
M  V30 16 1 16 17
M  V30 17 1 17 18
M  V30 18 2 18 19
M  V30 19 1 18 20
M  V30 20 1 14 21
M  V30 21 2 21 22
M  V30 22 1 22 3
M  V30 23 1 21 6
M  V30 24 1 13 7
M  V30 25 1 1 23
M  V30 26 1 1 24
M  V30 27 1 1 25
M  V30 28 1 4 26
M  V30 29 1 5 27
M  V30 30 1 8 28
M  V30 31 1 9 29
M  V30 32 1 12 30
M  V30 33 1 12 31
M  V30 34 1 12 32
M  V30 35 1 15 33
M  V30 36 1 15 34
M  V30 37 1 16 35
M  V30 38 1 16 36
M  V30 39 1 17 37
M  V30 40 1 17 38
M  V30 41 1 20 39
M  V30 42 1 22 40
M  V30 END BOND
M  V30 END CTAB
M  END
>  <Dataset>  (425) 
ChEMBL_Kinases

>  <Ligand_Instance>  (425) 
nan

>  <PDB_ID>  (425) 
nan

>  <Standardized_SMILES>  (425) 
COc1ccc2c3ccnc(C)c3n(CCCC(=O)O)c2c1

>  <Name>  (425) 
nan

>  <Pocket>  (425) 
nan

>  <ATP_Site>  (425) 
nan

>  <Peripheral>  (425) 
nan

>  <Num_H_Atoms_ProtBoundConf>  (425) 
nan

>  <Num_Resolved_Atoms>  (425) 
nan

>  <Num_Not_Resolved_Atoms>  (425) 
nan

$$$$
CHEMBL4640500
     RDKit          3D

  0  0  0  0  0  0  0  0  0  0999 V3000
M  V30 BEGIN CTAB
M  V30 COUNTS 65 68 0 0 0
M  V30 BEGIN ATOM
M  V30 1 C 4.499494 -4.545309 2.282648 0
M  V30 2 C 3.318826 -3.982709 1.495611 0
M  V30 3 O 3.081961 -2.659299 1.800307 0
M  V30 4 C 2.149412 -1.774501 1.344552 0
M  V30 5 O 1.995307 -2.857258 0.798988 0
M  V30 6 C 2.054272 -0.394412 1.791988 0
M  V30 7 C 3.026050 -0.031715 2.711256 0
M  V30 8 N 2.966407 1.244060 3.105803 0
M  V30 9 C 2.045287 2.088827 2.647335 0
M  V30 10 C 2.073600 3.364385 3.115849 0
M  V30 11 C 1.140218 4.278002 2.674779 0
M  V30 12 C 0.172250 3.919845 1.761135 0
M  V30 13 C -0.840654 4.843714 1.260283 0
M  V30 14 C -0.906570 6.158304 1.666270 0
M  V30 15 C -1.913531 6.930327 1.119772 0
M  V30 16 C -2.842846 6.475519 0.207153 0
M  V30 17 O -3.842762 7.274248 -0.324360 0
M  V30 18 C -2.767704 5.139839 -0.198940 0
M  V30 19 C -1.760301 4.370894 0.349148 0
M  V30 20 N 0.213476 2.640774 1.347518 0
M  V30 21 C 1.090213 1.721634 1.740849 0
M  V30 22 C 1.074097 0.423219 1.277425 0
M  V30 23 N 0.079976 0.039234 0.379555 0
M  V30 24 C -0.492691 -1.057863 -0.341304 0 CFG=1
M  V30 25 C -1.236147 -1.927036 0.615175 0
M  V30 26 C -2.349575 -2.741108 0.067079 0
M  V30 27 C -2.446560 -2.955291 -1.382602 0 CFG=2
M  V30 28 C -2.234298 -4.341947 -1.911451 0
M  V30 29 N -0.992153 -4.978180 -1.696639 0
M  V30 30 C -0.990271 -6.270528 -2.455787 0
M  V30 31 C -0.703270 -5.401046 -0.340027 0
M  V30 32 C -1.698652 -1.933090 -2.239145 0
M  V30 33 C -1.442930 -0.662453 -1.452175 0
M  V30 34 H 4.634969 -3.998305 3.235818 0
M  V30 35 H 4.335060 -5.599699 2.547535 0
M  V30 36 H 5.430986 -4.468633 1.684988 0
M  V30 37 H 3.556350 -4.172062 0.427599 0
M  V30 38 H 2.439022 -4.599568 1.842364 0
M  V30 39 H 3.773229 -0.718349 3.082912 0
M  V30 40 H 2.820583 3.680153 3.834510 0
M  V30 41 H 1.183238 5.281194 3.060724 0
M  V30 42 H -0.217031 6.569364 2.369050 0
M  V30 43 H -2.020819 7.974516 1.397142 0
M  V30 44 H -4.802443 7.248120 0.012836 0
M  V30 45 H -3.489679 4.767872 -0.914355 0
M  V30 46 H -1.701347 3.329975 0.032935 0
M  V30 47 H -0.540721 0.826746 0.064980 0
M  V30 48 H 0.355013 -1.562158 -0.867377 0
M  V30 49 H -1.732955 -1.182605 1.337074 0
M  V30 50 H -0.621242 -2.543341 1.277287 0
M  V30 51 H -3.354334 -2.294268 0.404772 0
M  V30 52 H -2.380830 -3.737735 0.586624 0
M  V30 53 H -3.541934 -2.742990 -1.673618 0
M  V30 54 H -3.037572 -5.043781 -1.512400 0
M  V30 55 H -2.451279 -4.344303 -3.021540 0
M  V30 56 H -1.319556 -6.124460 -3.484427 0
M  V30 57 H 0.040741 -6.680516 -2.444155 0
M  V30 58 H -1.642276 -6.987265 -1.928245 0
M  V30 59 H -1.538953 -5.868685 0.180055 0
M  V30 60 H 0.076651 -6.235092 -0.403405 0
M  V30 61 H -0.202761 -4.592469 0.211531 0
M  V30 62 H -2.263183 -1.645603 -3.147935 0
M  V30 63 H -0.724881 -2.339728 -2.583709 0
M  V30 64 H -0.883105 0.017833 -2.128390 0
M  V30 65 H -2.379934 -0.221044 -1.094436 0
M  V30 END ATOM
M  V30 BEGIN BOND
M  V30 1 1 1 2
M  V30 2 1 2 3
M  V30 3 1 3 4
M  V30 4 2 4 5
M  V30 5 1 4 6
M  V30 6 2 6 7
M  V30 7 1 7 8
M  V30 8 2 8 9
M  V30 9 1 9 10
M  V30 10 2 10 11
M  V30 11 1 11 12
M  V30 12 1 12 13
M  V30 13 2 13 14
M  V30 14 1 14 15
M  V30 15 2 15 16
M  V30 16 1 16 17
M  V30 17 1 16 18
M  V30 18 2 18 19
M  V30 19 2 12 20
M  V30 20 1 20 21
M  V30 21 2 21 22
M  V30 22 1 22 23
M  V30 23 1 23 24
M  V30 24 1 24 25
M  V30 25 1 25 26
M  V30 26 1 26 27
M  V30 27 1 27 28
M  V30 28 1 28 29
M  V30 29 1 29 30
M  V30 30 1 29 31
M  V30 31 1 27 32
M  V30 32 1 32 33
M  V30 33 1 22 6
M  V30 34 1 33 24
M  V30 35 1 21 9
M  V30 36 1 19 13
M  V30 37 1 1 34
M  V30 38 1 1 35
M  V30 39 1 1 36
M  V30 40 1 2 37
M  V30 41 1 2 38
M  V30 42 1 7 39
M  V30 43 1 10 40
M  V30 44 1 11 41
M  V30 45 1 14 42
M  V30 46 1 15 43
M  V30 47 1 17 44
M  V30 48 1 18 45
M  V30 49 1 19 46
M  V30 50 1 23 47
M  V30 51 1 24 48 CFG=3
M  V30 52 1 25 49
M  V30 53 1 25 50
M  V30 54 1 26 51
M  V30 55 1 26 52
M  V30 56 1 27 53 CFG=3
M  V30 57 1 28 54
M  V30 58 1 28 55
M  V30 59 1 30 56
M  V30 60 1 30 57
M  V30 61 1 30 58
M  V30 62 1 31 59
M  V30 63 1 31 60
M  V30 64 1 31 61
M  V30 65 1 32 62
M  V30 66 1 32 63
M  V30 67 1 33 64
M  V30 68 1 33 65
M  V30 END BOND
M  V30 END CTAB
M  END
>  <Dataset>  (426) 
ChEMBL_Kinases

>  <Ligand_Instance>  (426) 
nan

>  <PDB_ID>  (426) 
nan

>  <Standardized_SMILES>  (426) 
CCOC(=O)c1cnc2ccc(-c3ccc(O)cc3)nc2c1N[C@H]1CC[C@H](CN(C)C)CC1

>  <Name>  (426) 
nan

>  <Pocket>  (426) 
nan

>  <ATP_Site>  (426) 
nan

>  <Peripheral>  (426) 
nan

>  <Num_H_Atoms_ProtBoundConf>  (426) 
nan

>  <Num_Resolved_Atoms>  (426) 
nan

>  <Num_Not_Resolved_Atoms>  (426) 
nan

$$$$
CHEMBL4640598
     RDKit          3D

  0  0  0  0  0  0  0  0  0  0999 V3000
M  V30 BEGIN CTAB
M  V30 COUNTS 38 41 0 0 0
M  V30 BEGIN ATOM
M  V30 1 C -0.574041 -1.737122 5.662633 0
M  V30 2 C 0.197940 -1.297322 4.603240 0
M  V30 3 C -0.395482 -1.046896 3.383601 0
M  V30 4 C 0.246678 -0.581480 2.158208 0
M  V30 5 C 0.002944 -1.116930 0.909345 0
M  V30 6 N 0.760962 -0.452685 0.011577 0
M  V30 7 C 0.819476 -0.688213 -1.427833 0
M  V30 8 C -0.096762 -1.848283 -1.758898 0
M  V30 9 C -0.092887 -2.082708 -3.242622 0
M  V30 10 O -0.452464 -0.946974 -3.927128 0
M  V30 11 C -0.834058 0.105557 -3.109605 0
M  V30 12 C 0.314204 0.505979 -2.202847 0
M  V30 13 C 1.477934 0.481403 0.623266 0
M  V30 14 C 2.385638 1.422822 0.245661 0
M  V30 15 N 2.969325 2.264728 1.132792 0
M  V30 16 C 2.684376 2.219773 2.448309 0
M  V30 17 C 1.771104 1.283831 2.881967 0
M  V30 18 C 1.180508 0.428703 1.968802 0
M  V30 19 C -1.771362 -1.259438 3.297190 0
M  V30 20 C -2.540053 -1.704916 4.378168 0
M  V30 21 N -1.905641 -1.937477 5.560507 0
M  V30 22 H -0.038712 -1.912142 6.587026 0
M  V30 23 H 1.256906 -1.121637 4.627958 0
M  V30 24 H -0.661364 -1.921066 0.635643 0
M  V30 25 H 1.836127 -0.930761 -1.747249 0
M  V30 26 H -1.136581 -1.628200 -1.420756 0
M  V30 27 H 0.243931 -2.789827 -1.286339 0
M  V30 28 H 0.959893 -2.371140 -3.527208 0
M  V30 29 H -0.713949 -2.961144 -3.499852 0
M  V30 30 H -1.786460 -0.059408 -2.566129 0
M  V30 31 H -1.041312 0.973270 -3.787582 0
M  V30 32 H 1.108202 0.913582 -2.886570 0
M  V30 33 H -0.083861 1.304490 -1.534713 0
M  V30 34 H 2.668294 1.524162 -0.788235 0
M  V30 35 H 3.139157 2.882145 3.170130 0
M  V30 36 H 1.502847 1.196938 3.907470 0
M  V30 37 H -2.318697 -1.083574 2.362755 0
M  V30 38 H -3.608045 -1.849174 4.239498 0
M  V30 END ATOM
M  V30 BEGIN BOND
M  V30 1 2 1 2
M  V30 2 1 2 3
M  V30 3 1 3 4
M  V30 4 2 4 5
M  V30 5 1 5 6
M  V30 6 1 6 7
M  V30 7 1 7 8
M  V30 8 1 8 9
M  V30 9 1 9 10
M  V30 10 1 10 11
M  V30 11 1 11 12
M  V30 12 1 6 13
M  V30 13 2 13 14
M  V30 14 1 14 15
M  V30 15 2 15 16
M  V30 16 1 16 17
M  V30 17 2 17 18
M  V30 18 2 3 19
M  V30 19 1 19 20
M  V30 20 2 20 21
M  V30 21 1 21 1
M  V30 22 1 18 4
M  V30 23 1 12 7
M  V30 24 1 18 13
M  V30 25 1 1 22
M  V30 26 1 2 23
M  V30 27 1 5 24
M  V30 28 1 7 25
M  V30 29 1 8 26
M  V30 30 1 8 27
M  V30 31 1 9 28
M  V30 32 1 9 29
M  V30 33 1 11 30
M  V30 34 1 11 31
M  V30 35 1 12 32
M  V30 36 1 12 33
M  V30 37 1 14 34
M  V30 38 1 16 35
M  V30 39 1 17 36
M  V30 40 1 19 37
M  V30 41 1 20 38
M  V30 END BOND
M  V30 END CTAB
M  END
>  <Dataset>  (427) 
ChEMBL_Kinases

>  <Ligand_Instance>  (427) 
nan

>  <PDB_ID>  (427) 
nan

>  <Standardized_SMILES>  (427) 
c1cc(-c2cn(C3CCOCC3)c3cnccc23)ccn1

>  <Name>  (427) 
nan

>  <Pocket>  (427) 
nan

>  <ATP_Site>  (427) 
nan

>  <Peripheral>  (427) 
nan

>  <Num_H_Atoms_ProtBoundConf>  (427) 
nan

>  <Num_Resolved_Atoms>  (427) 
nan

>  <Num_Not_Resolved_Atoms>  (427) 
nan

$$$$
CHEMBL4640641
     RDKit          3D

  0  0  0  0  0  0  0  0  0  0999 V3000
M  V30 BEGIN CTAB
M  V30 COUNTS 57 61 0 0 0
M  V30 BEGIN ATOM
M  V30 1 C -3.539546 -3.523631 1.528645 0
M  V30 2 O -2.757609 -4.564778 0.978738 0
M  V30 3 C -1.513522 -4.321813 0.413718 0
M  V30 4 C -1.038602 -3.009816 0.398844 0
M  V30 5 C 0.205172 -2.818543 -0.175055 0
M  V30 6 C 0.698819 -1.428452 -0.183765 0
M  V30 7 C 0.315273 -0.632044 0.876015 0
M  V30 8 N 0.746466 0.643485 0.891683 0
M  V30 9 C 1.522846 1.164107 -0.067663 0
M  V30 10 C 2.013121 2.478128 -0.134084 0
M  V30 11 N 1.780366 3.510133 0.824062 0
M  V30 12 C 2.903320 3.476283 1.737711 0
M  V30 13 C 2.793025 4.585095 2.724830 0 CFG=1
M  V30 14 C 3.152128 5.897154 2.030939 0
M  V30 15 O 1.575067 4.739329 3.327455 0
M  V30 16 C 0.466569 4.512853 2.564188 0 CFG=1
M  V30 17 C -0.563014 5.585486 2.886070 0
M  V30 18 C 0.746081 4.497958 1.061361 0
M  V30 19 S 2.964158 2.634439 -1.584037 0
M  V30 20 N 2.700804 0.870734 -2.131808 0
M  V30 21 C 1.935693 0.423651 -1.143194 0
M  V30 22 C 1.504799 -0.888062 -1.179080 0
M  V30 23 C 1.007096 -3.796833 -0.726498 0
M  V30 24 C 0.521187 -5.100993 -0.704776 0
M  V30 25 C -0.718631 -5.309778 -0.135805 0
M  V30 26 N -1.323833 -6.619882 -0.062442 0
M  V30 27 C -2.067512 -6.683975 -1.277355 0
M  V30 28 O -1.980832 -5.639732 -2.012987 0
M  V30 29 C -2.933783 -7.798607 -1.812991 0
M  V30 30 C -4.220404 -7.305765 -2.501689 0
M  V30 31 C -3.078633 -7.849496 -3.286402 0
M  V30 32 H -4.038075 -2.920570 0.753235 0
M  V30 33 H -4.322581 -3.969195 2.199388 0
M  V30 34 H -2.939721 -2.870387 2.198169 0
M  V30 35 H -1.607498 -2.194889 0.810157 0
M  V30 36 H -0.307518 -0.917374 1.718975 0
M  V30 37 H 3.872838 3.593533 1.192596 0
M  V30 38 H 2.839060 2.496491 2.273308 0
M  V30 39 H 3.616001 4.400455 3.479151 0
M  V30 40 H 2.355624 6.672632 2.172549 0
M  V30 41 H 3.315528 5.781201 0.948763 0
M  V30 42 H 4.076154 6.359150 2.475569 0
M  V30 43 H -0.036903 3.540189 2.833120 0
M  V30 44 H -0.626285 6.258626 1.998826 0
M  V30 45 H -0.197273 6.232236 3.707415 0
M  V30 46 H -1.551554 5.171954 3.155712 0
M  V30 47 H -0.183826 4.072541 0.586476 0
M  V30 48 H 0.956726 5.482604 0.645456 0
M  V30 49 H 1.711644 -1.639511 -1.928111 0
M  V30 50 H 1.963602 -3.566536 -1.153274 0
M  V30 51 H 1.073881 -5.925526 -1.109510 0
M  V30 52 H -1.428966 -7.504681 0.499347 0
M  V30 53 H -3.037460 -8.701150 -1.209869 0
M  V30 54 H -4.410778 -6.213037 -2.524568 0
M  V30 55 H -5.124730 -7.911831 -2.445441 0
M  V30 56 H -3.227149 -8.832448 -3.798534 0
M  V30 57 H -2.494798 -7.134863 -3.912443 0
M  V30 END ATOM
M  V30 BEGIN BOND
M  V30 1 1 1 2
M  V30 2 1 2 3
M  V30 3 2 3 4
M  V30 4 1 4 5
M  V30 5 1 5 6
M  V30 6 1 6 7
M  V30 7 2 7 8
M  V30 8 1 8 9
M  V30 9 2 9 10
M  V30 10 1 10 11
M  V30 11 1 11 12
M  V30 12 1 12 13
M  V30 13 1 13 14
M  V30 14 1 13 15
M  V30 15 1 15 16
M  V30 16 1 16 17
M  V30 17 1 16 18
M  V30 18 1 10 19
M  V30 19 1 19 20
M  V30 20 2 20 21
M  V30 21 1 21 22
M  V30 22 2 5 23
M  V30 23 1 23 24
M  V30 24 2 24 25
M  V30 25 1 25 26
M  V30 26 1 26 27
M  V30 27 2 27 28
M  V30 28 1 27 29
M  V30 29 1 29 30
M  V30 30 1 30 31
M  V30 31 1 25 3
M  V30 32 1 31 29
M  V30 33 2 22 6
M  V30 34 1 21 9
M  V30 35 1 18 11
M  V30 36 1 1 32
M  V30 37 1 1 33
M  V30 38 1 1 34
M  V30 39 1 4 35
M  V30 40 1 7 36
M  V30 41 1 12 37
M  V30 42 1 12 38
M  V30 43 1 13 39 CFG=1
M  V30 44 1 14 40
M  V30 45 1 14 41
M  V30 46 1 14 42
M  V30 47 1 16 43 CFG=1
M  V30 48 1 17 44
M  V30 49 1 17 45
M  V30 50 1 17 46
M  V30 51 1 18 47
M  V30 52 1 18 48
M  V30 53 1 22 49
M  V30 54 1 23 50
M  V30 55 1 24 51
M  V30 56 1 26 52
M  V30 57 1 29 53
M  V30 58 1 30 54
M  V30 59 1 30 55
M  V30 60 1 31 56
M  V30 61 1 31 57
M  V30 END BOND
M  V30 END CTAB
M  END
>  <Dataset>  (428) 
ChEMBL_Kinases

>  <Ligand_Instance>  (428) 
nan

>  <PDB_ID>  (428) 
nan

>  <Standardized_SMILES>  (428) 
COc1cc(-c2cnc3c(N4C[C@@H](C)O[C@@H](C)C4)snc3c2)ccc1NC(=O)C1CC1

>  <Name>  (428) 
nan

>  <Pocket>  (428) 
nan

>  <ATP_Site>  (428) 
nan

>  <Peripheral>  (428) 
nan

>  <Num_H_Atoms_ProtBoundConf>  (428) 
nan

>  <Num_Resolved_Atoms>  (428) 
nan

>  <Num_Not_Resolved_Atoms>  (428) 
nan

$$$$
CHEMBL4640652
     RDKit          3D

  0  0  0  0  0  0  0  0  0  0999 V3000
M  V30 BEGIN CTAB
M  V30 COUNTS 55 59 0 0 0
M  V30 BEGIN ATOM
M  V30 1 O -2.043162 -5.430663 0.582762 0
M  V30 2 C -0.785253 -5.339366 -0.085605 0
M  V30 3 C -0.234724 -3.940889 0.103180 0
M  V30 4 C 0.209062 -2.814344 0.233564 0
M  V30 5 C 0.727084 -1.528708 0.405008 0
M  V30 6 C 2.036938 -1.184133 0.134858 0
M  V30 7 C 2.518653 0.105259 0.324973 0
M  V30 8 C 1.675153 1.105216 0.803300 0
M  V30 9 N 2.313536 2.352847 1.010605 0
M  V30 10 C 3.250346 2.930428 0.028661 0
M  V30 11 C 4.602637 2.984466 0.716195 0
M  V30 12 O 4.536647 2.477204 2.016195 0
M  V30 13 C 3.640405 3.198987 2.772611 0
M  V30 14 C 2.231585 3.243050 2.164716 0
M  V30 15 C 0.387027 0.726288 1.056193 0
M  V30 16 N -0.486807 1.744172 1.511937 0
M  V30 17 C -1.817939 1.343715 1.799904 0
M  V30 18 N -2.162373 1.197021 3.087767 0
M  V30 19 C -3.419899 0.797632 3.352126 0
M  V30 20 N -4.326285 0.545528 2.385236 0
M  V30 21 C -4.008524 0.684132 1.096495 0
M  V30 22 N -4.744143 0.485134 -0.023146 0
M  V30 23 C -3.926240 0.768295 -1.054527 0
M  V30 24 C -2.673563 1.145974 -0.568323 0
M  V30 25 C -2.739650 1.087873 0.803829 0
M  V30 26 C -0.113269 -0.535133 0.878850 0
M  V30 27 C -0.536415 -5.835227 -0.221847 0
M  V30 28 C -1.426802 -4.908341 -1.138619 0
M  V30 29 C -2.037469 -5.873167 -1.970227 0
M  V30 30 C -0.702561 -5.895241 -1.607128 0
M  V30 31 H -2.036152 -5.668548 1.426901 0
M  V30 32 H 2.671173 -1.977631 -0.231712 0
M  V30 33 H 3.575519 0.267618 0.080125 0
M  V30 34 H 3.242698 2.419587 -0.928561 0
M  V30 35 H 2.946211 4.006728 -0.150259 0
M  V30 36 H 5.383248 2.409671 0.144704 0
M  V30 37 H 5.013642 4.009447 0.804015 0
M  V30 38 H 4.014328 4.230739 2.934939 0
M  V30 39 H 3.555358 2.725070 3.779676 0
M  V30 40 H 1.482786 2.928203 2.915275 0
M  V30 41 H 1.979076 4.249617 1.784000 0
M  V30 42 H -0.511808 2.747681 1.719507 0
M  V30 43 H -3.766745 0.660704 4.361998 0
M  V30 44 H -5.743411 0.173067 -0.060705 0
M  V30 45 H -4.244245 0.693293 -2.089897 0
M  V30 46 H -1.810669 1.429677 -1.157290 0
M  V30 47 H -1.131448 -0.781345 1.091711 0
M  V30 48 H 0.601907 -5.788391 -0.364535 0
M  V30 49 H -0.806131 -6.916533 -0.089731 0
M  V30 50 H -2.198740 -4.240050 -0.735448 0
M  V30 51 H -0.889018 -4.105788 -1.721763 0
M  V30 52 H -2.740882 -6.371974 -1.315297 0
M  V30 53 H -2.363152 -5.345242 -2.831092 0
M  V30 54 H -0.346420 -6.932803 -1.713333 0
M  V30 55 H 0.123962 -5.401739 -2.145524 0
M  V30 END ATOM
M  V30 BEGIN BOND
M  V30 1 1 1 2
M  V30 2 1 2 3
M  V30 3 3 3 4
M  V30 4 1 4 5
M  V30 5 2 5 6
M  V30 6 1 6 7
M  V30 7 2 7 8
M  V30 8 1 8 9
M  V30 9 1 9 10
M  V30 10 1 10 11
M  V30 11 1 11 12
M  V30 12 1 12 13
M  V30 13 1 13 14
M  V30 14 1 8 15
M  V30 15 1 15 16
M  V30 16 1 16 17
M  V30 17 2 17 18
M  V30 18 1 18 19
M  V30 19 2 19 20
M  V30 20 1 20 21
M  V30 21 1 21 22
M  V30 22 1 22 23
M  V30 23 2 23 24
M  V30 24 1 24 25
M  V30 25 2 15 26
M  V30 26 1 2 27
M  V30 27 1 27 28
M  V30 28 1 28 29
M  V30 29 1 29 30
M  V30 30 1 30 2
M  V30 31 1 26 5
M  V30 32 1 14 9
M  V30 33 1 25 17
M  V30 34 2 25 21
M  V30 35 1 1 31
M  V30 36 1 6 32
M  V30 37 1 7 33
M  V30 38 1 10 34
M  V30 39 1 10 35
M  V30 40 1 11 36
M  V30 41 1 11 37
M  V30 42 1 13 38
M  V30 43 1 13 39
M  V30 44 1 14 40
M  V30 45 1 14 41
M  V30 46 1 16 42
M  V30 47 1 19 43
M  V30 48 1 22 44
M  V30 49 1 23 45
M  V30 50 1 24 46
M  V30 51 1 26 47
M  V30 52 1 27 48
M  V30 53 1 27 49
M  V30 54 1 28 50
M  V30 55 1 28 51
M  V30 56 1 29 52
M  V30 57 1 29 53
M  V30 58 1 30 54
M  V30 59 1 30 55
M  V30 END BOND
M  V30 END CTAB
M  END
>  <Dataset>  (429) 
ChEMBL_Kinases

>  <Ligand_Instance>  (429) 
nan

>  <PDB_ID>  (429) 
nan

>  <Standardized_SMILES>  (429) 
OC1(C#Cc2ccc(N3CCOCC3)c(Nc3ncnc4[nH]ccc34)c2)CCCC1

>  <Name>  (429) 
nan

>  <Pocket>  (429) 
nan

>  <ATP_Site>  (429) 
nan

>  <Peripheral>  (429) 
nan

>  <Num_H_Atoms_ProtBoundConf>  (429) 
nan

>  <Num_Resolved_Atoms>  (429) 
nan

>  <Num_Not_Resolved_Atoms>  (429) 
nan

$$$$
CHEMBL4640730
     RDKit          3D

  0  0  0  0  0  0  0  0  0  0999 V3000
M  V30 BEGIN CTAB
M  V30 COUNTS 53 56 0 0 0
M  V30 BEGIN ATOM
M  V30 1 C -5.408541 -3.114449 -1.017391 0
M  V30 2 O -4.463892 -4.158779 -1.111956 0
M  V30 3 C -3.108118 -3.930162 -0.998517 0
M  V30 4 C -2.522215 -2.706770 -0.787363 0
M  V30 5 C -1.159142 -2.518823 -0.679356 0
M  V30 6 C -0.587868 -1.175818 -0.452187 0
M  V30 7 C 0.584733 -1.133380 0.272553 0
M  V30 8 N 1.120442 0.077676 0.489498 0
M  V30 9 C 0.610548 1.237993 0.061449 0
M  V30 10 C 1.102042 2.516995 0.244867 0
M  V30 11 N 2.300095 2.919251 0.950679 0
M  V30 12 C 2.663551 4.304753 1.050639 0
M  V30 13 C 3.528020 4.481234 2.275109 0 CFG=1
M  V30 14 C 3.544406 5.921034 2.746636 0
M  V30 15 O 2.981898 3.725022 3.303201 0
M  V30 16 C 3.287909 2.374341 3.122043 0 CFG=1
M  V30 17 C 2.287204 1.525461 3.868295 0
M  V30 18 C 3.254371 2.060088 1.620164 0
M  V30 19 S 0.063284 3.625845 -0.506434 0
M  V30 20 N -1.149356 2.353263 -1.138738 0
M  V30 21 C -0.555965 1.210631 -0.660940 0
M  V30 22 C -1.152932 -0.007459 -0.915341 0
M  V30 23 C -0.313436 -3.602272 -0.785275 0
M  V30 24 C -0.841409 -4.864707 -0.998616 0
M  V30 25 C -2.211628 -4.999630 -1.099446 0
M  V30 26 N -2.692973 -6.338403 -1.320981 0
M  V30 27 C -2.934610 -6.986354 -0.103228 0
M  V30 28 C -3.441829 -8.391697 -0.021213 0
M  V30 29 O -2.708491 -6.340170 0.939325 0
M  V30 30 H -6.429170 -3.576676 -0.951861 0
M  V30 31 H -5.407774 -2.463412 -1.900610 0
M  V30 32 H -5.238665 -2.486811 -0.107113 0
M  V30 33 H -3.201204 -1.867078 -0.706544 0
M  V30 34 H 1.074765 -2.009674 0.661092 0
M  V30 35 H 1.743602 4.922986 1.092438 0
M  V30 36 H 3.217046 4.587758 0.110597 0
M  V30 37 H 4.549236 4.122167 2.024750 0
M  V30 38 H 2.532427 6.329187 2.536974 0
M  V30 39 H 3.747174 5.901335 3.833948 0
M  V30 40 H 4.334256 6.463069 2.187668 0
M  V30 41 H 4.284188 2.181905 3.547821 0
M  V30 42 H 2.082893 2.002805 4.848004 0
M  V30 43 H 2.639896 0.495857 4.039267 0
M  V30 44 H 1.353821 1.509173 3.265433 0
M  V30 45 H 4.306796 2.252582 1.262328 0
M  V30 46 H 3.011775 0.996752 1.557110 0
M  V30 47 H -2.051315 -0.181864 -1.456885 0
M  V30 48 H 0.767043 -3.511950 -0.707930 0
M  V30 49 H -0.190375 -5.724767 -1.084002 0
M  V30 50 H -2.863710 -6.828260 -2.225852 0
M  V30 51 H -3.865056 -8.615100 0.967176 0
M  V30 52 H -2.611621 -9.063040 -0.323134 0
M  V30 53 H -4.276062 -8.515638 -0.750545 0
M  V30 END ATOM
M  V30 BEGIN BOND
M  V30 1 1 1 2
M  V30 2 1 2 3
M  V30 3 2 3 4
M  V30 4 1 4 5
M  V30 5 1 5 6
M  V30 6 1 6 7
M  V30 7 2 7 8
M  V30 8 1 8 9
M  V30 9 2 9 10
M  V30 10 1 10 11
M  V30 11 1 11 12
M  V30 12 1 12 13
M  V30 13 1 13 14
M  V30 14 1 13 15
M  V30 15 1 15 16
M  V30 16 1 16 17
M  V30 17 1 16 18
M  V30 18 1 10 19
M  V30 19 1 19 20
M  V30 20 2 20 21
M  V30 21 1 21 22
M  V30 22 2 5 23
M  V30 23 1 23 24
M  V30 24 2 24 25
M  V30 25 1 25 26
M  V30 26 1 26 27
M  V30 27 1 27 28
M  V30 28 2 27 29
M  V30 29 1 25 3
M  V30 30 2 22 6
M  V30 31 1 21 9
M  V30 32 1 18 11
M  V30 33 1 1 30
M  V30 34 1 1 31
M  V30 35 1 1 32
M  V30 36 1 4 33
M  V30 37 1 7 34
M  V30 38 1 12 35
M  V30 39 1 12 36
M  V30 40 1 13 37 CFG=3
M  V30 41 1 14 38
M  V30 42 1 14 39
M  V30 43 1 14 40
M  V30 44 1 16 41 CFG=1
M  V30 45 1 17 42
M  V30 46 1 17 43
M  V30 47 1 17 44
M  V30 48 1 18 45
M  V30 49 1 18 46
M  V30 50 1 22 47
M  V30 51 1 23 48
M  V30 52 1 24 49
M  V30 53 1 26 50
M  V30 54 1 28 51
M  V30 55 1 28 52
M  V30 56 1 28 53
M  V30 END BOND
M  V30 END CTAB
M  END
>  <Dataset>  (430) 
ChEMBL_Kinases

>  <Ligand_Instance>  (430) 
nan

>  <PDB_ID>  (430) 
nan

>  <Standardized_SMILES>  (430) 
COc1cc(-c2cnc3c(N4C[C@@H](C)O[C@@H](C)C4)snc3c2)ccc1NC(C)=O

>  <Name>  (430) 
nan

>  <Pocket>  (430) 
nan

>  <ATP_Site>  (430) 
nan

>  <Peripheral>  (430) 
nan

>  <Num_H_Atoms_ProtBoundConf>  (430) 
nan

>  <Num_Resolved_Atoms>  (430) 
nan

>  <Num_Not_Resolved_Atoms>  (430) 
nan

$$$$
CHEMBL4539882
     RDKit          3D

  0  0  0  0  0  0  0  0  0  0999 V3000
M  V30 BEGIN CTAB
M  V30 COUNTS 45 48 0 0 0
M  V30 BEGIN ATOM
M  V30 1 N -0.070862 -5.284261 0.091361 0
M  V30 2 C 0.476927 -4.160981 -0.577522 0
M  V30 3 O 1.105159 -4.671676 -1.547494 0
M  V30 4 C 0.451393 -2.738216 -0.379777 0
M  V30 5 C 1.145920 -2.009521 -1.303670 0
M  V30 6 C 1.140328 -0.619254 -1.136815 0
M  V30 7 C 1.865900 0.214064 -2.093804 0
M  V30 8 C 1.947644 -0.232090 -3.417120 0
M  V30 9 C 2.606023 0.466624 -4.412787 0
M  V30 10 C 3.192608 1.657886 -4.019569 0
M  V30 11 C 3.152520 2.159227 -2.734823 0
M  V30 12 C 2.480787 1.418803 -1.780863 0
M  V30 13 C 0.459099 -0.032073 -0.082235 0
M  V30 14 C -0.241413 -0.804468 0.845340 0
M  V30 15 C -0.998516 -0.501024 1.977265 0
M  V30 16 C -1.181055 0.906426 2.397851 0
M  V30 17 C -0.110053 1.420626 3.312486 0
M  V30 18 C 0.208073 0.511664 4.470791 0
M  V30 19 C -1.022039 0.095663 5.234233 0
M  V30 20 C -2.271266 0.331144 4.472971 0
M  V30 21 O -3.280086 -0.100709 5.049715 0
M  V30 22 C -2.480477 0.983738 3.170949 0
M  V30 23 C -1.415596 -1.730142 2.441186 0
M  V30 24 N -0.961383 -2.720697 1.670109 0
M  V30 25 C -0.232279 -2.176302 0.675589 0
M  V30 26 H -1.048723 -5.394465 -0.283532 0
M  V30 27 H 0.280227 -5.954520 0.813820 0
M  V30 28 H 1.681224 -2.430927 -2.128502 0
M  V30 29 H 1.487573 -1.164715 -3.721346 0
M  V30 30 H 2.657216 0.104967 -5.429962 0
M  V30 31 H 3.715206 2.211081 -4.811236 0
M  V30 32 H 3.617787 3.091540 -2.450329 0
M  V30 33 H 2.380360 1.704443 -0.747037 0
M  V30 34 H 0.474768 1.058776 0.019782 0
M  V30 35 H -1.199170 1.584930 1.510278 0
M  V30 36 H 0.828430 1.701841 2.832131 0
M  V30 37 H -0.517355 2.359948 3.777864 0
M  V30 38 H 0.904546 1.073697 5.128172 0
M  V30 39 H 0.781377 -0.349247 4.068324 0
M  V30 40 H -0.875669 -0.957325 5.551536 0
M  V30 41 H -1.092342 0.694110 6.165892 0
M  V30 42 H -3.291166 0.431666 2.635431 0
M  V30 43 H -2.779343 2.033866 3.372336 0
M  V30 44 H -2.022229 -1.815184 3.308004 0
M  V30 45 H -1.121237 -3.741940 1.785152 0
M  V30 END ATOM
M  V30 BEGIN BOND
M  V30 1 1 1 2
M  V30 2 2 2 3
M  V30 3 1 2 4
M  V30 4 2 4 5
M  V30 5 1 5 6
M  V30 6 1 6 7
M  V30 7 2 7 8
M  V30 8 1 8 9
M  V30 9 2 9 10
M  V30 10 1 10 11
M  V30 11 2 11 12
M  V30 12 2 6 13
M  V30 13 1 13 14
M  V30 14 1 14 15
M  V30 15 1 15 16
M  V30 16 1 16 17
M  V30 17 1 17 18
M  V30 18 1 18 19
M  V30 19 1 19 20
M  V30 20 2 20 21
M  V30 21 1 20 22
M  V30 22 2 15 23
M  V30 23 1 23 24
M  V30 24 1 24 25
M  V30 25 1 25 4
M  V30 26 1 12 7
M  V30 27 2 25 14
M  V30 28 1 22 16
M  V30 29 1 1 26
M  V30 30 1 1 27
M  V30 31 1 5 28
M  V30 32 1 8 29
M  V30 33 1 9 30
M  V30 34 1 10 31
M  V30 35 1 11 32
M  V30 36 1 12 33
M  V30 37 1 13 34
M  V30 38 1 16 35
M  V30 39 1 17 36
M  V30 40 1 17 37
M  V30 41 1 18 38
M  V30 42 1 18 39
M  V30 43 1 19 40
M  V30 44 1 19 41
M  V30 45 1 22 42
M  V30 46 1 22 43
M  V30 47 1 23 44
M  V30 48 1 24 45
M  V30 END BOND
M  V30 END CTAB
M  END
>  <Dataset>  (431) 
ChEMBL_Kinases

>  <Ligand_Instance>  (431) 
nan

>  <PDB_ID>  (431) 
nan

>  <Standardized_SMILES>  (431) 
NC(=O)c1cc(-c2ccccc2)cc2c(C3CCCC(=O)C3)c[nH]c12

>  <Name>  (431) 
nan

>  <Pocket>  (431) 
nan

>  <ATP_Site>  (431) 
nan

>  <Peripheral>  (431) 
nan

>  <Num_H_Atoms_ProtBoundConf>  (431) 
nan

>  <Num_Resolved_Atoms>  (431) 
nan

>  <Num_Not_Resolved_Atoms>  (431) 
nan

$$$$
CHEMBL4640744
     RDKit          3D

  0  0  0  0  0  0  0  0  0  0999 V3000
M  V30 BEGIN CTAB
M  V30 COUNTS 56 59 0 0 0
M  V30 BEGIN ATOM
M  V30 1 N 4.539102 -3.265475 1.923286 0
M  V30 2 C 4.874950 -2.386806 0.848670 0
M  V30 3 O 6.126577 -2.184466 0.752685 0
M  V30 4 C 4.183849 -1.629493 -0.203837 0
M  V30 5 C 2.658404 -1.851559 -0.142248 0 CFG=1
M  V30 6 C 2.111365 -1.416293 1.159824 0
M  V30 7 C 1.350800 -0.153275 1.238507 0
M  V30 8 C 1.132329 0.592153 -0.031784 0 CFG=2
M  V30 9 N 0.199349 1.665564 -0.007567 0
M  V30 10 C -1.124667 2.114128 0.165100 0
M  V30 11 C -1.518889 3.463469 0.076814 0
M  V30 12 C -0.468514 4.508391 -0.202186 0
M  V30 13 O -0.103705 4.456663 -1.569138 0
M  V30 14 C -2.827438 3.830606 0.241406 0
M  V30 15 N -3.743603 2.893885 0.489522 0
M  V30 16 C -3.466923 1.595202 0.590447 0
M  V30 17 C -4.539085 0.777391 0.849343 0
M  V30 18 C -4.260242 -0.590490 0.957136 0
M  V30 19 C -2.970541 -0.982572 0.798069 0
M  V30 20 C -2.677678 -2.399155 0.918935 0
M  V30 21 C -1.422780 -2.936067 0.794355 0
M  V30 22 C -1.112152 -4.276434 0.902583 0
M  V30 23 Cl 0.501052 -4.930808 0.739898 0
M  V30 24 C -2.120265 -5.178645 1.156232 0
M  V30 25 O -1.858356 -6.534097 1.273653 0
M  V30 26 C -3.417963 -4.700706 1.293973 0
M  V30 27 Cl -4.700601 -5.844831 1.616265 0
M  V30 28 C -3.641984 -3.346662 1.171462 0
M  V30 29 N -2.013085 -0.085442 0.548294 0
M  V30 30 C -2.156854 1.223528 0.425912 0
M  V30 31 C 0.957622 -0.321540 -1.229268 0
M  V30 32 C 2.073318 -1.292000 -1.380742 0
M  V30 33 H 4.770620 -3.031695 2.912256 0
M  V30 34 H 4.072649 -4.201804 2.093735 0
M  V30 35 H 4.421397 -0.572116 -0.104714 0
M  V30 36 H 4.559113 -1.990447 -1.186590 0
M  V30 37 H 2.599000 -2.994644 -0.153851 0
M  V30 38 H 1.553637 -2.275765 1.662015 0
M  V30 39 H 3.003838 -1.319538 1.858807 0
M  V30 40 H 0.386523 -0.354050 1.726357 0
M  V30 41 H 1.890623 0.571694 1.928034 0
M  V30 42 H 2.161098 1.052103 -0.237600 0
M  V30 43 H 0.770057 2.538960 -0.226500 0
M  V30 44 H 0.410388 4.411128 0.446882 0
M  V30 45 H -0.964232 5.500667 -0.101275 0
M  V30 46 H -0.911618 4.168762 -2.103056 0
M  V30 47 H -3.035660 4.872156 0.158149 0
M  V30 48 H -5.543481 1.168640 0.963662 0
M  V30 49 H -5.142143 -1.186326 1.161120 0
M  V30 50 H -0.579182 -2.294305 0.597414 0
M  V30 51 H -1.146236 -6.948889 0.657822 0
M  V30 52 H -4.665868 -3.087207 1.293902 0
M  V30 53 H -0.007146 -0.843433 -1.181160 0
M  V30 54 H 0.921266 0.265487 -2.178233 0
M  V30 55 H 2.890262 -0.916018 -2.044347 0
M  V30 56 H 1.645209 -2.153386 -1.985584 0
M  V30 END ATOM
M  V30 BEGIN BOND
M  V30 1 1 1 2
M  V30 2 2 2 3
M  V30 3 1 2 4
M  V30 4 1 4 5
M  V30 5 1 5 6
M  V30 6 1 6 7
M  V30 7 1 7 8
M  V30 8 1 8 9
M  V30 9 1 9 10
M  V30 10 2 10 11
M  V30 11 1 11 12
M  V30 12 1 12 13
M  V30 13 1 11 14
M  V30 14 2 14 15
M  V30 15 1 15 16
M  V30 16 2 16 17
M  V30 17 1 17 18
M  V30 18 2 18 19
M  V30 19 1 19 20
M  V30 20 2 20 21
M  V30 21 1 21 22
M  V30 22 1 22 23
M  V30 23 2 22 24
M  V30 24 1 24 25
M  V30 25 1 24 26
M  V30 26 1 26 27
M  V30 27 2 26 28
M  V30 28 1 19 29
M  V30 29 2 29 30
M  V30 30 1 8 31
M  V30 31 1 31 32
M  V30 32 1 32 5
M  V30 33 1 30 10
M  V30 34 1 30 16
M  V30 35 1 28 20
M  V30 36 1 1 33
M  V30 37 1 1 34
M  V30 38 1 4 35
M  V30 39 1 4 36
M  V30 40 1 5 37 CFG=3
M  V30 41 1 6 38
M  V30 42 1 6 39
M  V30 43 1 7 40
M  V30 44 1 7 41
M  V30 45 1 8 42 CFG=3
M  V30 46 1 9 43
M  V30 47 1 12 44
M  V30 48 1 12 45
M  V30 49 1 13 46
M  V30 50 1 14 47
M  V30 51 1 17 48
M  V30 52 1 18 49
M  V30 53 1 21 50
M  V30 54 1 25 51
M  V30 55 1 28 52
M  V30 56 1 31 53
M  V30 57 1 31 54
M  V30 58 1 32 55
M  V30 59 1 32 56
M  V30 END BOND
M  V30 END CTAB
M  END
>  <Dataset>  (432) 
ChEMBL_Kinases

>  <Ligand_Instance>  (432) 
nan

>  <PDB_ID>  (432) 
nan

>  <Standardized_SMILES>  (432) 
NC(=O)C[C@H]1CC[C@H](Nc2c(CO)cnc3ccc(-c4cc(Cl)c(O)c(Cl)c4)nc23)CC1

>  <Name>  (432) 
nan

>  <Pocket>  (432) 
nan

>  <ATP_Site>  (432) 
nan

>  <Peripheral>  (432) 
nan

>  <Num_H_Atoms_ProtBoundConf>  (432) 
nan

>  <Num_Resolved_Atoms>  (432) 
nan

>  <Num_Not_Resolved_Atoms>  (432) 
nan

$$$$
CHEMBL4640746
     RDKit          3D

  0  0  0  0  0  0  0  0  0  0999 V3000
M  V30 BEGIN CTAB
M  V30 COUNTS 80 85 0 0 0
M  V30 BEGIN ATOM
M  V30 1 O 0.420588 1.334928 5.370073 0
M  V30 2 C -0.087546 0.302448 4.822479 0
M  V30 3 N 0.263873 -0.980611 5.316721 0
M  V30 4 C 1.186131 -1.165347 6.422310 0
M  V30 5 C 2.535848 -0.575931 6.096709 0
M  V30 6 N 3.152145 -1.163729 4.934685 0
M  V30 7 C 4.420746 -0.453878 4.754298 0
M  V30 8 C 4.963169 -0.799259 3.378988 0
M  V30 9 O 4.462467 -2.050581 3.006147 0
M  V30 10 C 4.515247 -2.938609 4.082414 0
M  V30 11 C 3.484348 -2.572593 5.138711 0
M  V30 12 C -0.993808 0.553253 3.723357 0
M  V30 13 C -1.184809 1.846891 3.287595 0
M  V30 14 C -2.040596 2.115851 2.228691 0
M  V30 15 C -2.747980 1.121984 1.550148 0
M  V30 16 C -2.510685 -0.164519 2.042363 0
M  V30 17 C -1.654824 -0.479316 3.108519 0
M  V30 18 C -3.140333 -1.391887 1.497550 0
M  V30 19 O -3.295319 -2.321600 2.360142 0
M  V30 20 C -3.565240 -1.564914 0.086456 0
M  V30 21 C -3.829250 -2.907823 -0.087307 0
M  V30 22 C -4.224659 -3.272871 -1.362245 0
M  V30 23 C -4.335920 -2.324507 -2.368228 0
M  V30 24 N -4.756605 -2.889866 -3.628768 0
M  V30 25 C -4.157763 -2.470454 -4.869433 0
M  V30 26 C -4.667897 -2.642797 -6.135876 0
M  V30 27 C -3.957905 -2.200780 -7.261234 0
M  V30 28 C -2.717445 -1.575168 -7.140223 0
M  V30 29 F -2.036067 -1.141149 -8.233872 0
M  V30 30 C -2.152832 -1.377123 -5.863246 0
M  V30 31 C -0.861018 -0.733876 -5.655006 0
M  V30 32 N -0.517398 -0.646888 -4.422929 0
M  V30 33 N 0.661565 -0.074352 -3.988239 0
M  V30 34 C 2.057766 -0.337055 -4.008342 0
M  V30 35 O 2.409623 -1.391859 -4.579748 0
M  V30 36 C 2.936066 0.621032 -3.374872 0
M  V30 37 C 2.575285 1.786539 -2.748128 0
M  V30 38 C 3.478240 2.636235 -2.158397 0
M  V30 39 C 4.832100 2.337880 -2.174972 0
M  V30 40 C 5.195011 1.161216 -2.808440 0
M  V30 41 C 4.265830 0.316538 -3.397864 0
M  V30 42 C -2.933297 -1.848310 -4.840090 0
M  V30 43 C -4.057915 -0.976222 -2.138829 0
M  V30 44 C -3.657707 -0.568514 -0.871699 0
M  V30 45 C -3.424756 0.869668 -0.844521 0
M  V30 46 C -3.596964 1.571251 0.456962 0
M  V30 47 H -0.170214 -1.821508 4.850408 0
M  V30 48 H 1.315457 -2.234247 6.625256 0
M  V30 49 H 0.814352 -0.605077 7.313867 0
M  V30 50 H 3.243579 -0.725935 6.959987 0
M  V30 51 H 2.521720 0.521688 5.939017 0
M  V30 52 H 5.137191 -0.776991 5.533517 0
M  V30 53 H 4.200590 0.608985 4.842762 0
M  V30 54 H 6.053343 -0.824999 3.437378 0
M  V30 55 H 4.660061 -0.023957 2.656195 0
M  V30 56 H 4.286301 -3.955530 3.727095 0
M  V30 57 H 5.538106 -2.945680 4.478673 0
M  V30 58 H 2.597689 -3.185057 4.982181 0
M  V30 59 H 3.980819 -2.735905 6.114181 0
M  V30 60 H -0.682410 2.704154 3.746026 0
M  V30 61 H -2.201763 3.142955 1.872306 0
M  V30 62 H -1.555303 -1.516895 3.392642 0
M  V30 63 H -3.728482 -3.615360 0.724724 0
M  V30 64 H -4.436933 -4.330519 -1.508227 0
M  V30 65 H -5.507366 -3.617713 -3.638255 0
M  V30 66 H -5.625098 -3.126126 -6.201579 0
M  V30 67 H -4.405418 -2.366440 -8.247497 0
M  V30 68 H -0.245210 -0.366380 -6.453374 0
M  V30 69 H 0.205018 0.770050 -3.554930 0
M  V30 70 H 1.535509 2.041176 -2.722986 0
M  V30 71 H 3.151227 3.544590 -1.679407 0
M  V30 72 H 5.571570 2.955790 -1.731432 0
M  V30 73 H 6.254778 0.931896 -2.820405 0
M  V30 74 H 4.658959 -0.585220 -3.866643 0
M  V30 75 H -2.489570 -1.711693 -3.848365 0
M  V30 76 H -4.174753 -0.301077 -2.971438 0
M  V30 77 H -2.342069 1.013561 -1.138235 0
M  V30 78 H -4.016567 1.399510 -1.617756 0
M  V30 79 H -3.425982 2.657307 0.302278 0
M  V30 80 H -4.657226 1.478773 0.763031 0
M  V30 END ATOM
M  V30 BEGIN BOND
M  V30 1 2 1 2
M  V30 2 1 2 3
M  V30 3 1 3 4
M  V30 4 1 4 5
M  V30 5 1 5 6
M  V30 6 1 6 7
M  V30 7 1 7 8
M  V30 8 1 8 9
M  V30 9 1 9 10
M  V30 10 1 10 11
M  V30 11 1 2 12
M  V30 12 2 12 13
M  V30 13 1 13 14
M  V30 14 2 14 15
M  V30 15 1 15 16
M  V30 16 2 16 17
M  V30 17 1 16 18
M  V30 18 2 18 19
M  V30 19 1 18 20
M  V30 20 2 20 21
M  V30 21 1 21 22
M  V30 22 2 22 23
M  V30 23 1 23 24
M  V30 24 1 24 25
M  V30 25 2 25 26
M  V30 26 1 26 27
M  V30 27 2 27 28
M  V30 28 1 28 29
M  V30 29 1 28 30
M  V30 30 1 30 31
M  V30 31 2 31 32
M  V30 32 1 32 33
M  V30 33 1 33 34
M  V30 34 2 34 35
M  V30 35 1 34 36
M  V30 36 2 36 37
M  V30 37 1 37 38
M  V30 38 2 38 39
M  V30 39 1 39 40
M  V30 40 2 40 41
M  V30 41 2 30 42
M  V30 42 1 23 43
M  V30 43 2 43 44
M  V30 44 1 44 45
M  V30 45 1 45 46
M  V30 46 1 11 6
M  V30 47 1 17 12
M  V30 48 1 44 20
M  V30 49 1 46 15
M  V30 50 1 42 25
M  V30 51 1 41 36
M  V30 52 1 3 47
M  V30 53 1 4 48
M  V30 54 1 4 49
M  V30 55 1 5 50
M  V30 56 1 5 51
M  V30 57 1 7 52
M  V30 58 1 7 53
M  V30 59 1 8 54
M  V30 60 1 8 55
M  V30 61 1 10 56
M  V30 62 1 10 57
M  V30 63 1 11 58
M  V30 64 1 11 59
M  V30 65 1 13 60
M  V30 66 1 14 61
M  V30 67 1 17 62
M  V30 68 1 21 63
M  V30 69 1 22 64
M  V30 70 1 24 65
M  V30 71 1 26 66
M  V30 72 1 27 67
M  V30 73 1 31 68
M  V30 74 1 33 69
M  V30 75 1 37 70
M  V30 76 1 38 71
M  V30 77 1 39 72
M  V30 78 1 40 73
M  V30 79 1 41 74
M  V30 80 1 42 75
M  V30 81 1 43 76
M  V30 82 1 45 77
M  V30 83 1 45 78
M  V30 84 1 46 79
M  V30 85 1 46 80
M  V30 END BOND
M  V30 END CTAB
M  END
>  <Dataset>  (433) 
ChEMBL_Kinases

>  <Ligand_Instance>  (433) 
nan

>  <PDB_ID>  (433) 
nan

>  <Standardized_SMILES>  (433) 
O=C(NCCN1CCOCC1)c1ccc2c(c1)C(=O)c1ccc(Nc3ccc(F)c(/C=N/NC(=O)c4ccccc4)c3)cc1CC2

>  <Name>  (433) 
nan

>  <Pocket>  (433) 
nan

>  <ATP_Site>  (433) 
nan

>  <Peripheral>  (433) 
nan

>  <Num_H_Atoms_ProtBoundConf>  (433) 
nan

>  <Num_Resolved_Atoms>  (433) 
nan

>  <Num_Not_Resolved_Atoms>  (433) 
nan

$$$$
CHEMBL4640754
     RDKit          3D

  0  0  0  0  0  0  0  0  0  0999 V3000
M  V30 BEGIN CTAB
M  V30 COUNTS 60 64 0 0 0
M  V30 BEGIN ATOM
M  V30 1 C 1.842539 -2.570618 4.985584 0
M  V30 2 C 2.352388 -3.232856 3.784498 0
M  V30 3 O 1.629856 -4.233277 3.465389 0
M  V30 4 N 3.494840 -2.882675 3.001846 0
M  V30 5 C 4.514661 -1.855961 3.070180 0
M  V30 6 C 4.504455 -0.970143 1.821917 0
M  V30 7 N 3.371004 -1.499095 1.029005 0
M  V30 8 C 2.206732 -0.710934 0.837077 0
M  V30 9 C 2.323608 0.655312 0.941682 0
M  V30 10 C 1.234150 1.474938 0.737273 0
M  V30 11 C -0.027577 0.965649 0.417691 0
M  V30 12 C -1.183899 1.799899 0.201651 0
M  V30 13 C -2.158189 2.489958 0.039231 0
M  V30 14 C -3.362146 3.348313 -0.142098 0
M  V30 15 C -4.391776 3.037168 0.911714 0
M  V30 16 O -2.902017 4.654374 -0.086389 0
M  V30 17 C -3.960982 3.046838 -1.495170 0
M  V30 18 N -4.038189 2.192010 -2.304280 0
M  V30 19 C -4.667567 2.218168 -3.448146 0
M  V30 20 C -5.348403 3.450633 -3.742748 0
M  V30 21 S -4.939841 4.459736 -2.199222 0
M  V30 22 C -0.155125 -0.419861 0.309916 0
M  V30 23 C 0.974331 -1.178345 0.527562 0
M  V30 24 N 0.747123 -2.573859 0.425326 0
M  V30 25 C -0.549885 -3.076777 0.132167 0
M  V30 26 N -1.494459 -3.579696 0.978744 0
M  V30 27 C -2.692024 -3.993905 0.504046 0
M  V30 28 N -3.038404 -3.943215 -0.817086 0
M  V30 29 C -2.147349 -3.458076 -1.694161 0
M  V30 30 N -2.203445 -3.286402 -3.025885 0
M  V30 31 C -1.057672 -2.759912 -3.458325 0
M  V30 32 C -0.272081 -2.604456 -2.352917 0
M  V30 33 C -0.933155 -3.039341 -1.203209 0
M  V30 34 C 3.751147 -2.809866 0.578439 0
M  V30 35 C 3.790528 -3.689742 1.807038 0
M  V30 36 H 0.935970 -1.953127 4.710487 0
M  V30 37 H 1.544310 -3.283960 5.785446 0
M  V30 38 H 2.539906 -1.846459 5.448387 0
M  V30 39 H 5.515630 -2.298295 3.252921 0
M  V30 40 H 4.332389 -1.153142 3.932176 0
M  V30 41 H 5.472325 -1.107912 1.273705 0
M  V30 42 H 4.432923 0.077984 2.057542 0
M  V30 43 H 3.165424 1.256247 1.163056 0
M  V30 44 H 1.218126 2.554272 0.795300 0
M  V30 45 H -4.003431 2.298701 1.666719 0
M  V30 46 H -5.331680 2.607538 0.506939 0
M  V30 47 H -4.654598 3.950585 1.488143 0
M  V30 48 H -3.494856 5.229765 0.472441 0
M  V30 49 H -4.540607 1.254499 -3.970502 0
M  V30 50 H -5.867454 3.234311 -4.872538 0
M  V30 51 H -1.135068 -0.806517 0.060034 0
M  V30 52 H 1.123145 -3.540594 0.477049 0
M  V30 53 H -3.364026 -4.375911 1.292010 0
M  V30 54 H -3.036310 -3.531729 -3.635427 0
M  V30 55 H -0.802542 -2.505189 -4.481192 0
M  V30 56 H 0.730590 -2.192665 -2.403144 0
M  V30 57 H 3.257326 -3.211942 -0.291871 0
M  V30 58 H 4.833198 -2.753457 0.234586 0
M  V30 59 H 3.089005 -4.527356 1.763332 0
M  V30 60 H 4.783800 -4.144593 2.000932 0
M  V30 END ATOM
M  V30 BEGIN BOND
M  V30 1 1 1 2
M  V30 2 2 2 3
M  V30 3 1 2 4
M  V30 4 1 4 5
M  V30 5 1 5 6
M  V30 6 1 6 7
M  V30 7 1 7 8
M  V30 8 2 8 9
M  V30 9 1 9 10
M  V30 10 2 10 11
M  V30 11 1 11 12
M  V30 12 3 12 13
M  V30 13 1 13 14
M  V30 14 1 14 15
M  V30 15 1 14 16
M  V30 16 1 14 17
M  V30 17 2 17 18
M  V30 18 1 18 19
M  V30 19 2 19 20
M  V30 20 1 20 21
M  V30 21 1 11 22
M  V30 22 2 22 23
M  V30 23 1 23 24
M  V30 24 1 24 25
M  V30 25 2 25 26
M  V30 26 1 26 27
M  V30 27 2 27 28
M  V30 28 1 28 29
M  V30 29 1 29 30
M  V30 30 1 30 31
M  V30 31 2 31 32
M  V30 32 1 32 33
M  V30 33 1 7 34
M  V30 34 1 34 35
M  V30 35 1 35 4
M  V30 36 1 23 8
M  V30 37 1 33 25
M  V30 38 1 21 17
M  V30 39 2 33 29
M  V30 40 1 1 36
M  V30 41 1 1 37
M  V30 42 1 1 38
M  V30 43 1 5 39
M  V30 44 1 5 40
M  V30 45 1 6 41
M  V30 46 1 6 42
M  V30 47 1 9 43
M  V30 48 1 10 44
M  V30 49 1 15 45
M  V30 50 1 15 46
M  V30 51 1 15 47
M  V30 52 1 16 48
M  V30 53 1 19 49
M  V30 54 1 20 50
M  V30 55 1 22 51
M  V30 56 1 24 52
M  V30 57 1 27 53
M  V30 58 1 30 54
M  V30 59 1 31 55
M  V30 60 1 32 56
M  V30 61 1 34 57
M  V30 62 1 34 58
M  V30 63 1 35 59
M  V30 64 1 35 60
M  V30 END BOND
M  V30 END CTAB
M  END
>  <Dataset>  (434) 
ChEMBL_Kinases

>  <Ligand_Instance>  (434) 
nan

>  <PDB_ID>  (434) 
nan

>  <Standardized_SMILES>  (434) 
CC(=O)N1CCN(c2ccc(C#CC(C)(O)c3nccs3)cc2Nc2ncnc3[nH]ccc23)CC1

>  <Name>  (434) 
nan

>  <Pocket>  (434) 
nan

>  <ATP_Site>  (434) 
nan

>  <Peripheral>  (434) 
nan

>  <Num_H_Atoms_ProtBoundConf>  (434) 
nan

>  <Num_Resolved_Atoms>  (434) 
nan

>  <Num_Not_Resolved_Atoms>  (434) 
nan

$$$$
CHEMBL4540382
     RDKit          3D

  0  0  0  0  0  0  0  0  0  0999 V3000
M  V30 BEGIN CTAB
M  V30 COUNTS 78 83 0 0 0
M  V30 BEGIN ATOM
M  V30 1 N 2.377508 0.865813 -4.786434 0
M  V30 2 C 1.416375 0.420936 -4.326028 0
M  V30 3 C 0.224327 -0.126458 -3.749897 0
M  V30 4 C -1.031083 0.182311 -4.262747 0
M  V30 5 N -2.120417 -0.344374 -3.706495 0
M  V30 6 C -2.101419 -1.159994 -2.680450 0
M  V30 7 N -3.226923 -1.821305 -2.061159 0
M  V30 8 C -4.183930 -2.516339 -2.937155 0
M  V30 9 C -3.479380 -2.783294 -4.221969 0
M  V30 10 C -3.759286 -1.858205 -5.208610 0
M  V30 11 C -3.161210 -1.853701 -6.474088 0
M  V30 12 C -2.231067 -2.856265 -6.724017 0
M  V30 13 C -1.969994 -3.772446 -5.719230 0
M  V30 14 C -2.573585 -3.772408 -4.455698 0
M  V30 15 O -2.224715 -4.724860 -3.613800 0
M  V30 16 C -1.319863 -4.977403 -2.613669 0
M  V30 17 F -1.486932 -6.306660 -2.172657 0
M  V30 18 F -0.017179 -4.737246 -2.965907 0
M  V30 19 F -1.585306 -4.246841 -1.446553 0
M  V30 20 N -0.875132 -1.420646 -2.230303 0
M  V30 21 C 0.284975 -0.970680 -2.681943 0
M  V30 22 N 1.539361 -1.386091 -2.087955 0
M  V30 23 C 1.552070 -2.265539 -0.914048 0
M  V30 24 C 1.632648 -1.369833 0.301113 0
M  V30 25 C 2.950969 -0.625967 0.167372 0
M  V30 26 C 3.152180 0.305816 1.317057 0
M  V30 27 C 3.046522 -0.471618 2.611704 0
M  V30 28 C 1.670521 -1.019564 2.707574 0
M  V30 29 C 1.486055 -2.051128 1.610436 0
M  V30 30 C 0.556441 0.016194 2.672867 0
M  V30 31 N 0.685812 1.039269 3.629380 0
M  V30 32 C -0.447151 1.743032 4.089994 0 CFG=1
M  V30 33 C 0.033709 2.909491 4.929544 0
M  V30 34 C -0.409992 4.251692 4.403931 0
M  V30 35 C -0.381241 4.236313 2.896530 0 CFG=2
M  V30 36 O -0.687695 5.528477 2.417336 0
M  V30 37 C -1.543376 3.366633 2.475379 0
M  V30 38 C -1.574782 2.050514 3.207951 0
M  V30 39 C 0.703891 0.697728 1.309737 0
M  V30 40 C 2.058340 1.350968 1.261221 0
M  V30 41 C 0.536763 -0.337023 0.195503 0
M  V30 42 H -1.105334 0.862402 -5.122821 0
M  V30 43 H -3.234136 -1.727079 -1.009436 0
M  V30 44 H -4.387682 -3.535855 -2.465574 0
M  V30 45 H -5.121129 -1.982914 -3.091939 0
M  V30 46 H -4.488686 -1.039809 -5.083251 0
M  V30 47 H -3.419531 -1.113901 -7.218862 0
M  V30 48 H -1.782771 -2.827393 -7.694173 0
M  V30 49 H -1.234293 -4.516666 -5.997421 0
M  V30 50 H 2.391160 -1.015121 -2.543231 0
M  V30 51 H 2.436787 -2.914766 -1.058619 0
M  V30 52 H 0.643313 -2.889502 -0.887885 0
M  V30 53 H 3.768402 -1.405629 0.208996 0
M  V30 54 H 2.946626 -0.078088 -0.793889 0
M  V30 55 H 4.132407 0.806878 1.290725 0
M  V30 56 H 3.729550 -1.347617 2.491614 0
M  V30 57 H 3.410812 0.082312 3.498200 0
M  V30 58 H 1.579986 -1.604727 3.671619 0
M  V30 59 H 2.230780 -2.848067 1.784168 0
M  V30 60 H 0.470028 -2.492586 1.665871 0
M  V30 61 H -0.375691 -0.577195 2.724485 0
M  V30 62 H 1.381621 0.947257 4.371106 0
M  V30 63 H -0.893164 1.039490 4.899120 0
M  V30 64 H -0.289164 2.858422 5.986676 0
M  V30 65 H 1.146497 2.947731 4.959858 0
M  V30 66 H -1.469623 4.442634 4.696340 0
M  V30 67 H 0.246735 5.048973 4.776498 0
M  V30 68 H 0.571210 3.916906 2.452736 0
M  V30 69 H -0.595113 5.512793 1.427325 0
M  V30 70 H -1.596459 3.233866 1.354357 0
M  V30 71 H -2.451582 3.962851 2.700747 0
M  V30 72 H -2.504073 2.094439 3.885382 0
M  V30 73 H -1.821557 1.261451 2.506949 0
M  V30 74 H -0.026830 1.463619 1.091716 0
M  V30 75 H 2.132028 2.005589 2.149727 0
M  V30 76 H 2.196033 1.883292 0.294800 0
M  V30 77 H 0.695475 0.244875 -0.715560 0
M  V30 78 H -0.457850 -0.775617 0.351560 0
M  V30 END ATOM
M  V30 BEGIN BOND
M  V30 1 3 1 2
M  V30 2 1 2 3
M  V30 3 2 3 4
M  V30 4 1 4 5
M  V30 5 2 5 6
M  V30 6 1 6 7
M  V30 7 1 7 8
M  V30 8 1 8 9
M  V30 9 2 9 10
M  V30 10 1 10 11
M  V30 11 2 11 12
M  V30 12 1 12 13
M  V30 13 2 13 14
M  V30 14 1 14 15
M  V30 15 1 15 16
M  V30 16 1 16 17
M  V30 17 1 16 18
M  V30 18 1 16 19
M  V30 19 1 6 20
M  V30 20 2 20 21
M  V30 21 1 21 22
M  V30 22 1 22 23
M  V30 23 1 23 24
M  V30 24 1 24 25
M  V30 25 1 25 26
M  V30 26 1 26 27
M  V30 27 1 27 28
M  V30 28 1 28 29
M  V30 29 1 28 30
M  V30 30 1 30 31
M  V30 31 1 31 32
M  V30 32 1 32 33
M  V30 33 1 33 34
M  V30 34 1 34 35
M  V30 35 1 35 36
M  V30 36 1 35 37
M  V30 37 1 37 38
M  V30 38 1 30 39
M  V30 39 1 39 40
M  V30 40 1 39 41
M  V30 41 1 21 3
M  V30 42 1 29 24
M  V30 43 1 38 32
M  V30 44 1 14 9
M  V30 45 1 41 24
M  V30 46 1 40 26
M  V30 47 1 4 42
M  V30 48 1 7 43
M  V30 49 1 8 44
M  V30 50 1 8 45
M  V30 51 1 10 46
M  V30 52 1 11 47
M  V30 53 1 12 48
M  V30 54 1 13 49
M  V30 55 1 22 50
M  V30 56 1 23 51
M  V30 57 1 23 52
M  V30 58 1 25 53
M  V30 59 1 25 54
M  V30 60 1 26 55
M  V30 61 1 27 56
M  V30 62 1 27 57
M  V30 63 1 28 58
M  V30 64 1 29 59
M  V30 65 1 29 60
M  V30 66 1 30 61
M  V30 67 1 31 62
M  V30 68 1 32 63 CFG=1
M  V30 69 1 33 64
M  V30 70 1 33 65
M  V30 71 1 34 66
M  V30 72 1 34 67
M  V30 73 1 35 68 CFG=1
M  V30 74 1 36 69
M  V30 75 1 37 70
M  V30 76 1 37 71
M  V30 77 1 38 72
M  V30 78 1 38 73
M  V30 79 1 39 74
M  V30 80 1 40 75
M  V30 81 1 40 76
M  V30 82 1 41 77
M  V30 83 1 41 78
M  V30 END BOND
M  V30 END CTAB
M  END
>  <Dataset>  (435) 
ChEMBL_Kinases

>  <Ligand_Instance>  (435) 
nan

>  <PDB_ID>  (435) 
nan

>  <Standardized_SMILES>  (435) 
N#Cc1cnc(NCc2ccccc2OC(F)(F)F)nc1NCC12CC3CC(C1)C(N[C@H]1CC[C@H](O)CC1)C(C3)C2

>  <Name>  (435) 
nan

>  <Pocket>  (435) 
nan

>  <ATP_Site>  (435) 
nan

>  <Peripheral>  (435) 
nan

>  <Num_H_Atoms_ProtBoundConf>  (435) 
nan

>  <Num_Resolved_Atoms>  (435) 
nan

>  <Num_Not_Resolved_Atoms>  (435) 
nan

$$$$
CHEMBL4542797
     RDKit          3D

  0  0  0  0  0  0  0  0  0  0999 V3000
M  V30 BEGIN CTAB
M  V30 COUNTS 39 42 0 0 0
M  V30 BEGIN ATOM
M  V30 1 C -2.393341 -5.703224 0.610909 0
M  V30 2 C -0.918971 -5.884873 0.637957 0
M  V30 3 N -0.254892 -7.068439 0.640905 0
M  V30 4 N 1.044153 -6.848197 0.667924 0
M  V30 5 C 1.282983 -5.509419 0.683770 0
M  V30 6 C 0.045157 -4.900480 0.664891 0
M  V30 7 C -0.137858 -3.501045 0.673068 0
M  V30 8 C 0.669504 -2.429571 0.697706 0
M  V30 9 C 0.148388 -1.169818 0.698169 0
M  V30 10 N 0.763032 0.027875 0.720101 0
M  V30 11 C 0.081618 1.186364 0.716578 0
M  V30 12 C 0.908344 2.448583 0.743030 0 CFG=2
M  V30 13 C 2.355512 2.086886 0.768175 0
M  V30 14 C 0.560535 3.279057 1.982029 0
M  V30 15 C 1.212461 4.606112 1.581026 0
M  V30 16 C 1.119251 4.596677 0.089300 0
M  V30 17 N 0.524517 3.338643 -0.322127 0
M  V30 18 N -1.260326 1.290063 0.691433 0
M  V30 19 C -1.966778 0.147082 0.668180 0
M  V30 20 O -3.203730 0.040559 0.643314 0
M  V30 21 C -1.240515 -1.022290 0.672477 0
M  V30 22 S -1.830486 -2.801387 0.646116 0
M  V30 23 H -2.750452 -5.125816 1.500240 0
M  V30 24 H -2.874551 -6.695549 0.603478 0
M  V30 25 H -2.658546 -5.125393 -0.301315 0
M  V30 26 H 1.793181 -7.589775 0.676227 0
M  V30 27 H 2.260668 -5.006768 0.706929 0
M  V30 28 H 1.728805 -2.632651 0.716543 0
M  V30 29 H 2.498162 1.062605 0.330306 0
M  V30 30 H 2.722416 1.999945 1.824175 0
M  V30 31 H 2.972625 2.842421 0.282620 0
M  V30 32 H -0.532822 3.368500 2.030462 0
M  V30 33 H 1.014585 2.874435 2.904128 0
M  V30 34 H 2.266374 4.508335 1.955485 0
M  V30 35 H 0.769871 5.464953 2.086569 0
M  V30 36 H 2.164997 4.616140 -0.319454 0
M  V30 37 H 0.534135 5.452222 -0.306063 0
M  V30 38 H 0.948659 2.964633 -1.207880 0
M  V30 39 H -1.779701 2.171798 0.688732 0
M  V30 END ATOM
M  V30 BEGIN BOND
M  V30 1 1 1 2
M  V30 2 2 2 3
M  V30 3 1 3 4
M  V30 4 1 4 5
M  V30 5 2 5 6
M  V30 6 1 6 7
M  V30 7 2 7 8
M  V30 8 1 8 9
M  V30 9 1 9 10
M  V30 10 2 10 11
M  V30 11 1 11 12
M  V30 12 1 12 13 CFG=3
M  V30 13 1 12 14
M  V30 14 1 14 15
M  V30 15 1 15 16
M  V30 16 1 16 17
M  V30 17 1 11 18
M  V30 18 1 18 19
M  V30 19 2 19 20
M  V30 20 1 19 21
M  V30 21 1 21 22
M  V30 22 1 6 2
M  V30 23 1 22 7
M  V30 24 2 21 9
M  V30 25 1 17 12
M  V30 26 1 1 23
M  V30 27 1 1 24
M  V30 28 1 1 25
M  V30 29 1 4 26
M  V30 30 1 5 27
M  V30 31 1 8 28
M  V30 32 1 13 29
M  V30 33 1 13 30
M  V30 34 1 13 31
M  V30 35 1 14 32
M  V30 36 1 14 33
M  V30 37 1 15 34
M  V30 38 1 15 35
M  V30 39 1 16 36
M  V30 40 1 16 37
M  V30 41 1 17 38
M  V30 42 1 18 39
M  V30 END BOND
M  V30 END CTAB
M  END
>  <Dataset>  (436) 
ChEMBL_Kinases

>  <Ligand_Instance>  (436) 
nan

>  <PDB_ID>  (436) 
nan

>  <Standardized_SMILES>  (436) 
Cc1n[nH]cc1-c1cc2nc([C@]3(C)CCCN3)[nH]c(=O)c2s1

>  <Name>  (436) 
nan

>  <Pocket>  (436) 
nan

>  <ATP_Site>  (436) 
nan

>  <Peripheral>  (436) 
nan

>  <Num_H_Atoms_ProtBoundConf>  (436) 
nan

>  <Num_Resolved_Atoms>  (436) 
nan

>  <Num_Not_Resolved_Atoms>  (436) 
nan

$$$$
CHEMBL4542788
     RDKit          3D

  0  0  0  0  0  0  0  0  0  0999 V3000
M  V30 BEGIN CTAB
M  V30 COUNTS 53 56 0 0 0
M  V30 BEGIN ATOM
M  V30 1 C 2.191699 -6.271808 0.679104 0
M  V30 2 N 0.875254 -5.681956 0.819449 0
M  V30 3 C 0.571571 -4.296946 0.751897 0
M  V30 4 N 1.639910 -3.525788 0.517090 0
M  V30 5 C 1.514830 -2.175812 0.407534 0
M  V30 6 N 2.655982 -1.365933 0.155200 0
M  V30 7 C 2.743039 0.040551 0.017768 0
M  V30 8 C 4.008041 0.571965 -0.269083 0
M  V30 9 N 4.195628 1.891211 -0.415632 0
M  V30 10 C 3.168589 2.748248 -0.290802 0
M  V30 11 C 3.414262 4.137339 -0.453836 0
M  V30 12 N 3.629633 5.246510 -0.590858 0
M  V30 13 C 1.886301 2.357686 -0.012440 0
M  V30 14 O 0.739660 3.020852 0.151785 0
M  V30 15 C 0.261168 4.286169 0.138643 0
M  V30 16 C -0.379766 4.708566 1.470452 0
M  V30 17 C -1.391307 3.662079 1.901857 0
M  V30 18 C -2.007399 3.049786 0.669030 0
M  V30 19 N -2.115836 4.027421 -0.371946 0
M  V30 20 C -0.855927 4.483334 -0.904022 0
M  V30 21 C 1.750906 0.969912 0.129814 0
M  V30 22 N 0.269820 -1.710824 0.551340 0
M  V30 23 C -0.821057 -2.416853 0.783504 0
M  V30 24 C -0.693183 -3.784070 0.894628 0
M  V30 25 C -1.828302 -4.655200 1.165326 0
M  V30 26 C -2.869322 -4.369702 0.271841 0
M  V30 27 C -4.060771 -5.099529 0.374365 0
M  V30 28 C -4.186383 -6.087136 1.355107 0
M  V30 29 F -5.298663 -6.841388 1.527916 0
M  V30 30 C -3.150192 -6.353622 2.226126 0
M  V30 31 C -1.978612 -5.633880 2.123320 0
M  V30 32 H 2.460120 -6.950808 1.513193 0
M  V30 33 H 2.971796 -5.503992 0.495332 0
M  V30 34 H 2.182874 -6.881313 -0.272135 0
M  V30 35 H 0.238091 -6.490835 0.968837 0
M  V30 36 H 3.561792 -1.920096 0.060976 0
M  V30 37 H 4.892280 -0.043640 -0.387211 0
M  V30 38 H 1.011750 5.048464 -0.072186 0
M  V30 39 H -0.950278 5.632824 1.244456 0
M  V30 40 H 0.379741 4.925983 2.229950 0
M  V30 41 H -0.950549 2.882681 2.555596 0
M  V30 42 H -2.223555 4.125132 2.487253 0
M  V30 43 H -3.045170 2.727241 0.909772 0
M  V30 44 H -1.457868 2.189571 0.260350 0
M  V30 45 H -2.784049 3.715382 -1.084706 0
M  V30 46 H -0.942098 5.579305 -1.045641 0
M  V30 47 H -0.530755 3.947883 -1.816664 0
M  V30 48 H 0.784699 0.533487 0.352156 0
M  V30 49 H -1.812920 -2.001018 0.893636 0
M  V30 50 H -2.878761 -3.634393 -0.517054 0
M  V30 51 H -4.942449 -4.990176 -0.241926 0
M  V30 52 H -3.139719 -7.078111 3.003738 0
M  V30 53 H -1.118479 -5.758736 2.755405 0
M  V30 END ATOM
M  V30 BEGIN BOND
M  V30 1 1 1 2
M  V30 2 1 2 3
M  V30 3 2 3 4
M  V30 4 1 4 5
M  V30 5 1 5 6
M  V30 6 1 6 7
M  V30 7 2 7 8
M  V30 8 1 8 9
M  V30 9 2 9 10
M  V30 10 1 10 11
M  V30 11 3 11 12
M  V30 12 1 10 13
M  V30 13 1 13 14
M  V30 14 1 14 15
M  V30 15 1 15 16
M  V30 16 1 16 17
M  V30 17 1 17 18
M  V30 18 1 18 19
M  V30 19 1 19 20
M  V30 20 2 13 21
M  V30 21 2 5 22
M  V30 22 1 22 23
M  V30 23 2 23 24
M  V30 24 1 24 25
M  V30 25 2 25 26
M  V30 26 1 26 27
M  V30 27 2 27 28
M  V30 28 1 28 29
M  V30 29 1 28 30
M  V30 30 2 30 31
M  V30 31 1 24 3
M  V30 32 1 31 25
M  V30 33 1 21 7
M  V30 34 1 20 15
M  V30 35 1 1 32
M  V30 36 1 1 33
M  V30 37 1 1 34
M  V30 38 1 2 35
M  V30 39 1 6 36
M  V30 40 1 8 37
M  V30 41 1 15 38
M  V30 42 1 16 39
M  V30 43 1 16 40
M  V30 44 1 17 41
M  V30 45 1 17 42
M  V30 46 1 18 43
M  V30 47 1 18 44
M  V30 48 1 19 45
M  V30 49 1 20 46
M  V30 50 1 20 47
M  V30 51 1 21 48
M  V30 52 1 23 49
M  V30 53 1 26 50
M  V30 54 1 27 51
M  V30 55 1 30 52
M  V30 56 1 31 53
M  V30 END BOND
M  V30 END CTAB
M  END
>  <Dataset>  (437) 
ChEMBL_Kinases

>  <Ligand_Instance>  (437) 
nan

>  <PDB_ID>  (437) 
nan

>  <Standardized_SMILES>  (437) 
CNc1nc(Nc2cnc(C#N)c(OC3CCCNC3)c2)ncc1-c1ccc(F)cc1

>  <Name>  (437) 
nan

>  <Pocket>  (437) 
nan

>  <ATP_Site>  (437) 
nan

>  <Peripheral>  (437) 
nan

>  <Num_H_Atoms_ProtBoundConf>  (437) 
nan

>  <Num_Resolved_Atoms>  (437) 
nan

>  <Num_Not_Resolved_Atoms>  (437) 
nan

$$$$
CHEMBL4542723
     RDKit          3D

  0  0  0  0  0  0  0  0  0  0999 V3000
M  V30 BEGIN CTAB
M  V30 COUNTS 66 70 0 0 0
M  V30 BEGIN ATOM
M  V30 1 C 2.066067 0.479327 4.689669 0
M  V30 2 N 3.233872 -0.340999 4.692269 0
M  V30 3 C 3.024493 -1.373039 5.720844 0
M  V30 4 C 3.483789 -1.062465 3.468442 0
M  V30 5 C 2.353769 -2.007156 3.176278 0
M  V30 6 C 2.133166 -1.732397 1.699894 0
M  V30 7 N 2.409504 -0.350575 1.478938 0
M  V30 8 C 1.649675 0.571601 0.725997 0
M  V30 9 C 0.345162 0.283324 0.373615 0
M  V30 10 N -0.468713 1.062774 -0.333813 0
M  V30 11 C -0.092590 2.239231 -0.787498 0
M  V30 12 C -1.017797 2.992495 -1.514517 0
M  V30 13 C -2.394181 2.492343 -1.854928 0
M  V30 14 C -3.187004 2.370480 -0.622733 0
M  V30 15 C -3.957650 1.087014 -0.432186 0
M  V30 16 N -3.331955 -0.017132 -1.161743 0
M  V30 17 C -2.870359 -1.096215 -0.395745 0
M  V30 18 O -3.179726 -0.791571 0.806102 0
M  V30 19 C -2.192654 -2.350332 -0.614179 0
M  V30 20 C -1.407853 -2.583974 -1.736561 0
M  V30 21 C -0.736773 -3.787486 -1.928545 0
M  V30 22 C -0.869797 -4.773950 -0.954328 0
M  V30 23 O -0.186664 -5.964237 -1.172936 0
M  V30 24 C -0.731600 -7.061921 -1.851205 0
M  V30 25 F -1.864841 -7.505001 -1.166589 0
M  V30 26 F -1.143598 -6.755644 -3.134621 0
M  V30 27 F 0.231106 -8.043723 -1.948739 0
M  V30 28 C -1.659079 -4.554109 0.185152 0
M  V30 29 C -2.302113 -3.343081 0.325957 0
M  V30 30 C -3.341694 0.292144 -2.600586 0
M  V30 31 C -2.277816 1.345105 -2.770045 0
M  V30 32 N -0.552063 4.211189 -1.943908 0
M  V30 33 C 0.713848 4.575590 -1.645675 0
M  V30 34 N 1.590035 3.833561 -0.945803 0
M  V30 35 C 1.194474 2.605555 -0.480443 0
M  V30 36 C 2.039084 1.801782 0.250883 0
M  V30 37 C 3.627692 -0.222294 2.243418 0
M  V30 38 H 1.252020 0.175205 4.037831 0
M  V30 39 H 1.636554 0.475949 5.732718 0
M  V30 40 H 2.369143 1.549948 4.548486 0
M  V30 41 H 3.317877 -1.021452 6.714536 0
M  V30 42 H 1.947016 -1.642587 5.747274 0
M  V30 43 H 3.559627 -2.283357 5.447410 0
M  V30 44 H 4.402833 -1.671261 3.665029 0
M  V30 45 H 1.442593 -1.842034 3.756007 0
M  V30 46 H 2.649341 -3.078192 3.307493 0
M  V30 47 H 2.710065 -2.433617 1.060385 0
M  V30 48 H 1.070872 -1.933711 1.495426 0
M  V30 49 H -0.166390 -0.653879 0.657277 0
M  V30 50 H -2.858692 3.350328 -2.447581 0
M  V30 51 H -2.508170 2.438935 0.281975 0
M  V30 52 H -3.893157 3.211191 -0.471640 0
M  V30 53 H -4.059153 0.859783 0.634702 0
M  V30 54 H -4.959134 1.238590 -0.880312 0
M  V30 55 H -1.269713 -1.862150 -2.501892 0
M  V30 56 H -0.113636 -3.990760 -2.804020 0
M  V30 57 H -1.734229 -5.338636 0.912442 0
M  V30 58 H -2.890430 -3.194806 1.196171 0
M  V30 59 H -4.338555 0.704096 -2.832481 0
M  V30 60 H -3.086264 -0.565922 -3.232875 0
M  V30 61 H -2.340387 1.701155 -3.826884 0
M  V30 62 H -1.286462 0.812026 -2.740934 0
M  V30 63 H 0.983989 5.552800 -2.033824 0
M  V30 64 H 3.056827 2.119529 0.479110 0
M  V30 65 H 4.507857 -0.619813 1.659628 0
M  V30 66 H 3.825329 0.842130 2.515648 0
M  V30 END ATOM
M  V30 BEGIN BOND
M  V30 1 1 1 2
M  V30 2 1 2 3
M  V30 3 1 2 4
M  V30 4 1 4 5
M  V30 5 1 5 6
M  V30 6 1 6 7
M  V30 7 1 7 8
M  V30 8 2 8 9
M  V30 9 1 9 10
M  V30 10 2 10 11
M  V30 11 1 11 12
M  V30 12 1 12 13
M  V30 13 1 13 14
M  V30 14 1 14 15
M  V30 15 1 15 16
M  V30 16 1 16 17
M  V30 17 2 17 18
M  V30 18 1 17 19
M  V30 19 2 19 20
M  V30 20 1 20 21
M  V30 21 2 21 22
M  V30 22 1 22 23
M  V30 23 1 23 24
M  V30 24 1 24 25
M  V30 25 1 24 26
M  V30 26 1 24 27
M  V30 27 1 22 28
M  V30 28 2 28 29
M  V30 29 1 16 30
M  V30 30 1 30 31
M  V30 31 2 12 32
M  V30 32 1 32 33
M  V30 33 2 33 34
M  V30 34 1 34 35
M  V30 35 2 35 36
M  V30 36 1 7 37
M  V30 37 1 37 4
M  V30 38 1 36 8
M  V30 39 1 35 11
M  V30 40 1 31 13
M  V30 41 1 29 19
M  V30 42 1 1 38
M  V30 43 1 1 39
M  V30 44 1 1 40
M  V30 45 1 3 41
M  V30 46 1 3 42
M  V30 47 1 3 43
M  V30 48 1 4 44
M  V30 49 1 5 45
M  V30 50 1 5 46
M  V30 51 1 6 47
M  V30 52 1 6 48
M  V30 53 1 9 49
M  V30 54 1 13 50
M  V30 55 1 14 51
M  V30 56 1 14 52
M  V30 57 1 15 53
M  V30 58 1 15 54
M  V30 59 1 20 55
M  V30 60 1 21 56
M  V30 61 1 28 57
M  V30 62 1 29 58
M  V30 63 1 30 59
M  V30 64 1 30 60
M  V30 65 1 31 61
M  V30 66 1 31 62
M  V30 67 1 33 63
M  V30 68 1 36 64
M  V30 69 1 37 65
M  V30 70 1 37 66
M  V30 END BOND
M  V30 END CTAB
M  END
>  <Dataset>  (438) 
ChEMBL_Kinases

>  <Ligand_Instance>  (438) 
nan

>  <PDB_ID>  (438) 
nan

>  <Standardized_SMILES>  (438) 
CN(C)C1CCN(c2cnc3c(C4CCN(C(=O)c5ccc(OC(F)(F)F)cc5)CC4)ncnc3c2)C1

>  <Name>  (438) 
nan

>  <Pocket>  (438) 
nan

>  <ATP_Site>  (438) 
nan

>  <Peripheral>  (438) 
nan

>  <Num_H_Atoms_ProtBoundConf>  (438) 
nan

>  <Num_Resolved_Atoms>  (438) 
nan

>  <Num_Not_Resolved_Atoms>  (438) 
nan

$$$$
CHEMBL4542639
     RDKit          3D

  0  0  0  0  0  0  0  0  0  0999 V3000
M  V30 BEGIN CTAB
M  V30 COUNTS 49 51 0 0 0
M  V30 BEGIN ATOM
M  V30 1 C 5.842228 -2.318361 -3.300546 0
M  V30 2 N 5.227818 -1.794687 -2.077220 0
M  V30 3 C 5.007147 -2.834348 -1.137175 0
M  V30 4 O 5.373910 -3.987150 -1.524772 0
M  V30 5 C 4.414462 -2.675812 0.184230 0
M  V30 6 C 4.014474 -1.437461 0.614557 0
M  V30 7 C 3.455410 -1.320899 1.874434 0
M  V30 8 O 2.999154 -0.140933 2.460164 0
M  V30 9 C 1.675884 0.301740 2.311763 0
M  V30 10 C 0.682828 -0.074623 3.210116 0
M  V30 11 C -0.584110 0.416959 2.971484 0
M  V30 12 C -0.842715 1.238650 1.894840 0
M  V30 13 N -2.230514 1.635418 1.835368 0
M  V30 14 C -2.945021 0.686103 1.062094 0
M  V30 15 O -2.215438 -0.262632 0.616862 0
M  V30 16 C -4.359665 0.702726 0.751809 0
M  V30 17 C -4.813615 -0.345085 -0.025774 0
M  V30 18 C -6.174014 -0.373387 -0.352685 0
M  V30 19 C -6.984605 0.639787 0.115660 0
M  V30 20 Cl -8.694883 0.570286 -0.317169 0
M  V30 21 C -6.505093 1.675146 0.891029 0
M  V30 22 C -7.493226 2.701901 1.327826 0
M  V30 23 F -8.053267 3.291968 0.216040 0
M  V30 24 F -8.455415 2.068089 2.115544 0
M  V30 25 F -6.791181 3.618850 2.102821 0
M  V30 26 C -5.154983 1.716457 1.223980 0
M  V30 27 C 0.146842 1.608436 1.007135 0
M  V30 28 C 1.431328 1.128169 1.223246 0
M  V30 29 C 3.335208 -2.484656 2.630188 0
M  V30 30 C 3.736794 -3.734385 2.200761 0
M  V30 31 C 4.296433 -3.829763 0.930901 0
M  V30 32 N 4.695741 -5.117350 0.522260 0
M  V30 33 H 6.893836 -2.596573 -3.071770 0
M  V30 34 H 5.300740 -3.168424 -3.717289 0
M  V30 35 H 5.839846 -1.456555 -4.013948 0
M  V30 36 H 4.939238 -0.831723 -1.795029 0
M  V30 37 H 4.103129 -0.546226 0.043728 0
M  V30 38 H 0.997777 -0.722417 4.018412 0
M  V30 39 H -1.321225 0.092366 3.702759 0
M  V30 40 H -2.799750 2.436710 2.222046 0
M  V30 41 H -4.200312 -1.140984 -0.399007 0
M  V30 42 H -6.596642 -1.165217 -0.958363 0
M  V30 43 H -4.799437 2.534543 1.831341 0
M  V30 44 H -0.186892 2.252008 0.211699 0
M  V30 45 H 2.175639 1.433090 0.517369 0
M  V30 46 H 2.896971 -2.425222 3.630792 0
M  V30 47 H 3.617957 -4.601586 2.832371 0
M  V30 48 H 5.610485 -5.634640 0.560619 0
M  V30 49 H 4.083628 -5.835754 0.070095 0
M  V30 END ATOM
M  V30 BEGIN BOND
M  V30 1 1 1 2
M  V30 2 1 2 3
M  V30 3 2 3 4
M  V30 4 1 3 5
M  V30 5 2 5 6
M  V30 6 1 6 7
M  V30 7 1 7 8
M  V30 8 1 8 9
M  V30 9 2 9 10
M  V30 10 1 10 11
M  V30 11 2 11 12
M  V30 12 1 12 13
M  V30 13 1 13 14
M  V30 14 2 14 15
M  V30 15 1 14 16
M  V30 16 2 16 17
M  V30 17 1 17 18
M  V30 18 2 18 19
M  V30 19 1 19 20
M  V30 20 1 19 21
M  V30 21 1 21 22
M  V30 22 1 22 23
M  V30 23 1 22 24
M  V30 24 1 22 25
M  V30 25 2 21 26
M  V30 26 1 12 27
M  V30 27 2 27 28
M  V30 28 2 7 29
M  V30 29 1 29 30
M  V30 30 2 30 31
M  V30 31 1 31 32
M  V30 32 1 31 5
M  V30 33 1 28 9
M  V30 34 1 26 16
M  V30 35 1 1 33
M  V30 36 1 1 34
M  V30 37 1 1 35
M  V30 38 1 2 36
M  V30 39 1 6 37
M  V30 40 1 10 38
M  V30 41 1 11 39
M  V30 42 1 13 40
M  V30 43 1 17 41
M  V30 44 1 18 42
M  V30 45 1 26 43
M  V30 46 1 27 44
M  V30 47 1 28 45
M  V30 48 1 29 46
M  V30 49 1 30 47
M  V30 50 1 32 48
M  V30 51 1 32 49
M  V30 END BOND
M  V30 END CTAB
M  END
>  <Dataset>  (439) 
ChEMBL_Kinases

>  <Ligand_Instance>  (439) 
nan

>  <PDB_ID>  (439) 
nan

>  <Standardized_SMILES>  (439) 
CNC(=O)c1cc(Oc2ccc(NC(=O)c3ccc(Cl)c(C(F)(F)F)c3)cc2)ccc1N

>  <Name>  (439) 
nan

>  <Pocket>  (439) 
nan

>  <ATP_Site>  (439) 
nan

>  <Peripheral>  (439) 
nan

>  <Num_H_Atoms_ProtBoundConf>  (439) 
nan

>  <Num_Resolved_Atoms>  (439) 
nan

>  <Num_Not_Resolved_Atoms>  (439) 
nan

$$$$
CHEMBL4542502
     RDKit          3D

  0  0  0  0  0  0  0  0  0  0999 V3000
M  V30 BEGIN CTAB
M  V30 COUNTS 52 54 0 0 0
M  V30 BEGIN ATOM
M  V30 1 C 2.199564 -2.503624 3.459533 0
M  V30 2 C 2.393065 -1.069282 3.823098 0
M  V30 3 C 2.049448 -0.879682 5.284975 0
M  V30 4 O 3.751715 -0.749566 3.698445 0
M  V30 5 C 1.597989 -0.096537 2.987949 0
M  V30 6 O 1.945302 -0.150124 1.643778 0
M  V30 7 C 1.184355 0.760131 0.956827 0
M  V30 8 C 1.457313 0.809441 -0.527500 0
M  V30 9 C 2.861546 1.318582 -0.778576 0
M  V30 10 C 0.497852 1.812539 -1.127353 0
M  V30 11 N 1.211930 -0.469096 -1.188291 0
M  V30 12 C -0.087681 -1.034374 -1.188742 0
M  V30 13 N -1.090789 -0.381995 -0.582354 0
M  V30 14 C -2.317227 -0.929251 -0.594962 0
M  V30 15 C -3.417081 -0.229600 0.061348 0
M  V30 16 C -3.197379 0.979450 0.687865 0
M  V30 17 C -4.189544 1.712770 1.337225 0
M  V30 18 N -5.442064 1.174875 1.334896 0
M  V30 19 C -5.689602 -0.005388 0.731227 0
M  V30 20 C -4.696707 -0.743724 0.078883 0
M  V30 21 Cl -5.032478 -2.260100 -0.692367 0
M  V30 22 N -2.598615 -2.123021 -1.196743 0
M  V30 23 C -1.635899 -2.825768 -1.821585 0
M  V30 24 C -1.873406 -4.027148 -2.438003 0
M  V30 25 N -0.864960 -4.664957 -3.037375 0
M  V30 26 C 0.402678 -4.169362 -3.063640 0
M  V30 27 C 0.609566 -2.957472 -2.433977 0
M  V30 28 C -0.384927 -2.244236 -1.795668 0
M  V30 29 H 2.349548 -3.116405 4.374796 0
M  V30 30 H 2.932755 -2.868078 2.705576 0
M  V30 31 H 1.147588 -2.707689 3.130888 0
M  V30 32 H 2.600567 -1.548623 5.944541 0
M  V30 33 H 0.951480 -1.046746 5.456778 0
M  V30 34 H 2.192872 0.200730 5.567882 0
M  V30 35 H 4.288492 -1.551622 3.413407 0
M  V30 36 H 1.747507 0.907011 3.435588 0
M  V30 37 H 0.526567 -0.354896 3.156790 0
M  V30 38 H 0.127377 0.633659 1.161863 0
M  V30 39 H 1.494927 1.778994 1.332635 0
M  V30 40 H 2.870921 1.729751 -1.822684 0
M  V30 41 H 3.036705 2.163027 -0.109254 0
M  V30 42 H 3.617196 0.525159 -0.745246 0
M  V30 43 H -0.054018 1.353540 -1.946583 0
M  V30 44 H 1.046407 2.702234 -1.525673 0
M  V30 45 H -0.227999 2.191381 -0.360889 0
M  V30 46 H 2.061807 -0.877107 -1.625905 0
M  V30 47 H -2.234601 1.458817 0.726790 0
M  V30 48 H -4.005128 2.654404 1.821763 0
M  V30 49 H -6.704335 -0.410016 0.746878 0
M  V30 50 H -2.875796 -4.437609 -2.427782 0
M  V30 51 H 1.198152 -4.716197 -3.560885 0
M  V30 52 H 1.631384 -2.613746 -2.486495 0
M  V30 END ATOM
M  V30 BEGIN BOND
M  V30 1 1 1 2
M  V30 2 1 2 3
M  V30 3 1 2 4
M  V30 4 1 2 5
M  V30 5 1 5 6
M  V30 6 1 6 7
M  V30 7 1 7 8
M  V30 8 1 8 9
M  V30 9 1 8 10
M  V30 10 1 8 11
M  V30 11 1 11 12
M  V30 12 2 12 13
M  V30 13 1 13 14
M  V30 14 1 14 15
M  V30 15 2 15 16
M  V30 16 1 16 17
M  V30 17 2 17 18
M  V30 18 1 18 19
M  V30 19 2 19 20
M  V30 20 1 20 21
M  V30 21 2 14 22
M  V30 22 1 22 23
M  V30 23 2 23 24
M  V30 24 1 24 25
M  V30 25 2 25 26
M  V30 26 1 26 27
M  V30 27 2 27 28
M  V30 28 1 28 12
M  V30 29 1 20 15
M  V30 30 1 28 23
M  V30 31 1 1 29
M  V30 32 1 1 30
M  V30 33 1 1 31
M  V30 34 1 3 32
M  V30 35 1 3 33
M  V30 36 1 3 34
M  V30 37 1 4 35
M  V30 38 1 5 36
M  V30 39 1 5 37
M  V30 40 1 7 38
M  V30 41 1 7 39
M  V30 42 1 9 40
M  V30 43 1 9 41
M  V30 44 1 9 42
M  V30 45 1 10 43
M  V30 46 1 10 44
M  V30 47 1 10 45
M  V30 48 1 11 46
M  V30 49 1 16 47
M  V30 50 1 17 48
M  V30 51 1 19 49
M  V30 52 1 24 50
M  V30 53 1 26 51
M  V30 54 1 27 52
M  V30 END BOND
M  V30 END CTAB
M  END
>  <Dataset>  (440) 
ChEMBL_Kinases

>  <Ligand_Instance>  (440) 
nan

>  <PDB_ID>  (440) 
nan

>  <Standardized_SMILES>  (440) 
CC(C)(O)COCC(C)(C)Nc1nc(-c2ccncc2Cl)nc2cnccc12

>  <Name>  (440) 
nan

>  <Pocket>  (440) 
nan

>  <ATP_Site>  (440) 
nan

>  <Peripheral>  (440) 
nan

>  <Num_H_Atoms_ProtBoundConf>  (440) 
nan

>  <Num_Resolved_Atoms>  (440) 
nan

>  <Num_Not_Resolved_Atoms>  (440) 
nan

$$$$
CHEMBL4542480
     RDKit          3D

  0  0  0  0  0  0  0  0  0  0999 V3000
M  V30 BEGIN CTAB
M  V30 COUNTS 48 51 0 0 0
M  V30 BEGIN ATOM
M  V30 1 N 1.413346 -5.936616 3.993720 0
M  V30 2 C 1.761959 -5.051010 3.343554 0
M  V30 3 C 2.212424 -3.973679 2.550116 0
M  V30 4 N 3.521612 -3.818923 2.298176 0
M  V30 5 C 3.982047 -2.803443 1.546226 0
M  V30 6 C 3.098051 -1.897239 1.018691 0
M  V30 7 N 3.601839 -0.828906 0.225971 0
M  V30 8 C 2.767983 0.159780 -0.366462 0
M  V30 9 N 2.565590 1.235960 0.443771 0
M  V30 10 C 1.803381 2.278136 0.059787 0
M  V30 11 C 1.195904 2.271865 -1.201244 0
M  V30 12 C 0.361600 3.392944 -1.643688 0
M  V30 13 C 0.200993 3.834085 -2.943882 0
M  V30 14 C -0.621919 4.909046 -3.215879 0
M  V30 15 C -1.302902 5.567100 -2.192853 0
M  V30 16 F -2.087371 6.608915 -2.543595 0
M  V30 17 C -1.146346 5.129635 -0.885339 0
M  V30 18 C -0.311147 4.041527 -0.625005 0
M  V30 19 C 1.425152 1.158424 -1.998587 0
M  V30 20 N 2.191578 0.119281 -1.602404 0
M  V30 21 C 1.734775 -2.070472 1.289369 0
M  V30 22 C 1.242706 -3.129722 2.075083 0
M  V30 23 O -0.083956 -3.039261 2.159789 0
M  V30 24 C -1.130962 -3.706314 2.736611 0
M  V30 25 C -2.143649 -4.239160 1.752213 0
M  V30 26 C -3.125487 -3.220479 1.271410 0
M  V30 27 C -3.293374 -2.052476 2.205593 0
M  V30 28 N -3.178097 -2.587882 3.557413 0
M  V30 29 C -1.766695 -2.805314 3.776517 0
M  V30 30 H 5.045840 -2.785972 1.416187 0
M  V30 31 H 4.612382 -0.731632 0.049042 0
M  V30 32 H 1.643886 3.132299 0.705256 0
M  V30 33 H 0.756449 3.280291 -3.686122 0
M  V30 34 H -0.729244 5.234689 -4.251530 0
M  V30 35 H -1.701422 5.682301 -0.139715 0
M  V30 36 H -0.290532 3.816607 0.448870 0
M  V30 37 H 0.981399 1.101568 -2.979370 0
M  V30 38 H 1.148741 -1.283142 0.810817 0
M  V30 39 H -0.769810 -4.582903 3.299938 0
M  V30 40 H -2.670434 -5.121743 2.173352 0
M  V30 41 H -1.577567 -4.611268 0.872153 0
M  V30 42 H -4.137566 -3.682675 1.194841 0
M  V30 43 H -2.897012 -2.821307 0.261468 0
M  V30 44 H -4.314834 -1.628253 2.122598 0
M  V30 45 H -2.578674 -1.257944 1.998095 0
M  V30 46 H -3.722015 -3.485541 3.549455 0
M  V30 47 H -1.647345 -3.166193 4.811476 0
M  V30 48 H -1.297255 -1.802196 3.752846 0
M  V30 END ATOM
M  V30 BEGIN BOND
M  V30 1 3 1 2
M  V30 2 1 2 3
M  V30 3 2 3 4
M  V30 4 1 4 5
M  V30 5 2 5 6
M  V30 6 1 6 7
M  V30 7 1 7 8
M  V30 8 2 8 9
M  V30 9 1 9 10
M  V30 10 2 10 11
M  V30 11 1 11 12
M  V30 12 2 12 13
M  V30 13 1 13 14
M  V30 14 2 14 15
M  V30 15 1 15 16
M  V30 16 1 15 17
M  V30 17 2 17 18
M  V30 18 1 11 19
M  V30 19 2 19 20
M  V30 20 1 6 21
M  V30 21 2 21 22
M  V30 22 1 22 23
M  V30 23 1 23 24
M  V30 24 1 24 25
M  V30 25 1 25 26
M  V30 26 1 26 27
M  V30 27 1 27 28
M  V30 28 1 28 29
M  V30 29 1 22 3
M  V30 30 1 29 24
M  V30 31 1 20 8
M  V30 32 1 18 12
M  V30 33 1 5 30
M  V30 34 1 7 31
M  V30 35 1 10 32
M  V30 36 1 13 33
M  V30 37 1 14 34
M  V30 38 1 17 35
M  V30 39 1 18 36
M  V30 40 1 19 37
M  V30 41 1 21 38
M  V30 42 1 24 39
M  V30 43 1 25 40
M  V30 44 1 25 41
M  V30 45 1 26 42
M  V30 46 1 26 43
M  V30 47 1 27 44
M  V30 48 1 27 45
M  V30 49 1 28 46
M  V30 50 1 29 47
M  V30 51 1 29 48
M  V30 END BOND
M  V30 END CTAB
M  END
>  <Dataset>  (441) 
ChEMBL_Kinases

>  <Ligand_Instance>  (441) 
nan

>  <PDB_ID>  (441) 
nan

>  <Standardized_SMILES>  (441) 
N#Cc1ncc(Nc2ncc(-c3ccc(F)cc3)cn2)cc1OC1CCCNC1

>  <Name>  (441) 
nan

>  <Pocket>  (441) 
nan

>  <ATP_Site>  (441) 
nan

>  <Peripheral>  (441) 
nan

>  <Num_H_Atoms_ProtBoundConf>  (441) 
nan

>  <Num_Resolved_Atoms>  (441) 
nan

>  <Num_Not_Resolved_Atoms>  (441) 
nan

$$$$
CHEMBL4542474
     RDKit          3D

  0  0  0  0  0  0  0  0  0  0999 V3000
M  V30 BEGIN CTAB
M  V30 COUNTS 79 84 0 0 0
M  V30 BEGIN ATOM
M  V30 1 C 4.645782 -2.624370 2.533665 0
M  V30 2 C 4.350447 -1.609816 1.508986 0
M  V30 3 C 3.436468 -1.790971 0.494558 0
M  V30 4 C 3.216842 -0.797075 -0.430468 0
M  V30 5 C 2.224204 -0.893929 -1.523922 0
M  V30 6 C 2.279538 -0.705845 -2.890029 0
M  V30 7 N 1.058183 -0.929322 -3.409537 0
M  V30 8 N 0.212934 -1.252611 -2.455007 0
M  V30 9 C -1.085393 -1.545291 -2.511453 0
M  V30 10 N -1.911778 -1.573363 -3.640873 0
M  V30 11 C -2.950455 -0.689490 -4.099832 0
M  V30 12 C -2.427449 0.666623 -4.417548 0
M  V30 13 C -1.791067 1.279857 -3.203446 0
M  V30 14 C -2.118418 2.767463 -3.192111 0
M  V30 15 O -3.463168 2.959650 -2.889651 0
M  V30 16 C -4.277477 2.098671 -3.625397 0
M  V30 17 C -3.584375 1.575950 -4.874861 0
M  V30 18 C -1.674007 -1.835766 -1.281133 0
M  V30 19 C -1.032900 -1.840141 -0.058914 0
M  V30 20 N -1.616619 -2.095871 1.200218 0
M  V30 21 C -2.902665 -2.378747 1.731587 0 CFG=1
M  V30 22 C -3.897277 -1.340160 1.251439 0
M  V30 23 C -3.545566 0.088982 1.629125 0
M  V30 24 C -4.707574 -0.584096 2.246028 0
M  V30 25 C -3.396897 -3.775625 1.609536 0
M  V30 26 C -2.553958 -4.700137 2.454134 0
M  V30 27 C -3.557175 -4.321732 0.238115 0
M  V30 28 O -4.683545 -3.800113 2.200985 0
M  V30 29 N 0.271744 -1.528667 -0.140228 0
M  V30 30 C 0.885139 -1.242252 -1.293806 0
M  V30 31 C 3.900926 0.430770 -0.389050 0
M  V30 32 C 4.825698 0.609283 0.640418 0
M  V30 33 C 5.030357 -0.418387 1.569844 0
M  V30 34 C 6.032659 -0.043301 2.596535 0
M  V30 35 O 7.200215 -0.526621 2.726971 0
M  V30 36 N 5.543299 0.968031 3.478197 0
M  V30 37 C 6.256302 1.553514 4.575577 0
M  V30 38 C 5.590541 2.248708 5.686078 0
M  V30 39 C 6.162267 3.097365 4.621609 0
M  V30 40 H 4.071674 -2.426517 3.461235 0
M  V30 41 H 5.754454 -2.697557 2.733398 0
M  V30 42 H 4.368812 -3.654594 2.203850 0
M  V30 43 H 2.886448 -2.713075 0.417065 0
M  V30 44 H 3.201965 -0.423757 -3.370999 0
M  V30 45 H -1.548765 -2.448434 -4.077644 0
M  V30 46 H -3.794280 -0.635566 -3.368239 0
M  V30 47 H -3.421738 -1.082389 -5.041457 0
M  V30 48 H -1.702360 0.573831 -5.266613 0
M  V30 49 H -2.111356 0.852981 -2.257223 0
M  V30 50 H -0.666847 1.232796 -3.305442 0
M  V30 51 H -1.882925 3.212134 -4.185494 0
M  V30 52 H -1.508654 3.241754 -2.392177 0
M  V30 53 H -5.234055 2.576692 -3.916806 0
M  V30 54 H -4.507212 1.226086 -2.988749 0
M  V30 55 H -3.180879 2.363601 -5.506467 0
M  V30 56 H -4.307535 0.938670 -5.393658 0
M  V30 57 H -2.721269 -2.076537 -1.298696 0
M  V30 58 H -0.891878 -2.086681 1.996395 0
M  V30 59 H -2.866816 -2.191960 2.860769 0
M  V30 60 H -4.334066 -1.486997 0.263263 0
M  V30 61 H -2.667575 0.268707 2.287669 0
M  V30 62 H -3.658341 0.873291 0.851518 0
M  V30 63 H -5.693069 -0.219136 1.886134 0
M  V30 64 H -4.718444 -0.827791 3.323575 0
M  V30 65 H -1.831900 -4.152782 3.092275 0
M  V30 66 H -2.025965 -5.403505 1.770290 0
M  V30 67 H -3.163741 -5.337473 3.132346 0
M  V30 68 H -4.237957 -3.676386 -0.365929 0
M  V30 69 H -2.593253 -4.497666 -0.288294 0
M  V30 70 H -4.084827 -5.301475 0.339791 0
M  V30 71 H -5.226479 -4.554085 1.860592 0
M  V30 72 H 3.723781 1.211698 -1.121457 0
M  V30 73 H 5.338287 1.557994 0.649885 0
M  V30 74 H 4.565610 1.383775 3.387662 0
M  V30 75 H 7.288092 1.160714 4.734927 0
M  V30 76 H 6.123130 2.288700 6.666494 0
M  V30 77 H 4.476694 2.212905 5.782686 0
M  V30 78 H 7.111416 3.663311 4.749042 0
M  V30 79 H 5.446496 3.577274 3.931948 0
M  V30 END ATOM
M  V30 BEGIN BOND
M  V30 1 1 1 2
M  V30 2 2 2 3
M  V30 3 1 3 4
M  V30 4 1 4 5
M  V30 5 1 5 6
M  V30 6 2 6 7
M  V30 7 1 7 8
M  V30 8 1 8 9
M  V30 9 1 9 10
M  V30 10 1 10 11
M  V30 11 1 11 12
M  V30 12 1 12 13
M  V30 13 1 13 14
M  V30 14 1 14 15
M  V30 15 1 15 16
M  V30 16 1 16 17
M  V30 17 2 9 18
M  V30 18 1 18 19
M  V30 19 1 19 20
M  V30 20 1 20 21
M  V30 21 1 21 22
M  V30 22 1 22 23
M  V30 23 1 23 24
M  V30 24 1 21 25
M  V30 25 1 25 26
M  V30 26 1 25 27
M  V30 27 1 25 28
M  V30 28 2 19 29
M  V30 29 1 29 30
M  V30 30 2 4 31
M  V30 31 1 31 32
M  V30 32 2 32 33
M  V30 33 1 33 34
M  V30 34 2 34 35
M  V30 35 1 34 36
M  V30 36 1 36 37
M  V30 37 1 37 38
M  V30 38 1 38 39
M  V30 39 1 33 2
M  V30 40 1 39 37
M  V30 41 2 30 5
M  V30 42 1 30 8
M  V30 43 1 17 12
M  V30 44 1 24 22
M  V30 45 1 1 40
M  V30 46 1 1 41
M  V30 47 1 1 42
M  V30 48 1 3 43
M  V30 49 1 6 44
M  V30 50 1 10 45
M  V30 51 1 11 46
M  V30 52 1 11 47
M  V30 53 1 12 48
M  V30 54 1 13 49
M  V30 55 1 13 50
M  V30 56 1 14 51
M  V30 57 1 14 52
M  V30 58 1 16 53
M  V30 59 1 16 54
M  V30 60 1 17 55
M  V30 61 1 17 56
M  V30 62 1 18 57
M  V30 63 1 20 58
M  V30 64 1 21 59 CFG=1
M  V30 65 1 22 60
M  V30 66 1 23 61
M  V30 67 1 23 62
M  V30 68 1 24 63
M  V30 69 1 24 64
M  V30 70 1 26 65
M  V30 71 1 26 66
M  V30 72 1 26 67
M  V30 73 1 27 68
M  V30 74 1 27 69
M  V30 75 1 27 70
M  V30 76 1 28 71
M  V30 77 1 31 72
M  V30 78 1 32 73
M  V30 79 1 36 74
M  V30 80 1 37 75
M  V30 81 1 38 76
M  V30 82 1 38 77
M  V30 83 1 39 78
M  V30 84 1 39 79
M  V30 END BOND
M  V30 END CTAB
M  END
>  <Dataset>  (442) 
ChEMBL_Kinases

>  <Ligand_Instance>  (442) 
nan

>  <PDB_ID>  (442) 
nan

>  <Standardized_SMILES>  (442) 
Cc1cc(-c2cnn3c(NCC4CCOCC4)cc(N[C@@H](C4CC4)C(C)(C)O)nc23)ccc1C(=O)NC1CC1

>  <Name>  (442) 
nan

>  <Pocket>  (442) 
nan

>  <ATP_Site>  (442) 
nan

>  <Peripheral>  (442) 
nan

>  <Num_H_Atoms_ProtBoundConf>  (442) 
nan

>  <Num_Resolved_Atoms>  (442) 
nan

>  <Num_Not_Resolved_Atoms>  (442) 
nan

$$$$
CHEMBL4640148
     RDKit          3D

  0  0  0  0  0  0  0  0  0  0999 V3000
M  V30 BEGIN CTAB
M  V30 COUNTS 57 61 0 0 0
M  V30 BEGIN ATOM
M  V30 1 C 8.136524 -1.652739 1.034726 0
M  V30 2 O 6.950622 -0.895688 1.111225 0
M  V30 3 C 6.355609 -0.660352 2.313421 0
M  V30 4 C 6.642084 -1.004616 3.606778 0
M  V30 5 C 5.884949 -0.650776 4.694723 0
M  V30 6 C 4.732758 0.120708 4.446632 0
M  V30 7 C 4.363710 0.518454 3.146910 0
M  V30 8 C 5.230846 0.088031 2.120201 0
M  V30 9 N 4.741777 0.596394 0.848723 0
M  V30 10 C 3.498130 1.305224 0.670359 0
M  V30 11 N 2.847658 2.471080 0.836198 0
M  V30 12 C 1.587165 2.346378 0.377608 0
M  V30 13 C 0.527301 3.208856 0.318387 0
M  V30 14 C -0.715035 2.900932 -0.186887 0
M  V30 15 C -0.833528 1.588142 -0.658300 0
M  V30 16 C -2.067400 1.030038 -1.208878 0
M  V30 17 C -3.189467 1.544861 -0.611454 0
M  V30 18 C -4.412809 1.068672 -1.076492 0
M  V30 19 C -4.379086 0.132473 -2.085544 0
M  V30 20 N -5.621107 -0.389324 -2.536983 0
M  V30 21 C -5.672672 -1.613288 -1.794812 0
M  V30 22 O -4.756026 -1.997554 -0.982849 0
M  V30 23 C -6.376748 -2.895465 -1.421560 0
M  V30 24 C -5.413255 -3.583627 -0.490349 0
M  V30 25 C -5.351011 -3.523788 0.889083 0
M  V30 26 C -4.392348 -4.210527 1.581936 0
M  V30 27 C -3.441128 -4.997048 0.924913 0
M  V30 28 C -3.446083 -5.100258 -0.443141 0
M  V30 29 C -4.433478 -4.387327 -1.080869 0
M  V30 30 C -3.213323 -0.361091 -2.662837 0
M  V30 31 C -1.985482 0.091404 -2.222524 0
M  V30 32 C 0.260359 0.751065 -0.579223 0
M  V30 33 N 1.463277 1.087431 -0.076938 0
M  V30 34 N 2.607340 0.441023 0.091346 0
M  V30 35 H 8.986684 -0.953741 1.194723 0
M  V30 36 H 8.196983 -2.136313 0.033826 0
M  V30 37 H 8.194198 -2.427464 1.815605 0
M  V30 38 H 7.564932 -1.608356 3.662072 0
M  V30 39 H 6.203249 -0.974302 5.671324 0
M  V30 40 H 4.230621 0.335112 5.394068 0
M  V30 41 H 3.457626 1.101926 3.115599 0
M  V30 42 H 5.345769 0.433344 -0.011184 0
M  V30 43 H 0.704697 4.200517 0.701581 0
M  V30 44 H -1.564587 3.560141 -0.245449 0
M  V30 45 H -3.193056 2.279890 0.177585 0
M  V30 46 H -5.362965 1.395921 -0.689398 0
M  V30 47 H -6.523721 -0.514072 -3.026132 0
M  V30 48 H -6.432228 -3.514668 -2.333879 0
M  V30 49 H -7.353581 -2.705009 -0.941390 0
M  V30 50 H -6.123544 -2.892486 1.322623 0
M  V30 51 H -4.404338 -4.116278 2.670572 0
M  V30 52 H -2.677881 -5.538212 1.506714 0
M  V30 53 H -2.737258 -5.690135 -1.006755 0
M  V30 54 H -4.431430 -4.474723 -2.176185 0
M  V30 55 H -3.271137 -1.109034 -3.465364 0
M  V30 56 H -1.051395 -0.249226 -2.622852 0
M  V30 57 H 0.174255 -0.284279 -0.950143 0
M  V30 END ATOM
M  V30 BEGIN BOND
M  V30 1 1 1 2
M  V30 2 1 2 3
M  V30 3 2 3 4
M  V30 4 1 4 5
M  V30 5 2 5 6
M  V30 6 1 6 7
M  V30 7 2 7 8
M  V30 8 1 8 9
M  V30 9 1 9 10
M  V30 10 1 10 11
M  V30 11 2 11 12
M  V30 12 1 12 13
M  V30 13 2 13 14
M  V30 14 1 14 15
M  V30 15 1 15 16
M  V30 16 2 16 17
M  V30 17 1 17 18
M  V30 18 2 18 19
M  V30 19 1 19 20
M  V30 20 1 20 21
M  V30 21 2 21 22
M  V30 22 1 21 23
M  V30 23 1 23 24
M  V30 24 2 24 25
M  V30 25 1 25 26
M  V30 26 2 26 27
M  V30 27 1 27 28
M  V30 28 2 28 29
M  V30 29 1 19 30
M  V30 30 2 30 31
M  V30 31 2 15 32
M  V30 32 1 32 33
M  V30 33 1 33 34
M  V30 34 1 8 3
M  V30 35 2 34 10
M  V30 36 1 33 12
M  V30 37 1 31 16
M  V30 38 1 29 24
M  V30 39 1 1 35
M  V30 40 1 1 36
M  V30 41 1 1 37
M  V30 42 1 4 38
M  V30 43 1 5 39
M  V30 44 1 6 40
M  V30 45 1 7 41
M  V30 46 1 9 42
M  V30 47 1 13 43
M  V30 48 1 14 44
M  V30 49 1 17 45
M  V30 50 1 18 46
M  V30 51 1 20 47
M  V30 52 1 23 48
M  V30 53 1 23 49
M  V30 54 1 25 50
M  V30 55 1 26 51
M  V30 56 1 27 52
M  V30 57 1 28 53
M  V30 58 1 29 54
M  V30 59 1 30 55
M  V30 60 1 31 56
M  V30 61 1 32 57
M  V30 END BOND
M  V30 END CTAB
M  END
>  <Dataset>  (443) 
ChEMBL_Kinases

>  <Ligand_Instance>  (443) 
nan

>  <PDB_ID>  (443) 
nan

>  <Standardized_SMILES>  (443) 
COc1ccccc1Nc1nc2ccc(-c3ccc(NC(=O)Cc4ccccc4)cc3)cn2n1

>  <Name>  (443) 
nan

>  <Pocket>  (443) 
nan

>  <ATP_Site>  (443) 
nan

>  <Peripheral>  (443) 
nan

>  <Num_H_Atoms_ProtBoundConf>  (443) 
nan

>  <Num_Resolved_Atoms>  (443) 
nan

>  <Num_Not_Resolved_Atoms>  (443) 
nan

$$$$
CHEMBL4542440
     RDKit          3D

  0  0  0  0  0  0  0  0  0  0999 V3000
M  V30 BEGIN CTAB
M  V30 COUNTS 45 48 0 0 0
M  V30 BEGIN ATOM
M  V30 1 C -0.057270 -4.031410 2.921836 0
M  V30 2 C 0.423490 -3.178341 1.750979 0 CFG=2
M  V30 3 C 0.980866 -1.910597 2.256300 0
M  V30 4 C 1.661652 -1.026833 1.211847 0
M  V30 5 O 2.160769 0.139016 1.789474 0
M  V30 6 C 2.830416 1.159723 1.213481 0
M  V30 7 C 4.223524 1.084164 1.271258 0
M  V30 8 C 5.061557 2.052661 0.732537 0
M  V30 9 F 6.415570 1.981632 0.787320 0
M  V30 10 C 4.515643 3.151385 0.105434 0
M  V30 11 C 3.148078 3.304840 0.003466 0
M  V30 12 C 2.420398 2.299928 0.562667 0
M  V30 13 C 0.979751 2.311554 0.512957 0
M  V30 14 O 0.532213 3.208568 1.236932 0
M  V30 15 N -0.191073 1.754192 0.006601 0
M  V30 16 C -1.362324 1.196809 -0.499781 0
M  V30 17 C -2.106061 1.707025 -1.518320 0
M  V30 18 C -3.224329 0.991434 -1.841642 0
M  V30 19 C -3.549990 -0.157879 -1.172265 0
M  V30 20 C -2.747327 -0.602793 -0.162502 0
M  V30 21 N -1.646462 0.052860 0.199005 0
M  V30 22 C -2.805349 -1.774067 0.685347 0
M  V30 23 N -3.979292 -1.936716 1.295052 0
M  V30 24 N -3.858242 -3.057532 2.012955 0
M  V30 25 C -2.622889 -3.509960 1.799344 0
M  V30 26 N -1.896525 -2.725978 0.953341 0
M  V30 27 C -0.564696 -3.139312 0.649326 0
M  V30 28 H 0.871136 -4.146968 3.561453 0
M  V30 29 H -0.761008 -3.442408 3.502571 0
M  V30 30 H -0.343911 -5.039274 2.634413 0
M  V30 31 H 1.306133 -3.780644 1.346352 0
M  V30 32 H 0.227233 -1.306489 2.832904 0
M  V30 33 H 1.781334 -2.134299 3.004689 0
M  V30 34 H 0.937117 -0.846833 0.409081 0
M  V30 35 H 2.486188 -1.653885 0.753571 0
M  V30 36 H 4.753049 0.263578 1.741274 0
M  V30 37 H 5.061183 3.983421 -0.359169 0
M  V30 38 H 2.505980 4.046741 -0.411326 0
M  V30 39 H 0.412837 1.208644 -0.632898 0
M  V30 40 H -1.610642 2.588068 -1.855342 0
M  V30 41 H -3.818474 1.387055 -2.642627 0
M  V30 42 H -4.398128 -0.789146 -1.338926 0
M  V30 43 H -2.615963 -4.426169 2.417948 0
M  V30 44 H -0.581717 -4.149002 0.155710 0
M  V30 45 H -0.125611 -2.479766 -0.162480 0
M  V30 END ATOM
M  V30 BEGIN BOND
M  V30 1 1 1 2
M  V30 2 1 2 3
M  V30 3 1 3 4
M  V30 4 1 4 5
M  V30 5 1 5 6
M  V30 6 2 6 7
M  V30 7 1 7 8
M  V30 8 1 8 9
M  V30 9 2 8 10
M  V30 10 1 10 11
M  V30 11 2 11 12
M  V30 12 1 12 13
M  V30 13 2 13 14
M  V30 14 1 13 15
M  V30 15 1 15 16
M  V30 16 1 16 17
M  V30 17 2 17 18
M  V30 18 1 18 19
M  V30 19 2 19 20
M  V30 20 1 20 21
M  V30 21 1 20 22
M  V30 22 2 22 23
M  V30 23 1 23 24
M  V30 24 2 24 25
M  V30 25 1 25 26
M  V30 26 1 26 27
M  V30 27 1 27 2
M  V30 28 1 12 6
M  V30 29 2 21 16
M  V30 30 1 26 22
M  V30 31 1 1 28
M  V30 32 1 1 29
M  V30 33 1 1 30
M  V30 34 1 2 31 CFG=3
M  V30 35 1 3 32
M  V30 36 1 3 33
M  V30 37 1 4 34
M  V30 38 1 4 35
M  V30 39 1 7 36
M  V30 40 1 10 37
M  V30 41 1 11 38
M  V30 42 1 15 39
M  V30 43 1 17 40
M  V30 44 1 18 41
M  V30 45 1 19 42
M  V30 46 1 25 43
M  V30 47 1 27 44
M  V30 48 1 27 45
M  V30 END BOND
M  V30 END CTAB
M  END
>  <Dataset>  (444) 
ChEMBL_Kinases

>  <Ligand_Instance>  (444) 
nan

>  <PDB_ID>  (444) 
nan

>  <Standardized_SMILES>  (444) 
C[C@@H]1CCOc2cc(F)ccc2C(=O)Nc2cccc(n2)-c2nncn2C1

>  <Name>  (444) 
nan

>  <Pocket>  (444) 
nan

>  <ATP_Site>  (444) 
nan

>  <Peripheral>  (444) 
nan

>  <Num_H_Atoms_ProtBoundConf>  (444) 
nan

>  <Num_Resolved_Atoms>  (444) 
nan

>  <Num_Not_Resolved_Atoms>  (444) 
nan

$$$$
CHEMBL4542402
     RDKit          3D

  0  0  0  0  0  0  0  0  0  0999 V3000
M  V30 BEGIN CTAB
M  V30 COUNTS 17 18 0 0 0
M  V30 BEGIN ATOM
M  V30 1 N 0.341505 -3.628137 2.066112 0
M  V30 2 C 0.687187 -2.502998 2.064811 0
M  V30 3 C 1.132864 -1.137235 2.065351 0
M  V30 4 C 1.898661 -0.485921 3.037685 0
M  V30 5 N 2.104030 0.803008 2.659995 0
M  V30 6 C 1.503327 1.025574 1.477023 0
M  V30 7 C 1.375005 2.108550 0.631027 0
M  V30 8 Cl 2.135395 3.611332 1.106025 0
M  V30 9 C 0.658857 1.952936 -0.538101 0
M  V30 10 C 0.054536 0.775324 -0.925161 0
M  V30 11 C 0.196417 -0.309362 -0.054364 0
M  V30 12 C 0.911028 -0.161169 1.116318 0
M  V30 13 H 2.274647 -0.948711 3.963477 0
M  V30 14 H 2.653589 1.525709 3.211501 0
M  V30 15 H 0.567571 2.813902 -1.191817 0
M  V30 16 H -0.498422 0.722482 -1.866445 0
M  V30 17 H -0.279246 -1.258230 -0.346411 0
M  V30 END ATOM
M  V30 BEGIN BOND
M  V30 1 3 1 2
M  V30 2 1 2 3
M  V30 3 2 3 4
M  V30 4 1 4 5
M  V30 5 1 5 6
M  V30 6 2 6 7
M  V30 7 1 7 8
M  V30 8 1 7 9
M  V30 9 2 9 10
M  V30 10 1 10 11
M  V30 11 2 11 12
M  V30 12 1 12 3
M  V30 13 1 12 6
M  V30 14 1 4 13
M  V30 15 1 5 14
M  V30 16 1 9 15
M  V30 17 1 10 16
M  V30 18 1 11 17
M  V30 END BOND
M  V30 END CTAB
M  END
>  <Dataset>  (445) 
ChEMBL_Kinases

>  <Ligand_Instance>  (445) 
nan

>  <PDB_ID>  (445) 
nan

>  <Standardized_SMILES>  (445) 
N#Cc1c[nH]c2c(Cl)cccc12

>  <Name>  (445) 
nan

>  <Pocket>  (445) 
nan

>  <ATP_Site>  (445) 
nan

>  <Peripheral>  (445) 
nan

>  <Num_H_Atoms_ProtBoundConf>  (445) 
nan

>  <Num_Resolved_Atoms>  (445) 
nan

>  <Num_Not_Resolved_Atoms>  (445) 
nan

$$$$
CHEMBL4542127
     RDKit          3D

  0  0  0  0  0  0  0  0  0  0999 V3000
M  V30 BEGIN CTAB
M  V30 COUNTS 78 81 0 0 0
M  V30 BEGIN ATOM
M  V30 1 C 2.970210 -3.309482 7.177821 0
M  V30 2 O 2.578098 -2.511788 6.095312 0
M  V30 3 C 3.507894 -2.097069 5.162858 0
M  V30 4 C 4.822039 -2.463378 5.289251 0
M  V30 5 C 5.716730 -2.026936 4.334904 0
M  V30 6 C 5.242214 -1.247286 3.307486 0
M  V30 7 C 3.921095 -0.892865 3.201441 0
M  V30 8 Cl 3.463837 0.111310 1.827747 0
M  V30 9 C 2.998018 -1.326193 4.160274 0
M  V30 10 C 1.643682 -0.868075 3.907135 0
M  V30 11 O 1.315793 -0.133792 2.912935 0
M  V30 12 N 0.451132 -1.096377 4.629388 0
M  V30 13 C -0.598832 -0.401323 3.924412 0
M  V30 14 C -0.962028 0.908049 4.175680 0
M  V30 15 N -1.969514 1.135388 3.289768 0
M  V30 16 N -2.204352 0.071027 2.563795 0
M  V30 17 C -1.375431 -0.929897 2.914328 0
M  V30 18 C -1.288148 -2.279082 2.375694 0
M  V30 19 O -0.452888 -3.066967 2.850959 0
M  V30 20 N -2.160361 -2.647231 1.326141 0
M  V30 21 C -2.288254 -3.885578 0.622802 0
M  V30 22 C -1.856091 -3.708063 -0.792368 0
M  V30 23 C -2.938888 -3.935570 -1.805734 0
M  V30 24 N -4.243116 -3.571224 -1.440026 0
M  V30 25 S -4.857774 -2.133827 -2.062070 0
M  V30 26 O -4.858335 -2.182833 -3.580474 0
M  V30 27 O -6.295736 -1.987661 -1.657982 0
M  V30 28 C -4.007631 -0.691729 -1.623704 0
M  V30 29 C -4.430400 -0.000727 -0.485396 0
M  V30 30 C -3.738347 1.144884 -0.150233 0
M  V30 31 C -2.687761 1.539704 -0.939540 0
M  V30 32 C -2.242418 0.902764 -2.050933 0
M  V30 33 N -1.164962 1.278750 -2.882752 0
M  V30 34 C -0.300173 2.379887 -2.778425 0
M  V30 35 O -0.450921 3.181171 -1.839085 0
M  V30 36 C 0.777682 2.643088 -3.717258 0
M  V30 37 C 1.575772 3.671063 -3.610991 0
M  V30 38 C 2.699650 4.057214 -4.481606 0
M  V30 39 N 2.943086 3.169695 -5.582528 0
M  V30 40 C 4.066797 3.716812 -6.362521 0
M  V30 41 C 3.422464 1.897983 -5.016329 0
M  V30 42 C -2.947120 -0.233247 -2.362864 0
M  V30 43 C -4.689720 -3.956668 -0.152828 0
M  V30 44 C -3.590490 -4.584312 0.673295 0
M  V30 45 H 3.280643 -4.338920 6.873645 0
M  V30 46 H 2.057940 -3.470462 7.810677 0
M  V30 47 H 3.724622 -2.819224 7.835745 0
M  V30 48 H 5.091170 -3.077653 6.132490 0
M  V30 49 H 6.750152 -2.336534 4.467176 0
M  V30 50 H 5.951882 -0.913604 2.569946 0
M  V30 51 H 0.548997 -1.699149 5.498766 0
M  V30 52 H -0.576180 1.624799 4.887950 0
M  V30 53 H -2.514952 2.009486 3.159445 0
M  V30 54 H -2.841896 -1.941127 0.967610 0
M  V30 55 H -1.542727 -4.583271 1.108804 0
M  V30 56 H -1.484751 -2.675690 -0.949849 0
M  V30 57 H -0.966308 -4.355923 -1.039938 0
M  V30 58 H -2.693633 -3.417226 -2.766329 0
M  V30 59 H -2.928885 -5.014479 -2.075346 0
M  V30 60 H -5.255341 -0.371833 0.076690 0
M  V30 61 H -4.052409 1.689121 0.725888 0
M  V30 62 H -2.203230 2.440375 -0.608956 0
M  V30 63 H -0.937586 0.676909 -3.716332 0
M  V30 64 H 0.955690 1.992864 -4.545612 0
M  V30 65 H 1.421710 4.358289 -2.780160 0
M  V30 66 H 3.614409 4.124242 -3.824508 0
M  V30 67 H 2.576143 5.103592 -4.883681 0
M  V30 68 H 4.615481 2.845703 -6.772731 0
M  V30 69 H 3.714059 4.403769 -7.147378 0
M  V30 70 H 4.706959 4.306747 -5.655709 0
M  V30 71 H 3.253973 1.858724 -3.910015 0
M  V30 72 H 2.933020 1.038240 -5.491763 0
M  V30 73 H 4.510687 1.800924 -5.170522 0
M  V30 74 H -2.686701 -0.832099 -3.232638 0
M  V30 75 H -5.498691 -4.705826 -0.299946 0
M  V30 76 H -5.168974 -3.083222 0.330943 0
M  V30 77 H -3.394730 -5.588860 0.205597 0
M  V30 78 H -3.942192 -4.838758 1.694180 0
M  V30 END ATOM
M  V30 BEGIN BOND
M  V30 1 1 1 2
M  V30 2 1 2 3
M  V30 3 2 3 4
M  V30 4 1 4 5
M  V30 5 2 5 6
M  V30 6 1 6 7
M  V30 7 1 7 8
M  V30 8 2 7 9
M  V30 9 1 9 10
M  V30 10 2 10 11
M  V30 11 1 10 12
M  V30 12 1 12 13
M  V30 13 2 13 14
M  V30 14 1 14 15
M  V30 15 1 15 16
M  V30 16 2 16 17
M  V30 17 1 17 18
M  V30 18 2 18 19
M  V30 19 1 18 20
M  V30 20 1 20 21
M  V30 21 1 21 22
M  V30 22 1 22 23
M  V30 23 1 23 24
M  V30 24 1 24 25
M  V30 25 2 25 26
M  V30 26 2 25 27
M  V30 27 1 25 28
M  V30 28 2 28 29
M  V30 29 1 29 30
M  V30 30 2 30 31
M  V30 31 1 31 32
M  V30 32 1 32 33
M  V30 33 1 33 34
M  V30 34 2 34 35
M  V30 35 1 34 36
M  V30 36 2 36 37
M  V30 37 1 37 38
M  V30 38 1 38 39
M  V30 39 1 39 40
M  V30 40 1 39 41
M  V30 41 2 32 42
M  V30 42 1 24 43
M  V30 43 1 43 44
M  V30 44 1 9 3
M  V30 45 1 17 13
M  V30 46 1 44 21
M  V30 47 1 42 28
M  V30 48 1 1 45
M  V30 49 1 1 46
M  V30 50 1 1 47
M  V30 51 1 4 48
M  V30 52 1 5 49
M  V30 53 1 6 50
M  V30 54 1 12 51
M  V30 55 1 14 52
M  V30 56 1 15 53
M  V30 57 1 20 54
M  V30 58 1 21 55
M  V30 59 1 22 56
M  V30 60 1 22 57
M  V30 61 1 23 58
M  V30 62 1 23 59
M  V30 63 1 29 60
M  V30 64 1 30 61
M  V30 65 1 31 62
M  V30 66 1 33 63
M  V30 67 1 36 64
M  V30 68 1 37 65
M  V30 69 1 38 66
M  V30 70 1 38 67
M  V30 71 1 40 68
M  V30 72 1 40 69
M  V30 73 1 40 70
M  V30 74 1 41 71
M  V30 75 1 41 72
M  V30 76 1 41 73
M  V30 77 1 42 74
M  V30 78 1 43 75
M  V30 79 1 43 76
M  V30 80 1 44 77
M  V30 81 1 44 78
M  V30 END BOND
M  V30 END CTAB
M  END
>  <Dataset>  (446) 
ChEMBL_Kinases

>  <Ligand_Instance>  (446) 
nan

>  <PDB_ID>  (446) 
nan

>  <Standardized_SMILES>  (446) 
COc1cccc(Cl)c1C(=O)Nc1c[nH]nc1C(=O)NC1CCN(S(=O)(=O)c2cccc(NC(=O)/C=C/CN(C)C)c2)CC1

>  <Name>  (446) 
nan

>  <Pocket>  (446) 
nan

>  <ATP_Site>  (446) 
nan

>  <Peripheral>  (446) 
nan

>  <Num_H_Atoms_ProtBoundConf>  (446) 
nan

>  <Num_Resolved_Atoms>  (446) 
nan

>  <Num_Not_Resolved_Atoms>  (446) 
nan

$$$$
CHEMBL4640300
     RDKit          3D

  0  0  0  0  0  0  0  0  0  0999 V3000
M  V30 BEGIN CTAB
M  V30 COUNTS 73 76 0 0 0
M  V30 BEGIN ATOM
M  V30 1 C 3.188460 -6.289502 7.758672 0
M  V30 2 O 2.417532 -5.621386 6.796425 0
M  V30 3 C 2.673519 -4.443991 6.185336 0
M  V30 4 C 3.526948 -3.342956 6.063551 0
M  V30 5 C 3.269957 -2.318184 5.185199 0
M  V30 6 C 2.124930 -2.323927 4.350758 0
M  V30 7 C 1.897690 -1.204895 3.496730 0
M  V30 8 C 2.399061 0.119325 3.521337 0
M  V30 9 C 1.989054 1.036248 2.526521 0
M  V30 10 O 2.440406 2.218553 2.554814 0
M  V30 11 C 1.088878 0.588868 1.541612 0
M  V30 12 C 0.675600 1.498360 0.526845 0
M  V30 13 O 1.124774 2.820473 0.498728 0
M  V30 14 C 2.238198 3.336063 -0.124393 0
M  V30 15 C -0.216245 1.045969 -0.461798 0
M  V30 16 C -0.640352 1.945874 -1.599270 0 CFG=1
M  V30 17 O -1.236069 1.142505 -2.520684 0
M  V30 18 C -2.446210 1.454920 -3.022946 0 CFG=2
M  V30 19 C -2.796676 0.770127 -4.269585 0
M  V30 20 O -3.778916 0.890264 -5.010149 0
M  V30 21 N -1.905679 -0.212555 -4.769261 0
M  V30 22 C -1.999739 -1.044066 -5.964781 0 CFG=1
M  V30 23 C -0.719349 -1.000253 -6.769590 0
M  V30 24 C -2.169595 -2.496368 -5.539902 0
M  V30 25 F -3.339561 -2.563085 -4.773524 0
M  V30 26 F -2.241808 -3.361349 -6.587650 0
M  V30 27 F -1.110991 -2.775921 -4.690204 0
M  V30 28 C -2.736938 2.941352 -3.049498 0 CFG=1
M  V30 29 O -3.951518 3.225021 -3.627415 0
M  V30 30 C -2.706564 3.448858 -1.611962 0 CFG=2
M  V30 31 O -2.853430 4.836061 -1.674407 0
M  V30 32 C -1.401811 3.069251 -1.014356 0 CFG=1
M  V30 33 O -1.481607 3.025184 0.398601 0
M  V30 34 C -0.666371 -0.191725 -0.446539 0
M  V30 35 O -1.538971 -0.872371 -1.301888 0
M  V30 36 C -1.955227 -2.188474 -1.230564 0
M  V30 37 C -0.244608 -1.019744 0.543517 0
M  V30 38 C 0.604196 -0.747171 1.549578 0
M  V30 39 O 1.211895 -1.130232 2.547572 0
M  V30 40 C 1.286083 -3.397070 4.459203 0
M  V30 41 C 1.521634 -4.470205 5.359381 0
M  V30 42 O 0.571030 -5.287905 5.223393 0
M  V30 43 C -0.414862 -6.114783 5.067864 0
M  V30 44 H 3.565798 -7.232984 7.310634 0
M  V30 45 H 4.065613 -5.706706 8.092063 0
M  V30 46 H 2.548073 -6.574490 8.645775 0
M  V30 47 H 4.305879 -3.551458 6.773983 0
M  V30 48 H 4.017122 -1.548209 5.213256 0
M  V30 49 H 3.086824 0.364232 4.340311 0
M  V30 50 H 3.154314 2.743666 -0.081315 0
M  V30 51 H 2.507863 4.303197 0.407267 0
M  V30 52 H 1.988130 3.708933 -1.164416 0
M  V30 53 H 0.317080 2.310823 -2.116225 0
M  V30 54 H -3.202898 1.064040 -2.256157 0
M  V30 55 H -0.990157 -0.497656 -4.319133 0
M  V30 56 H -2.859753 -0.784030 -6.575046 0
M  V30 57 H -0.924740 -1.521621 -7.732360 0
M  V30 58 H -0.421514 0.020857 -7.027926 0
M  V30 59 H 0.104727 -1.556964 -6.223687 0
M  V30 60 H -1.904292 3.433767 -3.583176 0
M  V30 61 H -3.843670 3.389894 -4.591920 0
M  V30 62 H -3.588441 3.086461 -1.042847 0
M  V30 63 H -3.180087 5.109273 -2.554003 0
M  V30 64 H -0.733232 3.996732 -1.169302 0
M  V30 65 H -1.865953 2.180540 0.712384 0
M  V30 66 H -2.370949 -2.384615 -0.224035 0
M  V30 67 H -2.719908 -2.404165 -2.010070 0
M  V30 68 H -1.074247 -2.842497 -1.452387 0
M  V30 69 H -0.526370 -2.064819 0.690313 0
M  V30 70 H 0.457886 -3.254940 3.753602 0
M  V30 71 H -0.183600 -7.051343 4.449049 0
M  V30 72 H -1.353553 -5.741808 4.537597 0
M  V30 73 H -0.831955 -6.494895 6.065627 0
M  V30 END ATOM
M  V30 BEGIN BOND
M  V30 1 1 1 2
M  V30 2 1 2 3
M  V30 3 2 3 4
M  V30 4 1 4 5
M  V30 5 2 5 6
M  V30 6 1 6 7
M  V30 7 2 7 8
M  V30 8 1 8 9
M  V30 9 2 9 10
M  V30 10 1 9 11
M  V30 11 2 11 12
M  V30 12 1 12 13
M  V30 13 1 13 14
M  V30 14 1 12 15
M  V30 15 1 15 16
M  V30 16 1 16 17
M  V30 17 1 17 18
M  V30 18 1 18 19
M  V30 19 2 19 20
M  V30 20 1 19 21
M  V30 21 1 21 22
M  V30 22 1 22 23
M  V30 23 1 22 24
M  V30 24 1 24 25
M  V30 25 1 24 26
M  V30 26 1 24 27
M  V30 27 1 18 28
M  V30 28 1 28 29
M  V30 29 1 28 30
M  V30 30 1 30 31
M  V30 31 1 30 32
M  V30 32 1 32 33
M  V30 33 2 15 34
M  V30 34 1 34 35
M  V30 35 1 35 36
M  V30 36 1 34 37
M  V30 37 2 37 38
M  V30 38 1 38 39
M  V30 39 1 6 40
M  V30 40 2 40 41
M  V30 41 1 41 42
M  V30 42 1 42 43
M  V30 43 1 41 3
M  V30 44 1 39 7
M  V30 45 1 38 11
M  V30 46 1 32 16
M  V30 47 1 1 44
M  V30 48 1 1 45
M  V30 49 1 1 46
M  V30 50 1 4 47
M  V30 51 1 5 48
M  V30 52 1 8 49
M  V30 53 1 14 50
M  V30 54 1 14 51
M  V30 55 1 14 52
M  V30 56 1 16 53 CFG=3
M  V30 57 1 18 54 CFG=1
M  V30 58 1 21 55
M  V30 59 1 22 56 CFG=3
M  V30 60 1 23 57
M  V30 61 1 23 58
M  V30 62 1 23 59
M  V30 63 1 28 60 CFG=3
M  V30 64 1 29 61
M  V30 65 1 30 62 CFG=1
M  V30 66 1 31 63
M  V30 67 1 32 64 CFG=1
M  V30 68 1 33 65
M  V30 69 1 36 66
M  V30 70 1 36 67
M  V30 71 1 36 68
M  V30 72 1 37 69
M  V30 73 1 40 70
M  V30 74 1 43 71
M  V30 75 1 43 72
M  V30 76 1 43 73
M  V30 END BOND
M  V30 END CTAB
M  END
>  <Dataset>  (447) 
ChEMBL_Kinases

>  <Ligand_Instance>  (447) 
nan

>  <PDB_ID>  (447) 
nan

>  <Standardized_SMILES>  (447) 
COc1ccc(-c2cc(=O)c3c(OC)c([C@H]4O[C@H](C(=O)N[C@@H](C)C(F)(F)F)[C@@H](O)[C@H](O)[C@H]4O)c(OC)cc3o2)cc1OC

>  <Name>  (447) 
nan

>  <Pocket>  (447) 
nan

>  <ATP_Site>  (447) 
nan

>  <Peripheral>  (447) 
nan

>  <Num_H_Atoms_ProtBoundConf>  (447) 
nan

>  <Num_Resolved_Atoms>  (447) 
nan

>  <Num_Not_Resolved_Atoms>  (447) 
nan

$$$$
CHEMBL4542026
     RDKit          3D

  0  0  0  0  0  0  0  0  0  0999 V3000
M  V30 BEGIN CTAB
M  V30 COUNTS 52 55 0 0 0
M  V30 BEGIN ATOM
M  V30 1 C 1.454067 -5.156206 0.472419 0
M  V30 2 C 0.454638 -4.060226 0.577800 0
M  V30 3 C 0.873391 -2.799678 0.955304 0
M  V30 4 C -0.020223 -1.757604 1.064753 0
M  V30 5 N 0.229582 -0.422084 1.433022 0
M  V30 6 C 0.534354 0.445569 0.377964 0
M  V30 7 O 0.513824 -0.200937 -0.712409 0
M  V30 8 C 0.833338 1.851033 0.437607 0
M  V30 9 C 1.104461 2.478305 -0.786731 0
M  V30 10 C 1.404288 3.817687 -0.865261 0
M  V30 11 C 1.458293 4.626450 0.241562 0
M  V30 12 N 1.198439 4.018200 1.401065 0
M  V30 13 C 1.225035 4.757539 2.619596 0
M  V30 14 C 1.918284 4.335950 3.737601 0
M  V30 15 C 1.939028 5.058037 4.914282 0
M  V30 16 C 1.231849 6.239920 4.943699 0
M  V30 17 F 1.264705 6.935538 6.110219 0
M  V30 18 C 0.521007 6.696288 3.834805 0
M  V30 19 C 0.522829 5.941563 2.665092 0
M  V30 20 C 0.903078 2.711629 1.503850 0
M  V30 21 O 0.665908 2.185547 2.619621 0
M  V30 22 C -1.364213 -2.029579 0.778417 0
M  V30 23 C -1.782362 -3.289830 0.401085 0
M  V30 24 C -3.230054 -3.539885 0.103161 0
M  V30 25 C -0.870815 -4.322609 0.296848 0
M  V30 26 O -1.340501 -5.557048 -0.082565 0
M  V30 27 C -1.451648 -6.042178 -1.356476 0
M  V30 28 C -1.954844 -7.331473 -1.557970 0
M  V30 29 C -2.063627 -7.815981 -2.864093 0
M  V30 30 N -1.705561 -7.100457 -3.959577 0
M  V30 31 C -1.219283 -5.856459 -3.776905 0
M  V30 32 C -1.094061 -5.336752 -2.506671 0
M  V30 33 H 1.045636 -6.125322 0.821209 0
M  V30 34 H 2.341950 -4.897220 1.072473 0
M  V30 35 H 1.735508 -5.204658 -0.605070 0
M  V30 36 H 1.880620 -2.549506 1.181265 0
M  V30 37 H 0.205700 -0.039439 2.405683 0
M  V30 38 H 1.081162 1.901120 -1.715142 0
M  V30 39 H 1.603391 4.239147 -1.841839 0
M  V30 40 H 1.689207 5.667827 0.200248 0
M  V30 41 H 2.462230 3.397440 3.669129 0
M  V30 42 H 2.500387 4.692937 5.782673 0
M  V30 43 H -0.010752 7.643563 3.948116 0
M  V30 44 H -0.048492 6.347002 1.833976 0
M  V30 45 H -2.149480 -1.259995 0.838775 0
M  V30 46 H -3.358456 -4.510500 -0.391546 0
M  V30 47 H -3.786279 -3.528034 1.054746 0
M  V30 48 H -3.604200 -2.688427 -0.529017 0
M  V30 49 H -2.264629 -7.972032 -0.742271 0
M  V30 50 H -2.457359 -8.822659 -3.008643 0
M  V30 51 H -0.946500 -5.319069 -4.658840 0
M  V30 52 H -0.708509 -4.348989 -2.353350 0
M  V30 END ATOM
M  V30 BEGIN BOND
M  V30 1 1 1 2
M  V30 2 2 2 3
M  V30 3 1 3 4
M  V30 4 1 4 5
M  V30 5 1 5 6
M  V30 6 2 6 7
M  V30 7 1 6 8
M  V30 8 2 8 9
M  V30 9 1 9 10
M  V30 10 2 10 11
M  V30 11 1 11 12
M  V30 12 1 12 13
M  V30 13 2 13 14
M  V30 14 1 14 15
M  V30 15 2 15 16
M  V30 16 1 16 17
M  V30 17 1 16 18
M  V30 18 2 18 19
M  V30 19 1 12 20
M  V30 20 2 20 21
M  V30 21 2 4 22
M  V30 22 1 22 23
M  V30 23 1 23 24
M  V30 24 2 23 25
M  V30 25 1 25 26
M  V30 26 1 26 27
M  V30 27 2 27 28
M  V30 28 1 28 29
M  V30 29 2 29 30
M  V30 30 1 30 31
M  V30 31 2 31 32
M  V30 32 1 25 2
M  V30 33 1 32 27
M  V30 34 1 20 8
M  V30 35 1 19 13
M  V30 36 1 1 33
M  V30 37 1 1 34
M  V30 38 1 1 35
M  V30 39 1 3 36
M  V30 40 1 5 37
M  V30 41 1 9 38
M  V30 42 1 10 39
M  V30 43 1 11 40
M  V30 44 1 14 41
M  V30 45 1 15 42
M  V30 46 1 18 43
M  V30 47 1 19 44
M  V30 48 1 22 45
M  V30 49 1 24 46
M  V30 50 1 24 47
M  V30 51 1 24 48
M  V30 52 1 28 49
M  V30 53 1 29 50
M  V30 54 1 31 51
M  V30 55 1 32 52
M  V30 END BOND
M  V30 END CTAB
M  END
>  <Dataset>  (448) 
ChEMBL_Kinases

>  <Ligand_Instance>  (448) 
nan

>  <PDB_ID>  (448) 
nan

>  <Standardized_SMILES>  (448) 
Cc1cc(NC(=O)c2cccn(-c3ccc(F)cc3)c2=O)cc(C)c1Oc1ccncc1

>  <Name>  (448) 
nan

>  <Pocket>  (448) 
nan

>  <ATP_Site>  (448) 
nan

>  <Peripheral>  (448) 
nan

>  <Num_H_Atoms_ProtBoundConf>  (448) 
nan

>  <Num_Resolved_Atoms>  (448) 
nan

>  <Num_Not_Resolved_Atoms>  (448) 
nan

$$$$
CHEMBL4541962
     RDKit          3D

  0  0  0  0  0  0  0  0  0  0999 V3000
M  V30 BEGIN CTAB
M  V30 COUNTS 46 49 0 0 0
M  V30 BEGIN ATOM
M  V30 1 C -1.817903 -6.931500 -0.331959 0
M  V30 2 O -1.958329 -5.588670 0.075029 0
M  V30 3 C -1.050866 -4.597105 -0.267176 0
M  V30 4 C 0.087250 -4.769015 -1.031071 0
M  V30 5 C 0.922194 -3.709346 -1.310962 0
M  V30 6 C 0.680025 -2.430064 -0.854485 0
M  V30 7 C 1.530800 -1.289576 -1.125431 0
M  V30 8 C 2.282340 -1.090875 -2.273411 0
M  V30 9 N 3.052551 -0.003398 -2.456690 0
M  V30 10 C 3.081157 0.916615 -1.474814 0
M  V30 11 N 3.770110 2.071434 -1.434207 0
M  V30 12 C 3.523406 2.717253 -0.257994 0
M  V30 13 C 2.646270 1.950191 0.480834 0
M  V30 14 N 2.029296 2.084287 1.757819 0
M  V30 15 C 0.781028 2.739582 1.815928 0
M  V30 16 O 0.344761 3.141227 0.702124 0
M  V30 17 C -0.000578 2.971347 3.026296 0
M  V30 18 C -1.197922 3.636708 2.858202 0
M  V30 19 C -1.988189 3.886510 3.979806 0
M  V30 20 C -1.486066 3.433600 5.182113 0
M  V30 21 N -0.317194 2.788204 5.319792 0
M  V30 22 C 0.473365 2.531114 4.244853 0
M  V30 23 C 2.369030 0.829199 -0.273394 0
M  V30 24 C 1.601098 -0.311767 -0.154501 0
M  V30 25 C -0.463884 -2.292022 -0.094883 0
M  V30 26 C -1.328221 -3.335329 0.207632 0
M  V30 27 O -2.457053 -3.089802 0.983183 0
M  V30 28 C -2.716188 -1.780464 1.457958 0
M  V30 29 H -0.735422 -7.179482 -0.350744 0
M  V30 30 H -2.346149 -7.608755 0.378177 0
M  V30 31 H -2.248804 -7.098571 -1.332269 0
M  V30 32 H 0.288217 -5.758712 -1.392743 0
M  V30 33 H 1.804695 -3.885027 -1.913536 0
M  V30 34 H 2.229352 -1.845172 -3.023611 0
M  V30 35 H 4.426113 2.550534 -2.093617 0
M  V30 36 H 3.858014 3.647702 0.177210 0
M  V30 37 H 2.440959 1.730042 2.647139 0
M  V30 38 H -1.552816 3.976158 1.881204 0
M  V30 39 H -2.938234 4.402780 3.922450 0
M  V30 40 H -2.047084 3.594236 6.086761 0
M  V30 41 H 1.408737 2.010958 4.376770 0
M  V30 42 H 1.037530 -0.409526 0.765330 0
M  V30 43 H -0.727649 -1.319362 0.302621 0
M  V30 44 H -3.639128 -1.820414 2.059424 0
M  V30 45 H -2.911936 -1.091133 0.603951 0
M  V30 46 H -1.850390 -1.421062 2.042795 0
M  V30 END ATOM
M  V30 BEGIN BOND
M  V30 1 1 1 2
M  V30 2 1 2 3
M  V30 3 2 3 4
M  V30 4 1 4 5
M  V30 5 2 5 6
M  V30 6 1 6 7
M  V30 7 2 7 8
M  V30 8 1 8 9
M  V30 9 2 9 10
M  V30 10 1 10 11
M  V30 11 1 11 12
M  V30 12 2 12 13
M  V30 13 1 13 14
M  V30 14 1 14 15
M  V30 15 2 15 16
M  V30 16 1 15 17
M  V30 17 2 17 18
M  V30 18 1 18 19
M  V30 19 2 19 20
M  V30 20 1 20 21
M  V30 21 2 21 22
M  V30 22 1 13 23
M  V30 23 2 23 24
M  V30 24 1 6 25
M  V30 25 2 25 26
M  V30 26 1 26 27
M  V30 27 1 27 28
M  V30 28 1 26 3
M  V30 29 1 24 7
M  V30 30 1 23 10
M  V30 31 1 22 17
M  V30 32 1 1 29
M  V30 33 1 1 30
M  V30 34 1 1 31
M  V30 35 1 4 32
M  V30 36 1 5 33
M  V30 37 1 8 34
M  V30 38 1 11 35
M  V30 39 1 12 36
M  V30 40 1 14 37
M  V30 41 1 18 38
M  V30 42 1 19 39
M  V30 43 1 20 40
M  V30 44 1 22 41
M  V30 45 1 24 42
M  V30 46 1 25 43
M  V30 47 1 28 44
M  V30 48 1 28 45
M  V30 49 1 28 46
M  V30 END BOND
M  V30 END CTAB
M  END
>  <Dataset>  (449) 
ChEMBL_Kinases

>  <Ligand_Instance>  (449) 
nan

>  <PDB_ID>  (449) 
nan

>  <Standardized_SMILES>  (449) 
COc1ccc(-c2cnc3[nH]cc(NC(=O)c4cccnc4)c3c2)cc1OC

>  <Name>  (449) 
nan

>  <Pocket>  (449) 
nan

>  <ATP_Site>  (449) 
nan

>  <Peripheral>  (449) 
nan

>  <Num_H_Atoms_ProtBoundConf>  (449) 
nan

>  <Num_Resolved_Atoms>  (449) 
nan

>  <Num_Not_Resolved_Atoms>  (449) 
nan

$$$$
CHEMBL4640245
     RDKit          3D

  0  0  0  0  0  0  0  0  0  0999 V3000
M  V30 BEGIN CTAB
M  V30 COUNTS 55 59 0 0 0
M  V30 BEGIN ATOM
M  V30 1 C 4.785399 -3.359137 2.518962 0
M  V30 2 C 3.719373 -3.759830 1.554896 0
M  V30 3 O 3.055565 -4.895953 1.958661 0
M  V30 4 C 2.774436 -2.616193 1.502907 0
M  V30 5 C 1.995916 -1.692300 1.448182 0
M  V30 6 C 1.060447 -0.601545 1.366887 0
M  V30 7 C 1.533024 0.693687 1.574934 0
M  V30 8 C 0.680602 1.778714 1.509095 0
M  V30 9 C -0.677492 1.606912 1.232318 0
M  V30 10 N -1.540195 2.736170 1.168498 0
M  V30 11 C -2.314197 3.122962 -0.019164 0
M  V30 12 C -1.850224 4.503165 -0.434414 0
M  V30 13 O -1.941319 5.417526 0.603888 0
M  V30 14 C -1.294597 5.030818 1.752564 0
M  V30 15 C -1.803084 3.685227 2.240822 0
M  V30 16 C -1.112140 0.312250 1.031619 0
M  V30 17 N -2.485788 0.068811 0.745372 0
M  V30 18 C -2.921943 -1.276220 0.539836 0
M  V30 19 C -3.348536 -1.985670 1.653143 0
M  V30 20 F -3.335110 -1.381471 2.879903 0
M  V30 21 C -3.779926 -3.301209 1.481964 0
M  V30 22 N -3.792048 -3.895267 0.269100 0
M  V30 23 C -3.374928 -3.200094 -0.816284 0
M  V30 24 N -3.262965 -3.484672 -2.129351 0
M  V30 25 C -2.782090 -2.421594 -2.813226 0
M  V30 26 C -2.561570 -1.380031 -1.925379 0
M  V30 27 C -2.943695 -1.910400 -0.700174 0
M  V30 28 C -0.296746 -0.800348 1.087841 0
M  V30 29 C 4.348401 -4.008464 0.256987 0
M  V30 30 N 5.419601 -4.016466 -0.354573 0
M  V30 31 C 5.461895 -4.345486 -1.643783 0
M  V30 32 C 4.319966 -4.705600 -2.410615 0
M  V30 33 S 3.025986 -4.523264 -1.007326 0
M  V30 34 H 4.443474 -3.563674 3.569105 0
M  V30 35 H 5.125181 -2.327575 2.415625 0
M  V30 36 H 5.659559 -4.046690 2.337100 0
M  V30 37 H 2.544447 -5.308431 1.211390 0
M  V30 38 H 2.590265 0.870663 1.794307 0
M  V30 39 H 1.069134 2.776866 1.674108 0
M  V30 40 H -2.048289 2.416667 -0.815670 0
M  V30 41 H -3.393257 3.139279 0.182695 0
M  V30 42 H -2.580173 4.831881 -1.217833 0
M  V30 43 H -0.871527 4.432027 -0.908921 0
M  V30 44 H -0.185975 4.916360 1.634701 0
M  V30 45 H -1.555213 5.758942 2.544555 0
M  V30 46 H -2.911650 3.712821 2.393000 0
M  V30 47 H -1.276333 3.414577 3.178683 0
M  V30 48 H -3.232392 0.794263 0.667366 0
M  V30 49 H -4.108488 -3.835063 2.366688 0
M  V30 50 H -3.534415 -4.435446 -2.503743 0
M  V30 51 H -2.613286 -2.432794 -3.886798 0
M  V30 52 H -2.180147 -0.404060 -2.179961 0
M  V30 53 H -0.640270 -1.799697 0.931380 0
M  V30 54 H 6.494771 -4.300102 -2.029100 0
M  V30 55 H 4.387651 -4.946778 -3.375518 0
M  V30 END ATOM
M  V30 BEGIN BOND
M  V30 1 1 1 2
M  V30 2 1 2 3
M  V30 3 1 2 4
M  V30 4 3 4 5
M  V30 5 1 5 6
M  V30 6 2 6 7
M  V30 7 1 7 8
M  V30 8 2 8 9
M  V30 9 1 9 10
M  V30 10 1 10 11
M  V30 11 1 11 12
M  V30 12 1 12 13
M  V30 13 1 13 14
M  V30 14 1 14 15
M  V30 15 1 9 16
M  V30 16 1 16 17
M  V30 17 1 17 18
M  V30 18 2 18 19
M  V30 19 1 19 20
M  V30 20 1 19 21
M  V30 21 2 21 22
M  V30 22 1 22 23
M  V30 23 1 23 24
M  V30 24 1 24 25
M  V30 25 2 25 26
M  V30 26 1 26 27
M  V30 27 2 16 28
M  V30 28 1 2 29
M  V30 29 2 29 30
M  V30 30 1 30 31
M  V30 31 2 31 32
M  V30 32 1 32 33
M  V30 33 1 28 6
M  V30 34 1 33 29
M  V30 35 1 15 10
M  V30 36 1 27 18
M  V30 37 2 27 23
M  V30 38 1 1 34
M  V30 39 1 1 35
M  V30 40 1 1 36
M  V30 41 1 3 37
M  V30 42 1 7 38
M  V30 43 1 8 39
M  V30 44 1 11 40
M  V30 45 1 11 41
M  V30 46 1 12 42
M  V30 47 1 12 43
M  V30 48 1 14 44
M  V30 49 1 14 45
M  V30 50 1 15 46
M  V30 51 1 15 47
M  V30 52 1 17 48
M  V30 53 1 21 49
M  V30 54 1 24 50
M  V30 55 1 25 51
M  V30 56 1 26 52
M  V30 57 1 28 53
M  V30 58 1 31 54
M  V30 59 1 32 55
M  V30 END BOND
M  V30 END CTAB
M  END
>  <Dataset>  (450) 
ChEMBL_Kinases

>  <Ligand_Instance>  (450) 
nan

>  <PDB_ID>  (450) 
nan

>  <Standardized_SMILES>  (450) 
CC(O)(C#Cc1ccc(N2CCOCC2)c(Nc2c(F)cnc3[nH]ccc23)c1)c1nccs1

>  <Name>  (450) 
nan

>  <Pocket>  (450) 
nan

>  <ATP_Site>  (450) 
nan

>  <Peripheral>  (450) 
nan

>  <Num_H_Atoms_ProtBoundConf>  (450) 
nan

>  <Num_Resolved_Atoms>  (450) 
nan

>  <Num_Not_Resolved_Atoms>  (450) 
nan

$$$$
CHEMBL4640247
     RDKit          3D

  0  0  0  0  0  0  0  0  0  0999 V3000
M  V30 BEGIN CTAB
M  V30 COUNTS 64 68 0 0 0
M  V30 BEGIN ATOM
M  V30 1 C 2.746640 -3.494988 4.489709 0
M  V30 2 O 3.487815 -2.287750 4.387035 0
M  V30 3 C 3.138094 -1.332215 3.459050 0
M  V30 4 C 2.053149 -1.545201 2.615333 0
M  V30 5 C 1.721838 -0.583036 1.699819 0
M  V30 6 C 2.389496 0.611272 1.538323 0
M  V30 7 O 2.162282 1.641532 0.673545 0
M  V30 8 C 1.182735 1.748971 -0.278591 0
M  V30 9 C 1.169710 2.903598 -1.032445 0
M  V30 10 C 0.204762 3.094024 -2.024328 0
M  V30 11 N 0.239897 4.300576 -2.773558 0
M  V30 12 C -0.473309 5.493244 -2.336264 0
M  V30 13 C 0.026711 5.945959 -0.979224 0
M  V30 14 C -0.717129 7.192819 -0.525675 0
M  V30 15 F -2.062123 6.962596 -0.424865 0
M  V30 16 F -0.217605 7.570254 0.702946 0
M  V30 17 F -0.471918 8.216746 -1.439585 0
M  V30 18 N -0.745132 2.169147 -2.285908 0
M  V30 19 N -1.748808 2.064672 -3.123637 0
M  V30 20 C -2.387088 0.874372 -2.934339 0
M  V30 21 C -1.741126 0.199346 -1.918397 0
M  V30 22 C -2.001629 -1.123713 -1.308487 0
M  V30 23 C -2.284134 -2.282728 -2.004594 0
M  V30 24 C -2.500143 -3.441668 -1.278172 0
M  V30 25 C -2.427550 -3.403628 0.100641 0
M  V30 26 C -2.673898 -4.702661 0.770850 0
M  V30 27 O -3.598221 -5.208607 1.456677 0
M  V30 28 N -1.581481 -5.631164 0.599391 0
M  V30 29 C -1.553649 -6.980704 1.150410 0
M  V30 30 C -0.258776 -7.556881 1.606528 0
M  V30 31 C -0.851060 -8.049851 0.328146 0
M  V30 32 C -2.145689 -2.250357 0.815041 0
M  V30 33 C -2.084995 -2.294460 2.304221 0
M  V30 34 C -1.930569 -1.095263 0.087444 0
M  V30 35 C -0.706829 1.069096 -1.544601 0
M  V30 36 N 0.214602 0.869257 -0.585730 0
M  V30 37 C 3.477181 0.828948 2.381524 0
M  V30 38 F 4.252742 1.950137 2.364568 0
M  V30 39 C 3.835445 -0.127695 3.317760 0
M  V30 40 F 4.891542 0.052565 4.156913 0
M  V30 41 H 3.212785 -4.183972 5.225571 0
M  V30 42 H 1.677548 -3.309402 4.790559 0
M  V30 43 H 2.706401 -4.000112 3.508338 0
M  V30 44 H 1.440789 -2.449277 2.639966 0
M  V30 45 H 0.889021 -0.715852 1.031798 0
M  V30 46 H 1.909170 3.697955 -0.876986 0
M  V30 47 H 0.851778 4.083775 -3.612402 0
M  V30 48 H -0.406967 6.305398 -3.060267 0
M  V30 49 H -1.552761 5.202620 -2.233194 0
M  V30 50 H 1.104795 6.115259 -1.007876 0
M  V30 51 H -0.149088 5.159819 -0.219918 0
M  V30 52 H -3.242451 0.477654 -3.449139 0
M  V30 53 H -2.314370 -2.194213 -3.087311 0
M  V30 54 H -2.720878 -4.344092 -1.839396 0
M  V30 55 H -0.702651 -5.395275 0.049480 0
M  V30 56 H -2.447780 -7.237902 1.713921 0
M  V30 57 H -0.245614 -8.291228 2.439833 0
M  V30 58 H 0.685396 -6.959084 1.530591 0
M  V30 59 H -0.334643 -7.752847 -0.605624 0
M  V30 60 H -1.400320 -9.015037 0.314730 0
M  V30 61 H -2.023018 -3.354482 2.617502 0
M  V30 62 H -2.924172 -1.796149 2.794444 0
M  V30 63 H -1.121224 -1.785437 2.591909 0
M  V30 64 H -1.713061 -0.210056 0.669714 0
M  V30 END ATOM
M  V30 BEGIN BOND
M  V30 1 1 1 2
M  V30 2 1 2 3
M  V30 3 2 3 4
M  V30 4 1 4 5
M  V30 5 2 5 6
M  V30 6 1 6 7
M  V30 7 1 7 8
M  V30 8 1 8 9
M  V30 9 2 9 10
M  V30 10 1 10 11
M  V30 11 1 11 12
M  V30 12 1 12 13
M  V30 13 1 13 14
M  V30 14 1 14 15
M  V30 15 1 14 16
M  V30 16 1 14 17
M  V30 17 1 10 18
M  V30 18 1 18 19
M  V30 19 2 19 20
M  V30 20 1 20 21
M  V30 21 1 21 22
M  V30 22 2 22 23
M  V30 23 1 23 24
M  V30 24 2 24 25
M  V30 25 1 25 26
M  V30 26 2 26 27
M  V30 27 1 26 28
M  V30 28 1 28 29
M  V30 29 1 29 30
M  V30 30 1 30 31
M  V30 31 1 25 32
M  V30 32 1 32 33
M  V30 33 2 32 34
M  V30 34 2 21 35
M  V30 35 1 35 36
M  V30 36 1 6 37
M  V30 37 1 37 38
M  V30 38 2 37 39
M  V30 39 1 39 40
M  V30 40 1 39 3
M  V30 41 2 36 8
M  V30 42 1 35 18
M  V30 43 1 34 22
M  V30 44 1 31 29
M  V30 45 1 1 41
M  V30 46 1 1 42
M  V30 47 1 1 43
M  V30 48 1 4 44
M  V30 49 1 5 45
M  V30 50 1 9 46
M  V30 51 1 11 47
M  V30 52 1 12 48
M  V30 53 1 12 49
M  V30 54 1 13 50
M  V30 55 1 13 51
M  V30 56 1 20 52
M  V30 57 1 23 53
M  V30 58 1 24 54
M  V30 59 1 28 55
M  V30 60 1 29 56
M  V30 61 1 30 57
M  V30 62 1 30 58
M  V30 63 1 31 59
M  V30 64 1 31 60
M  V30 65 1 33 61
M  V30 66 1 33 62
M  V30 67 1 33 63
M  V30 68 1 34 64
M  V30 END BOND
M  V30 END CTAB
M  END
>  <Dataset>  (451) 
ChEMBL_Kinases

>  <Ligand_Instance>  (451) 
nan

>  <PDB_ID>  (451) 
nan

>  <Standardized_SMILES>  (451) 
COc1ccc(Oc2cc(NCCC(F)(F)F)n3ncc(-c4ccc(C(=O)NC5CC5)c(C)c4)c3n2)c(F)c1F

>  <Name>  (451) 
nan

>  <Pocket>  (451) 
nan

>  <ATP_Site>  (451) 
nan

>  <Peripheral>  (451) 
nan

>  <Num_H_Atoms_ProtBoundConf>  (451) 
nan

>  <Num_Resolved_Atoms>  (451) 
nan

>  <Num_Not_Resolved_Atoms>  (451) 
nan

$$$$
CHEMBL4640268
     RDKit          3D

  0  0  0  0  0  0  0  0  0  0999 V3000
M  V30 BEGIN CTAB
M  V30 COUNTS 55 59 0 0 0
M  V30 BEGIN ATOM
M  V30 1 C 1.094209 0.334863 3.129790 0
M  V30 2 N 0.389487 -0.897844 3.185419 0
M  V30 3 C -0.707991 -0.873841 3.985518 0
M  V30 4 C 1.293720 -1.981835 2.832524 0
M  V30 5 C 0.966552 -2.340684 3.308216 0
M  V30 6 C 0.158342 -2.260902 2.074604 0
M  V30 7 N 0.450596 -1.510657 0.885821 0
M  V30 8 C 0.051216 -0.481017 0.040650 0
M  V30 9 N 0.804480 0.636756 0.037318 0
M  V30 10 C 0.636336 1.733818 -0.614709 0
M  V30 11 C 1.494053 2.892216 -0.562387 0
M  V30 12 C 1.258559 4.037602 -1.286555 0
M  V30 13 C 2.191285 5.066130 -1.117601 0
M  V30 14 N 3.264526 4.951807 -0.293712 0
M  V30 15 C 3.471155 3.817768 0.404282 0
M  V30 16 C 2.582860 2.762577 0.280071 0
M  V30 17 N -0.449602 1.758058 -1.403431 0
M  V30 18 C -1.251007 0.692509 -1.461657 0
M  V30 19 S -2.780872 0.459042 -2.454689 0
M  V30 20 C -3.042843 -1.196105 -1.847368 0
M  V30 21 C -2.015686 -1.459411 -0.978612 0
M  V30 22 C -1.089881 -0.505163 -0.766761 0
M  V30 23 C -2.285984 -2.826144 -0.555350 0
M  V30 24 C -2.361431 -3.734718 -1.760995 0
M  V30 25 C -3.540359 -3.413519 -2.631852 0
M  V30 26 C -4.176377 -2.092339 -2.223883 0
M  V30 27 C 1.624554 -1.987362 0.264991 0
M  V30 28 C 1.839658 -2.631417 1.592820 0
M  V30 29 H 1.288163 0.551863 4.210396 0
M  V30 30 H 0.519124 1.192065 2.757104 0
M  V30 31 H 1.988756 0.204087 2.523700 0
M  V30 32 H -1.492508 -0.119705 3.600675 0
M  V30 33 H -1.168145 -1.819661 4.176385 0
M  V30 34 H -0.398871 -0.395510 4.938868 0
M  V30 35 H 2.298278 -1.620939 3.417487 0
M  V30 36 H 0.651074 -2.301725 4.380650 0
M  V30 37 H 1.385117 -3.409116 3.538853 0
M  V30 38 H -0.845617 -1.959175 1.902956 0
M  V30 39 H -0.204118 -3.314953 1.773958 0
M  V30 40 H 0.409181 4.112682 -1.931147 0
M  V30 41 H 2.058139 5.994859 -1.663417 0
M  V30 42 H 4.337532 3.753719 1.055676 0
M  V30 43 H 2.828272 1.894789 0.876691 0
M  V30 44 H -1.655787 -3.313350 0.117065 0
M  V30 45 H -3.281681 -2.894586 -0.017564 0
M  V30 46 H -2.434981 -4.787755 -1.431328 0
M  V30 47 H -1.437694 -3.649066 -2.365969 0
M  V30 48 H -4.305746 -4.181600 -2.479152 0
M  V30 49 H -3.242310 -3.356105 -3.676338 0
M  V30 50 H -4.691514 -1.704028 -3.096464 0
M  V30 51 H -4.812825 -2.186529 -1.325659 0
M  V30 52 H 2.431866 -1.411079 -0.066652 0
M  V30 53 H 1.338623 -2.785398 -0.489630 0
M  V30 54 H 1.638440 -3.738719 1.564865 0
M  V30 55 H 2.874761 -2.646190 1.752773 0
M  V30 END ATOM
M  V30 BEGIN BOND
M  V30 1 1 1 2
M  V30 2 1 2 3
M  V30 3 1 2 4
M  V30 4 1 4 5
M  V30 5 1 5 6
M  V30 6 1 6 7
M  V30 7 1 7 8
M  V30 8 2 8 9
M  V30 9 1 9 10
M  V30 10 1 10 11
M  V30 11 2 11 12
M  V30 12 1 12 13
M  V30 13 2 13 14
M  V30 14 1 14 15
M  V30 15 2 15 16
M  V30 16 2 10 17
M  V30 17 1 17 18
M  V30 18 1 18 19
M  V30 19 1 19 20
M  V30 20 2 20 21
M  V30 21 1 21 22
M  V30 22 1 21 23
M  V30 23 1 23 24
M  V30 24 1 24 25
M  V30 25 1 25 26
M  V30 26 1 7 27
M  V30 27 1 27 28
M  V30 28 1 28 4
M  V30 29 1 22 8
M  V30 30 1 16 11
M  V30 31 2 22 18
M  V30 32 1 26 20
M  V30 33 1 1 29
M  V30 34 1 1 30
M  V30 35 1 1 31
M  V30 36 1 3 32
M  V30 37 1 3 33
M  V30 38 1 3 34
M  V30 39 1 4 35
M  V30 40 1 5 36
M  V30 41 1 5 37
M  V30 42 1 6 38
M  V30 43 1 6 39
M  V30 44 1 12 40
M  V30 45 1 13 41
M  V30 46 1 15 42
M  V30 47 1 16 43
M  V30 48 1 23 44
M  V30 49 1 23 45
M  V30 50 1 24 46
M  V30 51 1 24 47
M  V30 52 1 25 48
M  V30 53 1 25 49
M  V30 54 1 26 50
M  V30 55 1 26 51
M  V30 56 1 27 52
M  V30 57 1 27 53
M  V30 58 1 28 54
M  V30 59 1 28 55
M  V30 END BOND
M  V30 END CTAB
M  END
>  <Dataset>  (452) 
ChEMBL_Kinases

>  <Ligand_Instance>  (452) 
nan

>  <PDB_ID>  (452) 
nan

>  <Standardized_SMILES>  (452) 
CN(C)C1CCN(c2nc(-c3ccncc3)nc3sc4c(c23)CCCC4)CC1

>  <Name>  (452) 
nan

>  <Pocket>  (452) 
nan

>  <ATP_Site>  (452) 
nan

>  <Peripheral>  (452) 
nan

>  <Num_H_Atoms_ProtBoundConf>  (452) 
nan

>  <Num_Resolved_Atoms>  (452) 
nan

>  <Num_Not_Resolved_Atoms>  (452) 
nan

$$$$
CHEMBL4541788
     RDKit          3D

  0  0  0  0  0  0  0  0  0  0999 V3000
M  V30 BEGIN CTAB
M  V30 COUNTS 70 75 0 0 0
M  V30 BEGIN ATOM
M  V30 1 C 4.009535 -1.979036 2.812598 0
M  V30 2 C 3.600717 -0.641761 2.371898 0
M  V30 3 C 2.724837 -0.540412 1.318029 0
M  V30 4 C 2.351153 0.740085 0.982400 0
M  V30 5 C 1.364151 1.056144 -0.070023 0
M  V30 6 C 1.204540 1.952657 -1.095686 0
M  V30 7 N -0.009193 1.729030 -1.648959 0
M  V30 8 N -0.597874 0.744757 -1.015798 0
M  V30 9 C -1.805800 0.228046 -1.250630 0
M  V30 10 N -2.773639 0.666640 -2.192162 0
M  V30 11 C -4.025310 0.065771 -2.533392 0
M  V30 12 C -3.986498 -1.063176 -3.513093 0
M  V30 13 N -3.559299 -0.748783 -4.803282 0
M  V30 14 C -4.437834 0.105624 -5.566458 0
M  V30 15 C -3.863390 1.399562 -6.002856 0
M  V30 16 O -2.503272 1.424839 -6.112413 0
M  V30 17 C -2.040711 0.149726 -6.458437 0
M  V30 18 C -2.215275 -0.731233 -5.217386 0
M  V30 19 C -2.290489 -0.817533 -0.487038 0
M  V30 20 C -1.501905 -1.320512 0.531934 0
M  V30 21 O -1.528972 -2.288868 1.513707 0
M  V30 22 C -2.634982 -3.087060 1.652853 0
M  V30 23 C -2.995047 -4.304904 1.102578 0
M  V30 24 C -4.207000 -4.895648 1.429880 0
M  V30 25 C -5.115821 -4.340992 2.296243 0
M  V30 26 C -4.753005 -3.113118 2.853495 0
M  V30 27 F -5.682168 -2.601124 3.702062 0
M  V30 28 C -3.552951 -2.502445 2.543956 0
M  V30 29 N -0.276802 -0.756669 0.730444 0
M  V30 30 C 0.186374 0.272646 -0.030886 0
M  V30 31 C 2.810378 1.878150 1.631084 0
M  V30 32 C 3.688450 1.670955 2.674032 0
M  V30 33 C 4.110210 0.424463 3.083467 0
M  V30 34 C 4.938780 0.433516 4.217189 0
M  V30 35 O 5.507440 1.546675 4.605066 0
M  V30 36 N 5.463420 -0.369292 5.225033 0
M  V30 37 C 6.347750 0.069950 6.308280 0
M  V30 38 C 6.482998 -0.869678 7.485749 0
M  V30 39 C 5.600637 0.358736 7.601067 0
M  V30 40 H 3.709945 -2.718667 2.007808 0
M  V30 41 H 3.497136 -2.336240 3.704489 0
M  V30 42 H 5.121300 -2.040106 2.820449 0
M  V30 43 H 2.342410 -1.385330 0.771449 0
M  V30 44 H 2.015477 2.648461 -1.291844 0
M  V30 45 H -2.480695 1.574651 -2.667257 0
M  V30 46 H -4.488932 -0.355704 -1.589479 0
M  V30 47 H -4.785299 0.835887 -2.843284 0
M  V30 48 H -5.019365 -1.476046 -3.551453 0
M  V30 49 H -3.345602 -1.876426 -3.098099 0
M  V30 50 H -4.710271 -0.478334 -6.504438 0
M  V30 51 H -5.388100 0.193340 -5.010525 0
M  V30 52 H -4.164728 2.215166 -5.287872 0
M  V30 53 H -4.272487 1.729453 -6.989194 0
M  V30 54 H -2.660291 -0.265371 -7.281453 0
M  V30 55 H -0.984272 0.207148 -6.695906 0
M  V30 56 H -1.523662 -0.462934 -4.415400 0
M  V30 57 H -1.930268 -1.754061 -5.595231 0
M  V30 58 H -3.202859 -1.408950 -0.461554 0
M  V30 59 H -2.225276 -4.659698 0.450474 0
M  V30 60 H -4.379105 -5.842847 0.940671 0
M  V30 61 H -6.012317 -4.914094 2.453704 0
M  V30 62 H -3.433281 -1.537530 3.070224 0
M  V30 63 H 2.506722 2.878966 1.353006 0
M  V30 64 H 4.016141 2.603361 3.149421 0
M  V30 65 H 5.090342 -1.365577 5.078787 0
M  V30 66 H 7.058841 0.846150 6.087388 0
M  V30 67 H 7.404009 -0.891302 8.095178 0
M  V30 68 H 6.013535 -1.870601 7.391084 0
M  V30 69 H 5.961610 1.166687 8.229132 0
M  V30 70 H 4.516978 0.160502 7.623687 0
M  V30 END ATOM
M  V30 BEGIN BOND
M  V30 1 1 1 2
M  V30 2 2 2 3
M  V30 3 1 3 4
M  V30 4 1 4 5
M  V30 5 1 5 6
M  V30 6 2 6 7
M  V30 7 1 7 8
M  V30 8 1 8 9
M  V30 9 1 9 10
M  V30 10 1 10 11
M  V30 11 1 11 12
M  V30 12 1 12 13
M  V30 13 1 13 14
M  V30 14 1 14 15
M  V30 15 1 15 16
M  V30 16 1 16 17
M  V30 17 1 17 18
M  V30 18 2 9 19
M  V30 19 1 19 20
M  V30 20 1 20 21
M  V30 21 1 21 22
M  V30 22 2 22 23
M  V30 23 1 23 24
M  V30 24 2 24 25
M  V30 25 1 25 26
M  V30 26 1 26 27
M  V30 27 2 26 28
M  V30 28 2 20 29
M  V30 29 1 29 30
M  V30 30 2 4 31
M  V30 31 1 31 32
M  V30 32 2 32 33
M  V30 33 1 33 34
M  V30 34 2 34 35
M  V30 35 1 34 36
M  V30 36 1 36 37
M  V30 37 1 37 38
M  V30 38 1 38 39
M  V30 39 1 33 2
M  V30 40 1 39 37
M  V30 41 2 30 5
M  V30 42 1 30 8
M  V30 43 1 18 13
M  V30 44 1 28 22
M  V30 45 1 1 40
M  V30 46 1 1 41
M  V30 47 1 1 42
M  V30 48 1 3 43
M  V30 49 1 6 44
M  V30 50 1 10 45
M  V30 51 1 11 46
M  V30 52 1 11 47
M  V30 53 1 12 48
M  V30 54 1 12 49
M  V30 55 1 14 50
M  V30 56 1 14 51
M  V30 57 1 15 52
M  V30 58 1 15 53
M  V30 59 1 17 54
M  V30 60 1 17 55
M  V30 61 1 18 56
M  V30 62 1 18 57
M  V30 63 1 19 58
M  V30 64 1 23 59
M  V30 65 1 24 60
M  V30 66 1 25 61
M  V30 67 1 28 62
M  V30 68 1 31 63
M  V30 69 1 32 64
M  V30 70 1 36 65
M  V30 71 1 37 66
M  V30 72 1 38 67
M  V30 73 1 38 68
M  V30 74 1 39 69
M  V30 75 1 39 70
M  V30 END BOND
M  V30 END CTAB
M  END
>  <Dataset>  (453) 
ChEMBL_Kinases

>  <Ligand_Instance>  (453) 
nan

>  <PDB_ID>  (453) 
nan

>  <Standardized_SMILES>  (453) 
Cc1cc(-c2cnn3c(NCCN4CCOCC4)cc(Oc4cccc(F)c4)nc23)ccc1C(=O)NC1CC1

>  <Name>  (453) 
nan

>  <Pocket>  (453) 
nan

>  <ATP_Site>  (453) 
nan

>  <Peripheral>  (453) 
nan

>  <Num_H_Atoms_ProtBoundConf>  (453) 
nan

>  <Num_Resolved_Atoms>  (453) 
nan

>  <Num_Not_Resolved_Atoms>  (453) 
nan

$$$$
CHEMBL4541641
     RDKit          3D

  0  0  0  0  0  0  0  0  0  0999 V3000
M  V30 BEGIN CTAB
M  V30 COUNTS 91 93 0 0 0
M  V30 BEGIN ATOM
M  V30 1 C -1.539704 -6.401103 7.264850 0
M  V30 2 C -0.365274 -6.787821 6.427214 0
M  V30 3 C 0.021743 -5.758308 5.389206 0
M  V30 4 C 0.396624 -4.426319 5.979446 0
M  V30 5 C 0.759204 -3.493360 4.825406 0
M  V30 6 C 1.155609 -2.121535 5.310801 0
M  V30 7 C 1.508930 -1.183734 4.177439 0
M  V30 8 C 0.315634 -1.030226 3.302664 0
M  V30 9 O -0.862527 -1.418490 3.248747 0
M  V30 10 O 0.566808 -0.212169 2.213333 0
M  V30 11 C -0.322572 0.133237 1.222834 0 CFG=1
M  V30 12 C -0.642674 1.599011 1.222245 0
M  V30 13 C -0.174587 2.365089 2.180409 0
M  V30 14 C -0.383969 3.789665 2.334330 0
M  V30 15 O 0.062883 4.527605 3.250008 0
M  V30 16 O -0.996455 4.860848 1.763856 0
M  V30 17 C -0.883450 6.136246 2.356647 0
M  V30 18 C -1.470499 2.206403 0.169671 0
M  V30 19 C -1.222522 1.528336 -1.135760 0 CFG=1
M  V30 20 C -0.445335 2.497202 -1.983385 0
M  V30 21 C -1.281011 3.349541 -2.921633 0 CFG=2
M  V30 22 C -2.231312 4.274209 -2.285911 0
M  V30 23 O -3.306975 3.656720 -1.656513 0
M  V30 24 O -1.911400 2.565472 -3.898355 0
M  V30 25 C -1.461964 2.414332 -5.176220 0
M  V30 26 O -0.396902 3.056381 -5.315783 0
M  V30 27 C -1.598063 1.854000 -6.537293 0
M  V30 28 C -0.235982 1.895321 -7.200603 0
M  V30 29 O 0.637175 1.001867 -6.494836 0
M  V30 30 C 0.338878 -0.357392 -6.407549 0
M  V30 31 C -0.125324 -0.829590 -7.599425 0
M  V30 32 C -0.485991 -2.138346 -7.757676 0
M  V30 33 C -0.424198 -3.096355 -6.770016 0
M  V30 34 C 0.057813 -2.563535 -5.569083 0
M  V30 35 C 0.442235 -1.227230 -5.352049 0
M  V30 36 C 0.865455 -1.126922 -4.000851 0
M  V30 37 O 1.693501 -1.978901 -3.534923 0
M  V30 38 O 0.939263 -0.627498 -2.759029 0
M  V30 39 C 1.715302 -1.144655 -1.706177 0
M  V30 40 C 1.513848 -0.307632 -0.461415 0
M  V30 41 C 2.331486 -0.982281 0.620389 0
M  V30 42 C 2.142622 1.050785 -0.674700 0
M  V30 43 C 0.033933 -0.259148 -0.174409 0 CFG=1
M  V30 44 O -0.365623 -1.627774 -0.259692 0
M  V30 45 O -0.591988 0.347324 -1.168775 0
M  V30 46 H -1.456757 -6.796462 8.320154 0
M  V30 47 H -2.448078 -6.887021 6.807024 0
M  V30 48 H -1.753918 -5.325295 7.273408 0
M  V30 49 H 0.488064 -7.005795 7.115016 0
M  V30 50 H -0.572432 -7.728338 5.886533 0
M  V30 51 H -0.785022 -5.641639 4.647506 0
M  V30 52 H 0.893306 -6.178720 4.846529 0
M  V30 53 H 1.308975 -4.555941 6.595586 0
M  V30 54 H -0.379724 -3.983663 6.596741 0
M  V30 55 H 1.608756 -3.919007 4.237881 0
M  V30 56 H -0.103925 -3.417272 4.156047 0
M  V30 57 H 0.302682 -1.651398 5.866320 0
M  V30 58 H 1.969620 -2.212538 6.056564 0
M  V30 59 H 2.398073 -1.511192 3.619254 0
M  V30 60 H 1.772285 -0.213530 4.650527 0
M  V30 61 H -1.316336 -0.352581 1.450763 0
M  V30 62 H 0.437512 1.950907 2.969658 0
M  V30 63 H -1.294090 6.172917 3.397403 0
M  V30 64 H -1.537353 6.826653 1.767276 0
M  V30 65 H 0.161924 6.497183 2.416861 0
M  V30 66 H -1.266317 3.272741 0.126017 0
M  V30 67 H -2.548634 2.093737 0.472793 0
M  V30 68 H -2.206654 1.393677 -1.638950 0
M  V30 69 H 0.270230 1.975201 -2.673814 0
M  V30 70 H 0.139573 3.208018 -1.364630 0
M  V30 71 H -0.470568 3.948412 -3.440107 0
M  V30 72 H -2.681298 4.898166 -3.099168 0
M  V30 73 H -1.749704 5.019849 -1.616442 0
M  V30 74 H -3.773044 3.127959 -2.377437 0
M  V30 75 H -2.055848 0.859032 -6.532331 0
M  V30 76 H -2.310869 2.531592 -7.087794 0
M  V30 77 H 0.182122 2.910186 -7.070105 0
M  V30 78 H -0.364767 1.641558 -8.256656 0
M  V30 79 H -0.259235 -0.286855 -8.512705 0
M  V30 80 H -0.864713 -2.540933 -8.710177 0
M  V30 81 H -0.713251 -4.107269 -6.923437 0
M  V30 82 H 0.096226 -3.349697 -4.802417 0
M  V30 83 H 2.801907 -1.226801 -1.951674 0
M  V30 84 H 1.364857 -2.177164 -1.431504 0
M  V30 85 H 1.898940 -1.881510 1.042542 0
M  V30 86 H 3.274643 -1.337595 0.102532 0
M  V30 87 H 2.716851 -0.234743 1.343570 0
M  V30 88 H 2.300937 1.227478 -1.759192 0
M  V30 89 H 1.658762 1.855671 -0.126527 0
M  V30 90 H 3.201696 1.028545 -0.266610 0
M  V30 91 H -0.138337 -2.106294 0.551292 0
M  V30 END ATOM
M  V30 BEGIN BOND
M  V30 1 1 1 2
M  V30 2 1 2 3
M  V30 3 1 3 4
M  V30 4 1 4 5
M  V30 5 1 5 6
M  V30 6 1 6 7
M  V30 7 1 7 8
M  V30 8 2 8 9
M  V30 9 1 8 10
M  V30 10 1 10 11
M  V30 11 1 11 12
M  V30 12 2 12 13
M  V30 13 1 13 14
M  V30 14 2 14 15
M  V30 15 1 14 16
M  V30 16 1 16 17
M  V30 17 1 12 18
M  V30 18 1 18 19
M  V30 19 1 19 20
M  V30 20 1 20 21
M  V30 21 1 21 22
M  V30 22 1 22 23
M  V30 23 1 21 24
M  V30 24 1 24 25
M  V30 25 2 25 26
M  V30 26 1 25 27
M  V30 27 1 27 28
M  V30 28 1 28 29
M  V30 29 1 29 30
M  V30 30 2 30 31
M  V30 31 1 31 32
M  V30 32 2 32 33
M  V30 33 1 33 34
M  V30 34 2 34 35
M  V30 35 1 35 36
M  V30 36 2 36 37
M  V30 37 1 36 38
M  V30 38 1 38 39
M  V30 39 1 39 40
M  V30 40 1 40 41
M  V30 41 1 40 42
M  V30 42 1 40 43
M  V30 43 1 43 44 CFG=1
M  V30 44 1 43 45
M  V30 45 1 43 11
M  V30 46 1 45 19
M  V30 47 1 35 30
M  V30 48 1 1 46
M  V30 49 1 1 47
M  V30 50 1 1 48
M  V30 51 1 2 49
M  V30 52 1 2 50
M  V30 53 1 3 51
M  V30 54 1 3 52
M  V30 55 1 4 53
M  V30 56 1 4 54
M  V30 57 1 5 55
M  V30 58 1 5 56
M  V30 59 1 6 57
M  V30 60 1 6 58
M  V30 61 1 7 59
M  V30 62 1 7 60
M  V30 63 1 11 61 CFG=1
M  V30 64 1 13 62
M  V30 65 1 17 63
M  V30 66 1 17 64
M  V30 67 1 17 65
M  V30 68 1 18 66
M  V30 69 1 18 67
M  V30 70 1 19 68 CFG=3
M  V30 71 1 20 69
M  V30 72 1 20 70
M  V30 73 1 21 71 CFG=3
M  V30 74 1 22 72
M  V30 75 1 22 73
M  V30 76 1 23 74
M  V30 77 1 27 75
M  V30 78 1 27 76
M  V30 79 1 28 77
M  V30 80 1 28 78
M  V30 81 1 31 79
M  V30 82 1 32 80
M  V30 83 1 33 81
M  V30 84 1 34 82
M  V30 85 1 39 83
M  V30 86 1 39 84
M  V30 87 1 41 85
M  V30 88 1 41 86
M  V30 89 1 41 87
M  V30 90 1 42 88
M  V30 91 1 42 89
M  V30 92 1 42 90
M  V30 93 1 44 91
M  V30 END BOND
M  V30 END CTAB
M  END
>  <Dataset>  (454) 
ChEMBL_Kinases

>  <Ligand_Instance>  (454) 
nan

>  <PDB_ID>  (454) 
nan

>  <Standardized_SMILES>  (454) 
CCCCCCCC(=O)O[C@H]1/C(=C/C(=O)OC)C[C@H]2C[C@H](CO)OC(=O)CCOc3ccccc3C(=O)OCC(C)(C)[C@]1(O)O2

>  <Name>  (454) 
nan

>  <Pocket>  (454) 
nan

>  <ATP_Site>  (454) 
nan

>  <Peripheral>  (454) 
nan

>  <Num_H_Atoms_ProtBoundConf>  (454) 
nan

>  <Num_Resolved_Atoms>  (454) 
nan

>  <Num_Not_Resolved_Atoms>  (454) 
nan

$$$$
CHEMBL4640297
     RDKit          3D

  0  0  0  0  0  0  0  0  0  0999 V3000
M  V30 BEGIN CTAB
M  V30 COUNTS 64 69 0 0 0
M  V30 BEGIN ATOM
M  V30 1 C 6.210458 -3.274146 3.633371 0
M  V30 2 C 5.218109 -3.007426 2.562407 0
M  V30 3 C 5.163039 -3.753636 1.387486 0
M  V30 4 C 4.200881 -3.448669 0.416734 0
M  V30 5 C 3.289668 -2.425215 0.573986 0
M  V30 6 C 2.326988 -2.186116 -0.494689 0
M  V30 7 O 2.406004 -2.956826 -1.483546 0
M  V30 8 N 1.342071 -1.179204 -0.495397 0
M  V30 9 C 0.377795 -0.866133 -1.459612 0
M  V30 10 C 0.171320 -1.494371 -2.656004 0
M  V30 11 C -0.784345 -1.170624 -3.595000 0
M  V30 12 C -1.633171 -0.102165 -3.318168 0
M  V30 13 C -2.671943 0.276953 -4.279243 0
M  V30 14 N -3.985583 -0.109804 -4.029949 0
M  V30 15 C -5.013625 0.267614 -4.922754 0
M  V30 16 C -6.396124 0.053281 -4.339481 0
M  V30 17 C -6.534718 -1.332874 -3.772577 0
M  V30 18 C -7.793988 -1.385496 -2.977901 0
M  V30 19 N -7.628051 -1.449687 -1.687737 0
M  V30 20 N -6.233063 -1.446342 -1.492992 0
M  V30 21 C -5.480307 -1.577135 -2.750384 0
M  V30 22 C -4.427496 -0.491123 -2.757435 0
M  V30 23 C -1.457806 0.559508 -2.121160 0
M  V30 24 Cl -2.468843 1.923964 -1.687680 0
M  V30 25 C -0.481351 0.183397 -1.225595 0
M  V30 26 C 3.387133 -1.717637 1.754688 0
M  V30 27 C 4.310142 -1.982111 2.727348 0
M  V30 28 C 4.291321 -1.147939 3.922026 0
M  V30 29 C 4.268439 -0.471132 4.921207 0
M  V30 30 C 4.231640 0.322252 6.128453 0
M  V30 31 C 5.113010 0.384072 7.174372 0
M  V30 32 N 4.577617 1.287425 8.016329 0
M  V30 33 C 3.416384 1.775762 7.532996 0
M  V30 34 C 2.577794 2.707396 8.092908 0
M  V30 35 C 1.427541 3.038048 7.373745 0
M  V30 36 C 1.214931 2.404496 6.150184 0
M  V30 37 N 2.082380 1.509349 5.678599 0
M  V30 38 N 3.191157 1.176529 6.349723 0
M  V30 39 H 5.699658 -3.283890 4.633751 0
M  V30 40 H 6.927619 -2.419305 3.683543 0
M  V30 41 H 6.702199 -4.251720 3.525326 0
M  V30 42 H 5.877018 -4.549468 1.272785 0
M  V30 43 H 4.251771 -4.092879 -0.452683 0
M  V30 44 H 1.395159 -0.619664 0.382936 0
M  V30 45 H 0.785907 -2.325572 -2.938081 0
M  V30 46 H -0.906342 -1.696404 -4.521666 0
M  V30 47 H -2.359899 -0.119424 -5.291426 0
M  V30 48 H -2.596648 1.396112 -4.428483 0
M  V30 49 H -4.918506 -0.220252 -5.907433 0
M  V30 50 H -4.896854 1.375362 -5.104365 0
M  V30 51 H -6.657383 0.827673 -3.610455 0
M  V30 52 H -7.119538 0.129887 -5.188767 0
M  V30 53 H -6.520310 -2.081134 -4.589648 0
M  V30 54 H -8.702740 -1.362819 -3.593656 0
M  V30 55 H -5.882302 -1.354443 -0.507702 0
M  V30 56 H -5.076578 -2.597886 -2.729360 0
M  V30 57 H -4.957925 0.402119 -2.309112 0
M  V30 58 H -3.666990 -0.791141 -2.039917 0
M  V30 59 H -0.380064 0.743220 -0.281256 0
M  V30 60 H 2.690321 -0.914226 1.905642 0
M  V30 61 H 6.010844 -0.196195 7.230153 0
M  V30 62 H 2.692739 3.218390 9.019775 0
M  V30 63 H 0.642224 3.753866 7.652852 0
M  V30 64 H 0.371680 2.550176 5.471704 0
M  V30 END ATOM
M  V30 BEGIN BOND
M  V30 1 1 1 2
M  V30 2 2 2 3
M  V30 3 1 3 4
M  V30 4 2 4 5
M  V30 5 1 5 6
M  V30 6 2 6 7
M  V30 7 1 6 8
M  V30 8 1 8 9
M  V30 9 2 9 10
M  V30 10 1 10 11
M  V30 11 2 11 12
M  V30 12 1 12 13
M  V30 13 1 13 14
M  V30 14 1 14 15
M  V30 15 1 15 16
M  V30 16 1 16 17
M  V30 17 1 17 18
M  V30 18 2 18 19
M  V30 19 1 19 20
M  V30 20 1 20 21
M  V30 21 1 21 22
M  V30 22 1 12 23
M  V30 23 1 23 24
M  V30 24 2 23 25
M  V30 25 1 5 26
M  V30 26 2 26 27
M  V30 27 1 27 28
M  V30 28 3 28 29
M  V30 29 1 29 30
M  V30 30 2 30 31
M  V30 31 1 31 32
M  V30 32 2 32 33
M  V30 33 1 33 34
M  V30 34 2 34 35
M  V30 35 1 35 36
M  V30 36 2 36 37
M  V30 37 1 37 38
M  V30 38 1 27 2
M  V30 39 1 38 30
M  V30 40 1 25 9
M  V30 41 1 38 33
M  V30 42 1 22 14
M  V30 43 1 21 17
M  V30 44 1 1 39
M  V30 45 1 1 40
M  V30 46 1 1 41
M  V30 47 1 3 42
M  V30 48 1 4 43
M  V30 49 1 8 44
M  V30 50 1 10 45
M  V30 51 1 11 46
M  V30 52 1 13 47
M  V30 53 1 13 48
M  V30 54 1 15 49
M  V30 55 1 15 50
M  V30 56 1 16 51
M  V30 57 1 16 52
M  V30 58 1 17 53
M  V30 59 1 18 54
M  V30 60 1 20 55
M  V30 61 1 21 56
M  V30 62 1 22 57
M  V30 63 1 22 58
M  V30 64 1 25 59
M  V30 65 1 26 60
M  V30 66 1 31 61
M  V30 67 1 34 62
M  V30 68 1 35 63
M  V30 69 1 36 64
M  V30 END BOND
M  V30 END CTAB
M  END
>  <Dataset>  (455) 
ChEMBL_Kinases

>  <Ligand_Instance>  (455) 
nan

>  <PDB_ID>  (455) 
nan

>  <Standardized_SMILES>  (455) 
Cc1ccc(C(=O)Nc2ccc(CN3CCC4C=NNC4C3)c(Cl)c2)cc1C#Cc1cnc2cccnn12

>  <Name>  (455) 
nan

>  <Pocket>  (455) 
nan

>  <ATP_Site>  (455) 
nan

>  <Peripheral>  (455) 
nan

>  <Num_H_Atoms_ProtBoundConf>  (455) 
nan

>  <Num_Resolved_Atoms>  (455) 
nan

>  <Num_Not_Resolved_Atoms>  (455) 
nan

$$$$
CHEMBL4541595
     RDKit          3D

  0  0  0  0  0  0  0  0  0  0999 V3000
M  V30 BEGIN CTAB
M  V30 COUNTS 61 65 0 0 0
M  V30 BEGIN ATOM
M  V30 1 C 2.514155 -2.915009 3.343654 0
M  V30 2 C 2.825720 -1.746637 4.263382 0
M  V30 3 C 1.499551 -1.343149 4.897528 0
M  V30 4 N 3.188394 -0.621858 3.389201 0
M  V30 5 N 4.147231 0.314681 3.469800 0
M  V30 6 N 4.048630 1.110906 2.418151 0
M  V30 7 C 3.019912 0.696106 1.641949 0
M  V30 8 C 2.381089 1.105669 0.387039 0
M  V30 9 C 3.023830 1.310109 -0.824373 0
M  V30 10 C 2.271706 1.691619 -1.907059 0
M  V30 11 O 2.881278 1.905490 -3.134114 0
M  V30 12 C 0.910305 1.887098 -1.872864 0
M  V30 13 C 0.237485 1.694070 -0.688146 0
M  V30 14 N -1.181244 1.862207 -0.468784 0
M  V30 15 C -1.972570 1.532281 0.651231 0
M  V30 16 N -1.778544 2.324004 1.719250 0
M  V30 17 C -2.514146 2.101117 2.822761 0
M  V30 18 N -3.431432 1.112078 2.877700 0
M  V30 19 N -3.621267 0.334338 1.825631 0
M  V30 20 C -4.478651 -0.696913 1.584421 0
M  V30 21 C -4.284352 -1.154561 0.282277 0
M  V30 22 C -3.284732 -0.387639 -0.287542 0
M  V30 23 C -2.784082 -0.655910 -1.638723 0
M  V30 24 N -1.747044 -1.644766 -1.609366 0
M  V30 25 C -2.231350 -2.927099 -2.129084 0
M  V30 26 C -1.126844 -3.886767 -2.398951 0
M  V30 27 C 0.179575 -3.494323 -1.757100 0
M  V30 28 N 0.964207 -2.626332 -2.614428 0
M  V30 29 C 0.003101 -2.867216 -0.405307 0
M  V30 30 C -1.095933 -1.843281 -0.341965 0
M  V30 31 C -2.915544 0.507569 0.695311 0
M  V30 32 C 1.012291 1.305763 0.408502 0
M  V30 33 N 2.522808 -0.373162 2.282148 0
M  V30 34 H 1.957623 -2.480732 2.470842 0
M  V30 35 H 3.391973 -3.467753 3.010173 0
M  V30 36 H 1.787560 -3.588344 3.869557 0
M  V30 37 H 3.608091 -1.961769 4.991622 0
M  V30 38 H 1.282169 -1.915814 5.814039 0
M  V30 39 H 1.450136 -0.234564 5.069491 0
M  V30 40 H 0.663608 -1.547158 4.187396 0
M  V30 41 H 4.078389 1.153079 -0.840606 0
M  V30 42 H 3.295171 1.152682 -3.678847 0
M  V30 43 H 0.317090 2.182056 -2.705045 0
M  V30 44 H -1.653134 2.311422 -1.297431 0
M  V30 45 H -2.498018 2.638636 3.781578 0
M  V30 46 H -5.190500 -1.096526 2.284086 0
M  V30 47 H -4.852268 -1.974717 -0.151939 0
M  V30 48 H -3.636903 -1.000493 -2.295044 0
M  V30 49 H -2.404430 0.245856 -2.152125 0
M  V30 50 H -2.893152 -3.346317 -1.349595 0
M  V30 51 H -2.854919 -2.687802 -3.007046 0
M  V30 52 H -1.380961 -4.935700 -2.135046 0
M  V30 53 H -0.929351 -3.889368 -3.499543 0
M  V30 54 H 0.764819 -4.421192 -1.609662 0
M  V30 55 H 1.964058 -2.879411 -2.641293 0
M  V30 56 H 0.759252 -1.626684 -2.486566 0
M  V30 57 H -0.075346 -3.635049 0.387637 0
M  V30 58 H 0.969500 -2.316991 -0.197754 0
M  V30 59 H -0.744680 -0.882181 0.037473 0
M  V30 60 H -1.876322 -2.218944 0.351224 0
M  V30 61 H 0.489201 1.152676 1.345720 0
M  V30 END ATOM
M  V30 BEGIN BOND
M  V30 1 1 1 2
M  V30 2 1 2 3
M  V30 3 1 2 4
M  V30 4 1 4 5
M  V30 5 2 5 6
M  V30 6 1 6 7
M  V30 7 1 7 8
M  V30 8 2 8 9
M  V30 9 1 9 10
M  V30 10 1 10 11
M  V30 11 2 10 12
M  V30 12 1 12 13
M  V30 13 1 13 14
M  V30 14 1 14 15
M  V30 15 2 15 16
M  V30 16 1 16 17
M  V30 17 2 17 18
M  V30 18 1 18 19
M  V30 19 1 19 20
M  V30 20 2 20 21
M  V30 21 1 21 22
M  V30 22 1 22 23
M  V30 23 1 23 24
M  V30 24 1 24 25
M  V30 25 1 25 26
M  V30 26 1 26 27
M  V30 27 1 27 28
M  V30 28 1 27 29
M  V30 29 1 29 30
M  V30 30 2 22 31
M  V30 31 2 13 32
M  V30 32 2 7 33
M  V30 33 1 33 4
M  V30 34 1 32 8
M  V30 35 1 31 15
M  V30 36 1 31 19
M  V30 37 1 30 24
M  V30 38 1 1 34
M  V30 39 1 1 35
M  V30 40 1 1 36
M  V30 41 1 2 37
M  V30 42 1 3 38
M  V30 43 1 3 39
M  V30 44 1 3 40
M  V30 45 1 9 41
M  V30 46 1 11 42
M  V30 47 1 12 43
M  V30 48 1 14 44
M  V30 49 1 17 45
M  V30 50 1 20 46
M  V30 51 1 21 47
M  V30 52 1 23 48
M  V30 53 1 23 49
M  V30 54 1 25 50
M  V30 55 1 25 51
M  V30 56 1 26 52
M  V30 57 1 26 53
M  V30 58 1 27 54
M  V30 59 1 28 55
M  V30 60 1 28 56
M  V30 61 1 29 57
M  V30 62 1 29 58
M  V30 63 1 30 59
M  V30 64 1 30 60
M  V30 65 1 32 61
M  V30 END BOND
M  V30 END CTAB
M  END
>  <Dataset>  (456) 
ChEMBL_Kinases

>  <Ligand_Instance>  (456) 
nan

>  <PDB_ID>  (456) 
nan

>  <Standardized_SMILES>  (456) 
CC(C)n1nnc(-c2cc(O)cc(Nc3ncnn4ccc(CN5CCC(N)CC5)c34)c2)n1

>  <Name>  (456) 
nan

>  <Pocket>  (456) 
nan

>  <ATP_Site>  (456) 
nan

>  <Peripheral>  (456) 
nan

>  <Num_H_Atoms_ProtBoundConf>  (456) 
nan

>  <Num_Resolved_Atoms>  (456) 
nan

>  <Num_Not_Resolved_Atoms>  (456) 
nan

$$$$
CHEMBL4541479
     RDKit          3D

  0  0  0  0  0  0  0  0  0  0999 V3000
M  V30 BEGIN CTAB
M  V30 COUNTS 86 91 0 0 0
M  V30 BEGIN ATOM
M  V30 1 C 4.158856 -6.307611 0.070847 0
M  V30 2 C 3.636560 -5.109572 -0.666402 0
M  V30 3 O 2.621085 -4.435562 0.041624 0
M  V30 4 C 1.984639 -3.298910 -0.434873 0
M  V30 5 C 2.336573 -2.771673 -1.656648 0
M  V30 6 C 1.755151 -1.647194 -2.202222 0
M  V30 7 C 2.245654 -1.225508 -3.508229 0
M  V30 8 O 3.516041 -1.084498 -3.484371 0
M  V30 9 N 1.386365 -1.015711 -4.618924 0
M  V30 10 C -0.043783 -1.115991 -4.845537 0
M  V30 11 C -0.505877 -0.180021 -5.922390 0
M  V30 12 C 0.230188 1.112906 -6.006967 0
M  V30 13 N -0.183371 2.096920 -5.075129 0
M  V30 14 C 0.477546 3.360909 -5.128352 0
M  V30 15 C 0.274380 4.169426 -3.873710 0
M  V30 16 N -1.127938 4.385847 -3.726537 0
M  V30 17 C -1.456320 5.244494 -2.606918 0
M  V30 18 C -1.973300 3.257015 -3.845621 0
M  V30 19 C -1.520729 2.106454 -4.643717 0
M  V30 20 C 1.703558 0.876887 -6.053302 0
M  V30 21 C 1.964141 -0.602159 -5.885769 0
M  V30 22 C 0.762669 -1.034194 -1.454676 0
M  V30 23 C 0.351377 -1.499379 -0.221220 0
M  V30 24 C 0.994198 -2.646149 0.257324 0
M  V30 25 N 0.621891 -3.179278 1.520865 0
M  V30 26 C -0.319360 -2.877195 2.539475 0
M  V30 27 N -1.486936 -3.545246 2.371362 0
M  V30 28 C -2.509700 -3.379672 3.256904 0
M  V30 29 C -2.321697 -2.521684 4.314416 0
M  V30 30 C -1.104501 -1.850748 4.454914 0
M  V30 31 N -0.102718 -2.034505 3.558228 0
M  V30 32 N -0.722587 -0.928684 5.506584 0
M  V30 33 S 0.955770 -0.772945 5.771618 0
M  V30 34 C 1.868937 -0.142283 4.407014 0
M  V30 35 O 1.365938 -0.260036 7.109835 0
M  V30 36 O 1.458126 -2.239370 5.863234 0
M  V30 37 C -1.601858 -0.150819 6.314164 0
M  V30 38 C -0.972858 1.029659 6.675923 0
M  V30 39 C -1.721740 1.865489 7.481811 0
M  V30 40 C -3.000290 1.551666 7.895491 0
M  V30 41 C -3.603883 0.370521 7.520039 0
M  V30 42 C -2.866848 -0.495617 6.702856 0
M  V30 43 C -3.671020 -1.689150 6.381284 0
M  V30 44 O -4.543870 -2.039770 7.207765 0
M  V30 45 N -3.471969 -2.436921 5.160028 0
M  V30 46 C -4.638416 -3.206510 4.758153 0
M  V30 47 H 3.523032 -7.202763 -0.051415 0
M  V30 48 H 4.340482 -6.064626 1.149862 0
M  V30 49 H 5.168607 -6.621663 -0.311852 0
M  V30 50 H 3.146037 -5.483458 -1.606436 0
M  V30 51 H 4.464934 -4.468322 -0.964920 0
M  V30 52 H 3.118405 -3.295896 -2.196763 0
M  V30 53 H -0.610053 -0.924514 -3.936530 0
M  V30 54 H -0.221902 -2.151530 -5.233066 0
M  V30 55 H -0.483291 -0.658426 -6.934289 0
M  V30 56 H -1.580732 0.030426 -5.741979 0
M  V30 57 H -0.027551 1.537550 -7.033444 0
M  V30 58 H -0.013883 3.944562 -5.938132 0
M  V30 59 H 1.514036 3.225488 -5.434361 0
M  V30 60 H 0.747809 5.153652 -4.043681 0
M  V30 61 H 0.738659 3.713464 -2.979926 0
M  V30 62 H -2.113968 6.096526 -2.887975 0
M  V30 63 H -0.503577 5.652036 -2.217429 0
M  V30 64 H -1.907668 4.647640 -1.786674 0
M  V30 65 H -2.950390 3.637200 -4.270100 0
M  V30 66 H -2.265088 2.971797 -2.789318 0
M  V30 67 H -1.705581 1.190926 -4.046280 0
M  V30 68 H -2.168340 1.969198 -5.558493 0
M  V30 69 H 2.205952 1.266582 -6.967283 0
M  V30 70 H 2.221750 1.358355 -5.182208 0
M  V30 71 H 1.579578 -1.144017 -6.758448 0
M  V30 72 H 3.069199 -0.744712 -5.887178 0
M  V30 73 H 0.316138 -0.168913 -1.870571 0
M  V30 74 H -0.424129 -0.986354 0.317335 0
M  V30 75 H 1.085936 -4.019421 1.930346 0
M  V30 76 H -3.422105 -3.912350 3.122636 0
M  V30 77 H 1.406040 0.761516 3.956225 0
M  V30 78 H 2.856309 0.203821 4.799922 0
M  V30 79 H 2.066343 -0.851827 3.605479 0
M  V30 80 H 0.010459 1.199536 6.298714 0
M  V30 81 H -1.255339 2.799078 7.782356 0
M  V30 82 H -3.583002 2.209608 8.526470 0
M  V30 83 H -4.596857 0.057930 7.803262 0
M  V30 84 H -5.025670 -2.925822 3.752772 0
M  V30 85 H -4.523518 -4.296784 4.915180 0
M  V30 86 H -5.507652 -2.937117 5.435325 0
M  V30 END ATOM
M  V30 BEGIN BOND
M  V30 1 1 1 2
M  V30 2 1 2 3
M  V30 3 1 3 4
M  V30 4 2 4 5
M  V30 5 1 5 6
M  V30 6 1 6 7
M  V30 7 2 7 8
M  V30 8 1 7 9
M  V30 9 1 9 10
M  V30 10 1 10 11
M  V30 11 1 11 12
M  V30 12 1 12 13
M  V30 13 1 13 14
M  V30 14 1 14 15
M  V30 15 1 15 16
M  V30 16 1 16 17
M  V30 17 1 16 18
M  V30 18 1 18 19
M  V30 19 1 12 20
M  V30 20 1 20 21
M  V30 21 2 6 22
M  V30 22 1 22 23
M  V30 23 2 23 24
M  V30 24 1 24 25
M  V30 25 1 25 26
M  V30 26 2 26 27
M  V30 27 1 27 28
M  V30 28 2 28 29
M  V30 29 1 29 30
M  V30 30 2 30 31
M  V30 31 1 30 32
M  V30 32 1 32 33
M  V30 33 1 33 34
M  V30 34 2 33 35
M  V30 35 2 33 36
M  V30 36 1 32 37
M  V30 37 2 37 38
M  V30 38 1 38 39
M  V30 39 2 39 40
M  V30 40 1 40 41
M  V30 41 2 41 42
M  V30 42 1 42 43
M  V30 43 2 43 44
M  V30 44 1 43 45
M  V30 45 1 45 46
M  V30 46 1 24 4
M  V30 47 1 31 26
M  V30 48 1 42 37
M  V30 49 1 21 9
M  V30 50 1 45 29
M  V30 51 1 19 13
M  V30 52 1 1 47
M  V30 53 1 1 48
M  V30 54 1 1 49
M  V30 55 1 2 50
M  V30 56 1 2 51
M  V30 57 1 5 52
M  V30 58 1 10 53
M  V30 59 1 10 54
M  V30 60 1 11 55
M  V30 61 1 11 56
M  V30 62 1 12 57
M  V30 63 1 14 58
M  V30 64 1 14 59
M  V30 65 1 15 60
M  V30 66 1 15 61
M  V30 67 1 17 62
M  V30 68 1 17 63
M  V30 69 1 17 64
M  V30 70 1 18 65
M  V30 71 1 18 66
M  V30 72 1 19 67
M  V30 73 1 19 68
M  V30 74 1 20 69
M  V30 75 1 20 70
M  V30 76 1 21 71
M  V30 77 1 21 72
M  V30 78 1 22 73
M  V30 79 1 23 74
M  V30 80 1 25 75
M  V30 81 1 28 76
M  V30 82 1 34 77
M  V30 83 1 34 78
M  V30 84 1 34 79
M  V30 85 1 38 80
M  V30 86 1 39 81
M  V30 87 1 40 82
M  V30 88 1 41 83
M  V30 89 1 46 84
M  V30 90 1 46 85
M  V30 91 1 46 86
M  V30 END BOND
M  V30 END CTAB
M  END
>  <Dataset>  (457) 
ChEMBL_Kinases

>  <Ligand_Instance>  (457) 
nan

>  <PDB_ID>  (457) 
nan

>  <Standardized_SMILES>  (457) 
CCOc1cc(C(=O)N2CCC(N3CCN(C)CC3)CC2)ccc1Nc1ncc2c(n1)N(S(C)(=O)=O)c1ccccc1C(=O)N2C

>  <Name>  (457) 
nan

>  <Pocket>  (457) 
nan

>  <ATP_Site>  (457) 
nan

>  <Peripheral>  (457) 
nan

>  <Num_H_Atoms_ProtBoundConf>  (457) 
nan

>  <Num_Resolved_Atoms>  (457) 
nan

>  <Num_Not_Resolved_Atoms>  (457) 
nan

$$$$
CHEMBL4541427
     RDKit          3D

  0  0  0  0  0  0  0  0  0  0999 V3000
M  V30 BEGIN CTAB
M  V30 COUNTS 52 56 0 0 0
M  V30 BEGIN ATOM
M  V30 1 C 2.984948 -3.836359 2.478895 0
M  V30 2 C 2.644435 -2.525102 3.064781 0
M  V30 3 C 2.168075 -2.418053 4.352162 0
M  V30 4 C 1.833834 -1.241332 4.963632 0
M  V30 5 C 1.983955 -0.064979 4.237131 0
M  V30 6 C 2.461192 -0.103783 2.931406 0
M  V30 7 N 2.643604 1.067652 2.160804 0
M  V30 8 C 3.080693 1.003036 0.812485 0
M  V30 9 N 4.368708 0.786007 0.670391 0
M  V30 10 C 5.026022 0.695745 -0.467110 0
M  V30 11 N 4.277159 0.845147 -1.568286 0
M  V30 12 C 2.939841 1.072132 -1.484809 0
M  V30 13 S 1.584004 1.342983 -2.738787 0
M  V30 14 C 0.340060 1.536952 -1.607829 0
M  V30 15 C 0.910780 1.403459 -0.301929 0
M  V30 16 C 2.241218 1.167128 -0.257827 0
M  V30 17 C -0.119103 1.553102 0.749671 0
M  V30 18 C -1.313665 0.683551 0.426046 0
M  V30 19 N -1.744108 0.773012 -0.920908 0
M  V30 20 S -3.380884 0.472958 -1.201278 0
M  V30 21 O -3.793045 0.730911 -2.624049 0
M  V30 22 O -4.161299 1.419188 -0.291849 0
M  V30 23 C -3.778426 -1.157650 -0.728709 0
M  V30 24 C -4.741832 -1.401448 0.232115 0
M  V30 25 C -5.055535 -2.696811 0.571643 0
M  V30 26 C -4.472091 -3.818582 0.017579 0
M  V30 27 C -3.507512 -3.577186 -0.944363 0
M  V30 28 C -3.219105 -2.271163 -1.258614 0
M  V30 29 N -2.226132 -2.139282 -2.257274 0 CHG=1 VAL=4
M  V30 30 O -1.467167 -2.249954 -3.211857 0
M  V30 31 O -1.932871 -2.956019 -3.350195 0 CHG=-1 VAL=1
M  V30 32 C -1.139606 1.808615 -1.696887 0
M  V30 33 C 2.771908 -1.338706 2.400374 0
M  V30 34 H 2.427130 -4.657882 2.993802 0
M  V30 35 H 4.055034 -4.061685 2.554238 0
M  V30 36 H 2.718699 -3.842427 1.393101 0
M  V30 37 H 2.028834 -3.288448 4.971000 0
M  V30 38 H 1.458796 -1.119635 5.967423 0
M  V30 39 H 1.745942 0.929497 4.626034 0
M  V30 40 H 2.442947 2.003113 2.621962 0
M  V30 41 H 6.037513 0.530501 -0.803715 0
M  V30 42 H 0.222162 1.298434 1.762203 0
M  V30 43 H -0.403298 2.634816 0.765945 0
M  V30 44 H -2.148395 1.042434 1.065125 0
M  V30 45 H -1.049845 -0.352555 0.672854 0
M  V30 46 H -5.243328 -0.565393 0.711553 0
M  V30 47 H -5.811823 -2.905728 1.326595 0
M  V30 48 H -4.728946 -4.828889 0.295662 0
M  V30 49 H -3.028503 -4.441465 -1.400054 0
M  V30 50 H -1.401153 1.684656 -2.758304 0
M  V30 51 H -1.309821 2.819808 -1.306640 0
M  V30 52 H 3.144339 -1.340864 1.368352 0
M  V30 END ATOM
M  V30 BEGIN BOND
M  V30 1 1 1 2
M  V30 2 2 2 3
M  V30 3 1 3 4
M  V30 4 2 4 5
M  V30 5 1 5 6
M  V30 6 1 6 7
M  V30 7 1 7 8
M  V30 8 2 8 9
M  V30 9 1 9 10
M  V30 10 2 10 11
M  V30 11 1 11 12
M  V30 12 1 12 13
M  V30 13 1 13 14
M  V30 14 2 14 15
M  V30 15 1 15 16
M  V30 16 1 15 17
M  V30 17 1 17 18
M  V30 18 1 18 19
M  V30 19 1 19 20
M  V30 20 2 20 21
M  V30 21 2 20 22
M  V30 22 1 20 23
M  V30 23 2 23 24
M  V30 24 1 24 25
M  V30 25 2 25 26
M  V30 26 1 26 27
M  V30 27 2 27 28
M  V30 28 1 28 29
M  V30 29 2 29 30
M  V30 30 1 29 31
M  V30 31 1 19 32
M  V30 32 2 6 33
M  V30 33 1 33 2
M  V30 34 1 16 8
M  V30 35 1 28 23
M  V30 36 2 16 12
M  V30 37 1 32 14
M  V30 38 1 1 34
M  V30 39 1 1 35
M  V30 40 1 1 36
M  V30 41 1 3 37
M  V30 42 1 4 38
M  V30 43 1 5 39
M  V30 44 1 7 40
M  V30 45 1 10 41
M  V30 46 1 17 42
M  V30 47 1 17 43
M  V30 48 1 18 44
M  V30 49 1 18 45
M  V30 50 1 24 46
M  V30 51 1 25 47
M  V30 52 1 26 48
M  V30 53 1 27 49
M  V30 54 1 32 50
M  V30 55 1 32 51
M  V30 56 1 33 52
M  V30 END BOND
M  V30 END CTAB
M  END
>  <Dataset>  (458) 
ChEMBL_Kinases

>  <Ligand_Instance>  (458) 
nan

>  <PDB_ID>  (458) 
nan

>  <Standardized_SMILES>  (458) 
Cc1cccc(Nc2ncnc3sc4c(c23)CCN(S(=O)(=O)c2ccccc2[N+](=O)[O-])C4)c1

>  <Name>  (458) 
nan

>  <Pocket>  (458) 
nan

>  <ATP_Site>  (458) 
nan

>  <Peripheral>  (458) 
nan

>  <Num_H_Atoms_ProtBoundConf>  (458) 
nan

>  <Num_Resolved_Atoms>  (458) 
nan

>  <Num_Not_Resolved_Atoms>  (458) 
nan

$$$$
CHEMBL4541288
     RDKit          3D

  0  0  0  0  0  0  0  0  0  0999 V3000
M  V30 BEGIN CTAB
M  V30 COUNTS 48 52 0 0 0
M  V30 BEGIN ATOM
M  V30 1 C 6.381542 -2.142721 -1.214043 0
M  V30 2 N 6.733865 -1.365633 -0.036150 0
M  V30 3 C 7.947685 -1.041367 0.406045 0
M  V30 4 C 7.881562 -0.280842 1.577258 0
M  V30 5 C 6.530049 -0.150129 1.840231 0
M  V30 6 C 5.782919 0.468184 2.824343 0
M  V30 7 C 4.404572 0.458034 2.872230 0
M  V30 8 C 3.715178 -0.214483 1.871060 0
M  V30 9 C 2.261748 -0.318024 1.778120 0
M  V30 10 C 1.396387 0.687521 2.223828 0
M  V30 11 N 0.061732 0.519621 2.104747 0
M  V30 12 C -0.445028 -0.601848 1.563207 0
M  V30 13 C -1.710837 -1.085116 1.298329 0
M  V30 14 C -2.962024 -0.396347 1.583572 0
M  V30 15 C -3.200218 0.277455 2.868701 0
M  V30 16 S -4.918912 0.963941 2.671909 0
M  V30 17 C -5.146362 0.355298 1.059382 0
M  V30 18 C -6.396325 0.600269 0.339341 0
M  V30 19 O -7.266930 1.260689 0.948887 0
M  V30 20 N -6.650147 0.135192 -0.974422 0
M  V30 21 C -7.782165 0.244777 -1.860746 0
M  V30 22 C -8.968417 -0.436194 -1.245285 0
M  V30 23 F -8.584418 -1.772316 -1.058880 0
M  V30 24 F -9.233060 0.095724 -0.021246 0
M  V30 25 F -10.074137 -0.402492 -2.082744 0
M  V30 26 C -4.026755 -0.292515 0.732683 0
M  V30 27 C -1.652760 -2.339575 0.711569 0
M  V30 28 N -0.348228 -2.608032 0.624951 0
M  V30 29 N 0.357364 -1.586039 1.125640 0
M  V30 30 C 1.706824 -1.474767 1.218603 0
M  V30 31 C 4.459583 -0.830898 0.889956 0
M  V30 32 C 5.855934 -0.832923 0.822497 0
M  V30 33 H 7.126196 -1.944964 -2.012727 0
M  V30 34 H 5.381258 -1.845085 -1.578702 0
M  V30 35 H 6.440316 -3.222178 -0.941923 0
M  V30 36 H 8.869374 -1.336006 -0.089154 0
M  V30 37 H 8.672919 0.134348 2.178535 0
M  V30 38 H 6.324124 0.991278 3.602861 0
M  V30 39 H 3.812577 0.933691 3.630032 0
M  V30 40 H 1.834077 1.594712 2.662711 0
M  V30 41 H -2.342211 0.244986 3.670535 0
M  V30 42 H -5.786784 -0.397109 -1.317595 0
M  V30 43 H -8.024193 1.326169 -2.045523 0
M  V30 44 H -7.475642 -0.199093 -2.818240 0
M  V30 45 H -4.003540 -0.737258 -0.252431 0
M  V30 46 H -2.504641 -2.940483 0.404057 0
M  V30 47 H 2.333087 -2.296631 0.852441 0
M  V30 48 H 3.976885 -1.368032 0.086274 0
M  V30 END ATOM
M  V30 BEGIN BOND
M  V30 1 1 1 2
M  V30 2 1 2 3
M  V30 3 2 3 4
M  V30 4 1 4 5
M  V30 5 2 5 6
M  V30 6 1 6 7
M  V30 7 2 7 8
M  V30 8 1 8 9
M  V30 9 1 9 10
M  V30 10 2 10 11
M  V30 11 1 11 12
M  V30 12 2 12 13
M  V30 13 1 13 14
M  V30 14 2 14 15
M  V30 15 1 15 16
M  V30 16 1 16 17
M  V30 17 1 17 18
M  V30 18 2 18 19
M  V30 19 1 18 20
M  V30 20 1 20 21
M  V30 21 1 21 22
M  V30 22 1 22 23
M  V30 23 1 22 24
M  V30 24 1 22 25
M  V30 25 2 17 26
M  V30 26 1 13 27
M  V30 27 2 27 28
M  V30 28 1 28 29
M  V30 29 1 29 30
M  V30 30 1 8 31
M  V30 31 2 31 32
M  V30 32 1 32 2
M  V30 33 1 32 5
M  V30 34 2 30 9
M  V30 35 1 29 12
M  V30 36 1 26 14
M  V30 37 1 1 33
M  V30 38 1 1 34
M  V30 39 1 1 35
M  V30 40 1 3 36
M  V30 41 1 4 37
M  V30 42 1 6 38
M  V30 43 1 7 39
M  V30 44 1 10 40
M  V30 45 1 15 41
M  V30 46 1 20 42
M  V30 47 1 21 43
M  V30 48 1 21 44
M  V30 49 1 26 45
M  V30 50 1 27 46
M  V30 51 1 30 47
M  V30 52 1 31 48
M  V30 END BOND
M  V30 END CTAB
M  END
>  <Dataset>  (459) 
ChEMBL_Kinases

>  <Ligand_Instance>  (459) 
nan

>  <PDB_ID>  (459) 
nan

>  <Standardized_SMILES>  (459) 
Cn1ccc2ccc(-c3cnc4c(-c5csc(C(=O)NCC(F)(F)F)c5)cnn4c3)cc21

>  <Name>  (459) 
nan

>  <Pocket>  (459) 
nan

>  <ATP_Site>  (459) 
nan

>  <Peripheral>  (459) 
nan

>  <Num_H_Atoms_ProtBoundConf>  (459) 
nan

>  <Num_Resolved_Atoms>  (459) 
nan

>  <Num_Not_Resolved_Atoms>  (459) 
nan

$$$$
CHEMBL4542079
     RDKit          3D

  0  0  0  0  0  0  0  0  0  0999 V3000
M  V30 BEGIN CTAB
M  V30 COUNTS 118 121 0 0 0
M  V30 BEGIN ATOM
M  V30 1 C -2.629075 0.856520 -4.210394 0
M  V30 2 C -2.276580 0.147720 -2.856599 0
M  V30 3 C -2.072300 -1.275549 -3.212701 0
M  V30 4 C -1.650149 -2.264903 -2.217835 0
M  V30 5 C -2.465394 -2.585705 -1.043341 0
M  V30 6 C -2.714743 -1.528588 -0.052467 0
M  V30 7 C -1.408022 -0.932819 0.506791 0
M  V30 8 C -0.581373 -1.905827 1.138632 0
M  V30 9 O 0.456755 -2.331446 1.614632 0
M  V30 10 O 0.402199 -2.539751 1.677263 0
M  V30 11 C 1.576564 -2.854886 2.154099 0 CFG=1
M  V30 12 C 1.852878 -3.172576 3.587130 0
M  V30 13 C 2.539282 -2.526480 4.516609 0
M  V30 14 C 2.744184 -2.934826 5.896481 0
M  V30 15 O 2.344648 -3.935105 6.492769 0
M  V30 16 O 3.516262 -2.066108 6.690352 0
M  V30 17 C 3.759606 -2.390590 8.042446 0
M  V30 18 C 1.297604 -4.476488 4.029497 0
M  V30 19 C 0.511638 -5.011810 2.901544 0 CFG=1
M  V30 20 C -0.907369 -4.611177 3.155387 0
M  V30 21 C -1.313574 -3.623810 4.172256 0 CFG=2
M  V30 22 C -2.861065 -3.537443 3.960940 0
M  V30 23 O -3.445153 -2.951885 5.048349 0
M  V30 24 O -0.876015 -2.389290 4.326859 0
M  V30 25 C -0.500057 -1.447873 5.196575 0
M  V30 26 O -0.610085 -1.867961 6.378642 0
M  V30 27 C 0.012397 -0.044779 5.005831 0
M  V30 28 C 0.286563 0.284179 3.617732 0
M  V30 29 O 0.811243 1.443939 3.106047 0
M  V30 30 C 0.947801 1.578472 1.704202 0
M  V30 31 C 0.305944 2.831913 1.605437 0
M  V30 32 C 0.097709 3.557098 0.423084 0
M  V30 33 C 0.536397 3.052704 -0.775893 0
M  V30 34 C 0.304472 3.746207 -2.049631 0
M  V30 35 C 1.207475 3.658327 -3.086596 0
M  V30 36 C 0.940800 4.285966 -4.290160 0
M  V30 37 C -0.255396 5.003582 -4.427340 0
M  V30 38 S -0.436155 5.722987 -6.014564 0
M  V30 39 O 0.864275 6.347468 -6.432632 0
M  V30 40 O -1.453826 6.827435 -5.904176 0
M  V30 41 N -0.914436 4.618491 -7.189473 0
M  V30 42 C -2.145017 3.954129 -7.053785 0
M  V30 43 C -3.252114 4.665499 -7.797619 0
M  V30 44 C 0.043248 4.150440 -8.109380 0
M  V30 45 C 0.796530 2.911349 -7.712666 0
M  V30 46 C -1.128386 5.066623 -3.366309 0
M  V30 47 C -0.896958 4.456051 -2.154204 0
M  V30 48 C 1.173600 1.799602 -0.637136 0
M  V30 49 C 1.379098 1.073425 0.556305 0
M  V30 50 C 1.988925 -0.083170 0.042684 0
M  V30 51 O 2.628661 -0.445753 -0.956862 0
M  V30 52 O 2.438309 -1.268120 -0.163253 0
M  V30 53 C 2.907626 -2.429573 -0.421523 0
M  V30 54 C 2.937336 -3.679311 0.417627 0
M  V30 55 C 3.327720 -4.864868 -0.498722 0
M  V30 56 C 4.392900 -3.444325 1.029871 0
M  V30 57 C 2.166455 -4.093167 1.486448 0 CFG=1
M  V30 58 O 2.986513 -4.833689 2.403328 0
M  V30 59 O 1.032436 -4.873275 1.614415 0
M  V30 60 H -1.666556 0.938970 -4.754128 0
M  V30 61 H -3.091676 1.830438 -4.002646 0
M  V30 62 H -3.268938 0.148723 -4.738682 0
M  V30 63 H -1.408708 0.664897 -2.414754 0
M  V30 64 H -3.176638 0.348772 -2.252233 0
M  V30 65 H -1.338189 -1.353250 -4.077996 0
M  V30 66 H -3.085949 -1.619008 -3.623468 0
M  V30 67 H -0.591253 -1.905467 -1.882805 0
M  V30 68 H -1.417017 -3.265477 -2.743178 0
M  V30 69 H -2.132465 -3.562735 -0.553279 0
M  V30 70 H -3.516123 -2.904475 -1.392474 0
M  V30 71 H -3.316886 -0.721299 -0.423010 0
M  V30 72 H -3.310867 -1.924586 0.838296 0
M  V30 73 H -1.740040 -0.041643 1.024955 0
M  V30 74 H -0.894739 -0.519178 -0.416515 0
M  V30 75 H 2.433078 -2.117108 2.057013 0
M  V30 76 H 2.963028 -1.611301 4.124683 0
M  V30 77 H 4.776664 -2.073857 8.380423 0
M  V30 78 H 3.740821 -3.491885 8.208513 0
M  V30 79 H 2.980006 -1.948804 8.686745 0
M  V30 80 H 0.658492 -4.204807 4.898372 0
M  V30 81 H 2.037997 -5.159843 4.491984 0
M  V30 82 H 0.643975 -6.117939 3.011693 0
M  V30 83 H -1.448965 -5.539531 3.472513 0
M  V30 84 H -1.493802 -4.445163 2.196222 0
M  V30 85 H -1.342227 -4.102798 5.201078 0
M  V30 86 H -3.183419 -4.608262 3.946375 0
M  V30 87 H -3.093722 -3.121753 2.984820 0
M  V30 88 H -3.613489 -3.598021 5.749419 0
M  V30 89 H 0.902237 0.095518 5.693339 0
M  V30 90 H -0.753376 0.648108 5.445381 0
M  V30 91 H -0.694072 0.159841 3.133469 0
M  V30 92 H 1.088340 -0.412789 3.304341 0
M  V30 93 H -0.137384 3.459027 2.385516 0
M  V30 94 H -0.398587 4.531521 0.312088 0
M  V30 95 H 2.110556 3.081314 -2.897477 0
M  V30 96 H 1.731151 4.138100 -5.021549 0
M  V30 97 H -2.113676 2.859797 -7.262234 0
M  V30 98 H -2.441313 4.013415 -5.970245 0
M  V30 99 H -3.257856 4.403993 -8.879184 0
M  V30 100 H -4.261047 4.400820 -7.399912 0
M  V30 101 H -3.066014 5.757579 -7.727410 0
M  V30 102 H 0.719704 5.015702 -8.360541 0
M  V30 103 H -0.455465 3.913124 -9.083956 0
M  V30 104 H 1.053195 2.278247 -8.609563 0
M  V30 105 H 1.803842 3.257497 -7.327674 0
M  V30 106 H 0.335528 2.324824 -6.920125 0
M  V30 107 H -2.027346 5.658305 -3.601645 0
M  V30 108 H -1.633868 4.554905 -1.376193 0
M  V30 109 H 1.479498 1.505637 -1.660443 0
M  V30 110 H 3.897669 -2.294695 -0.967253 0
M  V30 111 H 2.304258 -2.806439 -1.333689 0
M  V30 112 H 3.605685 -5.742152 0.080099 0
M  V30 113 H 2.461967 -5.166054 -1.130039 0
M  V30 114 H 4.197416 -4.548513 -1.107124 0
M  V30 115 H 4.291877 -2.495158 1.566012 0
M  V30 116 H 5.098465 -3.364837 0.167779 0
M  V30 117 H 4.636920 -4.254423 1.702714 0
M  V30 118 H 2.971269 -5.796025 2.172430 0
M  V30 END ATOM
M  V30 BEGIN BOND
M  V30 1 1 1 2
M  V30 2 1 2 3
M  V30 3 1 3 4
M  V30 4 1 4 5
M  V30 5 1 5 6
M  V30 6 1 6 7
M  V30 7 1 7 8
M  V30 8 2 8 9
M  V30 9 1 8 10
M  V30 10 1 10 11
M  V30 11 1 11 12
M  V30 12 2 12 13
M  V30 13 1 13 14
M  V30 14 2 14 15
M  V30 15 1 14 16
M  V30 16 1 16 17
M  V30 17 1 12 18
M  V30 18 1 18 19
M  V30 19 1 19 20
M  V30 20 1 20 21
M  V30 21 1 21 22
M  V30 22 1 22 23
M  V30 23 1 21 24
M  V30 24 1 24 25
M  V30 25 2 25 26
M  V30 26 1 25 27
M  V30 27 1 27 28
M  V30 28 1 28 29
M  V30 29 1 29 30
M  V30 30 2 30 31
M  V30 31 1 31 32
M  V30 32 2 32 33
M  V30 33 1 33 34
M  V30 34 2 34 35
M  V30 35 1 35 36
M  V30 36 2 36 37
M  V30 37 1 37 38
M  V30 38 2 38 39
M  V30 39 2 38 40
M  V30 40 1 38 41
M  V30 41 1 41 42
M  V30 42 1 42 43
M  V30 43 1 41 44
M  V30 44 1 44 45
M  V30 45 1 37 46
M  V30 46 2 46 47
M  V30 47 1 33 48
M  V30 48 2 48 49
M  V30 49 1 49 50
M  V30 50 2 50 51
M  V30 51 1 50 52
M  V30 52 1 52 53
M  V30 53 1 53 54
M  V30 54 1 54 55
M  V30 55 1 54 56
M  V30 56 1 54 57
M  V30 57 1 57 58 CFG=1
M  V30 58 1 57 59
M  V30 59 1 57 11
M  V30 60 1 59 19
M  V30 61 1 49 30
M  V30 62 1 47 34
M  V30 63 1 1 60
M  V30 64 1 1 61
M  V30 65 1 1 62
M  V30 66 1 2 63
M  V30 67 1 2 64
M  V30 68 1 3 65
M  V30 69 1 3 66
M  V30 70 1 4 67
M  V30 71 1 4 68
M  V30 72 1 5 69
M  V30 73 1 5 70
M  V30 74 1 6 71
M  V30 75 1 6 72
M  V30 76 1 7 73
M  V30 77 1 7 74
M  V30 78 1 11 75 CFG=3
M  V30 79 1 13 76
M  V30 80 1 17 77
M  V30 81 1 17 78
M  V30 82 1 17 79
M  V30 83 1 18 80
M  V30 84 1 18 81
M  V30 85 1 19 82 CFG=1
M  V30 86 1 20 83
M  V30 87 1 20 84
M  V30 88 1 21 85 CFG=1
M  V30 89 1 22 86
M  V30 90 1 22 87
M  V30 91 1 23 88
M  V30 92 1 27 89
M  V30 93 1 27 90
M  V30 94 1 28 91
M  V30 95 1 28 92
M  V30 96 1 31 93
M  V30 97 1 32 94
M  V30 98 1 35 95
M  V30 99 1 36 96
M  V30 100 1 42 97
M  V30 101 1 42 98
M  V30 102 1 43 99
M  V30 103 1 43 100
M  V30 104 1 43 101
M  V30 105 1 44 102
M  V30 106 1 44 103
M  V30 107 1 45 104
M  V30 108 1 45 105
M  V30 109 1 45 106
M  V30 110 1 46 107
M  V30 111 1 47 108
M  V30 112 1 48 109
M  V30 113 1 53 110
M  V30 114 1 53 111
M  V30 115 1 55 112
M  V30 116 1 55 113
M  V30 117 1 55 114
M  V30 118 1 56 115
M  V30 119 1 56 116
M  V30 120 1 56 117
M  V30 121 1 58 118
M  V30 END BOND
M  V30 END CTAB
M  END
>  <Dataset>  (460) 
ChEMBL_Kinases

>  <Ligand_Instance>  (460) 
nan

>  <PDB_ID>  (460) 
nan

>  <Standardized_SMILES>  (460) 
CCCCCCCC(=O)O[C@H]1/C(=C/C(=O)OC)C[C@H]2C[C@H](CO)OC(=O)CCOc3ccc(-c4ccc(S(=O)(=O)N(CC)CC)cc4)cc3C(=O)OCC(C)(C)[C@]1(O)O2

>  <Name>  (460) 
nan

>  <Pocket>  (460) 
nan

>  <ATP_Site>  (460) 
nan

>  <Peripheral>  (460) 
nan

>  <Num_H_Atoms_ProtBoundConf>  (460) 
nan

>  <Num_Resolved_Atoms>  (460) 
nan

>  <Num_Not_Resolved_Atoms>  (460) 
nan

$$$$
CHEMBL4638880
     RDKit          3D

  0  0  0  0  0  0  0  0  0  0999 V3000
M  V30 BEGIN CTAB
M  V30 COUNTS 66 70 0 0 0
M  V30 BEGIN ATOM
M  V30 1 C 3.678657 -0.975044 4.409644 0
M  V30 2 O 2.585414 -0.530962 3.656630 0
M  V30 3 C 2.624902 -0.625330 2.281576 0
M  V30 4 C 3.672239 -1.132453 1.548556 0
M  V30 5 C 3.733988 -1.235888 0.184403 0
M  V30 6 N 4.837481 -1.785401 -0.500967 0
M  V30 7 C 5.884569 -2.584008 0.079620 0
M  V30 8 C 5.830752 -3.955596 -0.516436 0
M  V30 9 N 5.004279 -4.015608 -1.646519 0
M  V30 10 C 3.685004 -4.478191 -1.352957 0
M  V30 11 C 5.005350 -2.964109 -2.579190 0
M  V30 12 C 5.101995 -1.615984 -1.909981 0
M  V30 13 C 2.613529 -0.773711 -0.465398 0
M  V30 14 C 1.518558 -0.248625 0.218210 0
M  V30 15 C 1.503327 -0.165621 1.582011 0
M  V30 16 N 0.396430 0.376319 2.283079 0
M  V30 17 C -0.841369 0.854884 1.771944 0
M  V30 18 N -0.940945 2.107258 1.296907 0
M  V30 19 C -2.073434 2.647287 0.799674 0
M  V30 20 C -2.304325 3.968720 0.216151 0
M  V30 21 C -3.157580 1.778279 0.822547 0
M  V30 22 C -3.052284 0.475823 1.315258 0
M  V30 23 N -1.883190 0.003896 1.796854 0
M  V30 24 N -4.039947 -0.566611 1.400845 0
M  V30 25 C -3.923400 -1.543301 2.453593 0
M  V30 26 C -5.153489 -0.727904 0.512526 0
M  V30 27 C -5.615971 -2.024802 0.480737 0
M  V30 28 C -6.687273 -2.306438 -0.340914 0
M  V30 29 C -7.276930 -1.321853 -1.106433 0
M  V30 30 C -6.845827 -0.009305 -1.105201 0
M  V30 31 C -5.771356 0.225940 -0.267841 0
M  V30 32 C -5.426519 1.665449 -0.363609 0
M  V30 33 O -6.066802 2.453989 -1.110532 0
M  V30 34 N -4.376013 2.384575 0.325496 0
M  V30 35 C -4.436410 3.798627 0.618802 0
M  V30 36 H 4.561474 -0.289666 4.296415 0
M  V30 37 H 3.437912 -1.068581 5.488015 0
M  V30 38 H 4.004368 -1.987662 4.084245 0
M  V30 39 H 4.485915 -1.457218 2.176459 0
M  V30 40 H 5.831630 -2.605318 1.193006 0
M  V30 41 H 6.867114 -2.125097 -0.210646 0
M  V30 42 H 6.871743 -4.282403 -0.823008 0
M  V30 43 H 5.461691 -4.715384 0.219382 0
M  V30 44 H 3.058875 -4.402061 -2.270067 0
M  V30 45 H 3.151506 -3.936297 -0.554102 0
M  V30 46 H 3.694972 -5.571552 -1.060950 0
M  V30 47 H 5.887099 -3.087000 -3.265077 0
M  V30 48 H 4.086394 -3.001883 -3.214946 0
M  V30 49 H 4.327496 -0.955976 -2.386584 0
M  V30 50 H 6.119295 -1.179703 -2.068912 0
M  V30 51 H 2.510425 -0.789251 -1.529008 0
M  V30 52 H 0.622618 0.121810 -0.283150 0
M  V30 53 H 0.434353 0.461637 3.324973 0
M  V30 54 H -2.311271 4.874542 0.783770 0
M  V30 55 H -2.571705 3.978318 -0.876188 0
M  V30 56 H -1.198433 4.128249 -0.089946 0
M  V30 57 H -3.324758 -2.436618 2.187454 0
M  V30 58 H -3.389988 -1.094351 3.345401 0
M  V30 59 H -4.925337 -1.803486 2.890547 0
M  V30 60 H -5.101927 -2.724570 1.101695 0
M  V30 61 H -7.028963 -3.343915 -0.343682 0
M  V30 62 H -8.120832 -1.587670 -1.741479 0
M  V30 63 H -7.298646 0.771383 -1.699442 0
M  V30 64 H -4.613648 4.529323 -0.132266 0
M  V30 65 H -4.219189 4.069520 1.680642 0
M  V30 66 H -5.556813 3.782279 0.905600 0
M  V30 END ATOM
M  V30 BEGIN BOND
M  V30 1 1 1 2
M  V30 2 1 2 3
M  V30 3 2 3 4
M  V30 4 1 4 5
M  V30 5 1 5 6
M  V30 6 1 6 7
M  V30 7 1 7 8
M  V30 8 1 8 9
M  V30 9 1 9 10
M  V30 10 1 9 11
M  V30 11 1 11 12
M  V30 12 2 5 13
M  V30 13 1 13 14
M  V30 14 2 14 15
M  V30 15 1 15 16
M  V30 16 1 16 17
M  V30 17 2 17 18
M  V30 18 1 18 19
M  V30 19 1 19 20
M  V30 20 2 19 21
M  V30 21 1 21 22
M  V30 22 2 22 23
M  V30 23 1 22 24
M  V30 24 1 24 25
M  V30 25 1 24 26
M  V30 26 2 26 27
M  V30 27 1 27 28
M  V30 28 2 28 29
M  V30 29 1 29 30
M  V30 30 2 30 31
M  V30 31 1 31 32
M  V30 32 2 32 33
M  V30 33 1 32 34
M  V30 34 1 34 35
M  V30 35 1 15 3
M  V30 36 1 23 17
M  V30 37 1 31 26
M  V30 38 1 12 6
M  V30 39 1 34 21
M  V30 40 1 1 36
M  V30 41 1 1 37
M  V30 42 1 1 38
M  V30 43 1 4 39
M  V30 44 1 7 40
M  V30 45 1 7 41
M  V30 46 1 8 42
M  V30 47 1 8 43
M  V30 48 1 10 44
M  V30 49 1 10 45
M  V30 50 1 10 46
M  V30 51 1 11 47
M  V30 52 1 11 48
M  V30 53 1 12 49
M  V30 54 1 12 50
M  V30 55 1 13 51
M  V30 56 1 14 52
M  V30 57 1 16 53
M  V30 58 1 20 54
M  V30 59 1 20 55
M  V30 60 1 20 56
M  V30 61 1 25 57
M  V30 62 1 25 58
M  V30 63 1 25 59
M  V30 64 1 27 60
M  V30 65 1 28 61
M  V30 66 1 29 62
M  V30 67 1 30 63
M  V30 68 1 35 64
M  V30 69 1 35 65
M  V30 70 1 35 66
M  V30 END BOND
M  V30 END CTAB
M  END
>  <Dataset>  (461) 
ChEMBL_Kinases

>  <Ligand_Instance>  (461) 
nan

>  <PDB_ID>  (461) 
nan

>  <Standardized_SMILES>  (461) 
COc1cc(N2CCN(C)CC2)ccc1Nc1nc(C)c2c(n1)N(C)c1ccccc1C(=O)N2C

>  <Name>  (461) 
nan

>  <Pocket>  (461) 
nan

>  <ATP_Site>  (461) 
nan

>  <Peripheral>  (461) 
nan

>  <Num_H_Atoms_ProtBoundConf>  (461) 
nan

>  <Num_Resolved_Atoms>  (461) 
nan

>  <Num_Not_Resolved_Atoms>  (461) 
nan

$$$$
CHEMBL4552106
     RDKit          3D

  0  0  0  0  0  0  0  0  0  0999 V3000
M  V30 BEGIN CTAB
M  V30 COUNTS 53 56 0 0 0
M  V30 BEGIN ATOM
M  V30 1 C 1.867459 -1.875813 5.140257 0
M  V30 2 C 2.901765 -0.897097 4.748046 0
M  V30 3 C 3.747941 -0.071336 4.430421 0
M  V30 4 C 4.729767 0.870254 4.043173 0
M  V30 5 C 5.152143 0.817920 2.730231 0
M  V30 6 O 4.733315 -0.034635 1.725908 0
M  V30 7 C 3.437182 -0.090684 1.250764 0
M  V30 8 C 2.283577 0.602106 1.550063 0
M  V30 9 C 1.108297 0.314311 0.891436 0
M  V30 10 C 0.996672 -0.653234 -0.083351 0
M  V30 11 N -0.253257 -0.843416 -0.670912 0
M  V30 12 C -0.802361 -0.221809 -1.811675 0
M  V30 13 O 0.045730 0.596930 -2.276434 0
M  V30 14 C -2.091353 -0.437575 -2.392915 0
M  V30 15 C -2.378426 0.323212 -3.536254 0
M  V30 16 C -3.582378 0.210690 -4.191520 0
M  V30 17 C -4.569767 -0.648707 -3.767527 0
M  V30 18 N -4.290752 -1.375930 -2.671552 0
M  V30 19 C -5.245589 -2.293271 -2.152934 0
M  V30 20 C -5.833906 -3.356055 -2.805706 0
M  V30 21 C -6.750353 -4.162149 -2.162609 0
M  V30 22 C -7.074312 -3.890539 -0.847634 0
M  V30 23 F -7.975924 -4.705088 -0.257054 0
M  V30 24 C -6.520541 -2.847248 -0.149267 0
M  V30 25 C -5.605087 -2.067194 -0.840917 0
M  V30 26 C -3.115513 -1.266570 -2.031316 0
M  V30 27 O -2.899658 -1.963905 -1.014602 0
M  V30 28 C 2.157569 -1.355101 -0.389607 0
M  V30 29 C 3.367774 -1.084722 0.263616 0
M  V30 30 F 4.379109 -1.885362 -0.186787 0
M  V30 31 C 6.133439 1.748694 2.369043 0
M  V30 32 C 6.640424 2.659681 3.279805 0
M  V30 33 N 6.169089 2.639253 4.541843 0
M  V30 34 C 5.224996 1.764245 4.942482 0
M  V30 35 N 4.755267 1.776129 6.282852 0
M  V30 36 H 2.178351 -2.423302 6.045208 0
M  V30 37 H 1.674842 -2.600512 4.318049 0
M  V30 38 H 0.902405 -1.370950 5.355530 0
M  V30 39 H 2.453243 1.335119 2.307221 0
M  V30 40 H 0.251724 0.895239 1.178539 0
M  V30 41 H -0.823314 -1.553444 -0.158705 0
M  V30 42 H -1.642630 1.033189 -3.939464 0
M  V30 43 H -3.752037 0.818727 -5.065895 0
M  V30 44 H -5.529434 -0.771816 -4.247957 0
M  V30 45 H -5.514948 -3.485982 -3.831813 0
M  V30 46 H -7.191668 -4.986573 -2.704948 0
M  V30 47 H -6.783114 -2.647648 0.876478 0
M  V30 48 H -5.184068 -1.242050 -0.247390 0
M  V30 49 H 2.039179 -2.107124 -1.157720 0
M  V30 50 H 6.544603 1.799950 1.353164 0
M  V30 51 H 7.411368 3.386528 2.984842 0
M  V30 52 H 3.850227 1.298249 6.505112 0
M  V30 53 H 3.859001 1.312432 6.547984 0
M  V30 END ATOM
M  V30 BEGIN BOND
M  V30 1 1 1 2
M  V30 2 3 2 3
M  V30 3 1 3 4
M  V30 4 2 4 5
M  V30 5 1 5 6
M  V30 6 1 6 7
M  V30 7 2 7 8
M  V30 8 1 8 9
M  V30 9 2 9 10
M  V30 10 1 10 11
M  V30 11 1 11 12
M  V30 12 2 12 13
M  V30 13 1 12 14
M  V30 14 2 14 15
M  V30 15 1 15 16
M  V30 16 2 16 17
M  V30 17 1 17 18
M  V30 18 1 18 19
M  V30 19 2 19 20
M  V30 20 1 20 21
M  V30 21 2 21 22
M  V30 22 1 22 23
M  V30 23 1 22 24
M  V30 24 2 24 25
M  V30 25 1 18 26
M  V30 26 2 26 27
M  V30 27 1 10 28
M  V30 28 2 28 29
M  V30 29 1 29 30
M  V30 30 1 5 31
M  V30 31 2 31 32
M  V30 32 1 32 33
M  V30 33 2 33 34
M  V30 34 1 34 35
M  V30 35 1 34 4
M  V30 36 1 29 7
M  V30 37 1 26 14
M  V30 38 1 25 19
M  V30 39 1 1 36
M  V30 40 1 1 37
M  V30 41 1 1 38
M  V30 42 1 8 39
M  V30 43 1 9 40
M  V30 44 1 11 41
M  V30 45 1 15 42
M  V30 46 1 16 43
M  V30 47 1 17 44
M  V30 48 1 20 45
M  V30 49 1 21 46
M  V30 50 1 24 47
M  V30 51 1 25 48
M  V30 52 1 28 49
M  V30 53 1 31 50
M  V30 54 1 32 51
M  V30 55 1 35 52
M  V30 56 1 35 53
M  V30 END BOND
M  V30 END CTAB
M  END
>  <Dataset>  (462) 
ChEMBL_Kinases

>  <Ligand_Instance>  (462) 
nan

>  <PDB_ID>  (462) 
nan

>  <Standardized_SMILES>  (462) 
CC#Cc1c(Oc2ccc(NC(=O)c3cccn(-c4ccc(F)cc4)c3=O)cc2F)ccnc1N

>  <Name>  (462) 
nan

>  <Pocket>  (462) 
nan

>  <ATP_Site>  (462) 
nan

>  <Peripheral>  (462) 
nan

>  <Num_H_Atoms_ProtBoundConf>  (462) 
nan

>  <Num_Resolved_Atoms>  (462) 
nan

>  <Num_Not_Resolved_Atoms>  (462) 
nan

$$$$
CHEMBL4552025
     RDKit          3D

  0  0  0  0  0  0  0  0  0  0999 V3000
M  V30 BEGIN CTAB
M  V30 COUNTS 47 49 0 0 0
M  V30 BEGIN ATOM
M  V30 1 C 0.899499 -2.007588 5.524557 0
M  V30 2 O 1.570505 -2.819253 4.575527 0
M  V30 3 C 1.714316 -2.362136 3.274286 0
M  V30 4 C 2.365388 -3.145579 2.346596 0
M  V30 5 C 2.509015 -2.692747 1.052983 0
M  V30 6 C 1.998986 -1.466463 0.713487 0
M  V30 7 C 2.031587 -0.828722 -0.508209 0
M  V30 8 C 2.568742 -1.178202 -1.717990 0
M  V30 9 C 2.439224 -0.275071 -2.751158 0
M  V30 10 N 1.803038 0.884904 -2.523855 0
M  V30 11 C 1.265753 1.247938 -1.335562 0
M  V30 12 C 0.595624 2.553620 -1.146754 0
M  V30 13 C 1.376515 0.360020 -0.269833 0
M  V30 14 N 0.937196 0.530852 0.969961 0
M  V30 15 C 0.196690 1.462100 1.701638 0
M  V30 16 C -1.241649 1.206951 1.977763 0
M  V30 17 C -2.232336 1.053681 0.920017 0
M  V30 18 N -2.144565 0.025180 -0.044628 0
M  V30 19 C -1.700589 -0.347869 -1.367100 0
M  V30 20 C -2.774278 -1.198988 0.425339 0
M  V30 21 C -3.019664 -2.556823 -0.050642 0
M  V30 22 O -3.209828 -0.931427 1.584294 0
M  V30 23 C 1.342118 -0.633345 1.574988 0
M  V30 24 C 1.223341 -1.140013 2.875021 0
M  V30 25 H -0.099398 -1.647183 5.143452 0
M  V30 26 H 0.667003 -2.584180 6.455307 0
M  V30 27 H 1.490043 -1.135125 5.831765 0
M  V30 28 H 2.764115 -4.110945 2.623733 0
M  V30 29 H 3.020196 -3.309836 0.328158 0
M  V30 30 H 3.069656 -2.116842 -1.854666 0
M  V30 31 H 2.841983 -0.488660 -3.737992 0
M  V30 32 H 0.571327 3.015157 -2.183501 0
M  V30 33 H -0.454375 2.522464 -0.895148 0
M  V30 34 H 1.233294 3.293626 -0.625421 0
M  V30 35 H 0.678688 1.528126 2.740516 0
M  V30 36 H 0.254532 2.514419 1.387680 0
M  V30 37 H -1.349312 0.418517 2.797982 0
M  V30 38 H -1.588393 2.129977 2.577540 0
M  V30 39 H -2.323232 2.068740 0.399215 0
M  V30 40 H -3.285987 0.986211 1.375174 0
M  V30 41 H -2.564212 -0.768192 -1.963184 0
M  V30 42 H -1.430117 0.563671 -1.959107 0
M  V30 43 H -0.926459 -1.133915 -1.386730 0
M  V30 44 H -4.111126 -2.761301 -0.155395 0
M  V30 45 H -2.662770 -3.276456 0.744047 0
M  V30 46 H -2.439075 -2.839502 -0.953518 0
M  V30 47 H 0.719077 -0.554060 3.630959 0
M  V30 END ATOM
M  V30 BEGIN BOND
M  V30 1 1 1 2
M  V30 2 1 2 3
M  V30 3 2 3 4
M  V30 4 1 4 5
M  V30 5 2 5 6
M  V30 6 1 6 7
M  V30 7 2 7 8
M  V30 8 1 8 9
M  V30 9 2 9 10
M  V30 10 1 10 11
M  V30 11 1 11 12
M  V30 12 2 11 13
M  V30 13 1 13 14
M  V30 14 1 14 15
M  V30 15 1 15 16
M  V30 16 1 16 17
M  V30 17 1 17 18
M  V30 18 1 18 19
M  V30 19 1 18 20
M  V30 20 1 20 21
M  V30 21 2 20 22
M  V30 22 1 14 23
M  V30 23 2 23 24
M  V30 24 1 24 3
M  V30 25 1 23 6
M  V30 26 1 13 7
M  V30 27 1 1 25
M  V30 28 1 1 26
M  V30 29 1 1 27
M  V30 30 1 4 28
M  V30 31 1 5 29
M  V30 32 1 8 30
M  V30 33 1 9 31
M  V30 34 1 12 32
M  V30 35 1 12 33
M  V30 36 1 12 34
M  V30 37 1 15 35
M  V30 38 1 15 36
M  V30 39 1 16 37
M  V30 40 1 16 38
M  V30 41 1 17 39
M  V30 42 1 17 40
M  V30 43 1 19 41
M  V30 44 1 19 42
M  V30 45 1 19 43
M  V30 46 1 21 44
M  V30 47 1 21 45
M  V30 48 1 21 46
M  V30 49 1 24 47
M  V30 END BOND
M  V30 END CTAB
M  END
>  <Dataset>  (463) 
ChEMBL_Kinases

>  <Ligand_Instance>  (463) 
nan

>  <PDB_ID>  (463) 
nan

>  <Standardized_SMILES>  (463) 
COc1ccc2c3ccnc(C)c3n(CCCN(C)C(C)=O)c2c1

>  <Name>  (463) 
nan

>  <Pocket>  (463) 
nan

>  <ATP_Site>  (463) 
nan

>  <Peripheral>  (463) 
nan

>  <Num_H_Atoms_ProtBoundConf>  (463) 
nan

>  <Num_Resolved_Atoms>  (463) 
nan

>  <Num_Not_Resolved_Atoms>  (463) 
nan

$$$$
CHEMBL4552005
     RDKit          3D

  0  0  0  0  0  0  0  0  0  0999 V3000
M  V30 BEGIN CTAB
M  V30 COUNTS 42 45 0 0 0
M  V30 BEGIN ATOM
M  V30 1 C 1.787434 -4.824144 1.208770 0
M  V30 2 C 2.503330 -3.564766 1.542937 0
M  V30 3 N 3.673462 -3.421514 2.195594 0
M  V30 4 N 4.014082 -2.153597 2.317413 0
M  V30 5 C 3.058035 -1.406196 1.736111 0
M  V30 6 C 2.106026 -2.276890 1.247039 0
M  V30 7 C 0.886643 -1.903945 0.537881 0
M  V30 8 N 0.602373 -0.613410 0.305619 0
M  V30 9 C -0.488300 -0.174949 -0.334508 0
M  V30 10 N -0.709173 1.198289 -0.535641 0
M  V30 11 C 0.277218 2.145147 -0.031437 0
M  V30 12 C 1.593260 1.827256 -0.709026 0
M  V30 13 C 0.370428 2.101737 1.443784 0
M  V30 14 C 1.527731 2.083661 2.194029 0
M  V30 15 C 1.530838 2.043065 3.563638 0
M  V30 16 N 0.334875 2.019643 4.208394 0
M  V30 17 C -0.800776 2.036652 3.496761 0
M  V30 18 C -0.851498 2.077433 2.115107 0
M  V30 19 C -1.325431 -1.176919 -0.751379 0
M  V30 20 C -2.483958 -0.850832 -1.423556 0
M  V30 21 C -3.353544 -1.820872 -1.860526 0
M  V30 22 N -3.111156 -3.144557 -1.650067 0
M  V30 23 C -1.979768 -3.505715 -0.991262 0
M  V30 24 C -1.112252 -2.523949 -0.556111 0
M  V30 25 N 0.035032 -2.844972 0.109443 0
M  V30 26 H 0.700642 -4.710437 1.446178 0
M  V30 27 H 1.858049 -4.940179 0.103083 0
M  V30 28 H 2.229494 -5.667266 1.752599 0
M  V30 29 H 4.883173 -1.796502 2.788227 0
M  V30 30 H 3.057300 -0.324975 1.675593 0
M  V30 31 H -1.519533 1.637370 -1.017464 0
M  V30 32 H 0.046873 3.194669 -0.298941 0
M  V30 33 H 1.448257 1.376825 -1.711903 0
M  V30 34 H 2.234713 2.748733 -0.769084 0
M  V30 35 H 2.193276 1.107549 -0.113147 0
M  V30 36 H 2.447780 2.103114 1.649795 0
M  V30 37 H 2.455714 2.029932 4.118984 0
M  V30 38 H -1.697696 2.014533 4.133849 0
M  V30 39 H -1.851127 2.086627 1.683614 0
M  V30 40 H -2.737803 0.164245 -1.623320 0
M  V30 41 H -4.282222 -1.621392 -2.395900 0
M  V30 42 H -1.686906 -4.521054 -0.769457 0
M  V30 END ATOM
M  V30 BEGIN BOND
M  V30 1 1 1 2
M  V30 2 2 2 3
M  V30 3 1 3 4
M  V30 4 1 4 5
M  V30 5 2 5 6
M  V30 6 1 6 7
M  V30 7 2 7 8
M  V30 8 1 8 9
M  V30 9 1 9 10
M  V30 10 1 10 11
M  V30 11 1 11 12
M  V30 12 1 11 13
M  V30 13 2 13 14
M  V30 14 1 14 15
M  V30 15 2 15 16
M  V30 16 1 16 17
M  V30 17 2 17 18
M  V30 18 2 9 19
M  V30 19 1 19 20
M  V30 20 2 20 21
M  V30 21 1 21 22
M  V30 22 2 22 23
M  V30 23 1 23 24
M  V30 24 2 24 25
M  V30 25 1 6 2
M  V30 26 1 25 7
M  V30 27 1 18 13
M  V30 28 1 24 19
M  V30 29 1 1 26
M  V30 30 1 1 27
M  V30 31 1 1 28
M  V30 32 1 4 29
M  V30 33 1 5 30
M  V30 34 1 10 31
M  V30 35 1 11 32
M  V30 36 1 12 33
M  V30 37 1 12 34
M  V30 38 1 12 35
M  V30 39 1 14 36
M  V30 40 1 15 37
M  V30 41 1 17 38
M  V30 42 1 18 39
M  V30 43 1 20 40
M  V30 44 1 21 41
M  V30 45 1 23 42
M  V30 END BOND
M  V30 END CTAB
M  END
>  <Dataset>  (464) 
ChEMBL_Kinases

>  <Ligand_Instance>  (464) 
nan

>  <PDB_ID>  (464) 
nan

>  <Standardized_SMILES>  (464) 
Cc1n[nH]cc1-c1nc(NC(C)c2ccncc2)c2ccncc2n1

>  <Name>  (464) 
nan

>  <Pocket>  (464) 
nan

>  <ATP_Site>  (464) 
nan

>  <Peripheral>  (464) 
nan

>  <Num_H_Atoms_ProtBoundConf>  (464) 
nan

>  <Num_Resolved_Atoms>  (464) 
nan

>  <Num_Not_Resolved_Atoms>  (464) 
nan

$$$$
CHEMBL4551951
     RDKit          3D

  0  0  0  0  0  0  0  0  0  0999 V3000
M  V30 BEGIN CTAB
M  V30 COUNTS 47 51 0 0 0
M  V30 BEGIN ATOM
M  V30 1 N 2.636299 -1.987691 0.759624 0
M  V30 2 C 3.731525 -2.066532 -0.120518 0
M  V30 3 O 4.215582 -3.225449 -0.047566 0
M  V30 4 C 4.305575 -1.087255 -1.001254 0
M  V30 5 C 5.394555 -1.509820 -1.734951 0
M  V30 6 C 5.983932 -0.587990 -2.604864 0
M  V30 7 C 5.456996 0.697358 -2.694041 0
M  V30 8 N 4.380111 1.050463 -1.941876 0
M  V30 9 C 3.786977 0.187635 -1.093079 0
M  V30 10 O 2.695408 0.481747 -0.304431 0
M  V30 11 C 2.051138 1.742073 -0.285548 0
M  V30 12 C 1.729920 2.243547 1.118276 0
M  V30 13 C 0.360852 1.773120 0.903009 0
M  V30 14 C -0.811495 2.522338 1.427759 0
M  V30 15 C -1.531793 1.212405 1.410406 0
M  V30 16 N -2.368705 0.908231 2.518377 0
M  V30 17 C -3.092562 -0.333828 2.570109 0
M  V30 18 N -3.828478 -0.902108 3.265795 0
M  V30 19 C -4.395553 -2.073270 3.122892 0
M  V30 20 C -5.268841 -2.737185 3.958122 0
M  V30 21 Cl -5.850475 -2.131279 5.484898 0
M  V30 22 C -5.740802 -3.963991 3.605777 0
M  V30 23 C -5.423517 -4.644732 2.448620 0
M  V30 24 C -4.561387 -4.076511 1.543311 0
M  V30 25 C -4.078719 -2.808306 1.916212 0
M  V30 26 S -2.906519 -1.556181 1.129348 0
M  V30 27 C -0.154421 0.569071 1.631554 0
M  V30 28 C 0.544406 1.646990 -0.567178 0
M  V30 29 H 2.412089 -1.569910 1.703974 0
M  V30 30 H 1.734304 -2.460019 0.462293 0
M  V30 31 H 5.811334 -2.506873 -1.672462 0
M  V30 32 H 6.855168 -0.896958 -3.203821 0
M  V30 33 H 5.913176 1.422365 -3.372092 0
M  V30 34 H 2.505806 2.474589 -0.965503 0
M  V30 35 H 2.314418 1.647267 1.874926 0
M  V30 36 H 1.923103 3.318498 1.194755 0
M  V30 37 H -1.192452 3.324677 0.766315 0
M  V30 38 H -0.596688 2.855894 2.482900 0
M  V30 39 H -1.943076 0.949925 0.414158 0
M  V30 40 H -2.553498 1.487029 3.361218 0
M  V30 41 H -6.430932 -4.539612 4.218650 0
M  V30 42 H -5.757463 -5.611645 2.107763 0
M  V30 43 H -4.157047 -4.381994 0.589088 0
M  V30 44 H -0.008290 -0.402902 1.149244 0
M  V30 45 H 0.127535 0.518214 2.694793 0
M  V30 46 H 0.144955 2.453327 -1.213372 0
M  V30 47 H 0.227635 0.631009 -0.890012 0
M  V30 END ATOM
M  V30 BEGIN BOND
M  V30 1 1 1 2
M  V30 2 2 2 3
M  V30 3 1 2 4
M  V30 4 2 4 5
M  V30 5 1 5 6
M  V30 6 2 6 7
M  V30 7 1 7 8
M  V30 8 2 8 9
M  V30 9 1 9 10
M  V30 10 1 10 11
M  V30 11 1 11 12
M  V30 12 1 12 13
M  V30 13 1 13 14
M  V30 14 1 14 15
M  V30 15 1 15 16
M  V30 16 1 16 17
M  V30 17 2 17 18
M  V30 18 1 18 19
M  V30 19 2 19 20
M  V30 20 1 20 21
M  V30 21 1 20 22
M  V30 22 2 22 23
M  V30 23 1 23 24
M  V30 24 2 24 25
M  V30 25 1 25 26
M  V30 26 1 15 27
M  V30 27 1 13 28
M  V30 28 1 9 4
M  V30 29 1 28 11
M  V30 30 1 27 13
M  V30 31 1 26 17
M  V30 32 1 25 19
M  V30 33 1 1 29
M  V30 34 1 1 30
M  V30 35 1 5 31
M  V30 36 1 6 32
M  V30 37 1 7 33
M  V30 38 1 11 34
M  V30 39 1 12 35
M  V30 40 1 12 36
M  V30 41 1 14 37
M  V30 42 1 14 38
M  V30 43 1 15 39
M  V30 44 1 16 40
M  V30 45 1 22 41
M  V30 46 1 23 42
M  V30 47 1 24 43
M  V30 48 1 27 44
M  V30 49 1 27 45
M  V30 50 1 28 46
M  V30 51 1 28 47
M  V30 END BOND
M  V30 END CTAB
M  END
>  <Dataset>  (465) 
ChEMBL_Kinases

>  <Ligand_Instance>  (465) 
nan

>  <PDB_ID>  (465) 
nan

>  <Standardized_SMILES>  (465) 
NC(=O)c1cccnc1OC1CC2(CC(Nc3nc4c(Cl)cccc4s3)C2)C1

>  <Name>  (465) 
nan

>  <Pocket>  (465) 
nan

>  <ATP_Site>  (465) 
nan

>  <Peripheral>  (465) 
nan

>  <Num_H_Atoms_ProtBoundConf>  (465) 
nan

>  <Num_Resolved_Atoms>  (465) 
nan

>  <Num_Not_Resolved_Atoms>  (465) 
nan

$$$$
CHEMBL4638893
     RDKit          3D

  0  0  0  0  0  0  0  0  0  0999 V3000
M  V30 BEGIN CTAB
M  V30 COUNTS 66 69 0 0 0
M  V30 BEGIN ATOM
M  V30 1 C 1.485082 0.618609 6.240034 0
M  V30 2 O 1.165247 -0.727282 6.422937 0
M  V30 3 C 1.172460 -1.709346 5.463172 0
M  V30 4 C 1.514447 -1.435567 4.157838 0
M  V30 5 C 1.533992 -2.393975 3.165237 0
M  V30 6 C 1.877814 -2.185701 1.763856 0
M  V30 7 C 2.796738 -3.134607 1.299994 0
M  V30 8 N 3.220761 -3.063764 0.011654 0
M  V30 9 C 2.748001 -2.082938 -0.790516 0
M  V30 10 C 1.842659 -1.135052 -0.362082 0
M  V30 11 C 1.383031 -0.116336 -1.295025 0
M  V30 12 C 1.223970 1.243099 -1.122820 0
M  V30 13 C 0.769571 2.026156 -2.159866 0
M  V30 14 C 0.441285 1.563945 -3.417243 0
M  V30 15 C -0.034102 2.512230 -4.429502 0
M  V30 16 N -1.428433 2.721361 -4.517008 0
M  V30 17 C -2.081134 3.151115 -3.325745 0
M  V30 18 C -2.691019 1.958421 -2.624575 0
M  V30 19 N -3.827429 1.445223 -3.382743 0
M  V30 20 C -3.906223 -0.007082 -3.265040 0
M  V30 21 C -3.649493 1.740433 -4.806925 0
M  V30 22 C -2.166441 1.683074 -5.163359 0
M  V30 23 C 0.607342 0.181877 -3.581959 0
M  V30 24 C 1.059964 -0.617456 -2.557735 0
M  V30 25 C 1.410821 -1.198879 0.932610 0
M  V30 26 C 0.448288 -0.247599 1.482338 0
M  V30 27 C 1.180819 -3.671807 3.578459 0
M  V30 28 C 0.827713 -3.996896 4.886899 0
M  V30 29 O 0.477733 -5.267638 5.286757 0
M  V30 30 C 0.423284 -6.392536 4.474860 0
M  V30 31 C 0.824579 -2.989159 5.849824 0
M  V30 32 O 0.481531 -3.243806 7.173923 0
M  V30 33 C -0.885738 -3.129213 7.600631 0
M  V30 34 H 0.793841 1.068112 5.487641 0
M  V30 35 H 2.543783 0.764425 5.905384 0
M  V30 36 H 1.397977 1.140521 7.226581 0
M  V30 37 H 1.786854 -0.430988 3.869651 0
M  V30 38 H 3.208974 -3.940582 1.897339 0
M  V30 39 H 3.150207 -2.119938 -1.792812 0
M  V30 40 H 1.488576 1.577078 -0.130337 0
M  V30 41 H 0.713266 3.065034 -1.837220 0
M  V30 42 H 0.406356 2.207180 -5.423726 0
M  V30 43 H 0.464028 3.500903 -4.188520 0
M  V30 44 H -1.440108 3.703655 -2.607188 0
M  V30 45 H -2.901422 3.894834 -3.580026 0
M  V30 46 H -2.974169 2.185874 -1.562592 0
M  V30 47 H -1.941461 1.143618 -2.613262 0
M  V30 48 H -4.952109 -0.288117 -3.529539 0
M  V30 49 H -3.259779 -0.443451 -4.077034 0
M  V30 50 H -3.595610 -0.314574 -2.262542 0
M  V30 51 H -4.104199 2.700047 -5.103041 0
M  V30 52 H -4.158691 0.930077 -5.360182 0
M  V30 53 H -2.140715 1.929814 -6.265397 0
M  V30 54 H -1.780849 0.669907 -5.021804 0
M  V30 55 H 0.368647 -0.220337 -4.546420 0
M  V30 56 H 1.145359 -1.671734 -2.813784 0
M  V30 57 H 0.849614 0.642589 1.963786 0
M  V30 58 H -0.242569 0.126589 0.670787 0
M  V30 59 H -0.252427 -0.836922 2.141627 0
M  V30 60 H 1.152815 -4.526317 2.897247 0
M  V30 61 H -0.449772 -6.292614 3.769145 0
M  V30 62 H 0.459955 -7.347115 4.992210 0
M  V30 63 H 1.314133 -6.354376 3.780573 0
M  V30 64 H -1.500290 -3.947296 7.213314 0
M  V30 65 H -1.279232 -2.177371 7.144185 0
M  V30 66 H -0.961321 -3.011731 8.684311 0
M  V30 END ATOM
M  V30 BEGIN BOND
M  V30 1 1 1 2
M  V30 2 1 2 3
M  V30 3 2 3 4
M  V30 4 1 4 5
M  V30 5 1 5 6
M  V30 6 2 6 7
M  V30 7 1 7 8
M  V30 8 2 8 9
M  V30 9 1 9 10
M  V30 10 1 10 11
M  V30 11 2 11 12
M  V30 12 1 12 13
M  V30 13 2 13 14
M  V30 14 1 14 15
M  V30 15 1 15 16
M  V30 16 1 16 17
M  V30 17 1 17 18
M  V30 18 1 18 19
M  V30 19 1 19 20
M  V30 20 1 19 21
M  V30 21 1 21 22
M  V30 22 1 14 23
M  V30 23 2 23 24
M  V30 24 2 10 25
M  V30 25 1 25 26
M  V30 26 2 5 27
M  V30 27 1 27 28
M  V30 28 1 28 29
M  V30 29 1 29 30
M  V30 30 2 28 31
M  V30 31 1 31 32
M  V30 32 1 32 33
M  V30 33 1 31 3
M  V30 34 1 25 6
M  V30 35 1 24 11
M  V30 36 1 22 16
M  V30 37 1 1 34
M  V30 38 1 1 35
M  V30 39 1 1 36
M  V30 40 1 4 37
M  V30 41 1 7 38
M  V30 42 1 9 39
M  V30 43 1 12 40
M  V30 44 1 13 41
M  V30 45 1 15 42
M  V30 46 1 15 43
M  V30 47 1 17 44
M  V30 48 1 17 45
M  V30 49 1 18 46
M  V30 50 1 18 47
M  V30 51 1 20 48
M  V30 52 1 20 49
M  V30 53 1 20 50
M  V30 54 1 21 51
M  V30 55 1 21 52
M  V30 56 1 22 53
M  V30 57 1 22 54
M  V30 58 1 23 55
M  V30 59 1 24 56
M  V30 60 1 26 57
M  V30 61 1 26 58
M  V30 62 1 26 59
M  V30 63 1 27 60
M  V30 64 1 30 61
M  V30 65 1 30 62
M  V30 66 1 30 63
M  V30 67 1 33 64
M  V30 68 1 33 65
M  V30 69 1 33 66
M  V30 END BOND
M  V30 END CTAB
M  END
>  <Dataset>  (466) 
ChEMBL_Kinases

>  <Ligand_Instance>  (466) 
nan

>  <PDB_ID>  (466) 
nan

>  <Standardized_SMILES>  (466) 
COc1cc(-c2cncc(-c3ccc(CN4CCN(C)CC4)cc3)c2C)cc(OC)c1OC

>  <Name>  (466) 
nan

>  <Pocket>  (466) 
nan

>  <ATP_Site>  (466) 
nan

>  <Peripheral>  (466) 
nan

>  <Num_H_Atoms_ProtBoundConf>  (466) 
nan

>  <Num_Resolved_Atoms>  (466) 
nan

>  <Num_Not_Resolved_Atoms>  (466) 
nan

$$$$
CHEMBL455195
     RDKit          3D

  0  0  0  0  0  0  0  0  0  0999 V3000
M  V30 BEGIN CTAB
M  V30 COUNTS 55 57 0 0 0
M  V30 BEGIN ATOM
M  V30 1 C -3.698638 -6.541933 -1.053865 0
M  V30 2 C -2.418596 -5.755288 -0.956507 0
M  V30 3 C -2.370590 -4.661792 -2.044745 0
M  V30 4 C -1.090044 -3.911691 -1.924174 0
M  V30 5 C -1.141232 -2.676823 -1.091041 0
M  V30 6 C -0.147737 -1.649671 -1.537634 0
M  V30 7 O -0.189783 -0.457984 -1.938062 0
M  V30 8 N 1.223435 -2.086146 -1.528200 0
M  V30 9 C 2.218997 -1.074261 -1.979962 0
M  V30 10 N 2.931156 -0.383219 -2.509036 0
M  V30 11 C 3.766968 0.522006 -2.145060 0
M  V30 12 C 3.861531 0.745138 -0.835043 0
M  V30 13 S 4.920598 2.016617 0.071606 0
M  V30 14 C 4.721272 1.729572 1.821121 0
M  V30 15 C 3.346506 1.913805 2.337169 0
M  V30 16 N 2.542320 0.809839 2.379302 0
M  V30 17 C 1.340046 1.209269 2.883429 0
M  V30 18 C 1.452667 2.578019 3.138566 0
M  V30 19 C 0.309038 3.335270 3.702438 0
M  V30 20 C -0.806844 2.345773 4.027020 0
M  V30 21 C -0.188588 4.431675 2.796521 0
M  V30 22 C 0.717689 3.960026 5.042924 0
M  V30 23 O 2.664772 2.927893 2.791715 0
M  V30 24 S 2.652968 -0.455771 -0.207325 0
M  V30 25 C -2.497323 -2.008233 -1.107320 0
M  V30 26 C -3.336274 -2.546111 -2.262850 0
M  V30 27 N -3.578042 -3.926998 -1.903424 0
M  V30 28 H -4.397250 -5.967633 -1.709849 0
M  V30 29 H -3.463493 -7.537493 -1.514631 0
M  V30 30 H -4.136910 -6.673092 -0.048460 0
M  V30 31 H -1.574938 -6.436803 -0.992183 0
M  V30 32 H -2.410325 -5.238529 0.036793 0
M  V30 33 H -2.418110 -5.213524 -3.009229 0
M  V30 34 H -0.297915 -4.603186 -1.580458 0
M  V30 35 H -0.806362 -3.602567 -2.958216 0
M  V30 36 H -0.907299 -2.920917 -0.045534 0
M  V30 37 H 1.519800 -3.044153 -1.229285 0
M  V30 38 H 4.448549 1.118062 -2.774345 0
M  V30 39 H 5.124818 0.707129 2.051262 0
M  V30 40 H 5.429372 2.410429 2.366591 0
M  V30 41 H 0.533035 0.479395 3.006294 0
M  V30 42 H -0.448769 1.718902 4.890438 0
M  V30 43 H -1.069110 1.710959 3.168814 0
M  V30 44 H -1.716794 2.872835 4.365171 0
M  V30 45 H 0.451888 5.348873 2.917500 0
M  V30 46 H -0.109770 4.176523 1.712298 0
M  V30 47 H -1.241766 4.723324 3.063487 0
M  V30 48 H 1.638733 4.560215 4.918468 0
M  V30 49 H -0.128872 4.512990 5.483547 0
M  V30 50 H 0.974873 3.141121 5.769345 0
M  V30 51 H -2.409394 -0.907123 -1.177007 0
M  V30 52 H -3.067657 -2.235355 -0.187182 0
M  V30 53 H -4.223655 -1.927268 -2.334295 0
M  V30 54 H -2.664730 -2.542452 -3.150263 0
M  V30 55 H -3.889141 -3.960580 -0.899388 0
M  V30 END ATOM
M  V30 BEGIN BOND
M  V30 1 1 1 2
M  V30 2 1 2 3
M  V30 3 1 3 4
M  V30 4 1 4 5
M  V30 5 1 5 6
M  V30 6 2 6 7
M  V30 7 1 6 8
M  V30 8 1 8 9
M  V30 9 2 9 10
M  V30 10 1 10 11
M  V30 11 2 11 12
M  V30 12 1 12 13
M  V30 13 1 13 14
M  V30 14 1 14 15
M  V30 15 2 15 16
M  V30 16 1 16 17
M  V30 17 2 17 18
M  V30 18 1 18 19
M  V30 19 1 19 20
M  V30 20 1 19 21
M  V30 21 1 19 22
M  V30 22 1 18 23
M  V30 23 1 12 24
M  V30 24 1 5 25
M  V30 25 1 25 26
M  V30 26 1 26 27
M  V30 27 1 27 3
M  V30 28 1 24 9
M  V30 29 1 23 15
M  V30 30 1 1 28
M  V30 31 1 1 29
M  V30 32 1 1 30
M  V30 33 1 2 31
M  V30 34 1 2 32
M  V30 35 1 3 33
M  V30 36 1 4 34
M  V30 37 1 4 35
M  V30 38 1 5 36
M  V30 39 1 8 37
M  V30 40 1 11 38
M  V30 41 1 14 39
M  V30 42 1 14 40
M  V30 43 1 17 41
M  V30 44 1 20 42
M  V30 45 1 20 43
M  V30 46 1 20 44
M  V30 47 1 21 45
M  V30 48 1 21 46
M  V30 49 1 21 47
M  V30 50 1 22 48
M  V30 51 1 22 49
M  V30 52 1 22 50
M  V30 53 1 25 51
M  V30 54 1 25 52
M  V30 55 1 26 53
M  V30 56 1 26 54
M  V30 57 1 27 55
M  V30 END BOND
M  V30 END CTAB
M  END
>  <Dataset>  (467) 
ChEMBL_Kinases

>  <Ligand_Instance>  (467) 
nan

>  <PDB_ID>  (467) 
nan

>  <Standardized_SMILES>  (467) 
CCC1CC(C(=O)Nc2ncc(SCc3ncc(C(C)(C)C)o3)s2)CCN1

>  <Name>  (467) 
nan

>  <Pocket>  (467) 
nan

>  <ATP_Site>  (467) 
nan

>  <Peripheral>  (467) 
nan

>  <Num_H_Atoms_ProtBoundConf>  (467) 
nan

>  <Num_Resolved_Atoms>  (467) 
nan

>  <Num_Not_Resolved_Atoms>  (467) 
nan

$$$$
CHEMBL455194
     RDKit          3D

  0  0  0  0  0  0  0  0  0  0999 V3000
M  V30 BEGIN CTAB
M  V30 COUNTS 52 54 0 0 0
M  V30 BEGIN ATOM
M  V30 1 C -0.599668 -5.221797 1.678006 0
M  V30 2 C -0.561830 -4.206214 0.553037 0
M  V30 3 C 0.803284 -4.048366 -0.003115 0
M  V30 4 C 0.899183 -3.541260 -1.399528 0
M  V30 5 C 1.364650 -2.121862 -1.364946 0
M  V30 6 O 1.574105 -1.636896 -0.201852 0
M  V30 7 N 1.578329 -1.316027 -2.508698 0
M  V30 8 C 2.028544 -0.005101 -2.006385 0
M  V30 9 N 3.066423 0.387379 -1.785853 0
M  V30 10 C 3.429614 1.571619 -1.334581 0
M  V30 11 C 2.445269 2.447205 -1.097911 0
M  V30 12 S 2.466853 4.138309 -0.488066 0
M  V30 13 C 2.338266 4.134229 1.342493 0
M  V30 14 C 0.990431 3.612346 1.737174 0
M  V30 15 N -0.104858 4.352078 1.920200 0
M  V30 16 C -1.069478 3.463330 2.262959 0
M  V30 17 C -0.520547 2.186076 2.278251 0
M  V30 18 C -1.393082 1.042449 2.628365 0
M  V30 19 C -0.576958 -0.221241 2.572765 0
M  V30 20 C -2.533879 0.946503 1.636278 0
M  V30 21 C -1.978765 1.171709 4.016956 0
M  V30 22 O 0.744461 2.341409 1.947818 0
M  V30 23 S 0.942978 1.472034 -1.562716 0
M  V30 24 C -0.359696 -3.594149 -2.188707 0
M  V30 25 C -1.624584 -3.514829 -1.393411 0
M  V30 26 N -1.567536 -4.573823 -0.402814 0
M  V30 27 H 0.434664 -5.318222 2.092141 0
M  V30 28 H -0.843390 -6.249183 1.287102 0
M  V30 29 H -1.332014 -4.973220 2.471531 0
M  V30 30 H -0.900922 -3.241697 1.018930 0
M  V30 31 H 1.416219 -3.395264 0.673493 0
M  V30 32 H 1.311960 -5.036361 0.032102 0
M  V30 33 H 1.673509 -4.091621 -1.986975 0
M  V30 34 H 1.406666 -1.718677 -3.430910 0
M  V30 35 H 4.453661 1.894628 -1.139888 0
M  V30 36 H 2.477251 5.155565 1.707744 0
M  V30 37 H 3.138854 3.489276 1.745163 0
M  V30 38 H -2.084050 3.800635 2.472798 0
M  V30 39 H -0.076927 -0.322882 3.555036 0
M  V30 40 H 0.161074 -0.202028 1.745858 0
M  V30 41 H -1.245077 -1.091247 2.391116 0
M  V30 42 H -3.354200 1.658296 1.917121 0
M  V30 43 H -2.901420 -0.083587 1.560049 0
M  V30 44 H -2.188195 1.248710 0.632904 0
M  V30 45 H -1.973870 0.185671 4.517217 0
M  V30 46 H -3.027099 1.490155 3.944771 0
M  V30 47 H -1.380270 1.889626 4.620771 0
M  V30 48 H -0.432136 -4.550293 -2.779619 0
M  V30 49 H -0.415077 -2.791269 -2.961436 0
M  V30 50 H -2.463526 -3.797863 -2.076643 0
M  V30 51 H -1.797600 -2.525659 -0.953002 0
M  V30 52 H -2.475254 -4.585138 0.090597 0
M  V30 END ATOM
M  V30 BEGIN BOND
M  V30 1 1 1 2
M  V30 2 1 2 3
M  V30 3 1 3 4
M  V30 4 1 4 5
M  V30 5 2 5 6
M  V30 6 1 5 7
M  V30 7 1 7 8
M  V30 8 2 8 9
M  V30 9 1 9 10
M  V30 10 2 10 11
M  V30 11 1 11 12
M  V30 12 1 12 13
M  V30 13 1 13 14
M  V30 14 2 14 15
M  V30 15 1 15 16
M  V30 16 2 16 17
M  V30 17 1 17 18
M  V30 18 1 18 19
M  V30 19 1 18 20
M  V30 20 1 18 21
M  V30 21 1 17 22
M  V30 22 1 11 23
M  V30 23 1 4 24
M  V30 24 1 24 25
M  V30 25 1 25 26
M  V30 26 1 26 2
M  V30 27 1 23 8
M  V30 28 1 22 14
M  V30 29 1 1 27
M  V30 30 1 1 28
M  V30 31 1 1 29
M  V30 32 1 2 30
M  V30 33 1 3 31
M  V30 34 1 3 32
M  V30 35 1 4 33
M  V30 36 1 7 34
M  V30 37 1 10 35
M  V30 38 1 13 36
M  V30 39 1 13 37
M  V30 40 1 16 38
M  V30 41 1 19 39
M  V30 42 1 19 40
M  V30 43 1 19 41
M  V30 44 1 20 42
M  V30 45 1 20 43
M  V30 46 1 20 44
M  V30 47 1 21 45
M  V30 48 1 21 46
M  V30 49 1 21 47
M  V30 50 1 24 48
M  V30 51 1 24 49
M  V30 52 1 25 50
M  V30 53 1 25 51
M  V30 54 1 26 52
M  V30 END BOND
M  V30 END CTAB
M  END
>  <Dataset>  (468) 
ChEMBL_Kinases

>  <Ligand_Instance>  (468) 
nan

>  <PDB_ID>  (468) 
nan

>  <Standardized_SMILES>  (468) 
CC1CC(C(=O)Nc2ncc(SCc3ncc(C(C)(C)C)o3)s2)CCN1

>  <Name>  (468) 
nan

>  <Pocket>  (468) 
nan

>  <ATP_Site>  (468) 
nan

>  <Peripheral>  (468) 
nan

>  <Num_H_Atoms_ProtBoundConf>  (468) 
nan

>  <Num_Resolved_Atoms>  (468) 
nan

>  <Num_Not_Resolved_Atoms>  (468) 
nan

$$$$
CHEMBL4638914
     RDKit          3D

  0  0  0  0  0  0  0  0  0  0999 V3000
M  V30 BEGIN CTAB
M  V30 COUNTS 75 80 0 0 0
M  V30 BEGIN ATOM
M  V30 1 O 7.163687 2.875014 1.482668 0
M  V30 2 C 7.133948 2.011751 0.571698 0
M  V30 3 C 8.309979 1.858760 -0.320587 0
M  V30 4 C 8.583256 3.044082 -1.149934 0
M  V30 5 C 9.335533 4.160665 -0.776977 0
M  V30 6 C 9.490975 5.187860 -1.691131 0
M  V30 7 C 8.954893 5.196465 -2.958362 0
M  V30 8 F 9.109654 6.198758 -3.843466 0
M  V30 9 C 8.217050 4.096124 -3.317516 0
M  V30 10 C 8.045982 3.056567 -2.424762 0
M  V30 11 N 5.935474 1.192889 0.427288 0
M  V30 12 C 4.769004 1.252586 1.210685 0
M  V30 13 C 4.471958 1.963529 2.339111 0
M  V30 14 C 3.244165 1.922592 2.963846 0
M  V30 15 C 2.224833 1.139650 2.466753 0
M  V30 16 C 0.876258 1.001382 3.003543 0
M  V30 17 C 0.125573 1.955113 3.658018 0
M  V30 18 C -1.142439 1.617578 4.070909 0
M  V30 19 C -1.751034 0.397968 3.892874 0
M  V30 20 N -2.953971 -0.141912 4.188242 0
M  V30 21 C -2.958129 -1.387169 3.734921 0
M  V30 22 N -3.572331 -2.683242 3.492968 0
M  V30 23 C -4.263047 -2.776714 2.238641 0
M  V30 24 C -4.447309 -1.631161 1.443575 0
M  V30 25 C -5.105639 -1.679465 0.241860 0
M  V30 26 C -5.621577 -2.856268 -0.250786 0
M  V30 27 C -6.333556 -3.152818 -1.487403 0
M  V30 28 O -7.355048 -3.891525 -1.490599 0
M  V30 29 N -5.903473 -2.621182 -2.759184 0
M  V30 30 C -4.752149 -1.751883 -2.866671 0
M  V30 31 C -4.088427 -1.827863 -4.235830 0
M  V30 32 O -5.054268 -1.769032 -5.244461 0
M  V30 33 C -5.726375 -2.996739 -5.192310 0
M  V30 34 C -6.618657 -2.966969 -3.969279 0
M  V30 35 C -5.455135 -4.014404 0.517989 0
M  V30 36 C -4.784725 -3.943914 1.734296 0
M  V30 37 O -4.552359 -5.023703 2.588947 0
M  V30 38 C -4.994403 -6.330865 2.276619 0
M  V30 39 C -4.589941 -7.276445 3.386762 0
M  V30 40 F -3.198397 -7.227146 3.476533 0
M  V30 41 F -5.175129 -6.950071 4.579561 0
M  V30 42 F -4.984962 -8.572166 3.088354 0
M  V30 43 N -1.758732 -1.611141 3.163528 0
M  V30 44 N -0.976725 -0.520552 3.241826 0
M  V30 45 C 0.284135 -0.224374 2.818055 0
M  V30 46 C 2.539196 0.429397 1.329832 0
M  V30 47 C 3.754466 0.442039 0.673974 0
M  V30 48 H 9.171391 1.574829 0.322515 0
M  V30 49 H 8.169306 0.979682 -1.000468 0
M  V30 50 H 9.752113 4.147781 0.215812 0
M  V30 51 H 10.081021 6.058792 -1.389141 0
M  V30 52 H 7.753902 4.025792 -4.314869 0
M  V30 53 H 7.442768 2.207309 -2.777547 0
M  V30 54 H 6.078784 0.537667 -0.366700 0
M  V30 55 H 5.272279 2.565655 2.717666 0
M  V30 56 H 3.031526 2.491881 3.853117 0
M  V30 57 H 0.586671 2.916697 3.805391 0
M  V30 58 H -1.766607 2.332249 4.582232 0
M  V30 59 H -3.539625 -3.482363 4.129159 0
M  V30 60 H -4.073457 -0.683332 1.766373 0
M  V30 61 H -5.285650 -0.848343 -0.403719 0
M  V30 62 H -3.998253 -1.952218 -2.091499 0
M  V30 63 H -5.135179 -0.699538 -2.751374 0
M  V30 64 H -3.425139 -0.950638 -4.335954 0
M  V30 65 H -3.522745 -2.755439 -4.296942 0
M  V30 66 H -4.938774 -3.780108 -5.130191 0
M  V30 67 H -6.360378 -3.168964 -6.070846 0
M  V30 68 H -7.052813 -3.992447 -3.899004 0
M  V30 69 H -7.431379 -2.251724 -4.157521 0
M  V30 70 H -5.804168 -5.007664 0.258480 0
M  V30 71 H -6.109216 -6.368437 2.195173 0
M  V30 72 H -4.535314 -6.677846 1.312876 0
M  V30 73 H 0.726059 -1.093176 2.334840 0
M  V30 74 H 1.758447 -0.206630 0.884745 0
M  V30 75 H 3.858465 -0.172623 -0.216375 0
M  V30 END ATOM
M  V30 BEGIN BOND
M  V30 1 2 1 2
M  V30 2 1 2 3
M  V30 3 1 3 4
M  V30 4 2 4 5
M  V30 5 1 5 6
M  V30 6 2 6 7
M  V30 7 1 7 8
M  V30 8 1 7 9
M  V30 9 2 9 10
M  V30 10 1 2 11
M  V30 11 1 11 12
M  V30 12 2 12 13
M  V30 13 1 13 14
M  V30 14 2 14 15
M  V30 15 1 15 16
M  V30 16 1 16 17
M  V30 17 2 17 18
M  V30 18 1 18 19
M  V30 19 2 19 20
M  V30 20 1 20 21
M  V30 21 1 21 22
M  V30 22 1 22 23
M  V30 23 2 23 24
M  V30 24 1 24 25
M  V30 25 2 25 26
M  V30 26 1 26 27
M  V30 27 2 27 28
M  V30 28 1 27 29
M  V30 29 1 29 30
M  V30 30 1 30 31
M  V30 31 1 31 32
M  V30 32 1 32 33
M  V30 33 1 33 34
M  V30 34 1 26 35
M  V30 35 2 35 36
M  V30 36 1 36 37
M  V30 37 1 37 38
M  V30 38 1 38 39
M  V30 39 1 39 40
M  V30 40 1 39 41
M  V30 41 1 39 42
M  V30 42 2 21 43
M  V30 43 1 43 44
M  V30 44 1 44 45
M  V30 45 1 15 46
M  V30 46 2 46 47
M  V30 47 1 10 4
M  V30 48 1 47 12
M  V30 49 2 45 16
M  V30 50 1 44 19
M  V30 51 1 36 23
M  V30 52 1 34 29
M  V30 53 1 3 48
M  V30 54 1 3 49
M  V30 55 1 5 50
M  V30 56 1 6 51
M  V30 57 1 9 52
M  V30 58 1 10 53
M  V30 59 1 11 54
M  V30 60 1 13 55
M  V30 61 1 14 56
M  V30 62 1 17 57
M  V30 63 1 18 58
M  V30 64 1 22 59
M  V30 65 1 24 60
M  V30 66 1 25 61
M  V30 67 1 30 62
M  V30 68 1 30 63
M  V30 69 1 31 64
M  V30 70 1 31 65
M  V30 71 1 33 66
M  V30 72 1 33 67
M  V30 73 1 34 68
M  V30 74 1 34 69
M  V30 75 1 35 70
M  V30 76 1 38 71
M  V30 77 1 38 72
M  V30 78 1 45 73
M  V30 79 1 46 74
M  V30 80 1 47 75
M  V30 END BOND
M  V30 END CTAB
M  END
>  <Dataset>  (469) 
ChEMBL_Kinases

>  <Ligand_Instance>  (469) 
nan

>  <PDB_ID>  (469) 
nan

>  <Standardized_SMILES>  (469) 
O=C(Cc1ccc(F)cc1)Nc1ccc(-c2ccc3nc(Nc4ccc(C(=O)N5CCOCC5)cc4OCC(F)(F)F)nn3c2)cc1

>  <Name>  (469) 
nan

>  <Pocket>  (469) 
nan

>  <ATP_Site>  (469) 
nan

>  <Peripheral>  (469) 
nan

>  <Num_H_Atoms_ProtBoundConf>  (469) 
nan

>  <Num_Resolved_Atoms>  (469) 
nan

>  <Num_Not_Resolved_Atoms>  (469) 
nan

$$$$
CHEMBL455192
     RDKit          3D

  0  0  0  0  0  0  0  0  0  0999 V3000
M  V30 BEGIN CTAB
M  V30 COUNTS 51 55 0 0 0
M  V30 BEGIN ATOM
M  V30 1 C 2.173867 -0.022699 4.731420 0
M  V30 2 N 2.072947 -1.403218 4.290126 0
M  V30 3 C 1.809716 -1.418704 2.841225 0
M  V30 4 C 3.003395 -0.922415 2.074786 0
M  V30 5 C 2.816650 -0.906453 0.581782 0
M  V30 6 N 1.716461 -0.057216 0.154050 0
M  V30 7 C 1.737125 1.253378 -0.159768 0
M  V30 8 C 2.858540 2.062151 -0.125215 0
M  V30 9 C 2.775434 3.392727 -0.463792 0
M  V30 10 C 1.525562 3.895861 -0.841590 0
M  V30 11 O 1.442273 5.239563 -1.183060 0
M  V30 12 C 0.461128 3.023473 -0.849208 0
M  V30 13 C 0.489265 1.705544 -0.525225 0
M  V30 14 C -0.335804 0.638976 -0.435476 0
M  V30 15 C -1.667253 0.537947 -0.684825 0
M  V30 16 C -2.287395 -0.677134 -0.517394 0
M  V30 17 C -1.578626 -1.784778 -0.102410 0
M  V30 18 C -2.045467 -3.136724 0.160829 0
M  V30 19 C -3.113057 -3.444824 0.982766 0
M  V30 20 C -3.508763 -4.774014 1.174199 0
M  V30 21 C -2.817610 -5.777538 0.530369 0
M  V30 22 C -1.743359 -5.508810 -0.300274 0
M  V30 23 C -1.376730 -4.170367 -0.467780 0
M  V30 24 C -0.205189 -1.672259 0.151948 0
M  V30 25 C 0.421684 -0.432745 -0.020122 0
M  V30 26 C -3.708552 -0.638524 -0.826985 0
M  V30 27 O -4.564018 -1.550526 -0.785369 0
M  V30 28 N -3.926234 0.737648 -1.209646 0
M  V30 29 C -2.688584 1.425612 -1.117211 0
M  V30 30 O -2.718180 2.614817 -1.414436 0
M  V30 31 H 1.501107 0.165670 5.591588 0
M  V30 32 H 1.942884 0.670421 3.880008 0
M  V30 33 H 3.208804 0.221540 5.083410 0
M  V30 34 H 1.288138 -1.840884 4.803103 0
M  V30 35 H 0.909684 -0.826976 2.683354 0
M  V30 36 H 1.587204 -2.474273 2.590252 0
M  V30 37 H 3.892783 -1.542487 2.275435 0
M  V30 38 H 3.241714 0.126909 2.369280 0
M  V30 39 H 2.706565 -1.916239 0.146701 0
M  V30 40 H 3.732892 -0.431652 0.162853 0
M  V30 41 H 3.838046 1.708986 0.160682 0
M  V30 42 H 3.649173 4.026827 -0.438193 0
M  V30 43 H 1.513726 5.496906 -2.153605 0
M  V30 44 H -0.442468 3.498413 -1.148580 0
M  V30 45 H -3.644131 -2.669684 1.489541 0
M  V30 46 H -4.346273 -4.949970 1.825727 0
M  V30 47 H -3.147022 -6.809691 0.697508 0
M  V30 48 H -1.227239 -6.332325 -0.787567 0
M  V30 49 H -0.521036 -4.052059 -1.138691 0
M  V30 50 H 0.443929 -2.472907 0.479201 0
M  V30 51 H -4.900001 1.048019 -1.491062 0
M  V30 END ATOM
M  V30 BEGIN BOND
M  V30 1 1 1 2
M  V30 2 1 2 3
M  V30 3 1 3 4
M  V30 4 1 4 5
M  V30 5 1 5 6
M  V30 6 1 6 7
M  V30 7 2 7 8
M  V30 8 1 8 9
M  V30 9 2 9 10
M  V30 10 1 10 11
M  V30 11 1 10 12
M  V30 12 2 12 13
M  V30 13 1 13 14
M  V30 14 2 14 15
M  V30 15 1 15 16
M  V30 16 2 16 17
M  V30 17 1 17 18
M  V30 18 2 18 19
M  V30 19 1 19 20
M  V30 20 2 20 21
M  V30 21 1 21 22
M  V30 22 2 22 23
M  V30 23 1 17 24
M  V30 24 2 24 25
M  V30 25 1 16 26
M  V30 26 2 26 27
M  V30 27 1 26 28
M  V30 28 1 28 29
M  V30 29 2 29 30
M  V30 30 1 25 6
M  V30 31 1 13 7
M  V30 32 1 25 14
M  V30 33 1 29 15
M  V30 34 1 23 18
M  V30 35 1 1 31
M  V30 36 1 1 32
M  V30 37 1 1 33
M  V30 38 1 2 34
M  V30 39 1 3 35
M  V30 40 1 3 36
M  V30 41 1 4 37
M  V30 42 1 4 38
M  V30 43 1 5 39
M  V30 44 1 5 40
M  V30 45 1 8 41
M  V30 46 1 9 42
M  V30 47 1 11 43
M  V30 48 1 12 44
M  V30 49 1 19 45
M  V30 50 1 20 46
M  V30 51 1 21 47
M  V30 52 1 22 48
M  V30 53 1 23 49
M  V30 54 1 24 50
M  V30 55 1 28 51
M  V30 END BOND
M  V30 END CTAB
M  END
>  <Dataset>  (470) 
ChEMBL_Kinases

>  <Ligand_Instance>  (470) 
nan

>  <PDB_ID>  (470) 
nan

>  <Standardized_SMILES>  (470) 
CNCCCn1c2ccc(O)cc2c2c3c(c(-c4ccccc4)cc21)C(=O)NC3=O

>  <Name>  (470) 
nan

>  <Pocket>  (470) 
nan

>  <ATP_Site>  (470) 
nan

>  <Peripheral>  (470) 
nan

>  <Num_H_Atoms_ProtBoundConf>  (470) 
nan

>  <Num_Resolved_Atoms>  (470) 
nan

>  <Num_Not_Resolved_Atoms>  (470) 
nan

$$$$
CHEMBL4551875
     RDKit          3D

  0  0  0  0  0  0  0  0  0  0999 V3000
M  V30 BEGIN CTAB
M  V30 COUNTS 25 26 0 0 0
M  V30 BEGIN ATOM
M  V30 1 N 1.896634 -1.642598 3.528555 0
M  V30 2 C 0.987938 -2.418246 2.772645 0
M  V30 3 N 0.764177 -3.675013 3.180223 0
M  V30 4 C -0.096217 -4.497292 2.513470 0
M  V30 5 C -0.758506 -4.015670 1.379339 0
M  V30 6 N -0.500107 -2.748535 1.011265 0
M  V30 7 C 0.343056 -1.920413 1.652239 0
M  V30 8 C 0.597493 -0.548873 1.220852 0
M  V30 9 O 1.413699 0.111413 1.919890 0
M  V30 10 N -0.058931 -0.032959 0.075504 0
M  V30 11 C 0.101566 1.281528 -0.446909 0
M  V30 12 C -0.689255 2.334470 -0.048716 0
M  V30 13 C -0.449112 3.568673 -0.618640 0
M  V30 14 C 0.529787 3.817687 -1.560090 0
M  V30 15 N 1.303563 2.769815 -1.944611 0
M  V30 16 C 1.076540 1.546586 -1.389507 0
M  V30 17 H 2.936059 -1.555202 3.572828 0
M  V30 18 H 1.234987 -1.083721 4.130683 0
M  V30 19 H -0.250503 -5.505902 2.873626 0
M  V30 20 H -1.445566 -4.655062 0.837332 0
M  V30 21 H -0.738529 -0.592115 -0.501294 0
M  V30 22 H -1.445460 2.146902 0.677150 0
M  V30 23 H -1.044941 4.399200 -0.329374 0
M  V30 24 H 0.687971 4.801622 -1.984882 0
M  V30 25 H 1.689103 0.709069 -1.691619 0
M  V30 END ATOM
M  V30 BEGIN BOND
M  V30 1 1 1 2
M  V30 2 2 2 3
M  V30 3 1 3 4
M  V30 4 2 4 5
M  V30 5 1 5 6
M  V30 6 2 6 7
M  V30 7 1 7 8
M  V30 8 2 8 9
M  V30 9 1 8 10
M  V30 10 1 10 11
M  V30 11 2 11 12
M  V30 12 1 12 13
M  V30 13 2 13 14
M  V30 14 1 14 15
M  V30 15 2 15 16
M  V30 16 1 7 2
M  V30 17 1 16 11
M  V30 18 1 1 17
M  V30 19 1 1 18
M  V30 20 1 4 19
M  V30 21 1 5 20
M  V30 22 1 10 21
M  V30 23 1 12 22
M  V30 24 1 13 23
M  V30 25 1 14 24
M  V30 26 1 16 25
M  V30 END BOND
M  V30 END CTAB
M  END
>  <Dataset>  (471) 
ChEMBL_Kinases

>  <Ligand_Instance>  (471) 
nan

>  <PDB_ID>  (471) 
nan

>  <Standardized_SMILES>  (471) 
Nc1nccnc1C(=O)Nc1cccnc1

>  <Name>  (471) 
nan

>  <Pocket>  (471) 
nan

>  <ATP_Site>  (471) 
nan

>  <Peripheral>  (471) 
nan

>  <Num_H_Atoms_ProtBoundConf>  (471) 
nan

>  <Num_Resolved_Atoms>  (471) 
nan

>  <Num_Not_Resolved_Atoms>  (471) 
nan

$$$$
CHEMBL4639781
     RDKit          3D

  0  0  0  0  0  0  0  0  0  0999 V3000
M  V30 BEGIN CTAB
M  V30 COUNTS 46 50 0 0 0
M  V30 BEGIN ATOM
M  V30 1 F 4.349027 0.510910 3.585047 0
M  V30 2 C 5.502819 0.360740 2.890891 0
M  V30 3 C 6.671533 0.379578 3.618913 0
M  V30 4 C 7.828548 0.221183 2.859094 0
M  V30 5 C 7.852245 0.056596 1.495583 0
M  V30 6 C 6.645193 0.047110 0.828212 0
M  V30 7 C 5.442280 0.198620 1.506691 0
M  V30 8 N 4.152273 0.203950 0.901902 0
M  V30 9 C 3.617420 1.408476 0.540869 0
M  V30 10 C 2.360196 1.171700 -0.025789 0
M  V30 11 C 1.466032 2.269126 -0.543864 0
M  V30 12 S 0.438825 2.753722 0.896899 0
M  V30 13 C -0.636911 1.384120 1.329798 0
M  V30 14 N -1.539307 1.344621 2.333652 0
M  V30 15 N -2.093347 0.144373 2.270518 0
M  V30 16 C -1.573188 -0.576971 1.261701 0
M  V30 17 C -1.983976 -1.965688 0.926752 0
M  V30 18 N -3.094860 -2.021399 -0.003883 0
M  V30 19 C -3.170893 -2.063260 -1.344725 0
M  V30 20 C -1.976178 -2.059319 -2.214412 0
M  V30 21 F -1.137277 -1.005639 -2.024350 0
M  V30 22 F -2.448343 -1.953029 -3.527805 0
M  V30 23 F -1.255633 -3.244622 -2.158696 0
M  V30 24 N -4.483639 -2.107437 -1.697553 0
M  V30 25 C -5.235500 -2.093904 -0.602961 0
M  V30 26 C -6.610936 -2.124818 -0.453125 0
M  V30 27 C -7.161744 -2.101004 0.817015 0
M  V30 28 C -6.316262 -2.046814 1.906383 0
M  V30 29 C -4.945086 -2.016512 1.743595 0
M  V30 30 C -4.373502 -2.039633 0.472805 0
M  V30 31 O -0.689489 0.228613 0.721832 0
M  V30 32 N 2.200368 -0.158790 0.021697 0
M  V30 33 N 3.252079 -0.727882 0.566151 0
M  V30 34 H 6.673965 0.507138 4.687713 0
M  V30 35 H 8.764118 0.234187 3.422585 0
M  V30 36 H 8.763285 -0.062243 0.941270 0
M  V30 37 H 6.577367 -0.075422 -0.226986 0
M  V30 38 H 4.040346 2.416071 0.646521 0
M  V30 39 H 2.091987 3.090878 -0.884239 0
M  V30 40 H 0.796504 1.825720 -1.280380 0
M  V30 41 H -1.106768 -2.555362 0.525968 0
M  V30 42 H -2.228722 -2.513796 1.876450 0
M  V30 43 H -7.296047 -2.167643 -1.268686 0
M  V30 44 H -8.239525 -2.123272 1.008637 0
M  V30 45 H -6.702701 -2.025468 2.930681 0
M  V30 46 H -4.298276 -1.973976 2.609529 0
M  V30 END ATOM
M  V30 BEGIN BOND
M  V30 1 1 1 2
M  V30 2 2 2 3
M  V30 3 1 3 4
M  V30 4 2 4 5
M  V30 5 1 5 6
M  V30 6 2 6 7
M  V30 7 1 7 8
M  V30 8 1 8 9
M  V30 9 2 9 10
M  V30 10 1 10 11
M  V30 11 1 11 12
M  V30 12 1 12 13
M  V30 13 2 13 14
M  V30 14 1 14 15
M  V30 15 2 15 16
M  V30 16 1 16 17
M  V30 17 1 17 18
M  V30 18 1 18 19
M  V30 19 1 19 20
M  V30 20 1 20 21
M  V30 21 1 20 22
M  V30 22 1 20 23
M  V30 23 2 19 24
M  V30 24 1 24 25
M  V30 25 2 25 26
M  V30 26 1 26 27
M  V30 27 2 27 28
M  V30 28 1 28 29
M  V30 29 2 29 30
M  V30 30 1 16 31
M  V30 31 1 10 32
M  V30 32 2 32 33
M  V30 33 1 7 2
M  V30 34 1 33 8
M  V30 35 1 31 13
M  V30 36 1 30 18
M  V30 37 1 30 25
M  V30 38 1 3 34
M  V30 39 1 4 35
M  V30 40 1 5 36
M  V30 41 1 6 37
M  V30 42 1 9 38
M  V30 43 1 11 39
M  V30 44 1 11 40
M  V30 45 1 17 41
M  V30 46 1 17 42
M  V30 47 1 26 43
M  V30 48 1 27 44
M  V30 49 1 28 45
M  V30 50 1 29 46
M  V30 END BOND
M  V30 END CTAB
M  END
>  <Dataset>  (472) 
ChEMBL_Kinases

>  <Ligand_Instance>  (472) 
nan

>  <PDB_ID>  (472) 
nan

>  <Standardized_SMILES>  (472) 
Fc1ccccc1-n1cc(CSc2nnc(Cn3c(C(F)(F)F)nc4ccccc43)o2)nn1

>  <Name>  (472) 
nan

>  <Pocket>  (472) 
nan

>  <ATP_Site>  (472) 
nan

>  <Peripheral>  (472) 
nan

>  <Num_H_Atoms_ProtBoundConf>  (472) 
nan

>  <Num_Resolved_Atoms>  (472) 
nan

>  <Num_Not_Resolved_Atoms>  (472) 
nan

$$$$
CHEMBL4551767
     RDKit          3D

  0  0  0  0  0  0  0  0  0  0999 V3000
M  V30 BEGIN CTAB
M  V30 COUNTS 42 45 0 0 0
M  V30 BEGIN ATOM
M  V30 1 C -0.158514 -4.531219 3.033263 0
M  V30 2 O 0.750334 -5.147817 2.161819 0
M  V30 3 C 1.415223 -4.528762 1.143408 0
M  V30 4 C 1.226085 -3.196912 0.896162 0
M  V30 5 C 1.854606 -2.497566 -0.107453 0
M  V30 6 C 1.788884 -1.106347 -0.528070 0
M  V30 7 N 1.731013 -1.087493 -2.004325 0
M  V30 8 C 1.567207 0.281794 -2.433260 0
M  V30 9 O 1.976274 0.756596 -3.550836 0
M  V30 10 C 0.910033 1.233404 -1.603681 0
M  V30 11 S 0.551438 2.984675 -1.823824 0
M  V30 12 C -0.291166 3.187058 -0.189893 0
M  V30 13 N -0.812555 4.305845 0.275394 0
M  V30 14 C -1.393383 4.302239 1.480871 0
M  V30 15 C -2.007992 5.499872 2.095685 0
M  V30 16 C -1.368571 3.075774 2.104014 0
M  V30 17 Br -2.198684 3.029315 3.847696 0
M  V30 18 C -0.831933 1.900937 1.638127 0
M  V30 19 C -0.895641 0.683443 2.452183 0
M  V30 20 C -0.241250 1.928383 0.398388 0
M  V30 21 C 0.360975 0.916957 -0.293260 0
M  V30 22 N 0.584415 -0.452912 -0.001144 0
M  V30 23 C 2.730735 -3.267941 -0.884468 0
M  V30 24 C 2.945086 -4.605925 -0.665152 0
M  V30 25 C 2.285019 -5.252904 0.357381 0
M  V30 26 O 2.451183 -6.603693 0.638931 0
M  V30 27 H 0.128144 -3.478231 3.283643 0
M  V30 28 H -0.295901 -5.058827 3.979375 0
M  V30 29 H -1.135158 -4.470777 2.495930 0
M  V30 30 H 0.556648 -2.600718 1.493683 0
M  V30 31 H 2.676410 -0.524832 -0.181272 0
M  V30 32 H 1.776148 -1.781083 -2.811097 0
M  V30 33 H -2.475848 6.185617 1.373061 0
M  V30 34 H -2.697058 5.153722 2.891354 0
M  V30 35 H -1.223988 6.105917 2.623467 0
M  V30 36 H 0.098997 0.196100 2.628652 0
M  V30 37 H -1.660029 -0.047203 2.124719 0
M  V30 38 H -1.230932 0.960561 3.499335 0
M  V30 39 H -0.113978 -0.970006 0.575263 0
M  V30 40 H 3.311987 -2.879195 -1.720456 0
M  V30 41 H 3.617232 -5.212454 -1.255723 0
M  V30 42 H 1.603397 -7.177942 0.593822 0
M  V30 END ATOM
M  V30 BEGIN BOND
M  V30 1 1 1 2
M  V30 2 1 2 3
M  V30 3 2 3 4
M  V30 4 1 4 5
M  V30 5 1 5 6
M  V30 6 1 6 7
M  V30 7 1 7 8
M  V30 8 2 8 9
M  V30 9 1 8 10
M  V30 10 1 10 11
M  V30 11 1 11 12
M  V30 12 2 12 13
M  V30 13 1 13 14
M  V30 14 1 14 15
M  V30 15 2 14 16
M  V30 16 1 16 17
M  V30 17 1 16 18
M  V30 18 1 18 19
M  V30 19 2 18 20
M  V30 20 1 20 21
M  V30 21 1 21 22
M  V30 22 2 5 23
M  V30 23 1 23 24
M  V30 24 2 24 25
M  V30 25 1 25 26
M  V30 26 1 25 3
M  V30 27 1 22 6
M  V30 28 2 21 10
M  V30 29 1 20 12
M  V30 30 1 1 27
M  V30 31 1 1 28
M  V30 32 1 1 29
M  V30 33 1 4 30
M  V30 34 1 6 31
M  V30 35 1 7 32
M  V30 36 1 15 33
M  V30 37 1 15 34
M  V30 38 1 15 35
M  V30 39 1 19 36
M  V30 40 1 19 37
M  V30 41 1 19 38
M  V30 42 1 22 39
M  V30 43 1 23 40
M  V30 44 1 24 41
M  V30 45 1 26 42
M  V30 END BOND
M  V30 END CTAB
M  END
>  <Dataset>  (473) 
ChEMBL_Kinases

>  <Ligand_Instance>  (473) 
nan

>  <PDB_ID>  (473) 
nan

>  <Standardized_SMILES>  (473) 
COc1cc(C2NC(=O)c3sc4nc(C)c(Br)c(C)c4c3N2)ccc1O

>  <Name>  (473) 
nan

>  <Pocket>  (473) 
nan

>  <ATP_Site>  (473) 
nan

>  <Peripheral>  (473) 
nan

>  <Num_H_Atoms_ProtBoundConf>  (473) 
nan

>  <Num_Resolved_Atoms>  (473) 
nan

>  <Num_Not_Resolved_Atoms>  (473) 
nan

$$$$
CHEMBL4551714
     RDKit          3D

  0  0  0  0  0  0  0  0  0  0999 V3000
M  V30 BEGIN CTAB
M  V30 COUNTS 63 67 0 0 0
M  V30 BEGIN ATOM
M  V30 1 C 3.924743 -2.073698 3.821005 0
M  V30 2 O 3.910914 -1.810468 2.483402 0
M  V30 3 C 3.276257 -2.742263 1.696152 0
M  V30 4 C 1.837114 -2.871545 2.093267 0 CFG=1
M  V30 5 C 1.194774 -1.530824 2.100195 0
M  V30 6 N 0.727715 -1.130226 0.775499 0
M  V30 7 C 0.459321 0.142978 0.365297 0
M  V30 8 C 0.053286 0.102935 -0.953515 0
M  V30 9 C -0.344811 1.223690 -1.794709 0
M  V30 10 N 0.296346 2.410236 -1.835725 0
M  V30 11 C -0.117424 3.412024 -2.650003 0
M  V30 12 N 0.492350 4.686654 -2.727552 0
M  V30 13 C 0.016735 5.853820 -2.061279 0
M  V30 14 C 0.614142 7.116466 -2.110393 0
M  V30 15 C -0.152514 7.981592 -1.344650 0
M  V30 16 N -1.171149 7.274831 -0.851396 0
M  V30 17 N -1.059359 6.024660 -1.280677 0
M  V30 18 C -2.020245 5.013959 -0.918784 0
M  V30 19 N -1.178770 3.301637 -3.465137 0
M  V30 20 C -1.842893 2.108640 -3.439340 0
M  V30 21 C -1.454051 1.045688 -2.615006 0
M  V30 22 C -2.248277 -0.193350 -2.666089 0
M  V30 23 C 0.090807 -1.236845 -1.306316 0
M  V30 24 C 0.508810 -1.995328 -0.230665 0
M  V30 25 C 0.707953 -3.442998 -0.057312 0
M  V30 26 O 0.507397 -4.266080 -0.990837 0
M  V30 27 N 1.142459 -3.847399 1.235628 0
M  V30 28 C 0.859896 -5.236064 1.633182 0
M  V30 29 C -0.459993 -5.331563 2.310959 0
M  V30 30 C -0.465482 -5.172786 3.680573 0
M  V30 31 C -1.711733 -5.268621 4.302377 0
M  V30 32 C -2.902925 -5.509035 3.620196 0
M  V30 33 C -2.799122 -5.654605 2.252062 0
M  V30 34 C -4.080044 -5.916542 1.538845 0
M  V30 35 N -1.599585 -5.567003 1.611595 0
M  V30 36 H 4.495343 -1.275269 4.395585 0
M  V30 37 H 4.409165 -3.029753 4.031493 0
M  V30 38 H 2.905661 -2.073049 4.303710 0
M  V30 39 H 3.379906 -2.382737 0.638746 0
M  V30 40 H 3.810294 -3.730877 1.805482 0
M  V30 41 H 1.830950 -3.251131 3.152721 0
M  V30 42 H 0.436606 -1.471215 2.878557 0
M  V30 43 H 2.005839 -0.795226 2.371918 0
M  V30 44 H 0.537204 1.052453 0.940368 0
M  V30 45 H 1.347907 4.752417 -3.318486 0
M  V30 46 H 1.514106 7.434916 -2.632298 0
M  V30 47 H -0.008421 9.033161 -1.147231 0
M  V30 48 H -2.753174 4.812887 -1.729875 0
M  V30 49 H -2.653005 5.326442 -0.033641 0
M  V30 50 H -1.488373 4.126547 -0.574415 0
M  V30 51 H -2.719734 1.970328 -4.089808 0
M  V30 52 H -2.286491 -0.718624 -1.689828 0
M  V30 53 H -3.323275 0.107152 -2.840886 0
M  V30 54 H -2.009851 -0.842633 -3.527747 0
M  V30 55 H -0.154286 -1.671478 -2.249607 0
M  V30 56 H 0.850448 -5.902529 0.768637 0
M  V30 57 H 1.670809 -5.521716 2.334452 0
M  V30 58 H 0.409016 -4.983458 4.290133 0
M  V30 59 H -1.777635 -5.151443 5.394131 0
M  V30 60 H -3.833018 -5.570986 4.172465 0
M  V30 61 H -4.638098 -6.750821 2.047144 0
M  V30 62 H -4.752065 -5.038685 1.577972 0
M  V30 63 H -3.873935 -6.289807 0.529754 0
M  V30 END ATOM
M  V30 BEGIN BOND
M  V30 1 1 1 2
M  V30 2 1 2 3
M  V30 3 1 3 4
M  V30 4 1 4 5
M  V30 5 1 5 6
M  V30 6 1 6 7
M  V30 7 2 7 8
M  V30 8 1 8 9
M  V30 9 2 9 10
M  V30 10 1 10 11
M  V30 11 1 11 12
M  V30 12 1 12 13
M  V30 13 2 13 14
M  V30 14 1 14 15
M  V30 15 2 15 16
M  V30 16 1 16 17
M  V30 17 1 17 18
M  V30 18 2 11 19
M  V30 19 1 19 20
M  V30 20 2 20 21
M  V30 21 1 21 22
M  V30 22 1 8 23
M  V30 23 2 23 24
M  V30 24 1 24 25
M  V30 25 2 25 26
M  V30 26 1 25 27
M  V30 27 1 27 28
M  V30 28 1 28 29
M  V30 29 2 29 30
M  V30 30 1 30 31
M  V30 31 2 31 32
M  V30 32 1 32 33
M  V30 33 1 33 34
M  V30 34 2 33 35
M  V30 35 1 27 4
M  V30 36 1 35 29
M  V30 37 1 24 6
M  V30 38 1 21 9
M  V30 39 1 17 13
M  V30 40 1 1 36
M  V30 41 1 1 37
M  V30 42 1 1 38
M  V30 43 1 3 39
M  V30 44 1 3 40
M  V30 45 1 4 41 CFG=1
M  V30 46 1 5 42
M  V30 47 1 5 43
M  V30 48 1 7 44
M  V30 49 1 12 45
M  V30 50 1 14 46
M  V30 51 1 15 47
M  V30 52 1 18 48
M  V30 53 1 18 49
M  V30 54 1 18 50
M  V30 55 1 20 51
M  V30 56 1 22 52
M  V30 57 1 22 53
M  V30 58 1 22 54
M  V30 59 1 23 55
M  V30 60 1 28 56
M  V30 61 1 28 57
M  V30 62 1 30 58
M  V30 63 1 31 59
M  V30 64 1 32 60
M  V30 65 1 34 61
M  V30 66 1 34 62
M  V30 67 1 34 63
M  V30 END BOND
M  V30 END CTAB
M  END
>  <Dataset>  (474) 
ChEMBL_Kinases

>  <Ligand_Instance>  (474) 
nan

>  <PDB_ID>  (474) 
nan

>  <Standardized_SMILES>  (474) 
COC[C@H]1Cn2cc(-c3nc(Nc4ccnn4C)ncc3C)cc2C(=O)N1Cc1cccc(C)n1

>  <Name>  (474) 
nan

>  <Pocket>  (474) 
nan

>  <ATP_Site>  (474) 
nan

>  <Peripheral>  (474) 
nan

>  <Num_H_Atoms_ProtBoundConf>  (474) 
nan

>  <Num_Resolved_Atoms>  (474) 
nan

>  <Num_Not_Resolved_Atoms>  (474) 
nan

$$$$
CHEMBL4638962
     RDKit          3D

  0  0  0  0  0  0  0  0  0  0999 V3000
M  V30 BEGIN CTAB
M  V30 COUNTS 67 71 0 0 0
M  V30 BEGIN ATOM
M  V30 1 C 6.658643 1.681716 1.251335 0
M  V30 2 O 5.377720 1.905845 1.832760 0
M  V30 3 C 4.284283 2.092852 1.050928 0
M  V30 4 C 4.115447 2.116579 -0.344922 0
M  V30 5 C 2.900123 2.327433 -0.951808 0
M  V30 6 C 2.746509 2.231710 -2.387392 0
M  V30 7 O 3.808423 2.685123 -2.947126 0
M  V30 8 N 1.626384 1.720839 -3.149971 0
M  V30 9 C 0.291900 1.163235 -2.996049 0
M  V30 10 C 1.872285 1.722619 -4.609439 0
M  V30 11 C 1.762031 2.538365 -0.186829 0
M  V30 12 C 1.853739 2.526582 1.184587 0
M  V30 13 C 3.098766 2.304425 1.676817 0
M  V30 14 N 3.063098 2.162778 3.142945 0
M  V30 15 C 1.954179 2.089777 4.142636 0
M  V30 16 N 0.989961 2.021129 5.007848 0
M  V30 17 C 0.160564 1.010552 4.943958 0
M  V30 18 C -0.977851 0.415370 5.506842 0
M  V30 19 C -1.591550 -0.730852 5.114237 0
M  V30 20 C -1.125445 -1.456729 4.054055 0
M  V30 21 C -1.527456 -2.650016 3.346057 0
M  V30 22 C -2.886255 -2.919316 3.250332 0
M  V30 23 C -3.372370 -3.972168 2.560829 0
M  V30 24 C -2.431816 -4.753331 1.971582 0
M  V30 25 N -2.582806 -5.898465 1.150876 0
M  V30 26 C -2.830399 -5.261306 -0.110774 0
M  V30 27 O -2.882254 -3.958093 -0.133141 0
M  V30 28 C -3.097777 -5.061671 -1.578731 0
M  V30 29 C -3.414895 -3.621391 -1.814111 0
M  V30 30 C -4.787244 -3.405200 -1.801571 0
M  V30 31 C -5.213259 -2.098377 -1.992272 0
M  V30 32 C -4.346873 -1.018758 -2.188614 0
M  V30 33 F -4.717737 0.265953 -2.361095 0
M  V30 34 C -3.006590 -1.366463 -2.179854 0
M  V30 35 C -2.459509 -2.623088 -2.001051 0
M  V30 36 C -1.045057 -4.563748 2.017172 0
M  V30 37 C -0.562152 -3.455540 2.741485 0
M  V30 38 C 0.006714 -0.873390 3.488992 0
M  V30 39 N 0.583191 0.270761 3.918799 0
M  V30 40 N 1.626408 0.962808 3.508546 0
M  V30 41 H 7.486032 1.683982 1.968783 0
M  V30 42 H 6.839976 2.517372 0.550235 0
M  V30 43 H 6.606835 0.741993 0.610619 0
M  V30 44 H 5.042685 1.944983 -0.895942 0
M  V30 45 H 0.290617 0.073471 -3.149819 0
M  V30 46 H -0.397426 1.627332 -3.758882 0
M  V30 47 H -0.187400 1.382920 -2.021868 0
M  V30 48 H 1.183930 2.441942 -5.089910 0
M  V30 49 H 1.663462 0.685767 -4.988665 0
M  V30 50 H 2.912068 1.959643 -4.834771 0
M  V30 51 H 0.769265 2.738061 -0.552374 0
M  V30 52 H 0.973972 2.685807 1.791835 0
M  V30 53 H 4.001380 2.085256 3.658365 0
M  V30 54 H -1.351988 0.991346 6.346461 0
M  V30 55 H -2.451040 -1.180043 5.549494 0
M  V30 56 H -3.615098 -2.262041 3.732565 0
M  V30 57 H -4.384742 -4.314859 2.391030 0
M  V30 58 H -2.650868 -6.822825 0.737972 0
M  V30 59 H -3.831330 -5.763887 -1.999266 0
M  V30 60 H -2.103912 -5.254218 -2.082525 0
M  V30 61 H -5.542197 -4.173573 -1.667759 0
M  V30 62 H -6.258671 -1.761037 -2.012791 0
M  V30 63 H -2.309743 -0.514152 -2.323317 0
M  V30 64 H -1.405534 -2.851655 -2.000365 0
M  V30 65 H -0.226865 -5.129086 1.571060 0
M  V30 66 H 0.510938 -3.264983 2.824066 0
M  V30 67 H 0.525342 -1.296278 2.621676 0
M  V30 END ATOM
M  V30 BEGIN BOND
M  V30 1 1 1 2
M  V30 2 1 2 3
M  V30 3 2 3 4
M  V30 4 1 4 5
M  V30 5 1 5 6
M  V30 6 2 6 7
M  V30 7 1 6 8
M  V30 8 1 8 9
M  V30 9 1 8 10
M  V30 10 2 5 11
M  V30 11 1 11 12
M  V30 12 2 12 13
M  V30 13 1 13 14
M  V30 14 1 14 15
M  V30 15 1 15 16
M  V30 16 2 16 17
M  V30 17 1 17 18
M  V30 18 2 18 19
M  V30 19 1 19 20
M  V30 20 1 20 21
M  V30 21 2 21 22
M  V30 22 1 22 23
M  V30 23 2 23 24
M  V30 24 1 24 25
M  V30 25 1 25 26
M  V30 26 2 26 27
M  V30 27 1 26 28
M  V30 28 1 28 29
M  V30 29 2 29 30
M  V30 30 1 30 31
M  V30 31 2 31 32
M  V30 32 1 32 33
M  V30 33 1 32 34
M  V30 34 2 34 35
M  V30 35 1 24 36
M  V30 36 2 36 37
M  V30 37 2 20 38
M  V30 38 1 38 39
M  V30 39 1 39 40
M  V30 40 1 13 3
M  V30 41 2 40 15
M  V30 42 1 39 17
M  V30 43 1 37 21
M  V30 44 1 35 29
M  V30 45 1 1 41
M  V30 46 1 1 42
M  V30 47 1 1 43
M  V30 48 1 4 44
M  V30 49 1 9 45
M  V30 50 1 9 46
M  V30 51 1 9 47
M  V30 52 1 10 48
M  V30 53 1 10 49
M  V30 54 1 10 50
M  V30 55 1 11 51
M  V30 56 1 12 52
M  V30 57 1 14 53
M  V30 58 1 18 54
M  V30 59 1 19 55
M  V30 60 1 22 56
M  V30 61 1 23 57
M  V30 62 1 25 58
M  V30 63 1 28 59
M  V30 64 1 28 60
M  V30 65 1 30 61
M  V30 66 1 31 62
M  V30 67 1 34 63
M  V30 68 1 35 64
M  V30 69 1 36 65
M  V30 70 1 37 66
M  V30 71 1 38 67
M  V30 END BOND
M  V30 END CTAB
M  END
>  <Dataset>  (475) 
ChEMBL_Kinases

>  <Ligand_Instance>  (475) 
nan

>  <PDB_ID>  (475) 
nan

>  <Standardized_SMILES>  (475) 
COc1cc(C(=O)N(C)C)ccc1Nc1nc2ccc(-c3ccc(NC(=O)Cc4ccc(F)cc4)cc3)cn2n1

>  <Name>  (475) 
nan

>  <Pocket>  (475) 
nan

>  <ATP_Site>  (475) 
nan

>  <Peripheral>  (475) 
nan

>  <Num_H_Atoms_ProtBoundConf>  (475) 
nan

>  <Num_Resolved_Atoms>  (475) 
nan

>  <Num_Not_Resolved_Atoms>  (475) 
nan

$$$$
CHEMBL4551662
     RDKit          3D

  0  0  0  0  0  0  0  0  0  0999 V3000
M  V30 BEGIN CTAB
M  V30 COUNTS 38 40 0 0 0
M  V30 BEGIN ATOM
M  V30 1 C 0.263758 -3.352624 3.457439 0
M  V30 2 C -0.698475 -2.733498 2.410961 0 CFG=2
M  V30 3 N -0.074438 -1.711754 1.696384 0
M  V30 4 C 0.489072 -0.648582 0.913294 0
M  V30 5 N -0.097768 0.065660 -0.058498 0
M  V30 6 C 0.423150 1.044779 -0.779371 0
M  V30 7 C -0.353001 1.727693 -1.807731 0
M  V30 8 C -1.654385 1.342311 -2.029533 0
M  V30 9 C -2.272910 2.074861 -3.033936 0
M  V30 10 N -1.676927 3.054299 -3.720633 0
M  V30 11 C -0.401501 3.393369 -3.465329 0
M  V30 12 C 0.317274 2.726425 -2.479106 0
M  V30 13 N 1.683111 1.311007 -0.459578 0
M  V30 14 C 2.409628 0.695739 0.479492 0
M  V30 15 C 3.700831 1.157393 0.621977 0
M  V30 16 N 4.454395 0.546106 1.569755 0
M  V30 17 C 3.941919 -0.460886 2.321914 0
M  V30 18 C 2.643020 -0.864416 2.118814 0
M  V30 19 C 1.795239 -0.312452 1.185798 0
M  V30 20 C -1.903408 -2.289214 3.189077 0
M  V30 21 O -2.684118 -2.944176 3.928214 0
M  V30 22 O -2.711647 -1.227691 3.520713 0
M  V30 23 C -1.131958 -3.912829 1.526687 0
M  V30 24 F -1.990577 -3.433155 0.571742 0
M  V30 25 F -1.794589 -4.845833 2.260764 0
M  V30 26 F -0.026696 -4.431986 0.896124 0
M  V30 27 H -0.261703 -4.183585 3.940033 0
M  V30 28 H 0.557206 -2.560093 4.157240 0
M  V30 29 H 1.151212 -3.776030 2.956437 0
M  V30 30 H -1.030530 -1.681065 1.226627 0
M  V30 31 H -2.139352 0.555285 -1.480528 0
M  V30 32 H -3.317378 1.845157 -3.290119 0
M  V30 33 H 0.094151 4.190040 -4.018864 0
M  V30 34 H 1.358291 2.971204 -2.239353 0
M  V30 35 H 4.092422 1.958846 0.015845 0
M  V30 36 H 4.519267 -0.968486 3.086597 0
M  V30 37 H 2.246442 -1.659332 2.716428 0
M  V30 38 H -2.444307 -0.483621 4.176404 0
M  V30 END ATOM
M  V30 BEGIN BOND
M  V30 1 1 1 2
M  V30 2 1 2 3 CFG=3
M  V30 3 1 3 4
M  V30 4 2 4 5
M  V30 5 1 5 6
M  V30 6 1 6 7
M  V30 7 2 7 8
M  V30 8 1 8 9
M  V30 9 2 9 10
M  V30 10 1 10 11
M  V30 11 2 11 12
M  V30 12 2 6 13
M  V30 13 1 13 14
M  V30 14 2 14 15
M  V30 15 1 15 16
M  V30 16 2 16 17
M  V30 17 1 17 18
M  V30 18 2 18 19
M  V30 19 1 2 20
M  V30 20 2 20 21
M  V30 21 1 20 22
M  V30 22 1 2 23
M  V30 23 1 23 24
M  V30 24 1 23 25
M  V30 25 1 23 26
M  V30 26 1 19 4
M  V30 27 1 12 7
M  V30 28 1 19 14
M  V30 29 1 1 27
M  V30 30 1 1 28
M  V30 31 1 1 29
M  V30 32 1 3 30
M  V30 33 1 8 31
M  V30 34 1 9 32
M  V30 35 1 11 33
M  V30 36 1 12 34
M  V30 37 1 15 35
M  V30 38 1 17 36
M  V30 39 1 18 37
M  V30 40 1 22 38
M  V30 END BOND
M  V30 END CTAB
M  END
>  <Dataset>  (476) 
ChEMBL_Kinases

>  <Ligand_Instance>  (476) 
nan

>  <PDB_ID>  (476) 
nan

>  <Standardized_SMILES>  (476) 
C[C@](Nc1nc(-c2ccncc2)nc2cnccc12)(C(=O)O)C(F)(F)F

>  <Name>  (476) 
nan

>  <Pocket>  (476) 
nan

>  <ATP_Site>  (476) 
nan

>  <Peripheral>  (476) 
nan

>  <Num_H_Atoms_ProtBoundConf>  (476) 
nan

>  <Num_Resolved_Atoms>  (476) 
nan

>  <Num_Not_Resolved_Atoms>  (476) 
nan

$$$$
CHEMBL4638970
     RDKit          3D

  0  0  0  0  0  0  0  0  0  0999 V3000
M  V30 BEGIN CTAB
M  V30 COUNTS 49 52 0 0 0
M  V30 BEGIN ATOM
M  V30 1 C -2.365891 -5.453236 3.108581 0
M  V30 2 C -0.864917 -5.330046 3.299324 0
M  V30 3 O -0.452641 -4.127892 2.685238 0
M  V30 4 C 0.868001 -3.702275 2.678476 0
M  V30 5 O 1.389464 -4.648688 3.313913 0
M  V30 6 C 1.457107 -2.505773 2.099546 0
M  V30 7 C 2.834533 -2.485309 2.348966 0
M  V30 8 N 3.618531 -1.477728 1.921499 0
M  V30 9 C 3.074588 -0.456932 1.234796 0
M  V30 10 C 3.809979 0.617636 0.760521 0
M  V30 11 C 3.153190 1.615086 0.066401 0
M  V30 12 C 1.805293 1.598126 -0.179435 0
M  V30 13 C 1.169172 2.683368 -0.917705 0
M  V30 14 C 1.803914 3.769784 -1.418649 0
M  V30 15 C 1.135678 4.770166 -2.113348 0
M  V30 16 Cl 2.061010 6.135716 -2.719197 0
M  V30 17 C -0.218303 4.699303 -2.325247 0
M  V30 18 O -0.800234 5.738207 -3.025822 0
M  V30 19 C -0.890343 3.610992 -1.830189 0
M  V30 20 Cl -2.618315 3.540606 -2.112164 0
M  V30 21 C -0.206364 2.624831 -1.140674 0
M  V30 22 N 1.105532 0.532336 0.296498 0
M  V30 23 C 1.718698 -0.459333 0.979034 0
M  V30 24 C 0.882543 -1.473491 1.400168 0
M  V30 25 N -0.495310 -1.607187 1.209767 0
M  V30 26 C -0.958148 -2.304239 0.005534 0
M  V30 27 C -2.033292 -1.471425 -0.651213 0
M  V30 28 O -3.158741 -1.497272 0.128936 0
M  V30 29 C -2.866373 -1.873030 1.435432 0
M  V30 30 C -1.629096 -1.189895 1.971178 0
M  V30 31 H -2.863746 -4.478057 3.288081 0
M  V30 32 H -2.660236 -5.829459 2.122409 0
M  V30 33 H -2.800328 -6.162012 3.867420 0
M  V30 34 H -0.338550 -6.193159 2.885761 0
M  V30 35 H -0.659607 -5.324923 4.394574 0
M  V30 36 H 3.424011 -3.231197 2.887175 0
M  V30 37 H 4.872797 0.590855 0.977284 0
M  V30 38 H 3.805955 2.399070 -0.257569 0
M  V30 39 H 2.849524 3.872537 -1.282245 0
M  V30 40 H -1.401378 6.386687 -2.540400 0
M  V30 41 H -0.844343 1.820333 -0.800879 0
M  V30 42 H -0.121944 -2.339844 -0.755437 0
M  V30 43 H -1.240577 -3.339993 0.174850 0
M  V30 44 H -1.654963 -0.432496 -0.771964 0
M  V30 45 H -2.209090 -1.840155 -1.686111 0
M  V30 46 H -2.797802 -2.979722 1.424836 0
M  V30 47 H -3.780232 -1.566229 2.027486 0
M  V30 48 H -1.541531 -1.236175 3.052542 0
M  V30 49 H -1.774326 -0.095912 1.727624 0
M  V30 END ATOM
M  V30 BEGIN BOND
M  V30 1 1 1 2
M  V30 2 1 2 3
M  V30 3 1 3 4
M  V30 4 2 4 5
M  V30 5 1 4 6
M  V30 6 2 6 7
M  V30 7 1 7 8
M  V30 8 2 8 9
M  V30 9 1 9 10
M  V30 10 2 10 11
M  V30 11 1 11 12
M  V30 12 1 12 13
M  V30 13 2 13 14
M  V30 14 1 14 15
M  V30 15 1 15 16
M  V30 16 2 15 17
M  V30 17 1 17 18
M  V30 18 1 17 19
M  V30 19 1 19 20
M  V30 20 2 19 21
M  V30 21 2 12 22
M  V30 22 1 22 23
M  V30 23 2 23 24
M  V30 24 1 24 25
M  V30 25 1 25 26
M  V30 26 1 26 27
M  V30 27 1 27 28
M  V30 28 1 28 29
M  V30 29 1 29 30
M  V30 30 1 24 6
M  V30 31 1 30 25
M  V30 32 1 23 9
M  V30 33 1 21 13
M  V30 34 1 1 31
M  V30 35 1 1 32
M  V30 36 1 1 33
M  V30 37 1 2 34
M  V30 38 1 2 35
M  V30 39 1 7 36
M  V30 40 1 10 37
M  V30 41 1 11 38
M  V30 42 1 14 39
M  V30 43 1 18 40
M  V30 44 1 21 41
M  V30 45 1 26 42
M  V30 46 1 26 43
M  V30 47 1 27 44
M  V30 48 1 27 45
M  V30 49 1 29 46
M  V30 50 1 29 47
M  V30 51 1 30 48
M  V30 52 1 30 49
M  V30 END BOND
M  V30 END CTAB
M  END
>  <Dataset>  (477) 
ChEMBL_Kinases

>  <Ligand_Instance>  (477) 
nan

>  <PDB_ID>  (477) 
nan

>  <Standardized_SMILES>  (477) 
CCOC(=O)c1cnc2ccc(-c3cc(Cl)c(O)c(Cl)c3)nc2c1N1CCOCC1

>  <Name>  (477) 
nan

>  <Pocket>  (477) 
nan

>  <ATP_Site>  (477) 
nan

>  <Peripheral>  (477) 
nan

>  <Num_H_Atoms_ProtBoundConf>  (477) 
nan

>  <Num_Resolved_Atoms>  (477) 
nan

>  <Num_Not_Resolved_Atoms>  (477) 
nan

$$$$
CHEMBL4638973
     RDKit          3D

  0  0  0  0  0  0  0  0  0  0999 V3000
M  V30 BEGIN CTAB
M  V30 COUNTS 64 67 0 0 0
M  V30 BEGIN ATOM
M  V30 1 C 0.079506 -5.770104 -0.518349 0
M  V30 2 C 0.910092 -5.169849 -1.630742 0
M  V30 3 O 1.485274 -3.963249 -1.154825 0
M  V30 4 C 2.359037 -3.225888 -1.893011 0
M  V30 5 O 1.542143 -3.961606 -1.267766 0
M  V30 6 C 2.859031 -1.988789 -1.177902 0
M  V30 7 C 4.106110 -1.551452 -1.549618 0
M  V30 8 N 4.713277 -0.592539 -0.858762 0
M  V30 9 C 4.212240 0.039027 0.228987 0
M  V30 10 C 4.844645 1.049216 0.912271 0
M  V30 11 C 4.125459 1.561024 1.960256 0
M  V30 12 C 2.875951 1.150816 2.353481 0
M  V30 13 C 2.147315 1.657564 3.378445 0
M  V30 14 C 2.185250 2.665300 4.403806 0
M  V30 15 C 1.316005 2.972244 5.406486 0
M  V30 16 Cl 1.789547 4.303932 6.438721 0
M  V30 17 C 0.196788 2.229872 5.494226 0
M  V30 18 O -0.682790 2.539313 6.515266 0
M  V30 19 C -0.082915 1.191088 4.617556 0
M  V30 20 Cl -1.546609 0.242317 4.756006 0
M  V30 21 C 0.908417 1.027797 3.673389 0
M  V30 22 N 2.406199 0.173846 1.601288 0
M  V30 23 C 2.981096 -0.424012 0.555753 0
M  V30 24 C 2.241001 -1.422932 -0.091344 0
M  V30 25 N 0.896265 -1.587881 0.260151 0
M  V30 26 C -0.448664 -2.015078 0.085174 0 CFG=1
M  V30 27 C -1.465728 -1.547144 1.117977 0
M  V30 28 C -2.872784 -1.633101 0.559511 0
M  V30 29 C -3.057264 -0.579246 -0.476534 0 CFG=2
M  V30 30 C -3.893175 -1.031122 -1.641756 0
M  V30 31 N -3.999653 0.062506 -2.590574 0
M  V30 32 C -4.622669 1.236541 -2.067377 0
M  V30 33 C -4.724416 2.356486 -3.060552 0
M  V30 34 O -5.125857 1.650327 -1.019495 0
M  V30 35 C -1.694646 -0.149318 -0.951017 0
M  V30 36 C -0.884591 -1.380958 -1.257995 0
M  V30 37 H 0.024713 -6.877191 -0.651898 0
M  V30 38 H -0.971295 -5.431278 -0.518096 0
M  V30 39 H 0.494284 -5.506938 0.490512 0
M  V30 40 H 1.643128 -5.942918 -1.924907 0
M  V30 41 H 0.282951 -5.008338 -2.554365 0
M  V30 42 H 4.666095 -1.951957 -2.387972 0
M  V30 43 H 5.811829 1.376301 0.608358 0
M  V30 44 H 4.543616 2.368003 2.574057 0
M  V30 45 H 3.142859 3.202645 4.202402 0
M  V30 46 H -1.609862 2.152688 6.472916 0
M  V30 47 H 0.574442 0.174356 3.036632 0
M  V30 48 H 0.720392 -1.243650 1.205642 0
M  V30 49 H -0.589173 -3.111771 0.027528 0
M  V30 50 H -1.459926 -2.308456 1.970431 0
M  V30 51 H -1.257968 -0.564721 1.500984 0
M  V30 52 H -3.137830 -2.652631 0.252614 0
M  V30 53 H -3.532370 -1.397225 1.438810 0
M  V30 54 H -3.596470 0.285754 0.000017 0
M  V30 55 H -4.924450 -1.202906 -1.245888 0
M  V30 56 H -3.500813 -1.881865 -2.200835 0
M  V30 57 H -3.650747 0.019157 -3.583787 0
M  V30 58 H -4.360293 3.314248 -2.641018 0
M  V30 59 H -5.783486 2.568418 -3.329462 0
M  V30 60 H -4.058393 2.185824 -3.936084 0
M  V30 61 H -1.745288 0.454992 -1.897061 0
M  V30 62 H -1.215042 0.421479 -0.146260 0
M  V30 63 H -1.392739 -2.113055 -1.900717 0
M  V30 64 H 0.013420 -1.029293 -1.839970 0
M  V30 END ATOM
M  V30 BEGIN BOND
M  V30 1 1 1 2
M  V30 2 1 2 3
M  V30 3 1 3 4
M  V30 4 2 4 5
M  V30 5 1 4 6
M  V30 6 2 6 7
M  V30 7 1 7 8
M  V30 8 2 8 9
M  V30 9 1 9 10
M  V30 10 2 10 11
M  V30 11 1 11 12
M  V30 12 1 12 13
M  V30 13 2 13 14
M  V30 14 1 14 15
M  V30 15 1 15 16
M  V30 16 2 15 17
M  V30 17 1 17 18
M  V30 18 1 17 19
M  V30 19 1 19 20
M  V30 20 2 19 21
M  V30 21 2 12 22
M  V30 22 1 22 23
M  V30 23 2 23 24
M  V30 24 1 24 25
M  V30 25 1 25 26
M  V30 26 1 26 27
M  V30 27 1 27 28
M  V30 28 1 28 29
M  V30 29 1 29 30
M  V30 30 1 30 31
M  V30 31 1 31 32
M  V30 32 1 32 33
M  V30 33 2 32 34
M  V30 34 1 29 35
M  V30 35 1 35 36
M  V30 36 1 24 6
M  V30 37 1 36 26
M  V30 38 1 23 9
M  V30 39 1 21 13
M  V30 40 1 1 37
M  V30 41 1 1 38
M  V30 42 1 1 39
M  V30 43 1 2 40
M  V30 44 1 2 41
M  V30 45 1 7 42
M  V30 46 1 10 43
M  V30 47 1 11 44
M  V30 48 1 14 45
M  V30 49 1 18 46
M  V30 50 1 21 47
M  V30 51 1 25 48
M  V30 52 1 26 49 CFG=3
M  V30 53 1 27 50
M  V30 54 1 27 51
M  V30 55 1 28 52
M  V30 56 1 28 53
M  V30 57 1 29 54 CFG=1
M  V30 58 1 30 55
M  V30 59 1 30 56
M  V30 60 1 31 57
M  V30 61 1 33 58
M  V30 62 1 33 59
M  V30 63 1 33 60
M  V30 64 1 35 61
M  V30 65 1 35 62
M  V30 66 1 36 63
M  V30 67 1 36 64
M  V30 END BOND
M  V30 END CTAB
M  END
>  <Dataset>  (478) 
ChEMBL_Kinases

>  <Ligand_Instance>  (478) 
nan

>  <PDB_ID>  (478) 
nan

>  <Standardized_SMILES>  (478) 
CCOC(=O)c1cnc2ccc(-c3cc(Cl)c(O)c(Cl)c3)nc2c1N[C@H]1CC[C@H](CNC(C)=O)CC1

>  <Name>  (478) 
nan

>  <Pocket>  (478) 
nan

>  <ATP_Site>  (478) 
nan

>  <Peripheral>  (478) 
nan

>  <Num_H_Atoms_ProtBoundConf>  (478) 
nan

>  <Num_Resolved_Atoms>  (478) 
nan

>  <Num_Not_Resolved_Atoms>  (478) 
nan

$$$$
CHEMBL455156
     RDKit          3D

  0  0  0  0  0  0  0  0  0  0999 V3000
M  V30 BEGIN CTAB
M  V30 COUNTS 51 55 0 0 0
M  V30 BEGIN ATOM
M  V30 1 O -0.678674 -0.319223 2.036736 0
M  V30 2 C -0.041941 -1.335967 1.658940 0
M  V30 3 N 1.332765 -1.452350 1.992688 0
M  V30 4 C 1.739974 -0.291839 2.752333 0
M  V30 5 C 2.220434 0.794225 2.042448 0
M  V30 6 C 2.609392 1.904759 2.779146 0
M  V30 7 C 3.137974 3.128574 2.161734 0
M  V30 8 C 3.287663 3.263907 0.786186 0
M  V30 9 C 3.804309 4.526610 0.560470 0
M  V30 10 C 4.160048 5.219137 -0.600394 0
M  V30 11 O 4.004871 4.634595 -1.699388 0
M  V30 12 N 4.645730 6.453972 -0.540796 0
M  V30 13 C 4.787244 7.024494 0.674144 0
M  V30 14 N 4.458862 6.401632 1.838972 0
M  V30 15 C 3.963086 5.142372 1.785249 0
M  V30 16 N 3.549581 4.266968 2.734500 0
M  V30 17 C 2.493530 1.854485 4.150292 0
M  V30 18 C 2.010346 0.762178 4.863748 0
M  V30 19 N 1.641787 -0.302840 4.093471 0
M  V30 20 C -0.762736 -2.347884 0.890658 0
M  V30 21 C -2.098504 -2.127969 0.624802 0
M  V30 22 C -2.837802 -3.041209 -0.094219 0
M  V30 23 C -2.316930 -4.198159 -0.582119 0
M  V30 24 C -2.977981 -5.270788 -1.355818 0
M  V30 25 C -3.866736 -4.790789 -2.442739 0
M  V30 26 C -5.240279 -4.671174 -1.882871 0
M  V30 27 C -5.230333 -5.387966 -0.574666 0
M  V30 28 C -3.890023 -6.032518 -0.435489 0
M  V30 29 C -0.970668 -4.369912 -0.286771 0
M  V30 30 C -0.174327 -3.497316 0.426161 0
M  V30 31 H 1.876893 -2.288903 1.687686 0
M  V30 32 H 2.306101 0.820391 0.966305 0
M  V30 33 H 3.045026 2.521539 0.043226 0
M  V30 34 H 4.924092 7.004936 -1.397586 0
M  V30 35 H 5.182570 8.029865 0.724149 0
M  V30 36 H 3.543196 4.431517 3.761176 0
M  V30 37 H 2.787748 2.704835 4.765795 0
M  V30 38 H 1.939350 0.773336 5.942173 0
M  V30 39 H -2.628361 -1.236046 0.963980 0
M  V30 40 H -3.880985 -2.857215 -0.302659 0
M  V30 41 H -2.211291 -5.965585 -1.810656 0
M  V30 42 H -3.508908 -3.873800 -2.952312 0
M  V30 43 H -3.905291 -5.576788 -3.246709 0
M  V30 44 H -6.019009 -5.150008 -2.546403 0
M  V30 45 H -5.604182 -3.614563 -1.790227 0
M  V30 46 H -6.053027 -6.149162 -0.501541 0
M  V30 47 H -5.333024 -4.632370 0.240418 0
M  V30 48 H -3.480448 -5.938117 0.598104 0
M  V30 49 H -3.901947 -7.100629 -0.758143 0
M  V30 50 H -0.451465 -5.275275 -0.636480 0
M  V30 51 H 0.860000 -3.694670 0.616958 0
M  V30 END ATOM
M  V30 BEGIN BOND
M  V30 1 2 1 2
M  V30 2 1 2 3
M  V30 3 1 3 4
M  V30 4 2 4 5
M  V30 5 1 5 6
M  V30 6 1 6 7
M  V30 7 2 7 8
M  V30 8 1 8 9
M  V30 9 1 9 10
M  V30 10 2 10 11
M  V30 11 1 10 12
M  V30 12 1 12 13
M  V30 13 2 13 14
M  V30 14 1 14 15
M  V30 15 1 15 16
M  V30 16 2 6 17
M  V30 17 1 17 18
M  V30 18 2 18 19
M  V30 19 1 2 20
M  V30 20 2 20 21
M  V30 21 1 21 22
M  V30 22 2 22 23
M  V30 23 1 23 24
M  V30 24 1 24 25
M  V30 25 1 25 26
M  V30 26 1 26 27
M  V30 27 1 27 28
M  V30 28 1 23 29
M  V30 29 2 29 30
M  V30 30 1 19 4
M  V30 31 1 30 20
M  V30 32 1 16 7
M  V30 33 1 28 24
M  V30 34 2 15 9
M  V30 35 1 3 31
M  V30 36 1 5 32
M  V30 37 1 8 33
M  V30 38 1 12 34
M  V30 39 1 13 35
M  V30 40 1 16 36
M  V30 41 1 17 37
M  V30 42 1 18 38
M  V30 43 1 21 39
M  V30 44 1 22 40
M  V30 45 1 24 41
M  V30 46 1 25 42
M  V30 47 1 25 43
M  V30 48 1 26 44
M  V30 49 1 26 45
M  V30 50 1 27 46
M  V30 51 1 27 47
M  V30 52 1 28 48
M  V30 53 1 28 49
M  V30 54 1 29 50
M  V30 55 1 30 51
M  V30 END BOND
M  V30 END CTAB
M  END
>  <Dataset>  (479) 
ChEMBL_Kinases

>  <Ligand_Instance>  (479) 
nan

>  <PDB_ID>  (479) 
nan

>  <Standardized_SMILES>  (479) 
O=C(Nc1cc(-c2cc3c(=O)[nH]cnc3[nH]2)ccn1)c1ccc(C2CCCC2)cc1

>  <Name>  (479) 
nan

>  <Pocket>  (479) 
nan

>  <ATP_Site>  (479) 
nan

>  <Peripheral>  (479) 
nan

>  <Num_H_Atoms_ProtBoundConf>  (479) 
nan

>  <Num_Resolved_Atoms>  (479) 
nan

>  <Num_Not_Resolved_Atoms>  (479) 
nan

$$$$
CHEMBL4551490
     RDKit          3D

  0  0  0  0  0  0  0  0  0  0999 V3000
M  V30 BEGIN CTAB
M  V30 COUNTS 63 67 0 0 0
M  V30 BEGIN ATOM
M  V30 1 C -0.510685 -0.983127 2.844478 0
M  V30 2 C 0.478852 -1.727683 2.026930 0
M  V30 3 C 1.543223 -0.975341 1.559842 0
M  V30 4 N 1.673380 0.409355 1.842071 0
M  V30 5 C 2.237149 1.265217 2.795025 0
M  V30 6 O 2.811528 0.587909 3.684430 0
M  V30 7 C 2.133056 2.709986 2.703081 0
M  V30 8 C 2.781309 3.338340 3.775240 0
M  V30 9 C 2.793887 4.719807 3.864943 0
M  V30 10 C 2.182934 5.527312 2.924616 0
M  V30 11 N 1.577804 4.876050 1.920400 0
M  V30 12 C 0.910753 5.585768 0.884023 0
M  V30 13 C -0.118160 6.501765 0.953493 0
M  V30 14 C -0.616221 7.070835 -0.197754 0
M  V30 15 C -0.139147 6.776484 -1.458301 0
M  V30 16 F -0.662056 7.362109 -2.558919 0
M  V30 17 C 0.893157 5.858452 -1.537961 0
M  V30 18 C 1.401220 5.281004 -0.392200 0
M  V30 19 C 1.554960 3.565759 1.817941 0
M  V30 20 O 0.985546 2.964357 0.873797 0
M  V30 21 C 2.491643 -1.633252 0.792035 0
M  V30 22 C 2.395313 -2.996846 0.491080 0
M  V30 23 C 1.298023 -3.660698 1.001809 0
M  V30 24 O 1.243529 -5.006685 0.679169 0
M  V30 25 C 0.264664 -5.636746 -0.033618 0
M  V30 26 C 0.496878 -7.013921 -0.120468 0
M  V30 27 C -0.367542 -7.862579 -0.799321 0
M  V30 28 N -1.469232 -7.336551 -1.394716 0
M  V30 29 C -1.724714 -6.015681 -1.331841 0
M  V30 30 N -2.841447 -5.354943 -1.913770 0
M  V30 31 C -4.153091 -5.029173 -1.480829 0
M  V30 32 O -4.585965 -5.322958 -0.342552 0
M  V30 33 C -4.942837 -4.306550 -2.526629 0
M  V30 34 C -4.729764 -4.645270 -3.964466 0
M  V30 35 C -4.219470 -3.341888 -3.431667 0
M  V30 36 C -0.869984 -5.168143 -0.659373 0
M  V30 37 C 0.314101 -3.075057 1.773141 0
M  V30 38 C -0.845633 -3.834030 2.306466 0
M  V30 39 H -1.352674 -1.613517 3.203504 0
M  V30 40 H -0.872002 -0.044819 2.348612 0
M  V30 41 H 0.013501 -0.645146 3.786573 0
M  V30 42 H 1.141621 0.711262 1.001436 0
M  V30 43 H 3.299644 2.828443 4.581019 0
M  V30 44 H 3.288645 5.219500 4.684074 0
M  V30 45 H 2.155277 6.604996 2.934097 0
M  V30 46 H -0.441265 6.684654 1.961802 0
M  V30 47 H -1.416169 7.776557 -0.086230 0
M  V30 48 H 1.265123 5.629866 -2.528196 0
M  V30 49 H 2.213549 4.573230 -0.590948 0
M  V30 50 H 3.340433 -1.065675 0.410846 0
M  V30 51 H 3.152509 -3.479699 -0.110594 0
M  V30 52 H 1.343922 -7.552619 0.314427 0
M  V30 53 H -0.212505 -8.929381 -0.882474 0
M  V30 54 H -2.436304 -5.128521 -2.859424 0
M  V30 55 H -5.960899 -4.048333 -2.206084 0
M  V30 56 H -4.031875 -5.458573 -4.240234 0
M  V30 57 H -5.571630 -4.551807 -4.681434 0
M  V30 58 H -4.758790 -2.399910 -3.717663 0
M  V30 59 H -3.108131 -3.277029 -3.386911 0
M  V30 60 H -0.985500 -4.097307 -0.556558 0
M  V30 61 H -1.724475 -3.599598 1.670375 0
M  V30 62 H -1.018727 -3.627945 3.381889 0
M  V30 63 H -0.645704 -4.914582 2.218763 0
M  V30 END ATOM
M  V30 BEGIN BOND
M  V30 1 1 1 2
M  V30 2 2 2 3
M  V30 3 1 3 4
M  V30 4 1 4 5
M  V30 5 2 5 6
M  V30 6 1 5 7
M  V30 7 2 7 8
M  V30 8 1 8 9
M  V30 9 2 9 10
M  V30 10 1 10 11
M  V30 11 1 11 12
M  V30 12 2 12 13
M  V30 13 1 13 14
M  V30 14 2 14 15
M  V30 15 1 15 16
M  V30 16 1 15 17
M  V30 17 2 17 18
M  V30 18 1 11 19
M  V30 19 2 19 20
M  V30 20 1 3 21
M  V30 21 2 21 22
M  V30 22 1 22 23
M  V30 23 1 23 24
M  V30 24 1 24 25
M  V30 25 2 25 26
M  V30 26 1 26 27
M  V30 27 2 27 28
M  V30 28 1 28 29
M  V30 29 1 29 30
M  V30 30 1 30 31
M  V30 31 2 31 32
M  V30 32 1 31 33
M  V30 33 1 33 34
M  V30 34 1 34 35
M  V30 35 2 29 36
M  V30 36 2 23 37
M  V30 37 1 37 38
M  V30 38 1 37 2
M  V30 39 1 19 7
M  V30 40 1 36 25
M  V30 41 1 18 12
M  V30 42 1 35 33
M  V30 43 1 1 39
M  V30 44 1 1 40
M  V30 45 1 1 41
M  V30 46 1 4 42
M  V30 47 1 8 43
M  V30 48 1 9 44
M  V30 49 1 10 45
M  V30 50 1 13 46
M  V30 51 1 14 47
M  V30 52 1 17 48
M  V30 53 1 18 49
M  V30 54 1 21 50
M  V30 55 1 22 51
M  V30 56 1 26 52
M  V30 57 1 27 53
M  V30 58 1 30 54
M  V30 59 1 33 55
M  V30 60 1 34 56
M  V30 61 1 34 57
M  V30 62 1 35 58
M  V30 63 1 35 59
M  V30 64 1 36 60
M  V30 65 1 38 61
M  V30 66 1 38 62
M  V30 67 1 38 63
M  V30 END BOND
M  V30 END CTAB
M  END
>  <Dataset>  (480) 
ChEMBL_Kinases

>  <Ligand_Instance>  (480) 
nan

>  <PDB_ID>  (480) 
nan

>  <Standardized_SMILES>  (480) 
Cc1c(NC(=O)c2cccn(-c3ccc(F)cc3)c2=O)ccc(Oc2ccnc(NC(=O)C3CC3)c2)c1C

>  <Name>  (480) 
nan

>  <Pocket>  (480) 
nan

>  <ATP_Site>  (480) 
nan

>  <Peripheral>  (480) 
nan

>  <Num_H_Atoms_ProtBoundConf>  (480) 
nan

>  <Num_Resolved_Atoms>  (480) 
nan

>  <Num_Not_Resolved_Atoms>  (480) 
nan

$$$$
CHEMBL4551335
     RDKit          3D

  0  0  0  0  0  0  0  0  0  0999 V3000
M  V30 BEGIN CTAB
M  V30 COUNTS 42 45 0 0 0
M  V30 BEGIN ATOM
M  V30 1 F 3.366389 -0.959521 3.839591 0
M  V30 2 C 3.400951 -2.258527 3.416568 0
M  V30 3 F 3.631732 -3.096051 4.507993 0
M  V30 4 F 4.395938 -2.486817 2.484174 0
M  V30 5 C 2.089732 -2.707404 2.810167 0 CFG=1
M  V30 6 C 1.773040 -1.823941 1.609036 0
M  V30 7 N 0.374937 -2.051174 1.199728 0
M  V30 8 C -0.323131 -0.925534 0.733803 0
M  V30 9 C 0.434278 0.130825 0.214138 0
M  V30 10 C -0.139200 1.257852 -0.317611 0
M  V30 11 C 0.615984 2.373803 -0.867323 0
M  V30 12 C -0.056483 3.461331 -1.379498 0
M  V30 13 C 0.598037 4.553451 -1.916100 0
M  V30 14 N 1.942996 4.571244 -1.947178 0
M  V30 15 C 2.659728 3.540164 -1.462910 0
M  V30 16 C 1.990152 2.458136 -0.930914 0
M  V30 17 N -1.477011 1.363824 -0.346166 0
M  V30 18 C -2.301628 0.413608 0.124674 0
M  V30 19 C -3.671285 0.511637 0.111314 0
M  V30 20 N -4.444445 -0.490716 0.618166 0
M  V30 21 C -3.854673 -1.602210 1.144266 0
M  V30 22 C -2.499720 -1.670485 1.143192 0
M  V30 23 C -1.674114 -0.691299 0.645063 0
M  V30 24 C 0.142879 -3.462198 1.378094 0
M  V30 25 C 1.431899 -4.288295 1.158282 0
M  V30 26 N 2.333523 -4.070645 2.281616 0
M  V30 27 H 1.263930 -2.732619 3.549672 0
M  V30 28 H 1.932149 -0.775623 1.956471 0
M  V30 29 H 2.462594 -2.139970 0.804029 0
M  V30 30 H 1.497163 0.116541 0.200541 0
M  V30 31 H -1.137552 3.520906 -1.390076 0
M  V30 32 H 0.054874 5.400909 -2.314902 0
M  V30 33 H 3.727738 3.546562 -1.483863 0
M  V30 34 H 2.573249 1.651126 -0.552247 0
M  V30 35 H -4.065773 1.421774 -0.321433 0
M  V30 36 H -4.566101 -2.313611 1.508564 0
M  V30 37 H -2.111965 -2.560204 1.580854 0
M  V30 38 H -0.535230 -3.900516 0.582246 0
M  V30 39 H -0.230508 -3.690384 2.401572 0
M  V30 40 H 1.836151 -3.967638 0.188684 0
M  V30 41 H 1.100961 -5.341403 1.120616 0
M  V30 42 H 3.322706 -4.079456 1.948819 0
M  V30 END ATOM
M  V30 BEGIN BOND
M  V30 1 1 1 2
M  V30 2 1 2 3
M  V30 3 1 2 4
M  V30 4 1 2 5
M  V30 5 1 5 6
M  V30 6 1 6 7
M  V30 7 1 7 8
M  V30 8 2 8 9
M  V30 9 1 9 10
M  V30 10 1 10 11
M  V30 11 2 11 12
M  V30 12 1 12 13
M  V30 13 2 13 14
M  V30 14 1 14 15
M  V30 15 2 15 16
M  V30 16 2 10 17
M  V30 17 1 17 18
M  V30 18 2 18 19
M  V30 19 1 19 20
M  V30 20 2 20 21
M  V30 21 1 21 22
M  V30 22 2 22 23
M  V30 23 1 7 24
M  V30 24 1 24 25
M  V30 25 1 25 26
M  V30 26 1 26 5
M  V30 27 1 23 8
M  V30 28 1 16 11
M  V30 29 1 23 18
M  V30 30 1 5 27 CFG=1
M  V30 31 1 6 28
M  V30 32 1 6 29
M  V30 33 1 9 30
M  V30 34 1 12 31
M  V30 35 1 13 32
M  V30 36 1 15 33
M  V30 37 1 16 34
M  V30 38 1 19 35
M  V30 39 1 21 36
M  V30 40 1 22 37
M  V30 41 1 24 38
M  V30 42 1 24 39
M  V30 43 1 25 40
M  V30 44 1 25 41
M  V30 45 1 26 42
M  V30 END BOND
M  V30 END CTAB
M  END
>  <Dataset>  (481) 
ChEMBL_Kinases

>  <Ligand_Instance>  (481) 
nan

>  <PDB_ID>  (481) 
nan

>  <Standardized_SMILES>  (481) 
FC(F)(F)[C@H]1CN(c2cc(-c3ccncc3)nc3cnccc23)CCN1

>  <Name>  (481) 
nan

>  <Pocket>  (481) 
nan

>  <ATP_Site>  (481) 
nan

>  <Peripheral>  (481) 
nan

>  <Num_H_Atoms_ProtBoundConf>  (481) 
nan

>  <Num_Resolved_Atoms>  (481) 
nan

>  <Num_Not_Resolved_Atoms>  (481) 
nan

$$$$
CHEMBL4551299
     RDKit          3D

  0  0  0  0  0  0  0  0  0  0999 V3000
M  V30 BEGIN CTAB
M  V30 COUNTS 62 67 0 0 0
M  V30 BEGIN ATOM
M  V30 1 C 4.834779 0.456130 3.906549 0
M  V30 2 N 5.826793 1.086022 3.065163 0
M  V30 3 C 6.221663 0.293285 1.951678 0
M  V30 4 C 5.542324 0.657780 0.660298 0
M  V30 5 N 4.661376 1.798124 0.823041 0
M  V30 6 C 3.272648 1.872140 0.531480 0
M  V30 7 C 2.542283 0.724007 0.358722 0
M  V30 8 C 1.183454 0.706838 0.085752 0
M  V30 9 C 0.558189 1.936172 -0.011734 0
M  V30 10 N -0.863959 1.993726 -0.248257 0
M  V30 11 C -1.597539 0.762826 -0.217184 0
M  V30 12 N -1.495194 0.348354 1.071232 0
M  V30 13 C -2.066942 -0.785407 1.540080 0
M  V30 14 C -2.779015 -1.513719 0.605610 0
M  V30 15 C -3.380302 -2.674498 1.048193 0
M  V30 16 O -3.284677 -3.059437 2.241925 0
M  V30 17 C -4.097319 -3.406729 0.126122 0
M  V30 18 C -4.726394 -4.628037 0.609269 0
M  V30 19 C -4.063115 -5.835801 0.572148 0
M  V30 20 Cl -2.432242 -5.918495 -0.072254 0
M  V30 21 C -4.749156 -6.929721 1.057756 0
M  V30 22 C -6.024621 -6.821479 1.551755 0
M  V30 23 C -6.674930 -5.607533 1.582592 0
M  V30 24 C -6.003939 -4.479463 1.096795 0
M  V30 25 Cl -6.912213 -2.996664 1.180703 0
M  V30 26 C -4.158320 -2.927058 -1.158669 0
M  V30 27 N -3.578936 -1.788467 -1.630218 0
M  V30 28 C -3.729580 -1.393353 -3.006235 0
M  V30 29 C -3.804341 0.000121 -3.444310 0
M  V30 30 C -2.591683 -0.820231 -3.792880 0
M  V30 31 C -2.889032 -1.100132 -0.707520 0
M  V30 32 N -2.295275 0.038412 -1.111101 0
M  V30 33 C 1.261478 3.137519 0.154702 0
M  V30 34 C 2.618218 3.069232 0.425638 0
M  V30 35 C 5.457393 2.873472 1.390474 0
M  V30 36 C 5.619126 2.473867 2.866784 0
M  V30 37 H 4.921927 -0.634320 3.785036 0
M  V30 38 H 3.845578 0.742775 3.444539 0
M  V30 39 H 4.816976 0.824241 4.935211 0
M  V30 40 H 6.040002 -0.770213 2.180568 0
M  V30 41 H 7.312597 0.416970 1.802331 0
M  V30 42 H 6.280613 0.932185 -0.128204 0
M  V30 43 H 4.948281 -0.180828 0.267965 0
M  V30 44 H 2.948902 -0.298394 0.418987 0
M  V30 45 H 0.578284 -0.170410 -0.054902 0
M  V30 46 H -1.396041 2.843770 -0.439217 0
M  V30 47 H -2.008429 -1.157988 2.567440 0
M  V30 48 H -4.236249 -7.902719 1.036426 0
M  V30 49 H -6.510193 -7.734017 1.921807 0
M  V30 50 H -7.667858 -5.632326 1.988256 0
M  V30 51 H -4.746984 -3.558142 -1.837835 0
M  V30 52 H -4.372405 -2.106951 -3.598214 0
M  V30 53 H -3.727829 0.887226 -2.803656 0
M  V30 54 H -4.441253 0.246591 -4.344956 0
M  V30 55 H -1.612933 -0.615507 -3.316163 0
M  V30 56 H -2.457980 -1.164783 -4.863398 0
M  V30 57 H 0.710688 4.048768 0.063868 0
M  V30 58 H 3.112030 4.028921 0.543527 0
M  V30 59 H 6.457204 2.934297 0.965813 0
M  V30 60 H 4.919758 3.848556 1.381754 0
M  V30 61 H 6.446547 3.040437 3.323158 0
M  V30 62 H 4.636583 2.767821 3.339465 0
M  V30 END ATOM
M  V30 BEGIN BOND
M  V30 1 1 1 2
M  V30 2 1 2 3
M  V30 3 1 3 4
M  V30 4 1 4 5
M  V30 5 1 5 6
M  V30 6 2 6 7
M  V30 7 1 7 8
M  V30 8 2 8 9
M  V30 9 1 9 10
M  V30 10 1 10 11
M  V30 11 2 11 12
M  V30 12 1 12 13
M  V30 13 2 13 14
M  V30 14 1 14 15
M  V30 15 2 15 16
M  V30 16 1 15 17
M  V30 17 1 17 18
M  V30 18 2 18 19
M  V30 19 1 19 20
M  V30 20 1 19 21
M  V30 21 2 21 22
M  V30 22 1 22 23
M  V30 23 2 23 24
M  V30 24 1 24 25
M  V30 25 2 17 26
M  V30 26 1 26 27
M  V30 27 1 27 28
M  V30 28 1 28 29
M  V30 29 1 29 30
M  V30 30 1 27 31
M  V30 31 2 31 32
M  V30 32 1 9 33
M  V30 33 2 33 34
M  V30 34 1 5 35
M  V30 35 1 35 36
M  V30 36 1 36 2
M  V30 37 1 34 6
M  V30 38 1 32 11
M  V30 39 1 31 14
M  V30 40 1 24 18
M  V30 41 1 30 28
M  V30 42 1 1 37
M  V30 43 1 1 38
M  V30 44 1 1 39
M  V30 45 1 3 40
M  V30 46 1 3 41
M  V30 47 1 4 42
M  V30 48 1 4 43
M  V30 49 1 7 44
M  V30 50 1 8 45
M  V30 51 1 10 46
M  V30 52 1 13 47
M  V30 53 1 21 48
M  V30 54 1 22 49
M  V30 55 1 23 50
M  V30 56 1 26 51
M  V30 57 1 28 52
M  V30 58 1 29 53
M  V30 59 1 29 54
M  V30 60 1 30 55
M  V30 61 1 30 56
M  V30 62 1 33 57
M  V30 63 1 34 58
M  V30 64 1 35 59
M  V30 65 1 35 60
M  V30 66 1 36 61
M  V30 67 1 36 62
M  V30 END BOND
M  V30 END CTAB
M  END
>  <Dataset>  (482) 
ChEMBL_Kinases

>  <Ligand_Instance>  (482) 
nan

>  <PDB_ID>  (482) 
nan

>  <Standardized_SMILES>  (482) 
CN1CCN(c2ccc(Nc3ncc4c(=O)c(-c5c(Cl)cccc5Cl)cn(C5CC5)c4n3)cc2)CC1

>  <Name>  (482) 
nan

>  <Pocket>  (482) 
nan

>  <ATP_Site>  (482) 
nan

>  <Peripheral>  (482) 
nan

>  <Num_H_Atoms_ProtBoundConf>  (482) 
nan

>  <Num_Resolved_Atoms>  (482) 
nan

>  <Num_Not_Resolved_Atoms>  (482) 
nan

$$$$
CHEMBL4551282
     RDKit          3D

  0  0  0  0  0  0  0  0  0  0999 V3000
M  V30 BEGIN CTAB
M  V30 COUNTS 44 46 0 0 0
M  V30 BEGIN ATOM
M  V30 1 C -0.909668 -4.655418 -3.128578 0
M  V30 2 O -0.176347 -3.609321 -2.565631 0
M  V30 3 C 1.185095 -3.404395 -2.694978 0
M  V30 4 C 1.854189 -4.337818 -3.457688 0
M  V30 5 C 3.213866 -4.181338 -3.619443 0
M  V30 6 C 3.817919 -3.103372 -3.009534 0
M  V30 7 C 3.094458 -2.203166 -2.258582 0
M  V30 8 C 1.732810 -2.323592 -2.072062 0
M  V30 9 C 1.081501 -1.333005 -1.274142 0
M  V30 10 O 1.738638 -0.377249 -0.757350 0
M  V30 11 N -0.282027 -1.191567 -0.910110 0
M  V30 12 C -0.726920 -0.110597 -0.091733 0
M  V30 13 C -1.119299 1.042562 -0.748337 0
M  V30 14 C -1.558297 2.117699 0.000921 0
M  V30 15 C -1.604390 2.042253 1.379160 0
M  V30 16 C -1.205882 0.877053 2.004797 0
M  V30 17 C -1.168690 0.570096 3.431447 0
M  V30 18 N -1.783692 -0.453500 4.052995 0
M  V30 19 N -1.528907 -0.421064 5.350166 0
M  V30 20 C -0.744549 0.634506 5.549490 0
M  V30 21 N -0.509621 1.260093 4.380844 0
M  V30 22 C 0.306728 2.449844 4.226565 0
M  V30 23 C -0.100572 3.386543 5.365088 0
M  V30 24 C 1.774523 2.107634 4.444535 0
M  V30 25 N -0.779320 -0.166325 1.267779 0
M  V30 26 H -0.706685 -4.840677 -4.197566 0
M  V30 27 H -0.721099 -5.604337 -2.567386 0
M  V30 28 H -1.990512 -4.396189 -3.015094 0
M  V30 29 H 1.345882 -5.172132 -3.921704 0
M  V30 30 H 3.775434 -4.890483 -4.209363 0
M  V30 31 H 4.887673 -2.940320 -3.109801 0
M  V30 32 H 3.641741 -1.365128 -1.799696 0
M  V30 33 H -0.937175 -1.917028 -1.271605 0
M  V30 34 H -1.110241 1.172707 -1.814923 0
M  V30 35 H -1.887583 3.068580 -0.433777 0
M  V30 36 H -1.926695 2.811049 2.071038 0
M  V30 37 H -0.364867 0.921747 6.534067 0
M  V30 38 H 0.126126 2.991406 3.301656 0
M  V30 39 H -1.152683 3.216799 5.683170 0
M  V30 40 H 0.526013 3.237358 6.248130 0
M  V30 41 H -0.045049 4.458591 5.064596 0
M  V30 42 H 1.958521 1.135615 3.934492 0
M  V30 43 H 1.936740 1.959178 5.516487 0
M  V30 44 H 2.440799 2.865885 3.999251 0
M  V30 END ATOM
M  V30 BEGIN BOND
M  V30 1 1 1 2
M  V30 2 1 2 3
M  V30 3 2 3 4
M  V30 4 1 4 5
M  V30 5 2 5 6
M  V30 6 1 6 7
M  V30 7 2 7 8
M  V30 8 1 8 9
M  V30 9 2 9 10
M  V30 10 1 9 11
M  V30 11 1 11 12
M  V30 12 2 12 13
M  V30 13 1 13 14
M  V30 14 2 14 15
M  V30 15 1 15 16
M  V30 16 1 16 17
M  V30 17 2 17 18
M  V30 18 1 18 19
M  V30 19 2 19 20
M  V30 20 1 20 21
M  V30 21 1 21 22
M  V30 22 1 22 23
M  V30 23 1 22 24
M  V30 24 2 16 25
M  V30 25 1 8 3
M  V30 26 1 25 12
M  V30 27 1 21 17
M  V30 28 1 1 26
M  V30 29 1 1 27
M  V30 30 1 1 28
M  V30 31 1 4 29
M  V30 32 1 5 30
M  V30 33 1 6 31
M  V30 34 1 7 32
M  V30 35 1 11 33
M  V30 36 1 13 34
M  V30 37 1 14 35
M  V30 38 1 15 36
M  V30 39 1 20 37
M  V30 40 1 22 38
M  V30 41 1 23 39
M  V30 42 1 23 40
M  V30 43 1 23 41
M  V30 44 1 24 42
M  V30 45 1 24 43
M  V30 46 1 24 44
M  V30 END BOND
M  V30 END CTAB
M  END
>  <Dataset>  (483) 
ChEMBL_Kinases

>  <Ligand_Instance>  (483) 
nan

>  <PDB_ID>  (483) 
nan

>  <Standardized_SMILES>  (483) 
COc1ccccc1C(=O)Nc1cccc(-c2nncn2C(C)C)n1

>  <Name>  (483) 
nan

>  <Pocket>  (483) 
nan

>  <ATP_Site>  (483) 
nan

>  <Peripheral>  (483) 
nan

>  <Num_H_Atoms_ProtBoundConf>  (483) 
nan

>  <Num_Resolved_Atoms>  (483) 
nan

>  <Num_Not_Resolved_Atoms>  (483) 
nan

$$$$
CHEMBL4551768
     RDKit          3D

  0  0  0  0  0  0  0  0  0  0999 V3000
M  V30 BEGIN CTAB
M  V30 COUNTS 56 60 0 0 0
M  V30 BEGIN ATOM
M  V30 1 C 0.234211 -3.727043 6.190942 0
M  V30 2 N 1.384603 -3.958918 5.300001 0
M  V30 3 C 2.295374 -5.068389 5.626276 0
M  V30 4 C 1.344464 -2.992734 4.254354 0
M  V30 5 C 1.732476 -1.714710 4.576727 0
M  V30 6 C 1.696904 -0.774350 3.576496 0
M  V30 7 C 1.302533 -1.025381 2.293475 0
M  V30 8 C 1.246217 -0.096040 1.249590 0
M  V30 9 C 0.818252 -0.459081 -0.043719 0
M  V30 10 N 0.883878 0.760293 -0.812355 0
M  V30 11 C -0.394855 1.408809 -0.938380 0
M  V30 12 O -1.461498 0.943640 -0.459643 0
M  V30 13 C -0.485561 2.694569 -1.668377 0
M  V30 14 C -0.038132 3.378355 -2.821562 0
M  V30 15 N -0.544973 4.623738 -2.837273 0
M  V30 16 N -1.303470 4.825379 -1.777042 0
M  V30 17 C -2.002548 5.900930 -1.377528 0
M  V30 18 C -2.749662 5.896124 -0.200921 0
M  V30 19 C -2.737338 4.749607 0.523107 0
M  V30 20 N -2.032459 3.696551 0.103126 0
M  V30 21 C -1.292662 3.666503 -1.036452 0
M  V30 22 C 0.462531 -1.745945 -0.231664 0
M  V30 23 N 0.017281 -1.906385 -1.567744 0
M  V30 24 C -1.421650 -2.203679 -1.630341 0
M  V30 25 C -1.605234 -3.625317 -2.191349 0
M  V30 26 C -1.209379 -3.522064 -3.638591 0
M  V30 27 C -0.427559 -2.268762 -3.951916 0
M  V30 28 C 0.558460 -1.844194 -2.917481 0
M  V30 29 C 0.499725 -2.699531 0.751498 0
M  V30 30 C 0.918559 -2.341565 2.015055 0
M  V30 31 N 0.945401 -3.289987 2.982825 0
M  V30 32 H -0.667187 -3.765950 5.555738 0
M  V30 33 H 0.249989 -4.480767 6.997638 0
M  V30 34 H 0.381690 -2.709933 6.606892 0
M  V30 35 H 2.237903 -5.220437 6.742900 0
M  V30 36 H 1.845846 -5.998939 5.185647 0
M  V30 37 H 3.325260 -4.881417 5.318807 0
M  V30 38 H 2.061435 -1.467321 5.577740 0
M  V30 39 H 1.992203 0.215685 3.813950 0
M  V30 40 H 1.578352 0.878080 1.650229 0
M  V30 41 H 1.779626 1.149505 -1.247010 0
M  V30 42 H 0.606641 2.726193 -3.400412 0
M  V30 43 H -2.012467 6.807657 -1.966095 0
M  V30 44 H -3.340921 6.705173 0.198787 0
M  V30 45 H -3.242412 4.514756 1.476938 0
M  V30 46 H -1.938444 -2.117584 -0.677695 0
M  V30 47 H -1.956703 -1.530735 -2.339390 0
M  V30 48 H -0.975326 -4.334112 -1.611449 0
M  V30 49 H -2.651766 -3.901833 -2.067389 0
M  V30 50 H -2.175366 -3.445076 -4.218525 0
M  V30 51 H -0.707654 -4.440235 -3.975600 0
M  V30 52 H 0.163160 -2.528975 -4.877834 0
M  V30 53 H -1.074405 -1.412567 -4.264239 0
M  V30 54 H 0.820001 -0.779153 -3.168718 0
M  V30 55 H 1.498808 -2.396522 -2.977276 0
M  V30 56 H 0.191352 -3.671777 0.448075 0
M  V30 END ATOM
M  V30 BEGIN BOND
M  V30 1 1 1 2
M  V30 2 1 2 3
M  V30 3 1 2 4
M  V30 4 2 4 5
M  V30 5 1 5 6
M  V30 6 2 6 7
M  V30 7 1 7 8
M  V30 8 2 8 9
M  V30 9 1 9 10
M  V30 10 1 10 11
M  V30 11 2 11 12
M  V30 12 1 11 13
M  V30 13 1 13 14
M  V30 14 2 14 15
M  V30 15 1 15 16
M  V30 16 1 16 17
M  V30 17 2 17 18
M  V30 18 1 18 19
M  V30 19 2 19 20
M  V30 20 1 20 21
M  V30 21 1 9 22
M  V30 22 1 22 23
M  V30 23 1 23 24
M  V30 24 1 24 25
M  V30 25 1 25 26
M  V30 26 1 26 27
M  V30 27 1 27 28
M  V30 28 2 22 29
M  V30 29 1 29 30
M  V30 30 2 30 31
M  V30 31 1 31 4
M  V30 32 1 30 7
M  V30 33 2 21 13
M  V30 34 1 28 23
M  V30 35 1 21 16
M  V30 36 1 1 32
M  V30 37 1 1 33
M  V30 38 1 1 34
M  V30 39 1 3 35
M  V30 40 1 3 36
M  V30 41 1 3 37
M  V30 42 1 5 38
M  V30 43 1 6 39
M  V30 44 1 8 40
M  V30 45 1 10 41
M  V30 46 1 14 42
M  V30 47 1 17 43
M  V30 48 1 18 44
M  V30 49 1 19 45
M  V30 50 1 24 46
M  V30 51 1 24 47
M  V30 52 1 25 48
M  V30 53 1 25 49
M  V30 54 1 26 50
M  V30 55 1 26 51
M  V30 56 1 27 52
M  V30 57 1 27 53
M  V30 58 1 28 54
M  V30 59 1 28 55
M  V30 60 1 29 56
M  V30 END BOND
M  V30 END CTAB
M  END
>  <Dataset>  (484) 
ChEMBL_Kinases

>  <Ligand_Instance>  (484) 
nan

>  <PDB_ID>  (484) 
nan

>  <Standardized_SMILES>  (484) 
CN(C)c1ccc2cc(NC(=O)c3cnn4cccnc34)c(N3CCCCC3)cc2n1

>  <Name>  (484) 
nan

>  <Pocket>  (484) 
nan

>  <ATP_Site>  (484) 
nan

>  <Peripheral>  (484) 
nan

>  <Num_H_Atoms_ProtBoundConf>  (484) 
nan

>  <Num_Resolved_Atoms>  (484) 
nan

>  <Num_Not_Resolved_Atoms>  (484) 
nan

$$$$
CHEMBL4553844
     RDKit          3D

  0  0  0  0  0  0  0  0  0  0999 V3000
M  V30 BEGIN CTAB
M  V30 COUNTS 42 45 0 0 0
M  V30 BEGIN ATOM
M  V30 1 C 0.660529 -5.960540 2.821868 0
M  V30 2 O 0.862736 -4.670639 3.398460 0
M  V30 3 C 1.721591 -3.713891 2.835700 0
M  V30 4 O 2.381207 -3.930618 1.774377 0
M  V30 5 C 1.858022 -2.376652 3.526310 0
M  V30 6 C 1.577965 -1.307505 2.447445 0
M  V30 7 N 0.255645 -1.405445 1.861591 0
M  V30 8 C -0.248557 -0.530071 0.865304 0
M  V30 9 N 0.482555 0.499188 0.367760 0
M  V30 10 C 0.007779 1.328308 -0.568901 0
M  V30 11 C 0.777554 2.442391 -1.113069 0
M  V30 12 C 0.242407 3.262070 -2.088199 0
M  V30 13 C 0.858407 4.337783 -2.686059 0
M  V30 14 N 2.095150 4.636633 -2.297389 0
M  V30 15 C 2.681876 3.869026 -1.339298 0
M  V30 16 C 2.059910 2.790480 -0.744762 0
M  V30 17 N -1.237635 1.138555 -1.035975 0
M  V30 18 C -2.038120 0.147812 -0.606423 0
M  V30 19 C -3.315151 -0.017757 -1.108891 0
M  V30 20 N -4.093249 -1.020473 -0.656385 0
M  V30 21 C -3.650472 -1.881527 0.291119 0
M  V30 22 C -2.372106 -1.712840 0.791366 0
M  V30 23 C -1.519986 -0.690140 0.359697 0
M  V30 24 C 2.369807 -0.112342 2.471178 0
M  V30 25 C 2.755344 -1.201230 1.475008 0
M  V30 26 H 0.194002 -6.652777 3.523000 0
M  V30 27 H 1.574874 -6.343163 2.306526 0
M  V30 28 H -0.066425 -5.798332 1.979608 0
M  V30 29 H 1.110780 -2.302241 4.330836 0
M  V30 30 H 2.883017 -2.310452 3.873791 0
M  V30 31 H -0.333934 -2.180746 2.223356 0
M  V30 32 H -0.762878 3.029311 -2.416440 0
M  V30 33 H 0.330186 4.915679 -3.456679 0
M  V30 34 H 3.686989 4.161166 -1.069643 0
M  V30 35 H 2.541739 2.180192 0.026079 0
M  V30 36 H -3.605147 0.708204 -1.861170 0
M  V30 37 H -4.289039 -2.673203 0.638616 0
M  V30 38 H -2.068065 -2.420952 1.539395 0
M  V30 39 H 3.129134 -0.018962 3.305364 0
M  V30 40 H 2.171980 0.847457 2.011239 0
M  V30 41 H 3.667365 -1.789369 1.644368 0
M  V30 42 H 2.527107 -1.064933 0.391636 0
M  V30 END ATOM
M  V30 BEGIN BOND
M  V30 1 1 1 2
M  V30 2 1 2 3
M  V30 3 2 3 4
M  V30 4 1 3 5
M  V30 5 1 5 6
M  V30 6 1 6 7
M  V30 7 1 7 8
M  V30 8 2 8 9
M  V30 9 1 9 10
M  V30 10 1 10 11
M  V30 11 2 11 12
M  V30 12 1 12 13
M  V30 13 2 13 14
M  V30 14 1 14 15
M  V30 15 2 15 16
M  V30 16 2 10 17
M  V30 17 1 17 18
M  V30 18 2 18 19
M  V30 19 1 19 20
M  V30 20 2 20 21
M  V30 21 1 21 22
M  V30 22 2 22 23
M  V30 23 1 6 24
M  V30 24 1 24 25
M  V30 25 1 25 6
M  V30 26 1 23 8
M  V30 27 1 16 11
M  V30 28 1 23 18
M  V30 29 1 1 26
M  V30 30 1 1 27
M  V30 31 1 1 28
M  V30 32 1 5 29
M  V30 33 1 5 30
M  V30 34 1 7 31
M  V30 35 1 12 32
M  V30 36 1 13 33
M  V30 37 1 15 34
M  V30 38 1 16 35
M  V30 39 1 19 36
M  V30 40 1 21 37
M  V30 41 1 22 38
M  V30 42 1 24 39
M  V30 43 1 24 40
M  V30 44 1 25 41
M  V30 45 1 25 42
M  V30 END BOND
M  V30 END CTAB
M  END
>  <Dataset>  (485) 
ChEMBL_Kinases

>  <Ligand_Instance>  (485) 
nan

>  <PDB_ID>  (485) 
nan

>  <Standardized_SMILES>  (485) 
COC(=O)CC1(Nc2nc(-c3ccncc3)nc3cnccc23)CC1

>  <Name>  (485) 
nan

>  <Pocket>  (485) 
nan

>  <ATP_Site>  (485) 
nan

>  <Peripheral>  (485) 
nan

>  <Num_H_Atoms_ProtBoundConf>  (485) 
nan

>  <Num_Resolved_Atoms>  (485) 
nan

>  <Num_Not_Resolved_Atoms>  (485) 
nan

$$$$
CHEMBL4638805
     RDKit          3D

  0  0  0  0  0  0  0  0  0  0999 V3000
M  V30 BEGIN CTAB
M  V30 COUNTS 51 54 0 0 0
M  V30 BEGIN ATOM
M  V30 1 C 3.997855 1.263902 6.258672 0
M  V30 2 C 3.903846 2.660320 5.680042 0
M  V30 3 C 2.488720 3.178921 5.689545 0
M  V30 4 C 4.394982 2.679020 4.238218 0
M  V30 5 C 3.535377 1.746427 3.467068 0
M  V30 6 O 2.531521 1.002035 3.697653 0
M  V30 7 N 3.857516 1.580069 2.069328 0
M  V30 8 C 3.009787 0.674030 1.371592 0
M  V30 9 N 3.508026 -0.569585 1.467877 0
M  V30 10 C 2.870458 -1.626032 0.876063 0
M  V30 11 C 1.714615 -1.292991 0.200365 0
M  V30 12 N 1.184610 -0.062976 0.080829 0
M  V30 13 C 0.131183 0.524749 -0.493077 0
M  V30 14 C -0.841113 -0.258434 -1.267627 0
M  V30 15 C -1.321064 -1.412075 -0.670583 0
M  V30 16 C -2.226568 -2.267351 -1.273629 0
M  V30 17 C -2.695519 -1.976701 -2.544795 0
M  V30 18 C -3.650166 -2.775294 -3.317356 0
M  V30 19 O -4.036590 -2.553294 -4.490692 0
M  V30 20 N -4.241552 -3.931501 -2.751697 0
M  V30 21 C -5.197954 -4.843937 -3.358787 0
M  V30 22 C -6.345903 -5.349190 -2.527787 0
M  V30 23 C -5.236910 -6.268940 -3.021358 0
M  V30 24 C -2.217795 -0.823952 -3.142940 0
M  V30 25 C -1.312726 0.029982 -2.539147 0
M  V30 26 C 0.155551 1.904020 -0.239343 0
M  V30 27 N 1.262679 2.149905 0.513379 0
M  V30 28 C 1.854411 0.960687 0.687392 0
M  V30 29 H 3.003122 0.777586 6.324880 0
M  V30 30 H 4.698837 0.669464 5.629030 0
M  V30 31 H 4.448363 1.298592 7.272026 0
M  V30 32 H 4.567189 3.319059 6.298582 0
M  V30 33 H 2.428422 4.108461 6.328949 0
M  V30 34 H 1.838186 2.387985 6.133195 0
M  V30 35 H 2.135701 3.410561 4.660247 0
M  V30 36 H 5.458878 2.378206 4.223865 0
M  V30 37 H 4.300267 3.722791 3.876517 0
M  V30 38 H 4.634891 2.052150 1.539091 0
M  V30 39 H 3.231523 -2.640343 0.926199 0
M  V30 40 H 1.214697 -2.113308 -0.268030 0
M  V30 41 H -1.056185 -1.782971 0.332646 0
M  V30 42 H -2.611386 -3.164987 -0.830346 0
M  V30 43 H -4.025956 -4.255810 -1.775835 0
M  V30 44 H -5.499066 -4.556794 -4.398500 0
M  V30 45 H -7.347425 -5.458360 -2.969433 0
M  V30 46 H -6.312138 -5.096676 -1.438791 0
M  V30 47 H -5.469670 -6.989456 -3.821868 0
M  V30 48 H -4.468648 -6.605334 -2.270044 0
M  V30 49 H -2.495413 -0.466179 -4.136602 0
M  V30 50 H -0.923314 0.935545 -2.980969 0
M  V30 51 H -0.580449 2.601298 -0.589356 0
M  V30 END ATOM
M  V30 BEGIN BOND
M  V30 1 1 1 2
M  V30 2 1 2 3
M  V30 3 1 2 4
M  V30 4 1 4 5
M  V30 5 2 5 6
M  V30 6 1 5 7
M  V30 7 1 7 8
M  V30 8 2 8 9
M  V30 9 1 9 10
M  V30 10 2 10 11
M  V30 11 1 11 12
M  V30 12 1 12 13
M  V30 13 1 13 14
M  V30 14 2 14 15
M  V30 15 1 15 16
M  V30 16 2 16 17
M  V30 17 1 17 18
M  V30 18 2 18 19
M  V30 19 1 18 20
M  V30 20 1 20 21
M  V30 21 1 21 22
M  V30 22 1 22 23
M  V30 23 1 17 24
M  V30 24 2 24 25
M  V30 25 2 13 26
M  V30 26 1 26 27
M  V30 27 2 27 28
M  V30 28 1 28 8
M  V30 29 1 28 12
M  V30 30 1 25 14
M  V30 31 1 23 21
M  V30 32 1 1 29
M  V30 33 1 1 30
M  V30 34 1 1 31
M  V30 35 1 2 32
M  V30 36 1 3 33
M  V30 37 1 3 34
M  V30 38 1 3 35
M  V30 39 1 4 36
M  V30 40 1 4 37
M  V30 41 1 7 38
M  V30 42 1 10 39
M  V30 43 1 11 40
M  V30 44 1 15 41
M  V30 45 1 16 42
M  V30 46 1 20 43
M  V30 47 1 21 44
M  V30 48 1 22 45
M  V30 49 1 22 46
M  V30 50 1 23 47
M  V30 51 1 23 48
M  V30 52 1 24 49
M  V30 53 1 25 50
M  V30 54 1 26 51
M  V30 END BOND
M  V30 END CTAB
M  END
>  <Dataset>  (486) 
ChEMBL_Kinases

>  <Ligand_Instance>  (486) 
nan

>  <PDB_ID>  (486) 
nan

>  <Standardized_SMILES>  (486) 
CC(C)CC(=O)Nc1nccn2c(-c3ccc(C(=O)NC4CC4)cc3)cnc12

>  <Name>  (486) 
nan

>  <Pocket>  (486) 
nan

>  <ATP_Site>  (486) 
nan

>  <Peripheral>  (486) 
nan

>  <Num_H_Atoms_ProtBoundConf>  (486) 
nan

>  <Num_Resolved_Atoms>  (486) 
nan

>  <Num_Not_Resolved_Atoms>  (486) 
nan

$$$$
CHEMBL4638853
     RDKit          3D

  0  0  0  0  0  0  0  0  0  0999 V3000
M  V30 BEGIN CTAB
M  V30 COUNTS 58 62 0 0 0
M  V30 BEGIN ATOM
M  V30 1 C 0.651381 -5.084488 2.820577 0
M  V30 2 C 1.914345 -4.241242 2.832593 0 CFG=2
M  V30 3 C 1.679967 -2.809299 2.467028 0
M  V30 4 N 1.679034 -2.559515 1.049736 0
M  V30 5 C 1.227045 -1.390580 0.430041 0
M  V30 6 C 2.264383 -0.784588 -0.283716 0
M  V30 7 C 2.072793 0.405091 -0.992653 0
M  V30 8 C 0.831729 1.007310 -0.996051 0
M  V30 9 C 0.552763 2.237942 -1.704200 0
M  V30 10 C 0.334796 3.270671 -2.292791 0
M  V30 11 C 0.066182 4.531487 -2.987569 0
M  V30 12 C 1.316327 5.355351 -3.199222 0
M  V30 13 O -0.558325 4.210758 -4.183183 0
M  V30 14 C -0.945254 5.376529 -2.189784 0
M  V30 15 N -1.787857 6.103719 -2.321952 0
M  V30 16 C -2.529836 6.715535 -1.425524 0
M  V30 17 C -2.206778 6.400718 -0.095762 0
M  V30 18 S -0.772432 5.175237 -0.309037 0
M  V30 19 C -0.189779 0.403334 -0.288529 0
M  V30 20 C -0.005044 -0.778351 0.417295 0
M  V30 21 N -1.001391 -1.455585 1.165946 0
M  V30 22 C -1.584437 -2.740859 1.092010 0
M  V30 23 N -1.205233 -3.610629 0.163444 0
M  V30 24 C -1.799663 -4.838027 0.131256 0
M  V30 25 N -2.758558 -5.174484 1.023237 0
M  V30 26 C -3.129352 -4.277566 1.957929 0
M  V30 27 N -4.034355 -4.335252 2.948621 0
M  V30 28 C -4.040509 -3.158051 3.631381 0
M  V30 29 C -3.111066 -2.303103 3.070768 0
M  V30 30 C -2.551753 -3.007422 2.033608 0
M  V30 31 C 2.194669 -3.598120 0.161603 0
M  V30 32 C 3.374515 -4.202922 0.900178 0
M  V30 33 N 2.981658 -4.856385 2.110613 0
M  V30 34 H 0.624595 -5.609336 1.847010 0
M  V30 35 H 0.713005 -5.887072 3.601984 0
M  V30 36 H -0.252972 -4.484515 2.989470 0
M  V30 37 H 2.230997 -4.237365 3.917326 0
M  V30 38 H 2.506734 -2.222438 2.957724 0
M  V30 39 H 0.689243 -2.504680 2.865096 0
M  V30 40 H 3.302609 -1.141518 -0.375837 0
M  V30 41 H 2.853473 0.898431 -1.554006 0
M  V30 42 H 1.472097 6.009790 -2.318088 0
M  V30 43 H 2.170926 4.643400 -3.228449 0
M  V30 44 H 1.309497 5.897687 -4.150619 0
M  V30 45 H -1.349845 4.754450 -4.364695 0
M  V30 46 H -3.299978 7.386699 -1.786501 0
M  V30 47 H -2.912469 6.983668 0.716129 0
M  V30 48 H -1.196131 0.833732 -0.253989 0
M  V30 49 H -1.242859 -0.725732 1.863482 0
M  V30 50 H -1.570286 -5.618140 -0.576368 0
M  V30 51 H -4.678263 -5.123073 3.224591 0
M  V30 52 H -4.632645 -2.834172 4.487220 0
M  V30 53 H -2.845608 -1.296075 3.348714 0
M  V30 54 H 2.609397 -3.155242 -0.755434 0
M  V30 55 H 1.467187 -4.391606 -0.035148 0
M  V30 56 H 4.102042 -3.384175 1.114742 0
M  V30 57 H 3.881486 -4.935628 0.253394 0
M  V30 58 H 2.862412 -5.882155 1.961632 0
M  V30 END ATOM
M  V30 BEGIN BOND
M  V30 1 1 1 2
M  V30 2 1 2 3
M  V30 3 1 3 4
M  V30 4 1 4 5
M  V30 5 2 5 6
M  V30 6 1 6 7
M  V30 7 2 7 8
M  V30 8 1 8 9
M  V30 9 3 9 10
M  V30 10 1 10 11
M  V30 11 1 11 12
M  V30 12 1 11 13
M  V30 13 1 11 14
M  V30 14 2 14 15
M  V30 15 1 15 16
M  V30 16 2 16 17
M  V30 17 1 17 18
M  V30 18 1 8 19
M  V30 19 2 19 20
M  V30 20 1 20 21
M  V30 21 1 21 22
M  V30 22 2 22 23
M  V30 23 1 23 24
M  V30 24 2 24 25
M  V30 25 1 25 26
M  V30 26 1 26 27
M  V30 27 1 27 28
M  V30 28 2 28 29
M  V30 29 1 29 30
M  V30 30 1 4 31
M  V30 31 1 31 32
M  V30 32 1 32 33
M  V30 33 1 33 2
M  V30 34 1 20 5
M  V30 35 1 30 22
M  V30 36 1 18 14
M  V30 37 2 30 26
M  V30 38 1 1 34
M  V30 39 1 1 35
M  V30 40 1 1 36
M  V30 41 1 2 37 CFG=1
M  V30 42 1 3 38
M  V30 43 1 3 39
M  V30 44 1 6 40
M  V30 45 1 7 41
M  V30 46 1 12 42
M  V30 47 1 12 43
M  V30 48 1 12 44
M  V30 49 1 13 45
M  V30 50 1 16 46
M  V30 51 1 17 47
M  V30 52 1 19 48
M  V30 53 1 21 49
M  V30 54 1 24 50
M  V30 55 1 27 51
M  V30 56 1 28 52
M  V30 57 1 29 53
M  V30 58 1 31 54
M  V30 59 1 31 55
M  V30 60 1 32 56
M  V30 61 1 32 57
M  V30 62 1 33 58
M  V30 END BOND
M  V30 END CTAB
M  END
>  <Dataset>  (487) 
ChEMBL_Kinases

>  <Ligand_Instance>  (487) 
nan

>  <PDB_ID>  (487) 
nan

>  <Standardized_SMILES>  (487) 
C[C@@H]1CN(c2ccc(C#CC(C)(O)c3nccs3)cc2Nc2ncnc3[nH]ccc23)CCN1

>  <Name>  (487) 
nan

>  <Pocket>  (487) 
nan

>  <ATP_Site>  (487) 
nan

>  <Peripheral>  (487) 
nan

>  <Num_H_Atoms_ProtBoundConf>  (487) 
nan

>  <Num_Resolved_Atoms>  (487) 
nan

>  <Num_Not_Resolved_Atoms>  (487) 
nan

$$$$
CHEMBL4553532
     RDKit          3D

  0  0  0  0  0  0  0  0  0  0999 V3000
M  V30 BEGIN CTAB
M  V30 COUNTS 60 65 0 0 0
M  V30 BEGIN ATOM
M  V30 1 C 1.955667 -1.012604 4.695927 0
M  V30 2 C 3.212628 -1.317560 3.914607 0
M  V30 3 C 4.355644 -0.580643 4.526502 0
M  V30 4 O 3.485346 -2.690975 4.039146 0
M  V30 5 C 3.065217 -1.052721 2.437115 0 CFG=2
M  V30 6 C 4.318044 -1.355242 1.650017 0
M  V30 7 C 4.464121 -0.188067 0.665115 0
M  V30 8 N 3.114453 0.387148 0.671731 0
M  V30 9 C 2.306714 0.839970 -0.408802 0
M  V30 10 C 1.043057 1.361179 -0.235313 0
M  V30 11 C 0.288133 1.790979 -1.310645 0
M  V30 12 N -1.005812 2.315697 -1.043675 0
M  V30 13 N -1.422656 3.525166 -0.765247 0
M  V30 14 C -2.761706 3.551558 -0.584486 0
M  V30 15 C -3.172092 2.245207 -0.772178 0
M  V30 16 C -4.436969 1.657014 -0.714812 0
M  V30 17 C -4.587760 0.290519 -0.947715 0
M  V30 18 C -3.482489 -0.486236 -1.236541 0
M  V30 19 C -3.737458 -1.895449 -1.463687 0
M  V30 20 C -4.940341 -2.120890 -2.283454 0
M  V30 21 N -5.904320 -2.298651 -2.916919 0
M  V30 22 C -3.684239 -2.816273 -0.239904 0
M  V30 23 C -3.146545 -3.839375 -1.168758 0
M  V30 24 C -2.450088 -5.061024 -0.842719 0
M  V30 25 C -3.817380 -5.042276 -1.601260 0
M  V30 26 C -2.622863 -2.744507 -2.041469 0
M  V30 27 C -2.260303 0.121006 -1.284775 0
M  V30 28 C -2.056572 1.481184 -1.059995 0
M  V30 29 N 0.850214 1.674044 -2.531693 0
M  V30 30 C 2.085594 1.164495 -2.701311 0
M  V30 31 N 2.836732 0.738995 -1.652733 0
M  V30 32 C 2.801010 0.378746 2.091671 0
M  V30 33 H 1.085465 -1.052891 3.989889 0
M  V30 34 H 1.845206 -1.775850 5.478710 0
M  V30 35 H 1.947511 0.033302 5.089116 0
M  V30 36 H 5.357432 -0.921863 4.220159 0
M  V30 37 H 4.222615 0.525547 4.453609 0
M  V30 38 H 4.306078 -0.789708 5.632237 0
M  V30 39 H 2.632026 -3.224440 3.985389 0
M  V30 40 H 2.265740 -1.672521 1.991300 0
M  V30 41 H 5.233223 -1.408494 2.242822 0
M  V30 42 H 4.215585 -2.254455 1.020736 0
M  V30 43 H 4.768940 -0.523024 -0.328166 0
M  V30 44 H 5.113526 0.572953 1.136363 0
M  V30 45 H 0.628248 1.437969 0.760341 0
M  V30 46 H -3.364933 4.433281 -0.342197 0
M  V30 47 H -5.267680 2.339736 -0.479437 0
M  V30 48 H -5.627925 -0.045920 -0.873294 0
M  V30 49 H -2.944113 -2.380548 0.490152 0
M  V30 50 H -4.681587 -2.950442 0.191056 0
M  V30 51 H -2.449146 -5.538491 0.135952 0
M  V30 52 H -1.589571 -5.331284 -1.520224 0
M  V30 53 H -4.685363 -5.432888 -0.995395 0
M  V30 54 H -3.789731 -5.298609 -2.679237 0
M  V30 55 H -2.717158 -3.000934 -3.118040 0
M  V30 56 H -1.598398 -2.492268 -1.744514 0
M  V30 57 H -1.407065 -0.474649 -1.506980 0
M  V30 58 H 2.507295 1.086189 -3.711160 0
M  V30 59 H 3.499671 1.083774 2.575993 0
M  V30 60 H 1.757802 0.691148 2.285949 0
M  V30 END ATOM
M  V30 BEGIN BOND
M  V30 1 1 1 2
M  V30 2 1 2 3
M  V30 3 1 2 4
M  V30 4 1 2 5
M  V30 5 1 5 6
M  V30 6 1 6 7
M  V30 7 1 7 8
M  V30 8 1 8 9
M  V30 9 2 9 10
M  V30 10 1 10 11
M  V30 11 1 11 12
M  V30 12 1 12 13
M  V30 13 2 13 14
M  V30 14 1 14 15
M  V30 15 2 15 16
M  V30 16 1 16 17
M  V30 17 2 17 18
M  V30 18 1 18 19
M  V30 19 1 19 20
M  V30 20 3 20 21
M  V30 21 1 19 22
M  V30 22 1 22 23
M  V30 23 1 23 24
M  V30 24 1 24 25
M  V30 25 1 23 26
M  V30 26 1 18 27
M  V30 27 2 27 28
M  V30 28 2 11 29
M  V30 29 1 29 30
M  V30 30 2 30 31
M  V30 31 1 8 32
M  V30 32 1 32 5
M  V30 33 1 31 9
M  V30 34 1 28 12
M  V30 35 1 28 15
M  V30 36 1 26 19
M  V30 37 1 25 23
M  V30 38 1 1 33
M  V30 39 1 1 34
M  V30 40 1 1 35
M  V30 41 1 3 36
M  V30 42 1 3 37
M  V30 43 1 3 38
M  V30 44 1 4 39
M  V30 45 1 5 40 CFG=3
M  V30 46 1 6 41
M  V30 47 1 6 42
M  V30 48 1 7 43
M  V30 49 1 7 44
M  V30 50 1 10 45
M  V30 51 1 14 46
M  V30 52 1 16 47
M  V30 53 1 17 48
M  V30 54 1 22 49
M  V30 55 1 22 50
M  V30 56 1 24 51
M  V30 57 1 24 52
M  V30 58 1 25 53
M  V30 59 1 25 54
M  V30 60 1 26 55
M  V30 61 1 26 56
M  V30 62 1 27 57
M  V30 63 1 30 58
M  V30 64 1 32 59
M  V30 65 1 32 60
M  V30 END BOND
M  V30 END CTAB
M  END
>  <Dataset>  (488) 
ChEMBL_Kinases

>  <Ligand_Instance>  (488) 
nan

>  <PDB_ID>  (488) 
nan

>  <Standardized_SMILES>  (488) 
CC(C)(O)[C@@H]1CCN(c2cc(-n3ncc4ccc(C5(C#N)CC6(CC6)C5)cc43)ncn2)C1

>  <Name>  (488) 
nan

>  <Pocket>  (488) 
nan

>  <ATP_Site>  (488) 
nan

>  <Peripheral>  (488) 
nan

>  <Num_H_Atoms_ProtBoundConf>  (488) 
nan

>  <Num_Resolved_Atoms>  (488) 
nan

>  <Num_Not_Resolved_Atoms>  (488) 
nan

$$$$
CHEMBL4553495
     RDKit          3D

  0  0  0  0  0  0  0  0  0  0999 V3000
M  V30 BEGIN CTAB
M  V30 COUNTS 49 52 0 0 0
M  V30 BEGIN ATOM
M  V30 1 C 1.252321 -3.881623 2.605345 0
M  V30 2 C 1.540815 -2.880900 1.533254 0
M  V30 3 C 0.611582 -3.100684 0.374311 0
M  V30 4 C 2.994075 -3.024798 1.143121 0
M  V30 5 C 3.676234 -2.367778 2.324184 0
M  V30 6 O 4.162874 -3.355742 3.197890 0
M  V30 7 N 2.690761 -1.542475 2.967690 0
M  V30 8 C 1.501973 -1.519655 2.136660 0
M  V30 9 C 1.542999 -0.409673 1.125168 0
M  V30 10 C 2.610354 0.252726 0.552463 0
M  V30 11 N 2.205952 1.179906 -0.306329 0
M  V30 12 C 0.870909 1.114837 -0.287002 0
M  V30 13 C -0.072707 1.844200 -0.980436 0
M  V30 14 C 0.313705 2.888596 -1.923032 0
M  V30 15 N 1.626860 3.312454 -2.274781 0
M  V30 16 O -0.363495 3.661559 -2.646227 0
M  V30 17 C -1.439815 1.681593 -0.871932 0
M  V30 18 C -1.902290 0.703060 0.007762 0
M  V30 19 C -3.318869 0.470812 0.178966 0
M  V30 20 C -4.306194 1.430316 0.078595 0
M  V30 21 C -5.642926 1.114097 0.259198 0
M  V30 22 C -6.037726 -0.196144 0.551013 0
M  V30 23 C -5.057836 -1.182789 0.657289 0
M  V30 24 C -3.734925 -0.828763 0.470557 0
M  V30 25 C -0.968924 -0.035981 0.709562 0
M  V30 26 C 0.391474 0.152649 0.577172 0
M  V30 27 H 0.292673 -4.415201 2.378435 0
M  V30 28 H 2.040408 -4.667313 2.654725 0
M  V30 29 H 1.179243 -3.441021 3.626077 0
M  V30 30 H 1.084496 -3.943746 -0.211565 0
M  V30 31 H 0.541086 -2.274886 -0.336694 0
M  V30 32 H -0.324907 -3.515168 0.749437 0
M  V30 33 H 3.235298 -2.500331 0.210317 0
M  V30 34 H 3.221267 -4.116096 1.122493 0
M  V30 35 H 4.575532 -1.825688 1.975347 0
M  V30 36 H 4.895920 -2.995594 3.777925 0
M  V30 37 H 2.463052 -1.880853 3.912191 0
M  V30 38 H 0.653297 -1.372562 2.839387 0
M  V30 39 H 3.643890 0.032932 0.784235 0
M  V30 40 H 2.824713 1.808371 -0.861540 0
M  V30 41 H 2.347515 4.004862 -1.967189 0
M  V30 42 H 2.089617 4.067448 -1.739261 0
M  V30 43 H -2.166166 2.245137 -1.407521 0
M  V30 44 H -3.999323 2.442508 -0.146948 0
M  V30 45 H -6.421418 1.861451 0.181617 0
M  V30 46 H -7.080638 -0.457935 0.694702 0
M  V30 47 H -5.341040 -2.184256 0.878929 0
M  V30 48 H -3.015967 -1.655346 0.568678 0
M  V30 49 H -1.292824 -0.803963 1.401358 0
M  V30 END ATOM
M  V30 BEGIN BOND
M  V30 1 1 1 2
M  V30 2 1 2 3
M  V30 3 1 2 4
M  V30 4 1 4 5
M  V30 5 1 5 6
M  V30 6 1 5 7
M  V30 7 1 7 8
M  V30 8 1 8 9
M  V30 9 2 9 10
M  V30 10 1 10 11
M  V30 11 1 11 12
M  V30 12 2 12 13
M  V30 13 1 13 14
M  V30 14 1 14 15
M  V30 15 2 14 16
M  V30 16 1 13 17
M  V30 17 2 17 18
M  V30 18 1 18 19
M  V30 19 2 19 20
M  V30 20 1 20 21
M  V30 21 2 21 22
M  V30 22 1 22 23
M  V30 23 2 23 24
M  V30 24 1 18 25
M  V30 25 2 25 26
M  V30 26 1 8 2
M  V30 27 1 26 9
M  V30 28 1 26 12
M  V30 29 1 24 19
M  V30 30 1 1 27
M  V30 31 1 1 28
M  V30 32 1 1 29
M  V30 33 1 3 30
M  V30 34 1 3 31
M  V30 35 1 3 32
M  V30 36 1 4 33
M  V30 37 1 4 34
M  V30 38 1 5 35
M  V30 39 1 6 36
M  V30 40 1 7 37
M  V30 41 1 8 38
M  V30 42 1 10 39
M  V30 43 1 11 40
M  V30 44 1 15 41
M  V30 45 1 15 42
M  V30 46 1 17 43
M  V30 47 1 20 44
M  V30 48 1 21 45
M  V30 49 1 22 46
M  V30 50 1 23 47
M  V30 51 1 24 48
M  V30 52 1 25 49
M  V30 END BOND
M  V30 END CTAB
M  END
>  <Dataset>  (489) 
ChEMBL_Kinases

>  <Ligand_Instance>  (489) 
nan

>  <PDB_ID>  (489) 
nan

>  <Standardized_SMILES>  (489) 
CC1(C)CC(O)NC1c1c[nH]c2c(C(N)=O)cc(-c3ccccc3)cc12

>  <Name>  (489) 
nan

>  <Pocket>  (489) 
nan

>  <ATP_Site>  (489) 
nan

>  <Peripheral>  (489) 
nan

>  <Num_H_Atoms_ProtBoundConf>  (489) 
nan

>  <Num_Resolved_Atoms>  (489) 
nan

>  <Num_Not_Resolved_Atoms>  (489) 
nan

$$$$
CHEMBL4638868
     RDKit          3D

  0  0  0  0  0  0  0  0  0  0999 V3000
M  V30 BEGIN CTAB
M  V30 COUNTS 70 74 0 0 0
M  V30 BEGIN ATOM
M  V30 1 C 3.331821 -4.089990 2.375506 0
M  V30 2 C 4.237178 -3.018407 1.729977 0
M  V30 3 O 3.369994 -2.084190 1.195387 0
M  V30 4 C 3.590556 -0.946568 0.526478 0
M  V30 5 O 4.671519 -1.464527 0.812959 0
M  V30 6 C 3.498039 0.285415 -0.192653 0
M  V30 7 C 4.721030 0.867034 -0.515601 0
M  V30 8 N 4.643145 2.032484 -1.166605 0
M  V30 9 C 3.475721 2.595362 -1.482760 0
M  V30 10 C 3.506739 3.794783 -2.151191 0
M  V30 11 C 2.332988 4.443694 -2.514555 0
M  V30 12 C 1.128381 3.862183 -2.192220 0
M  V30 13 C -0.156354 4.457849 -2.528630 0
M  V30 14 C -0.304464 5.653401 -3.193441 0
M  V30 15 C -1.561301 6.121882 -3.461781 0
M  V30 16 N -2.675863 5.457274 -3.100046 0
M  V30 17 C -2.594748 4.293382 -2.453282 0
M  V30 18 N -3.715070 3.504717 -2.023320 0
M  V30 19 C -1.327887 3.820794 -2.182548 0
M  V30 20 N 1.159674 2.689851 -1.538847 0
M  V30 21 C 2.265950 2.036157 -1.172802 0
M  V30 22 C 2.272528 0.833256 -0.501504 0
M  V30 23 N 1.018021 0.249537 -0.204663 0
M  V30 24 C 0.387905 -0.915056 0.364067 0 CFG=1
M  V30 25 C -1.088180 -0.782147 0.585004 0
M  V30 26 C -1.884298 -1.977187 0.291322 0
M  V30 27 C -1.272868 -3.289394 0.707721 0 CFG=2
M  V30 28 C -1.458703 -3.588511 2.173110 0
M  V30 29 N -2.847317 -3.650824 2.504238 0
M  V30 30 C -3.574519 -4.749302 1.961035 0
M  V30 31 C -4.983037 -4.674634 2.556617 0
M  V30 32 O -5.333546 -3.401054 2.923926 0
M  V30 33 C -4.555400 -2.816504 3.894301 0
M  V30 34 C -3.172773 -3.476056 3.883608 0
M  V30 35 C 0.193542 -3.350422 0.341632 0
M  V30 36 C 0.595266 -2.146936 -0.476273 0
M  V30 37 H 2.900543 -4.753789 1.604891 0
M  V30 38 H 2.495678 -3.629251 2.929384 0
M  V30 39 H 3.977465 -4.606062 3.087520 0
M  V30 40 H 4.774774 -3.551615 0.918093 0
M  V30 41 H 4.921115 -2.613186 2.507060 0
M  V30 42 H 5.667733 0.414848 -0.261430 0
M  V30 43 H 4.445851 4.253732 -2.406286 0
M  V30 44 H 2.371816 5.386242 -3.039491 0
M  V30 45 H 0.573016 6.206630 -3.494878 0
M  V30 46 H -1.745145 7.053119 -3.980305 0
M  V30 47 H -3.813110 3.349667 -0.993569 0
M  V30 48 H -4.502647 3.018896 -2.511266 0
M  V30 49 H -1.230809 2.872979 -1.655922 0
M  V30 50 H 0.177333 0.840690 -0.482431 0
M  V30 51 H 0.838274 -1.101348 1.357801 0
M  V30 52 H -1.415355 0.042437 -0.118799 0
M  V30 53 H -1.282295 -0.341317 1.595835 0
M  V30 54 H -2.176648 -1.997574 -0.788372 0
M  V30 55 H -2.857038 -1.888321 0.825643 0
M  V30 56 H -1.778228 -4.074646 0.127325 0
M  V30 57 H -0.916848 -2.858237 2.820761 0
M  V30 58 H -1.023247 -4.574617 2.457224 0
M  V30 59 H -3.166853 -5.748985 2.276819 0
M  V30 60 H -3.610914 -4.700236 0.855806 0
M  V30 61 H -5.109347 -5.423225 3.372683 0
M  V30 62 H -5.673360 -4.971650 1.733850 0
M  V30 63 H -4.994660 -2.742981 4.889837 0
M  V30 64 H -4.349288 -1.763201 3.541951 0
M  V30 65 H -3.328552 -4.445372 4.404746 0
M  V30 66 H -2.444644 -2.896629 4.462619 0
M  V30 67 H 0.796440 -3.336817 1.264826 0
M  V30 68 H 0.469807 -4.254781 -0.220830 0
M  V30 69 H 1.560652 -2.285350 -0.927254 0
M  V30 70 H -0.163406 -2.091716 -1.309503 0
M  V30 END ATOM
M  V30 BEGIN BOND
M  V30 1 1 1 2
M  V30 2 1 2 3
M  V30 3 1 3 4
M  V30 4 2 4 5
M  V30 5 1 4 6
M  V30 6 2 6 7
M  V30 7 1 7 8
M  V30 8 2 8 9
M  V30 9 1 9 10
M  V30 10 2 10 11
M  V30 11 1 11 12
M  V30 12 1 12 13
M  V30 13 2 13 14
M  V30 14 1 14 15
M  V30 15 2 15 16
M  V30 16 1 16 17
M  V30 17 1 17 18
M  V30 18 2 17 19
M  V30 19 2 12 20
M  V30 20 1 20 21
M  V30 21 2 21 22
M  V30 22 1 22 23
M  V30 23 1 23 24
M  V30 24 1 24 25
M  V30 25 1 25 26
M  V30 26 1 26 27
M  V30 27 1 27 28
M  V30 28 1 28 29
M  V30 29 1 29 30
M  V30 30 1 30 31
M  V30 31 1 31 32
M  V30 32 1 32 33
M  V30 33 1 33 34
M  V30 34 1 27 35
M  V30 35 1 35 36
M  V30 36 1 22 6
M  V30 37 1 36 24
M  V30 38 1 21 9
M  V30 39 1 34 29
M  V30 40 1 19 13
M  V30 41 1 1 37
M  V30 42 1 1 38
M  V30 43 1 1 39
M  V30 44 1 2 40
M  V30 45 1 2 41
M  V30 46 1 7 42
M  V30 47 1 10 43
M  V30 48 1 11 44
M  V30 49 1 14 45
M  V30 50 1 15 46
M  V30 51 1 18 47
M  V30 52 1 18 48
M  V30 53 1 19 49
M  V30 54 1 23 50
M  V30 55 1 24 51 CFG=1
M  V30 56 1 25 52
M  V30 57 1 25 53
M  V30 58 1 26 54
M  V30 59 1 26 55
M  V30 60 1 27 56 CFG=3
M  V30 61 1 28 57
M  V30 62 1 28 58
M  V30 63 1 30 59
M  V30 64 1 30 60
M  V30 65 1 31 61
M  V30 66 1 31 62
M  V30 67 1 33 63
M  V30 68 1 33 64
M  V30 69 1 34 65
M  V30 70 1 34 66
M  V30 71 1 35 67
M  V30 72 1 35 68
M  V30 73 1 36 69
M  V30 74 1 36 70
M  V30 END BOND
M  V30 END CTAB
M  END
>  <Dataset>  (490) 
ChEMBL_Kinases

>  <Ligand_Instance>  (490) 
nan

>  <PDB_ID>  (490) 
nan

>  <Standardized_SMILES>  (490) 
CCOC(=O)c1cnc2ccc(-c3ccnc(N)c3)nc2c1N[C@H]1CC[C@H](CN2CCOCC2)CC1

>  <Name>  (490) 
nan

>  <Pocket>  (490) 
nan

>  <ATP_Site>  (490) 
nan

>  <Peripheral>  (490) 
nan

>  <Num_H_Atoms_ProtBoundConf>  (490) 
nan

>  <Num_Resolved_Atoms>  (490) 
nan

>  <Num_Not_Resolved_Atoms>  (490) 
nan

$$$$
CHEMBL4553487
     RDKit          3D

  0  0  0  0  0  0  0  0  0  0999 V3000
M  V30 BEGIN CTAB
M  V30 COUNTS 28 30 0 0 0
M  V30 BEGIN ATOM
M  V30 1 O -0.458395 -1.616468 -0.104179 0
M  V30 2 C -1.000141 -1.042988 0.876414 0
M  V30 3 N -0.309586 0.105623 1.340497 0
M  V30 4 C 0.919224 0.404887 0.575361 0
M  V30 5 N 1.994217 -0.007978 0.827122 0
M  V30 6 C 3.119325 0.235289 0.168543 0
M  V30 7 C 4.388416 -0.235941 0.443667 0
M  V30 8 C 5.438184 0.113453 -0.337946 0
M  V30 9 C 5.363417 0.941239 -1.446404 0
M  V30 10 F 6.367530 1.326099 -2.263193 0
M  V30 11 C 4.103656 1.420669 -1.735430 0
M  V30 12 C 3.035375 1.047480 -0.915958 0
M  V30 13 S 1.267123 1.453825 -0.957666 0
M  V30 14 C -2.236907 -1.503454 1.501261 0
M  V30 15 C -2.841312 -0.880452 2.579824 0
M  V30 16 C -4.011638 -1.347087 3.142939 0
M  V30 17 C -4.576815 -2.477316 2.589854 0
M  V30 18 Cl -6.063042 -3.031563 3.339935 0
M  V30 19 C -3.980288 -3.098294 1.519790 0
M  V30 20 C -2.815292 -2.648602 0.945728 0
M  V30 21 H -0.646557 0.659133 2.129902 0
M  V30 22 H 4.627678 -0.903185 1.285219 0
M  V30 23 H 6.455914 -0.257036 -0.127428 0
M  V30 24 H 3.821055 2.073778 -2.545110 0
M  V30 25 H -2.375261 0.001117 2.989931 0
M  V30 26 H -4.416106 -0.796920 3.986210 0
M  V30 27 H -4.537957 -3.978379 1.188430 0
M  V30 28 H -2.426211 -3.209914 0.105296 0
M  V30 END ATOM
M  V30 BEGIN BOND
M  V30 1 2 1 2
M  V30 2 1 2 3
M  V30 3 1 3 4
M  V30 4 2 4 5
M  V30 5 1 5 6
M  V30 6 2 6 7
M  V30 7 1 7 8
M  V30 8 2 8 9
M  V30 9 1 9 10
M  V30 10 1 9 11
M  V30 11 2 11 12
M  V30 12 1 12 13
M  V30 13 1 2 14
M  V30 14 2 14 15
M  V30 15 1 15 16
M  V30 16 2 16 17
M  V30 17 1 17 18
M  V30 18 1 17 19
M  V30 19 2 19 20
M  V30 20 1 13 4
M  V30 21 1 20 14
M  V30 22 1 12 6
M  V30 23 1 3 21
M  V30 24 1 7 22
M  V30 25 1 8 23
M  V30 26 1 11 24
M  V30 27 1 15 25
M  V30 28 1 16 26
M  V30 29 1 19 27
M  V30 30 1 20 28
M  V30 END BOND
M  V30 END CTAB
M  END
>  <Dataset>  (491) 
ChEMBL_Kinases

>  <Ligand_Instance>  (491) 
nan

>  <PDB_ID>  (491) 
nan

>  <Standardized_SMILES>  (491) 
O=C(Nc1nc2ccc(F)cc2s1)c1ccc(Cl)cc1

>  <Name>  (491) 
nan

>  <Pocket>  (491) 
nan

>  <ATP_Site>  (491) 
nan

>  <Peripheral>  (491) 
nan

>  <Num_H_Atoms_ProtBoundConf>  (491) 
nan

>  <Num_Resolved_Atoms>  (491) 
nan

>  <Num_Not_Resolved_Atoms>  (491) 
nan

$$$$
CHEMBL4553409
     RDKit          3D

  0  0  0  0  0  0  0  0  0  0999 V3000
M  V30 BEGIN CTAB
M  V30 COUNTS 56 60 0 0 0
M  V30 BEGIN ATOM
M  V30 1 O 3.114961 2.711201 1.496080 0
M  V30 2 C 2.201668 2.641467 2.347040 0
M  V30 3 C 2.666050 3.052398 3.686933 0
M  V30 4 C 4.118489 3.416924 3.515030 0
M  V30 5 C 5.124003 2.559612 3.939129 0
M  V30 6 C 6.468998 2.842422 3.805538 0
M  V30 7 C 6.843104 4.040198 3.219744 0
M  V30 8 C 5.841618 4.904230 2.792207 0
M  V30 9 C 6.161104 6.218267 2.150731 0
M  V30 10 F 5.623634 6.246407 0.875808 0
M  V30 11 F 5.652368 7.242991 2.892060 0
M  V30 12 F 7.528975 6.392648 1.984088 0
M  V30 13 C 4.502760 4.623333 2.924988 0
M  V30 14 F 3.526586 5.481991 2.500778 0
M  V30 15 N 0.953659 2.208709 1.915775 0
M  V30 16 C 0.394390 1.796941 0.694869 0
M  V30 17 C -0.930714 1.445740 0.729444 0
M  V30 18 C -1.566868 1.028719 -0.413328 0
M  V30 19 O -2.906687 0.677629 -0.357115 0
M  V30 20 C -3.194346 -0.651910 -0.091399 0
M  V30 21 C -3.389832 -1.236168 1.142621 0
M  V30 22 C -3.673795 -2.568139 1.344021 0
M  V30 23 C -3.780710 -3.421296 0.265470 0
M  V30 24 N -4.044905 -4.705999 0.305783 0
M  V30 25 C -4.136145 -5.443335 -0.640679 0
M  V30 26 N -4.385262 -6.773546 -1.012746 0
M  V30 27 C -4.406743 -7.302173 -2.330262 0
M  V30 28 O -4.206200 -6.667379 -3.383301 0
M  V30 29 C -4.696035 -8.757470 -2.482455 0
M  V30 30 C -3.684444 -9.443987 -3.431273 0
M  V30 31 C -5.120711 -9.290295 -3.818625 0
M  V30 32 S -3.801030 -4.244220 -2.099130 0
M  V30 33 C -3.575238 -2.796870 -0.995142 0
M  V30 34 C -3.291517 -1.465934 -1.199536 0
M  V30 35 C -0.914355 0.946454 -1.622436 0
M  V30 36 C 0.419073 1.291086 -1.699044 0
M  V30 37 C 1.004781 1.700598 -0.526590 0
M  V30 38 F 2.300511 2.021792 -0.663173 0
M  V30 39 H 2.645180 2.242652 4.444857 0
M  V30 40 H 2.114936 3.917366 4.105712 0
M  V30 41 H 4.801553 1.615595 4.401340 0
M  V30 42 H 7.234652 2.167713 4.140405 0
M  V30 43 H 7.889669 4.315249 3.088862 0
M  V30 44 H 0.350260 2.229787 2.790400 0
M  V30 45 H -1.532699 1.477359 1.639036 0
M  V30 46 H -3.296687 -0.524855 1.980518 0
M  V30 47 H -3.794765 -2.846894 2.381498 0
M  V30 48 H -4.560385 -7.351431 -0.162349 0
M  V30 49 H -4.887967 -9.363291 -1.547863 0
M  V30 50 H -2.978626 -8.827697 -3.990849 0
M  V30 51 H -3.272597 -10.418894 -3.114430 0
M  V30 52 H -5.703330 -10.218863 -3.844950 0
M  V30 53 H -5.400844 -8.556846 -4.588503 0
M  V30 54 H -3.177578 -1.222867 -2.241542 0
M  V30 55 H -1.471340 0.611390 -2.483092 0
M  V30 56 H 0.922875 1.225624 -2.638110 0
M  V30 END ATOM
M  V30 BEGIN BOND
M  V30 1 2 1 2
M  V30 2 1 2 3
M  V30 3 1 3 4
M  V30 4 2 4 5
M  V30 5 1 5 6
M  V30 6 2 6 7
M  V30 7 1 7 8
M  V30 8 1 8 9
M  V30 9 1 9 10
M  V30 10 1 9 11
M  V30 11 1 9 12
M  V30 12 2 8 13
M  V30 13 1 13 14
M  V30 14 1 2 15
M  V30 15 1 15 16
M  V30 16 2 16 17
M  V30 17 1 17 18
M  V30 18 1 18 19
M  V30 19 1 19 20
M  V30 20 2 20 21
M  V30 21 1 21 22
M  V30 22 2 22 23
M  V30 23 1 23 24
M  V30 24 2 24 25
M  V30 25 1 25 26
M  V30 26 1 26 27
M  V30 27 2 27 28
M  V30 28 1 27 29
M  V30 29 1 29 30
M  V30 30 1 30 31
M  V30 31 1 25 32
M  V30 32 1 32 33
M  V30 33 2 33 34
M  V30 34 2 18 35
M  V30 35 1 35 36
M  V30 36 2 36 37
M  V30 37 1 37 38
M  V30 38 1 13 4
M  V30 39 1 37 16
M  V30 40 1 34 20
M  V30 41 1 33 23
M  V30 42 1 31 29
M  V30 43 1 3 39
M  V30 44 1 3 40
M  V30 45 1 5 41
M  V30 46 1 6 42
M  V30 47 1 7 43
M  V30 48 1 15 44
M  V30 49 1 17 45
M  V30 50 1 21 46
M  V30 51 1 22 47
M  V30 52 1 26 48
M  V30 53 1 29 49
M  V30 54 1 30 50
M  V30 55 1 30 51
M  V30 56 1 31 52
M  V30 57 1 31 53
M  V30 58 1 34 54
M  V30 59 1 35 55
M  V30 60 1 36 56
M  V30 END BOND
M  V30 END CTAB
M  END
>  <Dataset>  (492) 
ChEMBL_Kinases

>  <Ligand_Instance>  (492) 
nan

>  <PDB_ID>  (492) 
nan

>  <Standardized_SMILES>  (492) 
O=C(Cc1cccc(C(F)(F)F)c1F)Nc1cc(Oc2ccc3nc(NC(=O)C4CC4)sc3c2)ccc1F

>  <Name>  (492) 
nan

>  <Pocket>  (492) 
nan

>  <ATP_Site>  (492) 
nan

>  <Peripheral>  (492) 
nan

>  <Num_H_Atoms_ProtBoundConf>  (492) 
nan

>  <Num_Resolved_Atoms>  (492) 
nan

>  <Num_Not_Resolved_Atoms>  (492) 
nan

$$$$
CHEMBL4553241
     RDKit          3D

  0  0  0  0  0  0  0  0  0  0999 V3000
M  V30 BEGIN CTAB
M  V30 COUNTS 59 62 0 0 0
M  V30 BEGIN ATOM
M  V30 1 C 2.929380 -3.668165 -0.362375 0
M  V30 2 C 2.569729 -3.337347 1.072986 0
M  V30 3 C 3.764584 -3.665775 1.919903 0
M  V30 4 C 2.221157 -1.888446 1.247390 0
M  V30 5 C 3.175563 -0.937288 1.555370 0
M  V30 6 N 2.480189 0.208855 1.624539 0
M  V30 7 N 1.197729 0.011620 1.383160 0
M  V30 8 C 0.123857 0.813385 1.335234 0
M  V30 9 N 0.261523 2.206839 1.578254 0
M  V30 10 C 1.543409 2.780485 1.877237 0
M  V30 11 C 1.486164 4.244457 2.096777 0
M  V30 12 C 1.260049 4.625353 3.424750 0
M  V30 13 C 1.185263 5.962750 3.758873 0
M  V30 14 C 1.324865 6.970556 2.830859 0
M  V30 15 C 1.547278 6.578289 1.527244 0
M  V30 16 C 1.625266 5.250864 1.172946 0
M  V30 17 C -1.131922 0.337089 1.053451 0
M  V30 18 C -1.345944 -1.013955 0.802725 0
M  V30 19 N -2.632584 -1.542279 0.526428 0
M  V30 20 C -3.118029 -2.826783 0.172909 0
M  V30 21 C -2.786673 -3.329335 -1.188998 0 CFG=2
M  V30 22 C -3.317479 -2.432699 -2.287893 0
M  V30 23 O -4.704651 -2.320115 -2.228531 0
M  V30 24 C -3.432078 -4.698838 -1.443367 0
M  V30 25 C -2.597460 -5.184790 -2.584784 0
M  V30 26 N -1.323281 -4.550661 -2.500249 0
M  V30 27 C -1.330048 -3.635198 -1.368396 0
M  V30 28 N -0.229438 -1.753835 0.867659 0
M  V30 29 C 0.981106 -1.292881 1.139521 0
M  V30 30 H 2.508408 -2.840529 -0.991473 0
M  V30 31 H 4.034393 -3.631787 -0.527874 0
M  V30 32 H 2.492838 -4.628803 -0.698158 0
M  V30 33 H 1.737799 -3.999242 1.408813 0
M  V30 34 H 4.128292 -4.671865 1.598217 0
M  V30 35 H 4.613873 -2.980665 1.796459 0
M  V30 36 H 3.497469 -3.800273 3.007644 0
M  V30 37 H 4.226631 -0.958395 1.724298 0
M  V30 38 H -0.547742 2.864189 1.550678 0
M  V30 39 H 2.051087 2.271719 2.728485 0
M  V30 40 H 2.187228 2.605285 0.989635 0
M  V30 41 H 1.138337 3.896699 4.219673 0
M  V30 42 H 1.009519 6.252107 4.798752 0
M  V30 43 H 1.275140 8.028982 3.035400 0
M  V30 44 H 1.679731 7.241410 0.674793 0
M  V30 45 H 1.800721 4.883063 0.152556 0
M  V30 46 H -1.969911 1.019102 1.025375 0
M  V30 47 H -3.394487 -0.796696 0.604319 0
M  V30 48 H -4.232035 -2.866029 0.268868 0
M  V30 49 H -2.781763 -3.588633 0.948925 0
M  V30 50 H -2.915231 -1.416995 -2.268205 0
M  V30 51 H -3.077054 -2.944980 -3.247594 0
M  V30 52 H -4.971653 -1.620224 -2.855104 0
M  V30 53 H -4.501918 -4.567845 -1.705506 0
M  V30 54 H -3.322146 -5.380196 -0.583640 0
M  V30 55 H -3.045908 -4.962756 -3.584167 0
M  V30 56 H -2.490325 -6.307285 -2.580391 0
M  V30 57 H -0.529835 -5.215531 -2.377386 0
M  V30 58 H -0.742594 -2.720257 -1.638401 0
M  V30 59 H -0.917516 -4.090656 -0.469063 0
M  V30 END ATOM
M  V30 BEGIN BOND
M  V30 1 1 1 2
M  V30 2 1 2 3
M  V30 3 1 2 4
M  V30 4 1 4 5
M  V30 5 2 5 6
M  V30 6 1 6 7
M  V30 7 1 7 8
M  V30 8 1 8 9
M  V30 9 1 9 10
M  V30 10 1 10 11
M  V30 11 2 11 12
M  V30 12 1 12 13
M  V30 13 2 13 14
M  V30 14 1 14 15
M  V30 15 2 15 16
M  V30 16 2 8 17
M  V30 17 1 17 18
M  V30 18 1 18 19
M  V30 19 1 19 20
M  V30 20 1 21 20 CFG=1
M  V30 21 1 21 22
M  V30 22 1 22 23
M  V30 23 1 21 24
M  V30 24 1 24 25
M  V30 25 1 25 26
M  V30 26 1 26 27
M  V30 27 2 18 28
M  V30 28 1 28 29
M  V30 29 2 29 4
M  V30 30 1 29 7
M  V30 31 1 16 11
M  V30 32 1 27 21
M  V30 33 1 1 30
M  V30 34 1 1 31
M  V30 35 1 1 32
M  V30 36 1 2 33
M  V30 37 1 3 34
M  V30 38 1 3 35
M  V30 39 1 3 36
M  V30 40 1 5 37
M  V30 41 1 9 38
M  V30 42 1 10 39
M  V30 43 1 10 40
M  V30 44 1 12 41
M  V30 45 1 13 42
M  V30 46 1 14 43
M  V30 47 1 15 44
M  V30 48 1 16 45
M  V30 49 1 17 46
M  V30 50 1 19 47
M  V30 51 1 20 48
M  V30 52 1 20 49
M  V30 53 1 22 50
M  V30 54 1 22 51
M  V30 55 1 23 52
M  V30 56 1 24 53
M  V30 57 1 24 54
M  V30 58 1 25 55
M  V30 59 1 25 56
M  V30 60 1 26 57
M  V30 61 1 27 58
M  V30 62 1 27 59
M  V30 END BOND
M  V30 END CTAB
M  END
>  <Dataset>  (493) 
ChEMBL_Kinases

>  <Ligand_Instance>  (493) 
nan

>  <PDB_ID>  (493) 
nan

>  <Standardized_SMILES>  (493) 
CC(C)c1cnn2c(NCc3ccccc3)cc(NC[C@]3(CO)CCNC3)nc12

>  <Name>  (493) 
nan

>  <Pocket>  (493) 
nan

>  <ATP_Site>  (493) 
nan

>  <Peripheral>  (493) 
nan

>  <Num_H_Atoms_ProtBoundConf>  (493) 
nan

>  <Num_Resolved_Atoms>  (493) 
nan

>  <Num_Not_Resolved_Atoms>  (493) 
nan

$$$$
CHEMBL4553210
     RDKit          3D

  0  0  0  0  0  0  0  0  0  0999 V3000
M  V30 BEGIN CTAB
M  V30 COUNTS 56 59 0 0 0
M  V30 BEGIN ATOM
M  V30 1 C -2.660960 -5.739094 -1.529351 0
M  V30 2 O -1.840844 -5.854624 -2.700612 0
M  V30 3 C -0.661121 -5.160252 -2.857508 0
M  V30 4 C -0.278092 -4.332157 -1.838521 0
M  V30 5 C 0.893309 -3.610761 -1.937935 0
M  V30 6 C 1.521022 -2.669982 -1.016947 0
M  V30 7 C 2.890791 -2.808217 -0.764399 0
M  V30 8 N 3.514861 -1.950291 0.090632 0
M  V30 9 C 2.782888 -0.976120 0.679110 0
M  V30 10 C 1.411224 -0.804976 0.452518 0
M  V30 11 C 0.815145 0.304257 1.187423 0
M  V30 12 C 1.510223 1.506218 1.154519 0
M  V30 13 C 1.038071 2.625974 1.819343 0
M  V30 14 C -0.129489 2.617423 2.541724 0
M  V30 15 N -0.631218 3.749368 3.231608 0
M  V30 16 C -0.011246 5.054536 3.338997 0
M  V30 17 C 0.391120 5.184872 4.816224 0
M  V30 18 N -0.816097 5.272238 5.610755 0
M  V30 19 C -1.702067 4.171853 5.420059 0
M  V30 20 C -1.876052 3.799573 3.962842 0
M  V30 21 C -0.815271 1.427029 2.572801 0
M  V30 22 C -0.356494 0.305807 1.915830 0
M  V30 23 C 0.798370 -1.675076 -0.409358 0
M  V30 24 C -0.632273 -1.474401 -0.635553 0
M  V30 25 C 1.631985 -3.778420 -3.105558 0
M  V30 26 C 1.232979 -4.617072 -4.124298 0
M  V30 27 C 0.054570 -5.330935 -4.003565 0
M  V30 28 C -0.380326 -6.220377 -5.070317 0
M  V30 29 N -1.612183 -6.935516 -4.889985 0
M  V30 30 O 0.295632 -6.358201 -6.110300 0
M  V30 31 H -3.579684 -6.333139 -1.695523 0
M  V30 32 H -2.912325 -4.677176 -1.327836 0
M  V30 33 H -2.163569 -6.142393 -0.629112 0
M  V30 34 H -0.791253 -4.149915 -0.905179 0
M  V30 35 H 3.515616 -3.570755 -1.211277 0
M  V30 36 H 3.353895 -0.330595 1.349385 0
M  V30 37 H 2.452564 1.572084 0.591035 0
M  V30 38 H 1.641919 3.506613 1.736234 0
M  V30 39 H -0.707258 5.874327 3.060129 0
M  V30 40 H 0.910017 5.055585 2.758442 0
M  V30 41 H 0.975499 6.094776 5.005861 0
M  V30 42 H 1.010678 4.291302 5.046150 0
M  V30 43 H -0.517728 5.305807 6.611325 0
M  V30 44 H -1.428148 3.269583 6.035797 0
M  V30 45 H -2.703644 4.462061 5.802658 0
M  V30 46 H -2.486174 4.635820 3.506301 0
M  V30 47 H -2.512748 2.915190 3.873666 0
M  V30 48 H -1.726995 1.257834 3.084092 0
M  V30 49 H -0.876571 -0.642283 1.927121 0
M  V30 50 H -0.905971 -0.386283 -0.702634 0
M  V30 51 H -0.846595 -1.858067 -1.672187 0
M  V30 52 H -1.308525 -2.025266 0.037108 0
M  V30 53 H 2.573175 -3.277468 -3.324966 0
M  V30 54 H 1.792205 -4.762549 -5.041220 0
M  V30 55 H -1.880503 -7.932238 -4.647488 0
M  V30 56 H -2.632830 -6.681395 -4.945215 0
M  V30 END ATOM
M  V30 BEGIN BOND
M  V30 1 1 1 2
M  V30 2 1 2 3
M  V30 3 2 3 4
M  V30 4 1 4 5
M  V30 5 1 5 6
M  V30 6 2 6 7
M  V30 7 1 7 8
M  V30 8 2 8 9
M  V30 9 1 9 10
M  V30 10 1 10 11
M  V30 11 2 11 12
M  V30 12 1 12 13
M  V30 13 2 13 14
M  V30 14 1 14 15
M  V30 15 1 15 16
M  V30 16 1 16 17
M  V30 17 1 17 18
M  V30 18 1 18 19
M  V30 19 1 19 20
M  V30 20 1 14 21
M  V30 21 2 21 22
M  V30 22 2 10 23
M  V30 23 1 23 24
M  V30 24 2 5 25
M  V30 25 1 25 26
M  V30 26 2 26 27
M  V30 27 1 27 28
M  V30 28 1 28 29
M  V30 29 2 28 30
M  V30 30 1 27 3
M  V30 31 1 23 6
M  V30 32 1 22 11
M  V30 33 1 20 15
M  V30 34 1 1 31
M  V30 35 1 1 32
M  V30 36 1 1 33
M  V30 37 1 4 34
M  V30 38 1 7 35
M  V30 39 1 9 36
M  V30 40 1 12 37
M  V30 41 1 13 38
M  V30 42 1 16 39
M  V30 43 1 16 40
M  V30 44 1 17 41
M  V30 45 1 17 42
M  V30 46 1 18 43
M  V30 47 1 19 44
M  V30 48 1 19 45
M  V30 49 1 20 46
M  V30 50 1 20 47
M  V30 51 1 21 48
M  V30 52 1 22 49
M  V30 53 1 24 50
M  V30 54 1 24 51
M  V30 55 1 24 52
M  V30 56 1 25 53
M  V30 57 1 26 54
M  V30 58 1 29 55
M  V30 59 1 29 56
M  V30 END BOND
M  V30 END CTAB
M  END
>  <Dataset>  (494) 
ChEMBL_Kinases

>  <Ligand_Instance>  (494) 
nan

>  <PDB_ID>  (494) 
nan

>  <Standardized_SMILES>  (494) 
COc1cc(-c2cncc(-c3ccc(N4CCNCC4)cc3)c2C)ccc1C(N)=O

>  <Name>  (494) 
nan

>  <Pocket>  (494) 
nan

>  <ATP_Site>  (494) 
nan

>  <Peripheral>  (494) 
nan

>  <Num_H_Atoms_ProtBoundConf>  (494) 
nan

>  <Num_Resolved_Atoms>  (494) 
nan

>  <Num_Not_Resolved_Atoms>  (494) 
nan

$$$$
CHEMBL4553100
     RDKit          3D

  0  0  0  0  0  0  0  0  0  0999 V3000
M  V30 BEGIN CTAB
M  V30 COUNTS 44 47 0 0 0
M  V30 BEGIN ATOM
M  V30 1 C 4.161750 -1.557166 1.227197 0
M  V30 2 C 3.870955 -0.930196 -0.108142 0
M  V30 3 N 4.521200 -1.162120 -1.277300 0
M  V30 4 C 3.988014 -0.432485 -2.247716 0
M  V30 5 C 4.242323 -0.269557 -3.608940 0
M  V30 6 N 3.478758 0.583241 -4.311994 0
M  V30 7 C 2.471533 1.287731 -3.738947 0
M  V30 8 N 1.633441 2.203165 -4.441834 0
M  V30 9 N 2.216064 1.135643 -2.412716 0
M  V30 10 C 2.965486 0.282166 -1.662873 0
M  V30 11 C 2.858410 -0.001098 -0.319243 0
M  V30 12 C 1.964216 0.484544 0.719900 0
M  V30 13 C 2.479462 1.619984 1.332164 0
M  V30 14 C 1.796829 2.261275 2.363571 0
M  V30 15 C 0.581841 1.730686 2.763551 0
M  V30 16 C 0.120394 0.611215 2.126901 0
M  V30 17 C -1.138902 0.091041 2.574918 0
M  V30 18 C -2.204701 -0.341401 2.973590 0
M  V30 19 C -3.475741 -0.853885 3.475308 0
M  V30 20 C -4.644026 0.028885 3.102354 0
M  V30 21 O -3.343947 -0.904223 4.862975 0
M  V30 22 C -3.760649 -2.214232 2.949380 0
M  V30 23 N -3.998171 -3.356225 2.503505 0
M  V30 24 C -3.685219 -3.670348 1.244669 0
M  V30 25 C -4.303358 -4.757626 1.997641 0
M  V30 26 S -4.473648 -3.694955 3.586582 0
M  V30 27 C 0.764270 -0.050389 1.105162 0
M  V30 28 H 5.101756 -2.139088 1.163914 0
M  V30 29 H 4.237905 -0.799713 2.023589 0
M  V30 30 H 3.343188 -2.245590 1.528454 0
M  V30 31 H 5.322078 -1.818266 -1.387004 0
M  V30 32 H 5.040907 -0.820657 -4.092220 0
M  V30 33 H 2.296355 3.018318 -4.571065 0
M  V30 34 H 0.624131 2.113521 -4.757562 0
M  V30 35 H 3.416394 2.114569 1.097410 0
M  V30 36 H 2.160779 3.146554 2.868131 0
M  V30 37 H 0.015340 2.204903 3.569793 0
M  V30 38 H -4.308155 0.680633 2.256401 0
M  V30 39 H -5.544649 -0.576521 2.817422 0
M  V30 40 H -4.826281 0.711209 3.944300 0
M  V30 41 H -3.053694 -1.780635 5.197467 0
M  V30 42 H -3.422386 -3.920878 0.201024 0
M  V30 43 H -4.525692 -5.763487 1.645805 0
M  V30 44 H 0.433325 -0.919362 0.592065 0
M  V30 END ATOM
M  V30 BEGIN BOND
M  V30 1 1 1 2
M  V30 2 1 2 3
M  V30 3 1 3 4
M  V30 4 2 4 5
M  V30 5 1 5 6
M  V30 6 2 6 7
M  V30 7 1 7 8
M  V30 8 1 7 9
M  V30 9 2 9 10
M  V30 10 1 10 11
M  V30 11 1 11 12
M  V30 12 2 12 13
M  V30 13 1 13 14
M  V30 14 2 14 15
M  V30 15 1 15 16
M  V30 16 1 16 17
M  V30 17 3 17 18
M  V30 18 1 18 19
M  V30 19 1 19 20
M  V30 20 1 19 21
M  V30 21 1 19 22
M  V30 22 2 22 23
M  V30 23 1 23 24
M  V30 24 2 24 25
M  V30 25 1 25 26
M  V30 26 2 16 27
M  V30 27 2 11 2
M  V30 28 1 27 12
M  V30 29 1 10 4
M  V30 30 1 26 22
M  V30 31 1 1 28
M  V30 32 1 1 29
M  V30 33 1 1 30
M  V30 34 1 3 31
M  V30 35 1 5 32
M  V30 36 1 8 33
M  V30 37 1 8 34
M  V30 38 1 13 35
M  V30 39 1 14 36
M  V30 40 1 15 37
M  V30 41 1 20 38
M  V30 42 1 20 39
M  V30 43 1 20 40
M  V30 44 1 21 41
M  V30 45 1 24 42
M  V30 46 1 25 43
M  V30 47 1 27 44
M  V30 END BOND
M  V30 END CTAB
M  END
>  <Dataset>  (495) 
ChEMBL_Kinases

>  <Ligand_Instance>  (495) 
nan

>  <PDB_ID>  (495) 
nan

>  <Standardized_SMILES>  (495) 
Cc1[nH]c2cnc(N)nc2c1-c1cccc(C#CC(C)(O)c2nccs2)c1

>  <Name>  (495) 
nan

>  <Pocket>  (495) 
nan

>  <ATP_Site>  (495) 
nan

>  <Peripheral>  (495) 
nan

>  <Num_H_Atoms_ProtBoundConf>  (495) 
nan

>  <Num_Resolved_Atoms>  (495) 
nan

>  <Num_Not_Resolved_Atoms>  (495) 
nan

$$$$
CHEMBL4552331
     RDKit          3D

  0  0  0  0  0  0  0  0  0  0999 V3000
M  V30 BEGIN CTAB
M  V30 COUNTS 47 50 0 0 0
M  V30 BEGIN ATOM
M  V30 1 C -1.523061 -3.658742 0.215458 0
M  V30 2 C -0.118367 -4.228226 0.224861 0
M  V30 3 C -0.089109 -5.647078 -0.286096 0
M  V30 4 C 0.797463 -3.369758 -0.609155 0
M  V30 5 C 1.706994 -2.718739 0.351270 0
M  V30 6 C 2.035222 -1.314632 0.047529 0
M  V30 7 C 3.122719 -0.886175 -0.700992 0
M  V30 8 N 3.139926 0.453460 -0.791296 0
M  V30 9 C 2.091420 0.955675 -0.123504 0
M  V30 10 C 1.616943 2.229238 0.116462 0
M  V30 11 C 2.348813 3.363139 -0.437247 0
M  V30 12 N 1.914530 4.700305 -0.228707 0
M  V30 13 O 3.383438 3.257817 -1.117963 0
M  V30 14 C 0.479775 2.479516 0.857357 0
M  V30 15 C -0.168337 1.367161 1.353724 0
M  V30 16 C -1.389483 1.575228 2.152709 0
M  V30 17 C -1.796240 0.752427 3.176960 0
M  V30 18 C -2.967730 1.047068 3.862781 0
M  V30 19 C -3.712821 2.156051 3.515873 0
M  V30 20 C -3.345130 3.009961 2.496410 0
M  V30 21 C -2.175021 2.686066 1.836520 0
M  V30 22 C 0.263365 0.073331 1.143370 0
M  V30 23 C 1.400843 -0.119037 0.399032 0
M  V30 24 N 1.134586 -2.946854 1.640500 0
M  V30 25 C 0.355683 -4.134691 1.628401 0
M  V30 26 O 0.152436 -4.880731 2.592441 0
M  V30 27 H -2.304915 -4.432045 0.080597 0
M  V30 28 H -1.775144 -3.126710 1.154884 0
M  V30 29 H -1.572912 -2.883926 -0.593413 0
M  V30 30 H -1.096320 -5.839419 -0.749673 0
M  V30 31 H 0.649986 -5.717074 -1.108261 0
M  V30 32 H 0.098633 -6.404017 0.503271 0
M  V30 33 H 1.316094 -4.004191 -1.372690 0
M  V30 34 H 0.170568 -2.679664 -1.206161 0
M  V30 35 H 2.673568 -3.299284 0.341430 0
M  V30 36 H 3.865466 -1.550331 -1.156057 0
M  V30 37 H 3.872368 0.980635 -1.309629 0
M  V30 38 H 1.105652 5.269085 -0.571298 0
M  V30 39 H 2.588582 5.174262 0.417443 0
M  V30 40 H 0.172461 3.488532 1.001862 0
M  V30 41 H -1.182421 -0.093610 3.405493 0
M  V30 42 H -3.249946 0.381264 4.653966 0
M  V30 43 H -4.640891 2.389361 4.059110 0
M  V30 44 H -3.913097 3.882955 2.208345 0
M  V30 45 H -1.871359 3.342569 1.035813 0
M  V30 46 H -0.280331 -0.739306 1.551665 0
M  V30 47 H 1.305185 -2.285139 2.458205 0
M  V30 END ATOM
M  V30 BEGIN BOND
M  V30 1 1 1 2
M  V30 2 1 2 3
M  V30 3 1 2 4
M  V30 4 1 4 5
M  V30 5 1 5 6
M  V30 6 2 6 7
M  V30 7 1 7 8
M  V30 8 1 8 9
M  V30 9 2 9 10
M  V30 10 1 10 11
M  V30 11 1 11 12
M  V30 12 2 11 13
M  V30 13 1 10 14
M  V30 14 2 14 15
M  V30 15 1 15 16
M  V30 16 2 16 17
M  V30 17 1 17 18
M  V30 18 2 18 19
M  V30 19 1 19 20
M  V30 20 2 20 21
M  V30 21 1 15 22
M  V30 22 2 22 23
M  V30 23 1 5 24
M  V30 24 1 24 25
M  V30 25 2 25 26
M  V30 26 1 25 2
M  V30 27 1 23 6
M  V30 28 1 23 9
M  V30 29 1 21 16
M  V30 30 1 1 27
M  V30 31 1 1 28
M  V30 32 1 1 29
M  V30 33 1 3 30
M  V30 34 1 3 31
M  V30 35 1 3 32
M  V30 36 1 4 33
M  V30 37 1 4 34
M  V30 38 1 5 35
M  V30 39 1 7 36
M  V30 40 1 8 37
M  V30 41 1 12 38
M  V30 42 1 12 39
M  V30 43 1 14 40
M  V30 44 1 17 41
M  V30 45 1 18 42
M  V30 46 1 19 43
M  V30 47 1 20 44
M  V30 48 1 21 45
M  V30 49 1 22 46
M  V30 50 1 24 47
M  V30 END BOND
M  V30 END CTAB
M  END
>  <Dataset>  (496) 
ChEMBL_Kinases

>  <Ligand_Instance>  (496) 
nan

>  <PDB_ID>  (496) 
nan

>  <Standardized_SMILES>  (496) 
CC1(C)CC(c2c[nH]c3c(C(N)=O)cc(-c4ccccc4)cc23)NC1=O

>  <Name>  (496) 
nan

>  <Pocket>  (496) 
nan

>  <ATP_Site>  (496) 
nan

>  <Peripheral>  (496) 
nan

>  <Num_H_Atoms_ProtBoundConf>  (496) 
nan

>  <Num_Resolved_Atoms>  (496) 
nan

>  <Num_Not_Resolved_Atoms>  (496) 
nan

$$$$
CHEMBL4553042
     RDKit          3D

  0  0  0  0  0  0  0  0  0  0999 V3000
M  V30 BEGIN CTAB
M  V30 COUNTS 54 58 0 0 0
M  V30 BEGIN ATOM
M  V30 1 C 5.946230 -2.704527 2.697526 0
M  V30 2 O 5.432524 -1.444978 3.058763 0
M  V30 3 C 4.838337 -0.658832 2.091580 0
M  V30 4 C 4.413717 0.535794 2.686267 0
M  V30 5 C 3.774704 1.534594 1.956699 0
M  V30 6 C 3.536873 1.367358 0.588465 0
M  V30 7 S 2.778826 2.516706 -0.480628 0
M  V30 8 O 3.379680 2.293875 -1.865454 0
M  V30 9 O 3.188766 3.931692 -0.118349 0
M  V30 10 N 1.106816 2.420460 -0.583030 0
M  V30 11 C 0.517425 1.242301 -1.055005 0
M  V30 12 C -0.993621 1.262910 -1.079917 0
M  V30 13 C -1.538660 1.438733 0.281759 0
M  V30 14 C -0.789211 2.498391 0.942816 0
M  V30 15 S -1.509015 2.605387 2.555169 0
M  V30 16 C -2.742188 1.297944 2.334583 0
M  V30 17 N -3.678708 0.804688 3.157289 0
M  V30 18 C -4.479730 -0.174361 2.742361 0
M  V30 19 N -4.268431 -0.585654 1.506314 0
M  V30 20 C -3.351919 -0.125644 0.655193 0
M  V30 21 N -3.420702 -0.795784 -0.594259 0
M  V30 22 C -3.395859 -2.228868 -0.559724 0
M  V30 23 C -4.490549 -2.935611 -1.071410 0
M  V30 24 C -4.624796 -4.313160 -1.113038 0
M  V30 25 C -3.568181 -5.027400 -0.596744 0
M  V30 26 C -3.622273 -6.531795 -0.596921 0
M  V30 27 C -2.457200 -4.394923 -0.075948 0
M  V30 28 C -2.361009 -3.002026 -0.052721 0
M  V30 29 Br -0.852418 -2.072361 0.652701 0
M  V30 30 C -2.509329 0.880369 1.047589 0
M  V30 31 C 0.319820 3.239935 0.247991 0
M  V30 32 C 3.980173 0.170391 0.071036 0
M  V30 33 C 4.614112 -0.840611 0.754830 0
M  V30 34 H 5.349879 -3.087228 1.847732 0
M  V30 35 H 5.900888 -3.436749 3.532985 0
M  V30 36 H 7.008562 -2.614398 2.322164 0
M  V30 37 H 4.511217 0.845226 3.738424 0
M  V30 38 H 3.423581 2.475760 2.359521 0
M  V30 39 H 0.829425 1.086093 -2.110963 0
M  V30 40 H 0.836844 0.323184 -0.515208 0
M  V30 41 H -1.341528 0.363605 -1.583469 0
M  V30 42 H -1.345002 2.142088 -1.681817 0
M  V30 43 H -5.202383 -0.517324 3.452125 0
M  V30 44 H -3.496478 -0.567844 -1.632463 0
M  V30 45 H -5.312413 -2.329218 -1.472655 0
M  V30 46 H -5.511592 -4.755932 -1.529999 0
M  V30 47 H -2.941975 -6.954904 -1.367253 0
M  V30 48 H -4.642617 -6.844510 -0.908986 0
M  V30 49 H -3.326439 -6.923703 0.379782 0
M  V30 50 H -1.602806 -4.934249 0.337552 0
M  V30 51 H 0.929609 3.729812 1.044636 0
M  V30 52 H -0.130386 4.044090 -0.377051 0
M  V30 53 H 3.815333 -0.002796 -0.999977 0
M  V30 54 H 4.965038 -1.769448 0.387835 0
M  V30 END ATOM
M  V30 BEGIN BOND
M  V30 1 1 1 2
M  V30 2 1 2 3
M  V30 3 2 3 4
M  V30 4 1 4 5
M  V30 5 2 5 6
M  V30 6 1 6 7
M  V30 7 2 7 8
M  V30 8 2 7 9
M  V30 9 1 7 10
M  V30 10 1 10 11
M  V30 11 1 11 12
M  V30 12 1 12 13
M  V30 13 2 13 14
M  V30 14 1 14 15
M  V30 15 1 15 16
M  V30 16 2 16 17
M  V30 17 1 17 18
M  V30 18 2 18 19
M  V30 19 1 19 20
M  V30 20 1 20 21
M  V30 21 1 21 22
M  V30 22 2 22 23
M  V30 23 1 23 24
M  V30 24 2 24 25
M  V30 25 1 25 26
M  V30 26 1 25 27
M  V30 27 2 27 28
M  V30 28 1 28 29
M  V30 29 2 20 30
M  V30 30 1 14 31
M  V30 31 1 6 32
M  V30 32 2 32 33
M  V30 33 1 33 3
M  V30 34 1 31 10
M  V30 35 1 30 13
M  V30 36 1 30 16
M  V30 37 1 28 22
M  V30 38 1 1 34
M  V30 39 1 1 35
M  V30 40 1 1 36
M  V30 41 1 4 37
M  V30 42 1 5 38
M  V30 43 1 11 39
M  V30 44 1 11 40
M  V30 45 1 12 41
M  V30 46 1 12 42
M  V30 47 1 18 43
M  V30 48 1 21 44
M  V30 49 1 23 45
M  V30 50 1 24 46
M  V30 51 1 26 47
M  V30 52 1 26 48
M  V30 53 1 26 49
M  V30 54 1 27 50
M  V30 55 1 31 51
M  V30 56 1 31 52
M  V30 57 1 32 53
M  V30 58 1 33 54
M  V30 END BOND
M  V30 END CTAB
M  END
>  <Dataset>  (497) 
ChEMBL_Kinases

>  <Ligand_Instance>  (497) 
nan

>  <PDB_ID>  (497) 
nan

>  <Standardized_SMILES>  (497) 
COc1ccc(S(=O)(=O)N2CCc3c(sc4ncnc(Nc5ccc(C)cc5Br)c34)C2)cc1

>  <Name>  (497) 
nan

>  <Pocket>  (497) 
nan

>  <ATP_Site>  (497) 
nan

>  <Peripheral>  (497) 
nan

>  <Num_H_Atoms_ProtBoundConf>  (497) 
nan

>  <Num_Resolved_Atoms>  (497) 
nan

>  <Num_Not_Resolved_Atoms>  (497) 
nan

$$$$
CHEMBL4553039
     RDKit          3D

  0  0  0  0  0  0  0  0  0  0999 V3000
M  V30 BEGIN CTAB
M  V30 COUNTS 52 54 0 0 0
M  V30 BEGIN ATOM
M  V30 1 C 3.858376 -4.430874 1.956957 0
M  V30 2 C 2.732503 -3.457445 1.932400 0
M  V30 3 C 2.648133 -2.640861 0.824186 0
M  V30 4 C 1.662669 -1.663977 0.612675 0
M  V30 5 C 0.730975 -1.563381 1.636831 0
M  V30 6 C -0.285917 -0.542658 1.403971 0
M  V30 7 N -0.266728 0.184482 0.308396 0
M  V30 8 C -1.246268 1.216087 0.023922 0
M  V30 9 S -0.112129 2.631947 -0.237873 0
M  V30 10 O -0.939944 3.823360 -0.584837 0
M  V30 11 O 0.749359 2.221700 -1.399101 0
M  V30 12 C 0.827847 2.903507 1.200171 0
M  V30 13 C 2.010653 2.159777 1.256342 0
M  V30 14 C 2.894553 2.222157 2.297814 0
M  V30 15 C 2.626404 3.056564 3.362371 0
M  V30 16 C 1.461687 3.785521 3.302249 0
M  V30 17 C 0.566890 3.729246 2.258448 0
M  V30 18 N -1.386325 -0.203349 2.263735 0
M  V30 19 C -2.659067 -0.377076 1.656848 0
M  V30 20 S -3.729615 0.160427 2.820499 0
M  V30 21 N -3.240300 -0.828889 0.464367 0
M  V30 22 C -3.042284 -1.365170 -0.808596 0
M  V30 23 C -2.472231 -2.629689 -0.659491 0
M  V30 24 C -2.152144 -3.416553 -1.777159 0
M  V30 25 C -2.403838 -2.935014 -3.034179 0
M  V30 26 N -2.089441 -3.710675 -4.192221 0 CHG=1 VAL=4
M  V30 27 O -2.329593 -3.248052 -5.330351 0
M  V30 28 O -1.522990 -4.956714 -4.026897 0 CHG=-1 VAL=1
M  V30 29 C -2.964661 -1.688262 -3.139382 0
M  V30 30 C -3.291028 -0.890731 -2.070091 0
M  V30 31 C 0.799871 -2.367181 2.745949 0
M  V30 32 C 1.783275 -3.318425 2.922074 0
M  V30 33 H 4.029548 -4.861575 0.924842 0
M  V30 34 H 4.823988 -3.937030 2.192615 0
M  V30 35 H 3.679663 -5.275351 2.619341 0
M  V30 36 H 3.392913 -2.727444 0.018656 0
M  V30 37 H 1.681529 -1.073627 -0.289635 0
M  V30 38 H -1.713458 1.178320 -0.950724 0
M  V30 39 H -1.802976 1.606265 0.867376 0
M  V30 40 H 2.324958 1.469918 0.474204 0
M  V30 41 H 3.808004 1.654810 2.352619 0
M  V30 42 H 3.311897 3.132717 4.216395 0
M  V30 43 H 1.228955 4.454382 4.134030 0
M  V30 44 H -0.352640 4.278869 2.171218 0
M  V30 45 H -1.060678 0.078351 3.235382 0
M  V30 46 H -4.277517 -0.793998 0.386670 0
M  V30 47 H -2.201798 -3.173548 0.252443 0
M  V30 48 H -1.708181 -4.401894 -1.736327 0
M  V30 49 H -3.189769 -1.249131 -4.113968 0
M  V30 50 H -3.724451 0.078882 -2.057242 0
M  V30 51 H 0.043925 -2.241626 3.512429 0
M  V30 52 H 1.851736 -3.953632 3.783338 0
M  V30 END ATOM
M  V30 BEGIN BOND
M  V30 1 1 1 2
M  V30 2 2 2 3
M  V30 3 1 3 4
M  V30 4 2 4 5
M  V30 5 1 5 6
M  V30 6 2 6 7
M  V30 7 1 7 8
M  V30 8 1 8 9
M  V30 9 2 9 10
M  V30 10 2 9 11
M  V30 11 1 9 12
M  V30 12 2 12 13
M  V30 13 1 13 14
M  V30 14 2 14 15
M  V30 15 1 15 16
M  V30 16 2 16 17
M  V30 17 1 6 18
M  V30 18 1 18 19
M  V30 19 2 19 20
M  V30 20 1 19 21
M  V30 21 1 21 22
M  V30 22 2 22 23
M  V30 23 1 23 24
M  V30 24 2 24 25
M  V30 25 1 25 26
M  V30 26 2 26 27
M  V30 27 1 26 28
M  V30 28 1 25 29
M  V30 29 2 29 30
M  V30 30 1 5 31
M  V30 31 2 31 32
M  V30 32 1 32 2
M  V30 33 1 17 12
M  V30 34 1 30 22
M  V30 35 1 1 33
M  V30 36 1 1 34
M  V30 37 1 1 35
M  V30 38 1 3 36
M  V30 39 1 4 37
M  V30 40 1 8 38
M  V30 41 1 8 39
M  V30 42 1 13 40
M  V30 43 1 14 41
M  V30 44 1 15 42
M  V30 45 1 16 43
M  V30 46 1 17 44
M  V30 47 1 18 45
M  V30 48 1 21 46
M  V30 49 1 23 47
M  V30 50 1 24 48
M  V30 51 1 29 49
M  V30 52 1 30 50
M  V30 53 1 31 51
M  V30 54 1 32 52
M  V30 END BOND
M  V30 END CTAB
M  END
>  <Dataset>  (498) 
ChEMBL_Kinases

>  <Ligand_Instance>  (498) 
nan

>  <PDB_ID>  (498) 
nan

>  <Standardized_SMILES>  (498) 
Cc1ccc(/C(=N/CS(=O)(=O)c2ccccc2)NC(=S)Nc2ccc([N+](=O)[O-])cc2)cc1

>  <Name>  (498) 
nan

>  <Pocket>  (498) 
nan

>  <ATP_Site>  (498) 
nan

>  <Peripheral>  (498) 
nan

>  <Num_H_Atoms_ProtBoundConf>  (498) 
nan

>  <Num_Resolved_Atoms>  (498) 
nan

>  <Num_Not_Resolved_Atoms>  (498) 
nan

$$$$
CHEMBL4552946
     RDKit          3D

  0  0  0  0  0  0  0  0  0  0999 V3000
M  V30 BEGIN CTAB
M  V30 COUNTS 49 53 0 0 0
M  V30 BEGIN ATOM
M  V30 1 O 1.519643 -0.325132 3.774414 0
M  V30 2 N 2.172232 -0.705544 2.889198 0 CHG=1 VAL=4
M  V30 3 O 1.568489 -1.828887 2.088800 0 CHG=-1 VAL=1
M  V30 4 C 3.269107 -0.047545 2.185301 0
M  V30 5 C 4.313860 -0.486763 2.954425 0
M  V30 6 C 5.588413 -0.480494 2.392352 0
M  V30 7 C 5.725113 -0.014423 1.134216 0
M  V30 8 C 4.637017 0.495136 0.305774 0
M  V30 9 C 3.352350 0.439758 0.978610 0
M  V30 10 S 2.087580 0.887334 -0.028834 0
M  V30 11 O 1.220537 -0.437718 -0.093093 0
M  V30 12 O 2.542426 0.983600 -1.451269 0
M  V30 13 N 1.077315 2.137311 0.339823 0
M  V30 14 C 0.217220 2.043293 1.458864 0
M  V30 15 C -0.811959 0.965836 1.307019 0
M  V30 16 C -1.328252 1.047865 -0.100196 0
M  V30 17 C -0.841637 1.948088 -1.024110 0
M  V30 18 S -1.815722 2.031678 -2.411999 0
M  V30 19 C -2.982162 0.737651 -1.888379 0
M  V30 20 N -4.212117 0.216014 -2.574626 0
M  V30 21 C -4.727677 -0.791245 -1.625286 0
M  V30 22 N -4.382376 -1.450916 -0.310229 0
M  V30 23 C -3.213809 -0.578680 -0.106769 0
M  V30 24 N -2.947861 -1.392922 1.165898 0
M  V30 25 C -2.378789 -2.707919 1.032005 0
M  V30 26 C -3.317088 -3.678692 1.699951 0
M  V30 27 C -2.911184 -5.006575 1.570869 0
M  V30 28 C -1.783044 -5.500694 0.973017 0
M  V30 29 Cl -1.548928 -7.161532 0.564505 0
M  V30 30 C -0.970411 -4.521824 0.467551 0
M  V30 31 C -1.245830 -3.246719 0.487980 0
M  V30 32 C -2.416523 0.350068 -0.502103 0
M  V30 33 C 0.382465 2.653763 -0.805497 0
M  V30 34 H 4.274165 -0.764760 4.006281 0
M  V30 35 H 6.477259 -0.936858 2.858404 0
M  V30 36 H 6.719925 -0.141977 0.575554 0
M  V30 37 H 4.820621 1.088962 -0.578824 0
M  V30 38 H 0.746315 1.820972 2.393118 0
M  V30 39 H -0.286523 3.040938 1.583923 0
M  V30 40 H -1.604660 1.221465 2.047797 0
M  V30 41 H -0.443967 -0.025461 1.563203 0
M  V30 42 H -5.623823 -1.124309 -2.102726 0
M  V30 43 H -3.166328 -0.912987 1.997195 0
M  V30 44 H -4.215935 -3.304688 2.187356 0
M  V30 45 H -3.700458 -5.743720 1.922851 0
M  V30 46 H 0.042971 -4.791125 0.094673 0
M  V30 47 H -0.554076 -2.480415 0.118237 0
M  V30 48 H 1.090481 2.630638 -1.659410 0
M  V30 49 H 0.178535 3.742704 -0.610215 0
M  V30 END ATOM
M  V30 BEGIN BOND
M  V30 1 2 1 2
M  V30 2 1 2 3
M  V30 3 1 2 4
M  V30 4 2 4 5
M  V30 5 1 5 6
M  V30 6 2 6 7
M  V30 7 1 7 8
M  V30 8 2 8 9
M  V30 9 1 9 10
M  V30 10 2 10 11
M  V30 11 2 10 12
M  V30 12 1 10 13
M  V30 13 1 13 14
M  V30 14 1 14 15
M  V30 15 1 15 16
M  V30 16 2 16 17
M  V30 17 1 17 18
M  V30 18 1 18 19
M  V30 19 2 19 20
M  V30 20 1 20 21
M  V30 21 2 21 22
M  V30 22 1 22 23
M  V30 23 1 23 24
M  V30 24 1 24 25
M  V30 25 2 25 26
M  V30 26 1 26 27
M  V30 27 2 27 28
M  V30 28 1 28 29
M  V30 29 1 28 30
M  V30 30 2 30 31
M  V30 31 2 23 32
M  V30 32 1 17 33
M  V30 33 1 9 4
M  V30 34 1 33 13
M  V30 35 1 32 16
M  V30 36 1 32 19
M  V30 37 1 31 25
M  V30 38 1 5 34
M  V30 39 1 6 35
M  V30 40 1 7 36
M  V30 41 1 8 37
M  V30 42 1 14 38
M  V30 43 1 14 39
M  V30 44 1 15 40
M  V30 45 1 15 41
M  V30 46 1 21 42
M  V30 47 1 24 43
M  V30 48 1 26 44
M  V30 49 1 27 45
M  V30 50 1 30 46
M  V30 51 1 31 47
M  V30 52 1 33 48
M  V30 53 1 33 49
M  V30 END BOND
M  V30 END CTAB
M  END
>  <Dataset>  (499) 
ChEMBL_Kinases

>  <Ligand_Instance>  (499) 
nan

>  <PDB_ID>  (499) 
nan

>  <Standardized_SMILES>  (499) 
O=[N+]([O-])c1ccccc1S(=O)(=O)N1CCc2c(sc3ncnc(Nc4ccc(Cl)cc4)c23)C1

>  <Name>  (499) 
nan

>  <Pocket>  (499) 
nan

>  <ATP_Site>  (499) 
nan

>  <Peripheral>  (499) 
nan

>  <Num_H_Atoms_ProtBoundConf>  (499) 
nan

>  <Num_Resolved_Atoms>  (499) 
nan

>  <Num_Not_Resolved_Atoms>  (499) 
nan

$$$$
CHEMBL4552944
     RDKit          3D

  0  0  0  0  0  0  0  0  0  0999 V3000
M  V30 BEGIN CTAB
M  V30 COUNTS 35 38 0 0 0
M  V30 BEGIN ATOM
M  V30 1 C -2.942204 -1.930331 2.410470 0
M  V30 2 C -2.623967 -1.410452 1.013154 0
M  V30 3 N -1.293196 -1.178458 0.614096 0
M  V30 4 C -0.081493 -0.466964 0.686326 0
M  V30 5 N 0.979690 -0.809661 -0.064475 0
M  V30 6 C 2.154613 -0.179520 -0.047211 0
M  V30 7 C 3.217120 -0.666241 -0.919441 0
M  V30 8 C 3.024112 -1.749512 -1.745557 0
M  V30 9 C 4.052710 -2.205301 -2.576966 0
M  V30 10 N 5.220024 -1.526434 -2.515412 0
M  V30 11 C 5.361083 -0.472979 -1.691701 0
M  V30 12 N 4.370421 -0.017198 -0.876839 0
M  V30 13 N 2.295254 0.868974 0.772619 0
M  V30 14 C 1.337208 1.333904 1.580831 0
M  V30 15 C 1.498601 2.409323 2.409982 0
M  V30 16 N 0.470847 2.824077 3.201581 0
M  V30 17 C -0.704771 2.160331 3.155475 0
M  V30 18 C -0.844308 1.084298 2.316475 0
M  V30 19 C 0.158399 0.622545 1.496909 0
M  V30 20 C -3.684490 -1.789610 0.004685 0
M  V30 21 C -3.657901 -0.396576 0.443001 0
M  V30 22 H -2.209416 -1.605279 3.165397 0
M  V30 23 H -2.988216 -3.037390 2.364434 0
M  V30 24 H -3.958085 -1.591275 2.702695 0
M  V30 25 H -1.222180 -1.982852 -0.081385 0
M  V30 26 H 2.038681 -2.226829 -1.717058 0
M  V30 27 H 3.790901 -3.058003 -3.179357 0
M  V30 28 H 6.345388 -0.037492 -1.754858 0
M  V30 29 H 2.445814 2.935696 2.439998 0
M  V30 30 H -1.460384 2.560563 3.816953 0
M  V30 31 H -1.792624 0.619588 2.333067 0
M  V30 32 H -3.311663 -1.951755 -1.050796 0
M  V30 33 H -4.522209 -2.419586 0.310818 0
M  V30 34 H -4.339726 0.006172 1.216333 0
M  V30 35 H -3.229873 0.412771 -0.204952 0
M  V30 END ATOM
M  V30 BEGIN BOND
M  V30 1 1 1 2
M  V30 2 1 2 3
M  V30 3 1 3 4
M  V30 4 2 4 5
M  V30 5 1 5 6
M  V30 6 1 6 7
M  V30 7 2 7 8
M  V30 8 1 8 9
M  V30 9 2 9 10
M  V30 10 1 10 11
M  V30 11 2 11 12
M  V30 12 2 6 13
M  V30 13 1 13 14
M  V30 14 2 14 15
M  V30 15 1 15 16
M  V30 16 2 16 17
M  V30 17 1 17 18
M  V30 18 2 18 19
M  V30 19 1 2 20
M  V30 20 1 20 21
M  V30 21 1 21 2
M  V30 22 1 19 4
M  V30 23 1 12 7
M  V30 24 1 19 14
M  V30 25 1 1 22
M  V30 26 1 1 23
M  V30 27 1 1 24
M  V30 28 1 3 25
M  V30 29 1 8 26
M  V30 30 1 9 27
M  V30 31 1 11 28
M  V30 32 1 15 29
M  V30 33 1 17 30
M  V30 34 1 18 31
M  V30 35 1 20 32
M  V30 36 1 20 33
M  V30 37 1 21 34
M  V30 38 1 21 35
M  V30 END BOND
M  V30 END CTAB
M  END
>  <Dataset>  (500) 
ChEMBL_Kinases

>  <Ligand_Instance>  (500) 
nan

>  <PDB_ID>  (500) 
nan

>  <Standardized_SMILES>  (500) 
CC1(Nc2nc(-c3ccncn3)nc3cnccc23)CC1

>  <Name>  (500) 
nan

>  <Pocket>  (500) 
nan

>  <ATP_Site>  (500) 
nan

>  <Peripheral>  (500) 
nan

>  <Num_H_Atoms_ProtBoundConf>  (500) 
nan

>  <Num_Resolved_Atoms>  (500) 
nan

>  <Num_Not_Resolved_Atoms>  (500) 
nan

$$$$
CHEMBL4552922
     RDKit          3D

  0  0  0  0  0  0  0  0  0  0999 V3000
M  V30 BEGIN CTAB
M  V30 COUNTS 43 46 0 0 0
M  V30 BEGIN ATOM
M  V30 1 C -0.567280 -4.546990 2.539521 0
M  V30 2 C -1.042624 -4.497219 1.100483 0 CFG=1
M  V30 3 O -2.395988 -4.831154 1.097439 0
M  V30 4 C -0.873133 -3.139310 0.540501 0
M  V30 5 C -0.721789 -2.014426 0.095808 0
M  V30 6 C -0.519359 -0.691571 -0.428437 0
M  V30 7 C -0.731688 -0.382274 -1.757555 0
M  V30 8 C -0.509341 0.927626 -2.174912 0
M  V30 9 C -0.086013 1.912102 -1.298030 0
M  V30 10 C 0.118444 1.574787 0.025515 0
M  V30 11 C -0.096153 0.281125 0.460911 0
M  V30 12 N 0.551342 2.698717 0.792352 0
M  V30 13 C 1.176282 2.790959 2.069734 0
M  V30 14 N 2.377823 2.232949 2.374784 0
M  V30 15 C 2.918236 2.355327 3.604006 0
M  V30 16 N 4.179294 1.741981 3.843151 0
M  V30 17 N 2.323858 3.026710 4.609450 0
M  V30 18 C 1.127838 3.597803 4.351557 0
M  V30 19 C 0.543556 3.492671 3.102061 0
M  V30 20 Cl -1.025226 4.253542 2.798275 0
M  V30 21 C 0.214012 3.867564 -0.032802 0
M  V30 22 C 0.229162 3.374597 -1.452890 0
M  V30 23 C -0.281690 -5.383515 0.199423 0
M  V30 24 N 0.719152 -5.327484 -0.516004 0
M  V30 25 C 1.113368 -6.398581 -1.217662 0
M  V30 26 C 0.437290 -7.644579 -1.198412 0
M  V30 27 S -0.949399 -7.158966 0.009157 0
M  V30 28 H 0.557121 -4.535451 2.565732 0
M  V30 29 H -0.944733 -5.443014 3.029143 0
M  V30 30 H -0.903063 -3.598487 3.003156 0
M  V30 31 H -2.899187 -3.977279 1.130317 0
M  V30 32 H -1.058094 -1.147960 -2.426339 0
M  V30 33 H -0.667799 1.201497 -3.214464 0
M  V30 34 H 0.065697 0.018539 1.503715 0
M  V30 35 H 4.740113 1.979504 4.692559 0
M  V30 36 H 4.583124 1.040135 3.183752 0
M  V30 37 H 0.567858 4.162891 5.101542 0
M  V30 38 H 0.943863 4.682631 0.081475 0
M  V30 39 H -0.789224 4.267733 0.246552 0
M  V30 40 H 1.216008 3.524510 -1.909457 0
M  V30 41 H -0.546558 3.901573 -2.039688 0
M  V30 42 H 2.024479 -6.142510 -1.790193 0
M  V30 43 H 0.855387 -8.426087 -1.806435 0
M  V30 END ATOM
M  V30 BEGIN BOND
M  V30 1 1 1 2
M  V30 2 1 2 3
M  V30 3 1 2 4 CFG=3
M  V30 4 3 4 5
M  V30 5 1 5 6
M  V30 6 2 6 7
M  V30 7 1 7 8
M  V30 8 2 8 9
M  V30 9 1 9 10
M  V30 10 2 10 11
M  V30 11 1 10 12
M  V30 12 1 12 13
M  V30 13 2 13 14
M  V30 14 1 14 15
M  V30 15 1 15 16
M  V30 16 2 15 17
M  V30 17 1 17 18
M  V30 18 2 18 19
M  V30 19 1 19 20
M  V30 20 1 12 21
M  V30 21 1 21 22
M  V30 22 1 2 23
M  V30 23 2 23 24
M  V30 24 1 24 25
M  V30 25 2 25 26
M  V30 26 1 26 27
M  V30 27 1 11 6
M  V30 28 1 19 13
M  V30 29 1 27 23
M  V30 30 1 22 9
M  V30 31 1 1 28
M  V30 32 1 1 29
M  V30 33 1 1 30
M  V30 34 1 3 31
M  V30 35 1 7 32
M  V30 36 1 8 33
M  V30 37 1 11 34
M  V30 38 1 16 35
M  V30 39 1 16 36
M  V30 40 1 18 37
M  V30 41 1 21 38
M  V30 42 1 21 39
M  V30 43 1 22 40
M  V30 44 1 22 41
M  V30 45 1 25 42
M  V30 46 1 26 43
M  V30 END BOND
M  V30 END CTAB
M  END
>  <Dataset>  (501) 
ChEMBL_Kinases

>  <Ligand_Instance>  (501) 
nan

>  <PDB_ID>  (501) 
nan

>  <Standardized_SMILES>  (501) 
C[C@@](O)(C#Cc1ccc2c(c1)N(c1nc(N)ncc1Cl)CC2)c1nccs1

>  <Name>  (501) 
nan

>  <Pocket>  (501) 
nan

>  <ATP_Site>  (501) 
nan

>  <Peripheral>  (501) 
nan

>  <Num_H_Atoms_ProtBoundConf>  (501) 
nan

>  <Num_Resolved_Atoms>  (501) 
nan

>  <Num_Not_Resolved_Atoms>  (501) 
nan

$$$$
CHEMBL4552830
     RDKit          3D

  0  0  0  0  0  0  0  0  0  0999 V3000
M  V30 BEGIN CTAB
M  V30 COUNTS 50 54 0 0 0
M  V30 BEGIN ATOM
M  V30 1 C 3.455843 -5.981632 -2.673449 0
M  V30 2 C 3.393792 -4.711873 -1.891610 0
M  V30 3 C 4.467256 -4.212932 -1.230446 0
M  V30 4 C 4.354154 -3.025083 -0.513463 0
M  V30 5 C 3.169963 -2.303673 -0.437046 0
M  V30 6 N 2.996712 -1.088985 0.282268 0
M  V30 7 C 2.625054 0.099095 -0.453638 0
M  V30 8 N 3.358948 0.195625 -1.548090 0
M  V30 9 C 3.186052 1.202274 -2.411938 0
M  V30 10 N 2.235767 2.099006 -2.104267 0
M  V30 11 C 1.516134 1.942993 -0.964371 0
M  V30 12 S 0.120728 3.002624 -0.294473 0
M  V30 13 C -0.092521 1.968919 1.101317 0
M  V30 14 C 0.786362 0.961440 1.050942 0
M  V30 15 C 1.627709 0.932762 -0.015267 0
M  V30 16 C 0.811668 -0.070182 2.153034 0
M  V30 17 C -0.087748 0.461062 3.257644 0
M  V30 18 N -1.333027 0.790011 2.644441 0
M  V30 19 C -2.455268 0.572559 3.477886 0
M  V30 20 C -3.742146 0.818220 2.757667 0
M  V30 21 C -4.460098 2.002057 2.631353 0
M  V30 22 C -5.623968 2.065548 1.924661 0
M  V30 23 C -6.170719 0.973960 1.287247 0
M  V30 24 C -5.514861 -0.244481 1.364271 0
M  V30 25 C -4.327710 -0.270105 2.097013 0
M  V30 26 C -1.165055 2.178395 2.202517 0
M  V30 27 C 2.105610 -2.879053 -1.144259 0
M  V30 28 Br 0.391267 -2.005571 -1.136697 0
M  V30 29 C 2.192599 -4.060263 -1.865411 0
M  V30 30 H 2.454081 -6.445526 -2.779935 0
M  V30 31 H 3.778319 -5.692670 -3.717054 0
M  V30 32 H 4.131217 -6.716251 -2.207896 0
M  V30 33 H 5.427658 -4.730338 -1.248881 0
M  V30 34 H 5.177884 -2.569064 0.041030 0
M  V30 35 H 3.210633 -1.437060 1.256079 0
M  V30 36 H 3.666332 1.438946 -3.320554 0
M  V30 37 H 1.806781 -0.161498 2.626636 0
M  V30 38 H 0.361893 -1.025738 1.841483 0
M  V30 39 H 0.412596 1.364270 3.677172 0
M  V30 40 H -0.169303 -0.242072 4.086512 0
M  V30 41 H -2.371179 1.201481 4.409933 0
M  V30 42 H -2.442295 -0.471315 3.839469 0
M  V30 43 H -3.989936 2.829602 3.148232 0
M  V30 44 H -6.108423 3.026558 1.882974 0
M  V30 45 H -7.099347 1.008804 0.721726 0
M  V30 46 H -5.875311 -1.146542 0.898430 0
M  V30 47 H -3.821896 -1.241689 2.150385 0
M  V30 48 H -2.071755 2.580574 1.718209 0
M  V30 49 H -0.730204 2.828107 2.985850 0
M  V30 50 H 1.331279 -4.452733 -2.388371 0
M  V30 END ATOM
M  V30 BEGIN BOND
M  V30 1 1 1 2
M  V30 2 2 2 3
M  V30 3 1 3 4
M  V30 4 2 4 5
M  V30 5 1 5 6
M  V30 6 1 6 7
M  V30 7 2 7 8
M  V30 8 1 8 9
M  V30 9 2 9 10
M  V30 10 1 10 11
M  V30 11 1 11 12
M  V30 12 1 12 13
M  V30 13 2 13 14
M  V30 14 1 14 15
M  V30 15 1 14 16
M  V30 16 1 16 17
M  V30 17 1 17 18
M  V30 18 1 18 19
M  V30 19 1 19 20
M  V30 20 2 20 21
M  V30 21 1 21 22
M  V30 22 2 22 23
M  V30 23 1 23 24
M  V30 24 2 24 25
M  V30 25 1 18 26
M  V30 26 1 5 27
M  V30 27 1 27 28
M  V30 28 2 27 29
M  V30 29 1 29 2
M  V30 30 1 15 7
M  V30 31 1 25 20
M  V30 32 2 15 11
M  V30 33 1 26 13
M  V30 34 1 1 30
M  V30 35 1 1 31
M  V30 36 1 1 32
M  V30 37 1 3 33
M  V30 38 1 4 34
M  V30 39 1 6 35
M  V30 40 1 9 36
M  V30 41 1 16 37
M  V30 42 1 16 38
M  V30 43 1 17 39
M  V30 44 1 17 40
M  V30 45 1 19 41
M  V30 46 1 19 42
M  V30 47 1 21 43
M  V30 48 1 22 44
M  V30 49 1 23 45
M  V30 50 1 24 46
M  V30 51 1 25 47
M  V30 52 1 26 48
M  V30 53 1 26 49
M  V30 54 1 29 50
M  V30 END BOND
M  V30 END CTAB
M  END
>  <Dataset>  (502) 
ChEMBL_Kinases

>  <Ligand_Instance>  (502) 
nan

>  <PDB_ID>  (502) 
nan

>  <Standardized_SMILES>  (502) 
Cc1ccc(Nc2ncnc3sc4c(c23)CCN(Cc2ccccc2)C4)c(Br)c1

>  <Name>  (502) 
nan

>  <Pocket>  (502) 
nan

>  <ATP_Site>  (502) 
nan

>  <Peripheral>  (502) 
nan

>  <Num_H_Atoms_ProtBoundConf>  (502) 
nan

>  <Num_Resolved_Atoms>  (502) 
nan

>  <Num_Not_Resolved_Atoms>  (502) 
nan

$$$$
CHEMBL4552799
     RDKit          3D

  0  0  0  0  0  0  0  0  0  0999 V3000
M  V30 BEGIN CTAB
M  V30 COUNTS 46 49 0 0 0
M  V30 BEGIN ATOM
M  V30 1 C -2.078383 -3.283252 2.731576 0
M  V30 2 C -1.533845 -2.108605 1.919980 0
M  V30 3 S 0.028436 -1.215961 2.189959 0
M  V30 4 C -0.195149 -0.098267 0.841144 0
M  V30 5 C 0.732099 0.954803 0.450915 0
M  V30 6 O 0.551171 1.729896 -0.504487 0
M  V30 7 N 1.916354 1.116964 1.196786 0
M  V30 8 C 2.858683 2.158662 0.830180 0 CFG=2
M  V30 9 C 4.169882 1.490967 0.406822 0 CFG=2
M  V30 10 N 3.833332 0.695141 -0.753884 0
M  V30 11 C 4.770946 0.663259 1.504619 0
M  V30 12 C 4.731307 1.350420 2.831409 0
M  V30 13 C 4.504266 2.824276 2.611591 0
M  V30 14 C 3.179347 3.108908 1.937110 0
M  V30 15 F 2.197018 3.003088 2.919987 0
M  V30 16 F 3.176362 4.407429 1.482684 0
M  V30 17 C -1.361412 -0.456237 0.315190 0
M  V30 18 C -2.103089 -1.478026 0.816130 0
M  V30 19 C -3.391217 -1.967050 0.333753 0
M  V30 20 C -4.597444 -1.448657 0.817881 0
M  V30 21 N -5.601993 -2.100853 0.182095 0
M  V30 22 N -5.094344 -2.980363 -0.655573 0
M  V30 23 C -5.724123 -3.835191 -1.481627 0
M  V30 24 C -4.952476 -4.668572 -2.272287 0
M  V30 25 C -3.562943 -4.573021 -2.165988 0
M  V30 26 N -2.959431 -3.692648 -1.315726 0
M  V30 27 C -3.740809 -2.914365 -0.577982 0
M  V30 28 H -1.260270 -3.680145 3.368967 0
M  V30 29 H -2.901232 -2.955480 3.388413 0
M  V30 30 H -2.397025 -4.082649 2.020313 0
M  V30 31 H 2.171517 0.524755 2.017258 0
M  V30 32 H 2.511344 2.738769 -0.048978 0
M  V30 33 H 4.912053 2.282585 0.174508 0
M  V30 34 H 4.690493 0.352566 -1.242884 0
M  V30 35 H 3.245594 1.258564 -1.401851 0
M  V30 36 H 4.328469 -0.353060 1.591890 0
M  V30 37 H 5.836933 0.480460 1.198836 0
M  V30 38 H 3.973700 0.970812 3.538020 0
M  V30 39 H 5.725704 1.267311 3.332111 0
M  V30 40 H 5.357860 3.284246 2.068120 0
M  V30 41 H 4.489777 3.285835 3.619231 0
M  V30 42 H -1.734431 0.103536 -0.562334 0
M  V30 43 H -4.717957 -0.670231 1.562759 0
M  V30 44 H -6.804370 -3.910701 -1.565442 0
M  V30 45 H -5.341511 -5.397623 -2.975228 0
M  V30 46 H -2.950897 -5.228765 -2.788065 0
M  V30 END ATOM
M  V30 BEGIN BOND
M  V30 1 1 1 2
M  V30 2 1 2 3
M  V30 3 1 3 4
M  V30 4 1 4 5
M  V30 5 2 5 6
M  V30 6 1 5 7
M  V30 7 1 7 8
M  V30 8 1 8 9
M  V30 9 1 9 10
M  V30 10 1 9 11
M  V30 11 1 11 12
M  V30 12 1 12 13
M  V30 13 1 13 14
M  V30 14 1 14 15
M  V30 15 1 14 16
M  V30 16 2 4 17
M  V30 17 1 17 18
M  V30 18 1 18 19
M  V30 19 1 19 20
M  V30 20 2 20 21
M  V30 21 1 21 22
M  V30 22 1 22 23
M  V30 23 2 23 24
M  V30 24 1 24 25
M  V30 25 2 25 26
M  V30 26 1 26 27
M  V30 27 2 18 2
M  V30 28 2 27 19
M  V30 29 1 14 8
M  V30 30 1 27 22
M  V30 31 1 1 28
M  V30 32 1 1 29
M  V30 33 1 1 30
M  V30 34 1 7 31
M  V30 35 1 8 32 CFG=3
M  V30 36 1 9 33 CFG=3
M  V30 37 1 10 34
M  V30 38 1 10 35
M  V30 39 1 11 36
M  V30 40 1 11 37
M  V30 41 1 12 38
M  V30 42 1 12 39
M  V30 43 1 13 40
M  V30 44 1 13 41
M  V30 45 1 17 42
M  V30 46 1 20 43
M  V30 47 1 23 44
M  V30 48 1 24 45
M  V30 49 1 25 46
M  V30 END BOND
M  V30 END CTAB
M  END
>  <Dataset>  (503) 
ChEMBL_Kinases

>  <Ligand_Instance>  (503) 
nan

>  <PDB_ID>  (503) 
nan

>  <Standardized_SMILES>  (503) 
Cc1sc(C(=O)N[C@@H]2[C@H](N)CCCC2(F)F)cc1-c1cnn2cccnc12

>  <Name>  (503) 
nan

>  <Pocket>  (503) 
nan

>  <ATP_Site>  (503) 
nan

>  <Peripheral>  (503) 
nan

>  <Num_H_Atoms_ProtBoundConf>  (503) 
nan

>  <Num_Resolved_Atoms>  (503) 
nan

>  <Num_Not_Resolved_Atoms>  (503) 
nan

$$$$
CHEMBL4552688
     RDKit          3D

  0  0  0  0  0  0  0  0  0  0999 V3000
M  V30 BEGIN CTAB
M  V30 COUNTS 49 52 0 0 0
M  V30 BEGIN ATOM
M  V30 1 C -0.828433 -4.581984 0.254702 0
M  V30 2 O -0.735506 -3.221813 0.596528 0
M  V30 3 C 0.172903 -2.435361 -0.142721 0
M  V30 4 C 0.911252 -3.072878 -1.158667 0
M  V30 5 C 1.836177 -2.455854 -1.970718 0
M  V30 6 C 2.585455 -3.166790 -3.022782 0
M  V30 7 C 2.033158 -1.120177 -1.751604 0
M  V30 8 N 2.924497 -0.498611 -2.525520 0
M  V30 9 C 3.179953 0.810040 -2.379075 0
M  V30 10 O 4.007575 1.398915 -3.094054 0
M  V30 11 C 2.468176 1.474732 -1.382650 0
M  V30 12 C 2.749955 2.808675 -1.253212 0
M  V30 13 C 2.060164 3.487902 -0.272351 0
M  V30 14 C 1.109792 2.909312 0.580941 0
M  V30 15 C 0.928725 1.570110 0.339085 0
M  V30 16 C 1.568260 0.848977 -0.600710 0
M  V30 17 C 1.333447 -0.471377 -0.774135 0
M  V30 18 C 0.418139 -1.052716 0.038567 0
M  V30 19 C -0.456103 -0.672830 1.112626 0
M  V30 20 C -1.795415 -0.220267 0.971342 0
M  V30 21 C -2.580746 0.033632 2.076867 0
M  V30 22 C -2.031699 -0.163402 3.327406 0
M  V30 23 C -2.829679 0.093885 4.554229 0 CFG=1
M  V30 24 C -4.309507 0.170779 4.248664 0
M  V30 25 N -2.593994 -1.039640 5.450831 0
M  V30 26 C -0.729876 -0.603741 3.509464 0
M  V30 27 C 0.078230 -0.865386 2.412002 0
M  V30 28 H 0.165961 -5.100884 0.363408 0
M  V30 29 H -1.560477 -5.049805 0.972337 0
M  V30 30 H -1.199575 -4.701487 -0.771202 0
M  V30 31 H 0.783157 -4.141025 -1.365889 0
M  V30 32 H 2.216888 -4.191245 -3.192716 0
M  V30 33 H 3.678880 -3.217628 -2.826114 0
M  V30 34 H 2.497163 -2.660437 -4.019543 0
M  V30 35 H 3.441016 -1.019633 -3.260923 0
M  V30 36 H 3.468078 3.294596 -1.881933 0
M  V30 37 H 2.316545 4.556592 -0.202385 0
M  V30 38 H 0.695488 3.626514 1.271920 0
M  V30 39 H 0.212801 1.330173 1.050814 0
M  V30 40 H -2.134096 -0.096300 -0.047060 0
M  V30 41 H -3.598576 0.377804 1.946539 0
M  V30 42 H -2.465887 1.002333 5.052983 0
M  V30 43 H -4.927514 -0.024030 5.146576 0
M  V30 44 H -4.583077 1.131920 3.785161 0
M  V30 45 H -4.507681 -0.631346 3.486768 0
M  V30 46 H -2.899365 -0.808582 6.424216 0
M  V30 47 H -3.248651 -1.791117 5.111402 0
M  V30 48 H -0.323854 -0.750144 4.503911 0
M  V30 49 H 1.090777 -1.207848 2.552276 0
M  V30 END ATOM
M  V30 BEGIN BOND
M  V30 1 1 1 2
M  V30 2 1 2 3
M  V30 3 2 3 4
M  V30 4 1 4 5
M  V30 5 1 5 6
M  V30 6 2 5 7
M  V30 7 1 7 8
M  V30 8 1 8 9
M  V30 9 2 9 10
M  V30 10 1 9 11
M  V30 11 2 11 12
M  V30 12 1 12 13
M  V30 13 2 13 14
M  V30 14 1 14 15
M  V30 15 2 15 16
M  V30 16 1 16 17
M  V30 17 2 17 18
M  V30 18 1 18 19
M  V30 19 2 19 20
M  V30 20 1 20 21
M  V30 21 2 21 22
M  V30 22 1 22 23
M  V30 23 1 23 24
M  V30 24 1 23 25
M  V30 25 1 22 26
M  V30 26 2 26 27
M  V30 27 1 18 3
M  V30 28 1 27 19
M  V30 29 1 17 7
M  V30 30 1 16 11
M  V30 31 1 1 28
M  V30 32 1 1 29
M  V30 33 1 1 30
M  V30 34 1 4 31
M  V30 35 1 6 32
M  V30 36 1 6 33
M  V30 37 1 6 34
M  V30 38 1 8 35
M  V30 39 1 12 36
M  V30 40 1 13 37
M  V30 41 1 14 38
M  V30 42 1 15 39
M  V30 43 1 20 40
M  V30 44 1 21 41
M  V30 45 1 23 42 CFG=1
M  V30 46 1 24 43
M  V30 47 1 24 44
M  V30 48 1 24 45
M  V30 49 1 25 46
M  V30 50 1 25 47
M  V30 51 1 26 48
M  V30 52 1 27 49
M  V30 END BOND
M  V30 END CTAB
M  END
>  <Dataset>  (504) 
ChEMBL_Kinases

>  <Ligand_Instance>  (504) 
nan

>  <PDB_ID>  (504) 
nan

>  <Standardized_SMILES>  (504) 
COc1cc(C)c2[nH]c(=O)c3ccccc3c2c1-c1ccc([C@@H](C)N)cc1

>  <Name>  (504) 
nan

>  <Pocket>  (504) 
nan

>  <ATP_Site>  (504) 
nan

>  <Peripheral>  (504) 
nan

>  <Num_H_Atoms_ProtBoundConf>  (504) 
nan

>  <Num_Resolved_Atoms>  (504) 
nan

>  <Num_Not_Resolved_Atoms>  (504) 
nan

$$$$
CHEMBL4552669
     RDKit          3D

  0  0  0  0  0  0  0  0  0  0999 V3000
M  V30 BEGIN CTAB
M  V30 COUNTS 36 39 0 0 0
M  V30 BEGIN ATOM
M  V30 1 O 2.945724 -6.470049 1.887701 0
M  V30 2 C 2.106101 -5.530278 1.686829 0
M  V30 3 O 0.819269 -5.979923 1.870226 0
M  V30 4 C 2.416118 -4.151684 1.312464 0
M  V30 5 C 1.412228 -3.227107 1.124024 0
M  V30 6 C 1.768000 -1.962225 0.776857 0
M  V30 7 C 3.044478 -1.504410 0.591884 0
M  V30 8 N 3.447714 -0.203011 0.232770 0
M  V30 9 C 2.445371 0.814880 0.019911 0
M  V30 10 N 1.294348 0.970196 0.038933 0
M  V30 11 C 0.551196 2.011774 -0.193445 0
M  V30 12 C -0.924300 2.087240 -0.136929 0
M  V30 13 C -1.549601 3.284338 -0.415812 0
M  V30 14 C -2.921349 3.366253 -0.366306 0
M  V30 15 C -3.591929 2.206132 -0.030154 0
M  V30 16 S -5.394203 1.864774 0.151607 0
M  V30 17 C -5.146553 0.041045 0.612863 0
M  V30 18 C -3.792482 -0.073036 0.572619 0
M  V30 19 C -2.999506 0.987019 0.256145 0
M  V30 20 C -1.629519 0.953763 0.194083 0
M  V30 21 C 1.320231 3.144058 -0.527423 0
M  V30 22 S 3.088610 2.491314 -0.449009 0
M  V30 23 C 4.000965 -2.492817 0.799365 0
M  V30 24 C 3.730338 -3.783648 1.148877 0
M  V30 25 H 0.597579 -6.587099 2.660224 0
M  V30 26 H 0.386799 -3.525937 1.254699 0
M  V30 27 H 0.951784 -1.269291 0.638924 0
M  V30 28 H 4.463587 -0.019084 0.132523 0
M  V30 29 H -1.053317 4.187231 -0.676107 0
M  V30 30 H -3.501631 4.229928 -0.560852 0
M  V30 31 H -6.011914 -0.467418 0.789703 0
M  V30 32 H -3.518113 -1.082297 0.820795 0
M  V30 33 H -1.035659 0.051470 0.397960 0
M  V30 34 H 0.941596 4.294639 -0.806942 0
M  V30 35 H 5.054951 -2.265153 0.685714 0
M  V30 36 H 4.496757 -4.518459 1.300263 0
M  V30 END ATOM
M  V30 BEGIN BOND
M  V30 1 2 1 2
M  V30 2 1 2 3
M  V30 3 1 2 4
M  V30 4 2 4 5
M  V30 5 1 5 6
M  V30 6 2 6 7
M  V30 7 1 7 8
M  V30 8 1 8 9
M  V30 9 2 9 10
M  V30 10 1 10 11
M  V30 11 1 11 12
M  V30 12 2 12 13
M  V30 13 1 13 14
M  V30 14 2 14 15
M  V30 15 1 15 16
M  V30 16 1 16 17
M  V30 17 2 17 18
M  V30 18 1 18 19
M  V30 19 2 19 20
M  V30 20 2 11 21
M  V30 21 1 21 22
M  V30 22 1 7 23
M  V30 23 2 23 24
M  V30 24 1 24 4
M  V30 25 1 22 9
M  V30 26 1 20 12
M  V30 27 1 19 15
M  V30 28 1 3 25
M  V30 29 1 5 26
M  V30 30 1 6 27
M  V30 31 1 8 28
M  V30 32 1 13 29
M  V30 33 1 14 30
M  V30 34 1 17 31
M  V30 35 1 18 32
M  V30 36 1 20 33
M  V30 37 1 21 34
M  V30 38 1 23 35
M  V30 39 1 24 36
M  V30 END BOND
M  V30 END CTAB
M  END
>  <Dataset>  (505) 
ChEMBL_Kinases

>  <Ligand_Instance>  (505) 
nan

>  <PDB_ID>  (505) 
nan

>  <Standardized_SMILES>  (505) 
O=C(O)c1ccc(Nc2nc(-c3ccc4sccc4c3)cs2)cc1

>  <Name>  (505) 
nan

>  <Pocket>  (505) 
nan

>  <ATP_Site>  (505) 
nan

>  <Peripheral>  (505) 
nan

>  <Num_H_Atoms_ProtBoundConf>  (505) 
nan

>  <Num_Resolved_Atoms>  (505) 
nan

>  <Num_Not_Resolved_Atoms>  (505) 
nan

$$$$
CHEMBL4552655
     RDKit          3D

  0  0  0  0  0  0  0  0  0  0999 V3000
M  V30 BEGIN CTAB
M  V30 COUNTS 48 51 0 0 0
M  V30 BEGIN ATOM
M  V30 1 C 2.167541 -1.850496 3.801656 0
M  V30 2 N 3.549404 -1.947130 3.371223 0
M  V30 3 N 4.403300 -2.603505 4.172828 0
M  V30 4 C 5.634423 -2.611928 3.656020 0
M  V30 5 C 5.456524 -1.913260 2.486226 0
M  V30 6 Cl 6.883189 -1.714804 1.517982 0
M  V30 7 C 4.171888 -1.486297 2.279932 0
M  V30 8 C 3.581607 -0.737353 1.204980 0
M  V30 9 C 2.263456 -0.367292 1.114513 0
M  V30 10 C 1.975202 0.346715 -0.029029 0
M  V30 11 C 0.764749 0.948288 -0.575771 0
M  V30 12 O 0.732591 1.554361 -1.676934 0
M  V30 13 N -0.445088 0.830818 0.202220 0
M  V30 14 C -1.731957 1.364705 -0.185737 0 CFG=2
M  V30 15 C -2.134704 2.472778 0.800245 0
M  V30 16 N -1.893700 2.003359 2.109863 0
M  V30 17 C -2.418845 0.736723 2.461608 0
M  V30 18 C -2.656931 -0.230611 1.378563 0
M  V30 19 C -2.795194 0.310175 -0.003702 0 CFG=2
M  V30 20 C -2.744826 -0.772444 -1.004140 0
M  V30 21 C -1.660643 -1.615438 -1.192935 0
M  V30 22 C -1.643331 -2.624111 -2.145950 0
M  V30 23 C -2.768701 -2.771381 -2.925078 0
M  V30 24 F -2.737909 -3.762496 -3.852588 0
M  V30 25 C -3.887580 -2.000810 -2.824963 0
M  V30 26 F -4.984194 -2.153316 -3.592866 0
M  V30 27 C -3.832727 -1.013932 -1.851992 0
M  V30 28 O 3.142973 0.424567 -0.668915 0
M  V30 29 C 4.052089 -0.194877 0.040208 0
M  V30 30 Cl 5.675005 -0.245604 -0.566641 0
M  V30 31 H 1.507719 -2.365222 3.080646 0
M  V30 32 H 2.030352 -2.321884 4.807595 0
M  V30 33 H 1.826246 -0.805501 3.957076 0
M  V30 34 H 6.447116 -3.088283 4.155284 0
M  V30 35 H 1.396365 -0.498855 1.718260 0
M  V30 36 H -0.401085 0.325113 1.112657 0
M  V30 37 H -1.711987 1.831348 -1.187020 0
M  V30 38 H -1.526651 3.387014 0.632245 0
M  V30 39 H -3.209800 2.665091 0.602066 0
M  V30 40 H -1.006268 2.295252 2.557332 0
M  V30 41 H -1.755897 0.281892 3.228189 0
M  V30 42 H -3.380471 0.923596 3.021279 0
M  V30 43 H -3.611419 -0.801141 1.590795 0
M  V30 44 H -1.885112 -1.050869 1.360814 0
M  V30 45 H -3.813224 0.801343 -0.066984 0
M  V30 46 H -0.789851 -1.487344 -0.574920 0
M  V30 47 H -0.784416 -3.273822 -2.278898 0
M  V30 48 H -4.705203 -0.360337 -1.722518 0
M  V30 END ATOM
M  V30 BEGIN BOND
M  V30 1 1 1 2
M  V30 2 1 2 3
M  V30 3 2 3 4
M  V30 4 1 4 5
M  V30 5 1 5 6
M  V30 6 2 5 7
M  V30 7 1 7 8
M  V30 8 1 8 9
M  V30 9 2 9 10
M  V30 10 1 10 11
M  V30 11 2 11 12
M  V30 12 1 11 13
M  V30 13 1 13 14
M  V30 14 1 14 15
M  V30 15 1 15 16
M  V30 16 1 16 17
M  V30 17 1 17 18
M  V30 18 1 18 19
M  V30 19 1 19 20
M  V30 20 2 20 21
M  V30 21 1 21 22
M  V30 22 2 22 23
M  V30 23 1 23 24
M  V30 24 1 23 25
M  V30 25 1 25 26
M  V30 26 2 25 27
M  V30 27 1 10 28
M  V30 28 1 28 29
M  V30 29 1 29 30
M  V30 30 1 7 2
M  V30 31 2 29 8
M  V30 32 1 19 14
M  V30 33 1 27 20
M  V30 34 1 1 31
M  V30 35 1 1 32
M  V30 36 1 1 33
M  V30 37 1 4 34
M  V30 38 1 9 35
M  V30 39 1 13 36
M  V30 40 1 14 37 CFG=3
M  V30 41 1 15 38
M  V30 42 1 15 39
M  V30 43 1 16 40
M  V30 44 1 17 41
M  V30 45 1 17 42
M  V30 46 1 18 43
M  V30 47 1 18 44
M  V30 48 1 19 45 CFG=1
M  V30 49 1 21 46
M  V30 50 1 22 47
M  V30 51 1 27 48
M  V30 END BOND
M  V30 END CTAB
M  END
>  <Dataset>  (506) 
ChEMBL_Kinases

>  <Ligand_Instance>  (506) 
nan

>  <PDB_ID>  (506) 
nan

>  <Standardized_SMILES>  (506) 
Cn1ncc(Cl)c1-c1cc(C(=O)N[C@@H]2CNCC[C@@H]2c2ccc(F)c(F)c2)oc1Cl

>  <Name>  (506) 
nan

>  <Pocket>  (506) 
nan

>  <ATP_Site>  (506) 
nan

>  <Peripheral>  (506) 
nan

>  <Num_H_Atoms_ProtBoundConf>  (506) 
nan

>  <Num_Resolved_Atoms>  (506) 
nan

>  <Num_Not_Resolved_Atoms>  (506) 
nan

$$$$
CHEMBL455264
     RDKit          3D

  0  0  0  0  0  0  0  0  0  0999 V3000
M  V30 BEGIN CTAB
M  V30 COUNTS 28 30 0 0 0
M  V30 BEGIN ATOM
M  V30 1 N 1.405380 -1.552848 4.889036 0
M  V30 2 C 1.135752 -1.528822 3.760948 0
M  V30 3 C 0.810236 -1.524236 2.383518 0
M  V30 4 C 0.489531 -0.369227 1.744359 0
M  V30 5 C 0.424314 0.953226 2.293796 0
M  V30 6 C 0.647972 1.537425 3.609732 0
M  V30 7 C 0.475285 2.878471 3.714241 0
M  V30 8 C 0.111984 3.699580 2.683458 0
M  V30 9 S -0.017954 2.403371 1.320702 0
M  V30 10 C 0.198065 -0.506452 0.422492 0
M  V30 11 C 0.218532 -1.706619 -0.239925 0
M  V30 12 C -0.098534 -1.821572 -1.656451 0
M  V30 13 C -0.449102 -0.832865 -2.526456 0
M  V30 14 C -0.712419 -1.107649 -3.814810 0
M  V30 15 C -0.589784 -2.510157 -4.169814 0
M  V30 16 S -0.085925 -3.288073 -2.518073 0
M  V30 17 N 0.543359 -2.797090 0.457020 0
M  V30 18 C 0.846585 -2.761317 1.765417 0
M  V30 19 N 1.183323 -3.957875 2.446634 0
M  V30 20 H 0.930076 0.929625 4.428802 0
M  V30 21 H 0.609249 3.429966 4.628467 0
M  V30 22 H -0.077790 4.631789 2.459682 0
M  V30 23 H -0.074528 0.326603 -0.213633 0
M  V30 24 H -0.517374 0.193318 -2.175825 0
M  V30 25 H -0.997439 -0.410281 -4.588606 0
M  V30 26 H -0.813078 -2.836445 -5.320525 0
M  V30 27 H 1.779876 -4.623718 1.892086 0
M  V30 28 H 0.830011 -4.101115 3.426337 0
M  V30 END ATOM
M  V30 BEGIN BOND
M  V30 1 3 1 2
M  V30 2 1 2 3
M  V30 3 2 3 4
M  V30 4 1 4 5
M  V30 5 2 5 6
M  V30 6 1 6 7
M  V30 7 2 7 8
M  V30 8 1 8 9
M  V30 9 1 4 10
M  V30 10 2 10 11
M  V30 11 1 11 12
M  V30 12 2 12 13
M  V30 13 1 13 14
M  V30 14 2 14 15
M  V30 15 1 15 16
M  V30 16 1 11 17
M  V30 17 2 17 18
M  V30 18 1 18 19
M  V30 19 1 18 3
M  V30 20 1 9 5
M  V30 21 1 16 12
M  V30 22 1 6 20
M  V30 23 1 7 21
M  V30 24 1 8 22
M  V30 25 1 10 23
M  V30 26 1 13 24
M  V30 27 1 14 25
M  V30 28 1 15 26
M  V30 29 1 19 27
M  V30 30 1 19 28
M  V30 END BOND
M  V30 END CTAB
M  END
>  <Dataset>  (507) 
ChEMBL_Kinases

>  <Ligand_Instance>  (507) 
nan

>  <PDB_ID>  (507) 
nan

>  <Standardized_SMILES>  (507) 
N#Cc1c(-c2cccs2)cc(-c2cccs2)nc1N

>  <Name>  (507) 
nan

>  <Pocket>  (507) 
nan

>  <ATP_Site>  (507) 
nan

>  <Peripheral>  (507) 
nan

>  <Num_H_Atoms_ProtBoundConf>  (507) 
nan

>  <Num_Resolved_Atoms>  (507) 
nan

>  <Num_Not_Resolved_Atoms>  (507) 
nan

$$$$
CHEMBL4552576
     RDKit          3D

  0  0  0  0  0  0  0  0  0  0999 V3000
M  V30 BEGIN CTAB
M  V30 COUNTS 24 25 0 0 0
M  V30 BEGIN ATOM
M  V30 1 C 1.238655 0.051758 4.323941 0
M  V30 2 C 1.534574 -0.789075 3.102634 0
M  V30 3 O 0.923636 -0.321580 1.947209 0
M  V30 4 C 0.973268 -0.828562 0.681634 0
M  V30 5 N 1.643017 -1.926485 0.251221 0
M  V30 6 C 1.612974 -2.327525 -1.034688 0
M  V30 7 C 0.883397 -1.616544 -1.971719 0
M  V30 8 C 0.179867 -0.488796 -1.593672 0
M  V30 9 N -0.593428 0.367174 -2.290067 0
M  V30 10 N -1.034915 1.283278 -1.448728 0
M  V30 11 C -0.553918 1.029585 -0.207639 0
M  V30 12 C -0.832436 1.842616 1.004545 0
M  V30 13 C 0.237788 -0.111400 -0.261735 0
M  V30 14 H 1.780818 -0.421868 5.169067 0
M  V30 15 H 0.154801 -0.029275 4.615261 0
M  V30 16 H 1.550039 1.092909 4.241840 0
M  V30 17 H 2.628672 -0.908623 3.025704 0
M  V30 18 H 1.100905 -1.794979 3.323624 0
M  V30 19 H 2.168390 -3.217564 -1.332354 0
M  V30 20 H 0.835586 -1.908627 -3.014819 0
M  V30 21 H -0.821655 0.336348 -3.317238 0
M  V30 22 H -0.021076 1.808326 1.753739 0
M  V30 23 H -0.951720 2.896825 0.677039 0
M  V30 24 H -1.785099 1.573831 1.509213 0
M  V30 END ATOM
M  V30 BEGIN BOND
M  V30 1 1 1 2
M  V30 2 1 2 3
M  V30 3 1 3 4
M  V30 4 2 4 5
M  V30 5 1 5 6
M  V30 6 2 6 7
M  V30 7 1 7 8
M  V30 8 1 8 9
M  V30 9 1 9 10
M  V30 10 2 10 11
M  V30 11 1 11 12
M  V30 12 1 11 13
M  V30 13 1 13 4
M  V30 14 2 13 8
M  V30 15 1 1 14
M  V30 16 1 1 15
M  V30 17 1 1 16
M  V30 18 1 2 17
M  V30 19 1 2 18
M  V30 20 1 6 19
M  V30 21 1 7 20
M  V30 22 1 9 21
M  V30 23 1 12 22
M  V30 24 1 12 23
M  V30 25 1 12 24
M  V30 END BOND
M  V30 END CTAB
M  END
>  <Dataset>  (508) 
ChEMBL_Kinases

>  <Ligand_Instance>  (508) 
nan

>  <PDB_ID>  (508) 
nan

>  <Standardized_SMILES>  (508) 
CCOc1nccc2[nH]nc(C)c12

>  <Name>  (508) 
nan

>  <Pocket>  (508) 
nan

>  <ATP_Site>  (508) 
nan

>  <Peripheral>  (508) 
nan

>  <Num_H_Atoms_ProtBoundConf>  (508) 
nan

>  <Num_Resolved_Atoms>  (508) 
nan

>  <Num_Not_Resolved_Atoms>  (508) 
nan

$$$$
CHEMBL4553067
     RDKit          3D

  0  0  0  0  0  0  0  0  0  0999 V3000
M  V30 BEGIN CTAB
M  V30 COUNTS 50 53 0 0 0
M  V30 BEGIN ATOM
M  V30 1 C -3.268837 -5.330006 -0.162407 0
M  V30 2 O -1.980448 -5.702780 -0.629406 0
M  V30 3 C -1.016150 -4.704246 -0.671191 0
M  V30 4 C -1.293488 -3.408548 -0.277774 0
M  V30 5 C -0.282788 -2.455289 -0.344066 0
M  V30 6 C 0.988372 -2.725544 -0.781442 0
M  V30 7 C 1.947544 -1.608482 -0.792937 0
M  V30 8 C 2.992946 -1.476469 -1.701030 0
M  V30 9 N 3.821243 -0.418281 -1.633883 0
M  V30 10 C 3.710174 0.563865 -0.715641 0
M  V30 11 N 4.391426 1.699570 -0.441625 0
M  V30 12 C 3.832922 2.319680 0.613224 0
M  V30 13 C 2.748194 1.592506 1.068726 0
M  V30 14 N 1.806151 1.757329 2.121639 0
M  V30 15 C 0.566062 2.444577 2.005577 0
M  V30 16 O 0.193365 2.978459 0.925691 0
M  V30 17 C -0.226060 2.466238 3.263517 0
M  V30 18 C -1.499122 3.187835 3.088350 0
M  V30 19 C -2.605895 2.457157 2.685785 0
M  V30 20 C -3.869065 2.979173 2.476198 0
M  V30 21 C -4.033685 4.333852 2.685984 0
M  V30 22 C -2.967557 5.105491 3.086253 0
M  V30 23 C -1.716098 4.533787 3.283860 0
M  V30 24 C 2.677950 0.484175 0.222811 0
M  V30 25 C 1.833015 -0.604651 0.146595 0
M  V30 26 C 1.256350 -4.020567 -1.171969 0
M  V30 27 C 0.273823 -4.984109 -1.116396 0
M  V30 28 O 0.518860 -6.273802 -1.498850 0
M  V30 29 C 1.797391 -6.703701 -1.976697 0
M  V30 30 H -3.192303 -4.911845 0.873609 0
M  V30 31 H -3.672610 -4.502428 -0.808265 0
M  V30 32 H -3.960874 -6.192269 -0.105426 0
M  V30 33 H -2.300900 -3.210398 0.065021 0
M  V30 34 H -0.643076 -1.477411 -0.003094 0
M  V30 35 H 3.100338 -2.249086 -2.442917 0
M  V30 36 H 5.229631 2.051352 -0.966864 0
M  V30 37 H 4.095650 3.240953 1.117689 0
M  V30 38 H 2.165473 1.296102 2.991852 0
M  V30 39 H -0.456630 1.425802 3.593968 0
M  V30 40 H 0.414117 2.995585 4.006853 0
M  V30 41 H -2.513707 1.375678 2.508794 0
M  V30 42 H -4.687877 2.372620 2.166158 0
M  V30 43 H -5.030197 4.726307 2.516965 0
M  V30 44 H -3.097591 6.164247 3.249838 0
M  V30 45 H -0.845897 5.110237 3.600807 0
M  V30 46 H 1.031749 -0.692456 0.853956 0
M  V30 47 H 2.261358 -4.223772 -1.515153 0
M  V30 48 H 2.060846 -6.111058 -2.871356 0
M  V30 49 H 1.770927 -7.782299 -2.210925 0
M  V30 50 H 2.576500 -6.534520 -1.211144 0
M  V30 END ATOM
M  V30 BEGIN BOND
M  V30 1 1 1 2
M  V30 2 1 2 3
M  V30 3 2 3 4
M  V30 4 1 4 5
M  V30 5 2 5 6
M  V30 6 1 6 7
M  V30 7 2 7 8
M  V30 8 1 8 9
M  V30 9 2 9 10
M  V30 10 1 10 11
M  V30 11 1 11 12
M  V30 12 2 12 13
M  V30 13 1 13 14
M  V30 14 1 14 15
M  V30 15 2 15 16
M  V30 16 1 15 17
M  V30 17 1 17 18
M  V30 18 2 18 19
M  V30 19 1 19 20
M  V30 20 2 20 21
M  V30 21 1 21 22
M  V30 22 2 22 23
M  V30 23 1 13 24
M  V30 24 2 24 25
M  V30 25 1 6 26
M  V30 26 2 26 27
M  V30 27 1 27 28
M  V30 28 1 28 29
M  V30 29 1 27 3
M  V30 30 1 25 7
M  V30 31 1 24 10
M  V30 32 1 23 18
M  V30 33 1 1 30
M  V30 34 1 1 31
M  V30 35 1 1 32
M  V30 36 1 4 33
M  V30 37 1 5 34
M  V30 38 1 8 35
M  V30 39 1 11 36
M  V30 40 1 12 37
M  V30 41 1 14 38
M  V30 42 1 17 39
M  V30 43 1 17 40
M  V30 44 1 19 41
M  V30 45 1 20 42
M  V30 46 1 21 43
M  V30 47 1 22 44
M  V30 48 1 23 45
M  V30 49 1 25 46
M  V30 50 1 26 47
M  V30 51 1 29 48
M  V30 52 1 29 49
M  V30 53 1 29 50
M  V30 END BOND
M  V30 END CTAB
M  END
>  <Dataset>  (509) 
ChEMBL_Kinases

>  <Ligand_Instance>  (509) 
nan

>  <PDB_ID>  (509) 
nan

>  <Standardized_SMILES>  (509) 
COc1ccc(-c2cnc3[nH]cc(NC(=O)Cc4ccccc4)c3c2)cc1OC

>  <Name>  (509) 
nan

>  <Pocket>  (509) 
nan

>  <ATP_Site>  (509) 
nan

>  <Peripheral>  (509) 
nan

>  <Num_H_Atoms_ProtBoundConf>  (509) 
nan

>  <Num_Resolved_Atoms>  (509) 
nan

>  <Num_Not_Resolved_Atoms>  (509) 
nan

$$$$
CHEMBL4549171
     RDKit          3D

  0  0  0  0  0  0  0  0  0  0999 V3000
M  V30 BEGIN CTAB
M  V30 COUNTS 41 44 0 0 0
M  V30 BEGIN ATOM
M  V30 1 F 3.943084 -3.102228 3.916615 0
M  V30 2 C 3.613779 -2.491127 2.698735 0
M  V30 3 F 4.170110 -3.297507 1.723798 0
M  V30 4 F 4.108058 -1.218226 2.642505 0
M  V30 5 C 2.112970 -2.550447 2.598087 0 CFG=1
M  V30 6 C 1.574108 -1.924638 1.322097 0
M  V30 7 N 0.124855 -1.746764 1.542509 0
M  V30 8 C -0.400499 -0.532766 1.064019 0
M  V30 9 N 0.256028 0.078186 0.043877 0
M  V30 10 C -0.176578 1.206868 -0.530197 0
M  V30 11 C 0.600096 1.793176 -1.626763 0
M  V30 12 C 1.762852 1.191283 -2.063518 0
M  V30 13 C 2.527556 1.712668 -3.097658 0
M  V30 14 N 2.107062 2.859297 -3.696169 0
M  V30 15 C 0.982258 3.435040 -3.268374 0
M  V30 16 C 0.178629 2.956672 -2.238235 0
M  V30 17 N -1.302511 1.815392 -0.128052 0
M  V30 18 C -2.028803 1.295739 0.875265 0
M  V30 19 C -3.188534 1.874293 1.347152 0
M  V30 20 N -3.884942 1.313561 2.379896 0
M  V30 21 C -3.425568 0.162006 2.954642 0
M  V30 22 C -2.272768 -0.385018 2.461848 0
M  V30 23 C -1.540836 0.135741 1.430963 0
M  V30 24 C -0.358754 -2.946500 2.183388 0
M  V30 25 C 0.517893 -4.149357 1.830998 0
M  V30 26 N 1.747815 -3.972420 2.579834 0
M  V30 27 H 1.636435 -2.023525 3.449021 0
M  V30 28 H 2.077136 -0.954007 1.130534 0
M  V30 29 H 1.716738 -2.555397 0.449208 0
M  V30 30 H 2.081295 0.276299 -1.572289 0
M  V30 31 H 3.417938 1.165547 -3.361889 0
M  V30 32 H 0.671538 4.351605 -3.767048 0
M  V30 33 H -0.725637 3.461233 -1.928282 0
M  V30 34 H -3.530325 2.789864 0.871424 0
M  V30 35 H -4.017661 -0.239587 3.771525 0
M  V30 36 H -1.971717 -1.261168 2.962743 0
M  V30 37 H -0.379657 -2.922134 3.274100 0
M  V30 38 H -1.402605 -3.147168 1.821713 0
M  V30 39 H -0.058717 -5.045003 2.177537 0
M  V30 40 H 0.659942 -4.231565 0.757067 0
M  V30 41 H 1.630773 -4.273970 3.572455 0
M  V30 END ATOM
M  V30 BEGIN BOND
M  V30 1 1 1 2
M  V30 2 1 2 3
M  V30 3 1 2 4
M  V30 4 1 2 5
M  V30 5 1 5 6
M  V30 6 1 6 7
M  V30 7 1 7 8
M  V30 8 2 8 9
M  V30 9 1 9 10
M  V30 10 1 10 11
M  V30 11 2 11 12
M  V30 12 1 12 13
M  V30 13 2 13 14
M  V30 14 1 14 15
M  V30 15 2 15 16
M  V30 16 2 10 17
M  V30 17 1 17 18
M  V30 18 2 18 19
M  V30 19 1 19 20
M  V30 20 2 20 21
M  V30 21 1 21 22
M  V30 22 2 22 23
M  V30 23 1 7 24
M  V30 24 1 24 25
M  V30 25 1 25 26
M  V30 26 1 26 5
M  V30 27 1 23 8
M  V30 28 1 16 11
M  V30 29 1 23 18
M  V30 30 1 5 27 CFG=1
M  V30 31 1 6 28
M  V30 32 1 6 29
M  V30 33 1 12 30
M  V30 34 1 13 31
M  V30 35 1 15 32
M  V30 36 1 16 33
M  V30 37 1 19 34
M  V30 38 1 21 35
M  V30 39 1 22 36
M  V30 40 1 24 37
M  V30 41 1 24 38
M  V30 42 1 25 39
M  V30 43 1 25 40
M  V30 44 1 26 41
M  V30 END BOND
M  V30 END CTAB
M  END
>  <Dataset>  (510) 
ChEMBL_Kinases

>  <Ligand_Instance>  (510) 
nan

>  <PDB_ID>  (510) 
nan

>  <Standardized_SMILES>  (510) 
FC(F)(F)[C@H]1CN(c2nc(-c3ccncc3)nc3cnccc23)CCN1

>  <Name>  (510) 
nan

>  <Pocket>  (510) 
nan

>  <ATP_Site>  (510) 
nan

>  <Peripheral>  (510) 
nan

>  <Num_H_Atoms_ProtBoundConf>  (510) 
nan

>  <Num_Resolved_Atoms>  (510) 
nan

>  <Num_Not_Resolved_Atoms>  (510) 
nan

$$$$
CHEMBL4549130
     RDKit          3D

  0  0  0  0  0  0  0  0  0  0999 V3000
M  V30 BEGIN CTAB
M  V30 COUNTS 47 51 0 0 0
M  V30 BEGIN ATOM
M  V30 1 O 1.757282 2.307624 4.530645 0
M  V30 2 S 1.678791 0.884223 4.120325 0
M  V30 3 O 1.659716 -0.038427 5.330742 0
M  V30 4 C 3.099422 0.385567 3.190444 0
M  V30 5 C 4.130912 1.217681 2.833704 0
M  V30 6 C 5.201511 0.743019 2.114100 0
M  V30 7 C 5.257141 -0.580872 1.737576 0
M  V30 8 F 6.305790 -1.036514 1.036495 0
M  V30 9 C 4.186899 -1.397437 2.119455 0
M  V30 10 C 3.088982 -0.969497 2.842101 0
M  V30 11 F 2.091705 -1.814395 3.175038 0
M  V30 12 N 0.319568 0.578682 3.157100 0
M  V30 13 C 0.341916 1.339276 1.930474 0
M  V30 14 C -0.446263 0.764560 0.818866 0
M  V30 15 C -1.757944 0.293986 1.383571 0
M  V30 16 C -1.952890 0.308340 2.751917 0
M  V30 17 S -3.535014 -0.270272 3.092777 0
M  V30 18 C -3.973061 -0.552532 1.323732 0
M  V30 19 N -5.126761 -1.025101 0.759620 0
M  V30 20 C -5.192820 -1.134600 -0.573742 0
M  V30 21 N -4.104629 -0.767185 -1.262066 0
M  V30 22 C -2.986588 -0.309544 -0.705726 0
M  V30 23 N -1.978542 -0.010360 -1.666691 0
M  V30 24 C -1.281056 -1.228809 -2.016966 0
M  V30 25 C -1.599329 -2.465536 -1.507360 0
M  V30 26 C -0.935829 -3.651220 -1.846555 0
M  V30 27 C 0.100513 -3.541905 -2.753803 0
M  V30 28 Br 0.979260 -5.201864 -3.189208 0
M  V30 29 C 0.472788 -2.334390 -3.304014 0
M  V30 30 C -0.234326 -1.216079 -2.914220 0
M  V30 31 C -2.805973 -0.153909 0.646714 0
M  V30 32 C -0.959643 0.756131 3.823855 0
M  V30 33 H 3.978626 2.245148 3.185547 0
M  V30 34 H 5.965876 1.471746 1.877721 0
M  V30 35 H 4.205999 -2.450628 1.833341 0
M  V30 36 H 0.058403 2.385409 2.195627 0
M  V30 37 H 1.409826 1.384806 1.610581 0
M  V30 38 H 0.070229 0.022424 0.214945 0
M  V30 39 H -0.674888 1.624983 0.116231 0
M  V30 40 H -6.131989 -1.513812 -0.931027 0
M  V30 41 H -1.655499 0.860449 -2.142626 0
M  V30 42 H -2.404243 -2.570469 -0.798451 0
M  V30 43 H -1.261948 -4.588919 -1.386891 0
M  V30 44 H 1.295124 -2.314054 -4.009406 0
M  V30 45 H 0.103749 -0.285775 -3.381677 0
M  V30 46 H -1.017509 0.082910 4.695353 0
M  V30 47 H -1.153197 1.822868 4.063427 0
M  V30 END ATOM
M  V30 BEGIN BOND
M  V30 1 2 1 2
M  V30 2 2 2 3
M  V30 3 1 2 4
M  V30 4 2 4 5
M  V30 5 1 5 6
M  V30 6 2 6 7
M  V30 7 1 7 8
M  V30 8 1 7 9
M  V30 9 2 9 10
M  V30 10 1 10 11
M  V30 11 1 2 12
M  V30 12 1 12 13
M  V30 13 1 13 14
M  V30 14 1 14 15
M  V30 15 2 15 16
M  V30 16 1 16 17
M  V30 17 1 17 18
M  V30 18 2 18 19
M  V30 19 1 19 20
M  V30 20 2 20 21
M  V30 21 1 21 22
M  V30 22 1 22 23
M  V30 23 1 23 24
M  V30 24 2 24 25
M  V30 25 1 25 26
M  V30 26 2 26 27
M  V30 27 1 27 28
M  V30 28 1 27 29
M  V30 29 2 29 30
M  V30 30 2 22 31
M  V30 31 1 16 32
M  V30 32 1 10 4
M  V30 33 1 32 12
M  V30 34 1 31 15
M  V30 35 1 31 18
M  V30 36 1 30 24
M  V30 37 1 5 33
M  V30 38 1 6 34
M  V30 39 1 9 35
M  V30 40 1 13 36
M  V30 41 1 13 37
M  V30 42 1 14 38
M  V30 43 1 14 39
M  V30 44 1 20 40
M  V30 45 1 23 41
M  V30 46 1 25 42
M  V30 47 1 26 43
M  V30 48 1 29 44
M  V30 49 1 30 45
M  V30 50 1 32 46
M  V30 51 1 32 47
M  V30 END BOND
M  V30 END CTAB
M  END
>  <Dataset>  (511) 
ChEMBL_Kinases

>  <Ligand_Instance>  (511) 
nan

>  <PDB_ID>  (511) 
nan

>  <Standardized_SMILES>  (511) 
O=S(=O)(c1ccc(F)cc1F)N1CCc2c(sc3ncnc(Nc4ccc(Br)cc4)c23)C1

>  <Name>  (511) 
nan

>  <Pocket>  (511) 
nan

>  <ATP_Site>  (511) 
nan

>  <Peripheral>  (511) 
nan

>  <Num_H_Atoms_ProtBoundConf>  (511) 
nan

>  <Num_Resolved_Atoms>  (511) 
nan

>  <Num_Not_Resolved_Atoms>  (511) 
nan

$$$$
CHEMBL454908
     RDKit          3D

  0  0  0  0  0  0  0  0  0  0999 V3000
M  V30 BEGIN CTAB
M  V30 COUNTS 54 58 0 0 0
M  V30 BEGIN ATOM
M  V30 1 C 2.543603 1.696981 4.549133 0
M  V30 2 N 1.454709 0.788485 4.685289 0
M  V30 3 C 0.830183 0.776818 5.965071 0
M  V30 4 C 1.577293 -0.465038 4.025475 0
M  V30 5 C 1.539798 -0.351642 2.496765 0
M  V30 6 C 0.224180 0.259954 2.069998 0
M  V30 7 N 0.126009 0.392841 0.628070 0
M  V30 8 C 0.487645 1.417242 -0.166367 0
M  V30 9 C 1.057563 2.616954 0.268150 0
M  V30 10 C 1.388144 3.594137 -0.629378 0
M  V30 11 C 1.139929 3.354205 -1.974988 0
M  V30 12 O 1.485754 4.362889 -2.862723 0
M  V30 13 C 0.577549 2.156494 -2.344040 0
M  V30 14 C 0.231057 1.154121 -1.491398 0
M  V30 15 C -0.314168 -0.092202 -1.508452 0
M  V30 16 C -0.753238 -0.847002 -2.549231 0
M  V30 17 C -1.268105 -2.087505 -2.321338 0
M  V30 18 C -1.342460 -2.576252 -1.026078 0
M  V30 19 C -1.860901 -3.877008 -0.612974 0
M  V30 20 C -3.219743 -3.990916 -0.299572 0
M  V30 21 C -3.708130 -5.234241 0.095300 0
M  V30 22 C -2.869134 -6.309993 0.171194 0
M  V30 23 C -1.521950 -6.147750 -0.151272 0
M  V30 24 C -0.973484 -4.934141 -0.551981 0
M  V30 25 Cl 0.702531 -4.738988 -0.952048 0
M  V30 26 C -0.894012 -1.806881 0.044885 0
M  V30 27 C -0.376755 -0.552864 -0.216331 0
M  V30 28 C -1.696656 -2.771603 -3.545277 0
M  V30 29 O -2.205223 -3.914581 -3.658042 0
M  V30 30 N -1.390822 -1.813043 -4.576990 0
M  V30 31 C -0.827391 -0.666774 -3.968529 0
M  V30 32 O -0.514322 0.245696 -4.741957 0
M  V30 33 H 2.246238 2.669883 4.096599 0
M  V30 34 H 3.420903 1.224558 4.109295 0
M  V30 35 H 2.855875 1.978242 5.599867 0
M  V30 36 H 0.746411 -0.260583 6.394126 0
M  V30 37 H -0.216239 1.178013 5.929903 0
M  V30 38 H 1.428492 1.332183 6.718458 0
M  V30 39 H 2.432095 -1.093954 4.347902 0
M  V30 40 H 0.647803 -1.051868 4.269271 0
M  V30 41 H 2.342515 0.367615 2.232594 0
M  V30 42 H 1.668164 -1.360882 2.107271 0
M  V30 43 H -0.009911 1.187117 2.591988 0
M  V30 44 H -0.556730 -0.482056 2.390161 0
M  V30 45 H 1.253552 2.814242 1.302903 0
M  V30 46 H 1.830795 4.533306 -0.325115 0
M  V30 47 H 0.912323 4.621154 -3.659847 0
M  V30 48 H 0.425213 2.061339 -3.388499 0
M  V30 49 H -3.851088 -3.093144 -0.375750 0
M  V30 50 H -4.753584 -5.325789 0.338029 0
M  V30 51 H -3.227603 -7.278317 0.475360 0
M  V30 52 H -0.797020 -6.972189 -0.111017 0
M  V30 53 H -0.927167 -2.142136 1.092252 0
M  V30 54 H -1.609533 -2.068579 -5.577416 0
M  V30 END ATOM
M  V30 BEGIN BOND
M  V30 1 1 1 2
M  V30 2 1 2 3
M  V30 3 1 2 4
M  V30 4 1 4 5
M  V30 5 1 5 6
M  V30 6 1 6 7
M  V30 7 1 7 8
M  V30 8 2 8 9
M  V30 9 1 9 10
M  V30 10 2 10 11
M  V30 11 1 11 12
M  V30 12 1 11 13
M  V30 13 2 13 14
M  V30 14 1 14 15
M  V30 15 2 15 16
M  V30 16 1 16 17
M  V30 17 2 17 18
M  V30 18 1 18 19
M  V30 19 2 19 20
M  V30 20 1 20 21
M  V30 21 2 21 22
M  V30 22 1 22 23
M  V30 23 2 23 24
M  V30 24 1 24 25
M  V30 25 1 18 26
M  V30 26 2 26 27
M  V30 27 1 17 28
M  V30 28 2 28 29
M  V30 29 1 28 30
M  V30 30 1 30 31
M  V30 31 2 31 32
M  V30 32 1 27 7
M  V30 33 1 14 8
M  V30 34 1 27 15
M  V30 35 1 31 16
M  V30 36 1 24 19
M  V30 37 1 1 33
M  V30 38 1 1 34
M  V30 39 1 1 35
M  V30 40 1 3 36
M  V30 41 1 3 37
M  V30 42 1 3 38
M  V30 43 1 4 39
M  V30 44 1 4 40
M  V30 45 1 5 41
M  V30 46 1 5 42
M  V30 47 1 6 43
M  V30 48 1 6 44
M  V30 49 1 9 45
M  V30 50 1 10 46
M  V30 51 1 12 47
M  V30 52 1 13 48
M  V30 53 1 20 49
M  V30 54 1 21 50
M  V30 55 1 22 51
M  V30 56 1 23 52
M  V30 57 1 26 53
M  V30 58 1 30 54
M  V30 END BOND
M  V30 END CTAB
M  END
>  <Dataset>  (512) 
ChEMBL_Kinases

>  <Ligand_Instance>  (512) 
nan

>  <PDB_ID>  (512) 
nan

>  <Standardized_SMILES>  (512) 
CN(C)CCCn1c2ccc(O)cc2c2c3c(c(-c4ccccc4Cl)cc21)C(=O)NC3=O

>  <Name>  (512) 
nan

>  <Pocket>  (512) 
nan

>  <ATP_Site>  (512) 
nan

>  <Peripheral>  (512) 
nan

>  <Num_H_Atoms_ProtBoundConf>  (512) 
nan

>  <Num_Resolved_Atoms>  (512) 
nan

>  <Num_Not_Resolved_Atoms>  (512) 
nan

$$$$
CHEMBL4549078
     RDKit          3D

  0  0  0  0  0  0  0  0  0  0999 V3000
M  V30 BEGIN CTAB
M  V30 COUNTS 44 46 0 0 0
M  V30 BEGIN ATOM
M  V30 1 O 2.130253 -5.519479 1.823180 0
M  V30 2 C 2.914344 -4.632470 2.287003 0
M  V30 3 O 3.513298 -5.791230 1.879578 0
M  V30 4 C 2.729147 -3.277996 2.826279 0
M  V30 5 C 1.290079 -2.887205 2.783414 0
M  V30 6 C 0.754225 -2.879500 1.378034 0
M  V30 7 C 1.490612 -1.917360 0.485535 0
M  V30 8 C 0.955846 -1.900678 -0.920398 0
M  V30 9 N -0.417313 -1.530118 -1.041864 0
M  V30 10 C -0.844730 -0.252740 -0.628261 0
M  V30 11 N 0.017255 0.639184 -0.121399 0
M  V30 12 C -0.308903 1.877340 0.292799 0
M  V30 13 C 0.731413 2.758377 0.829028 0
M  V30 14 C 0.390758 4.026864 1.254228 0
M  V30 15 C 1.345971 4.887329 1.766909 0
M  V30 16 N 2.614710 4.446455 1.836576 0
M  V30 17 C 2.950202 3.195043 1.416961 0
M  V30 18 C 2.030972 2.291879 0.894611 0
M  V30 19 N -1.577701 2.270488 0.202816 0
M  V30 20 C -2.560530 1.462697 -0.294682 0
M  V30 21 C -3.882217 1.863071 -0.391882 0
M  V30 22 N -4.796964 1.012550 -0.892814 0
M  V30 23 C -4.434346 -0.217706 -1.297034 0
M  V30 24 C -3.119078 -0.620249 -1.201906 0
M  V30 25 C -2.141709 0.211408 -0.696296 0
M  V30 26 H 4.524141 -5.918500 1.996877 0
M  V30 27 H 3.328001 -2.544470 2.243956 0
M  V30 28 H 3.054856 -3.221109 3.900618 0
M  V30 29 H 0.741968 -3.667083 3.393467 0
M  V30 30 H 1.090062 -1.933154 3.317124 0
M  V30 31 H 0.795018 -3.872731 0.937799 0
M  V30 32 H -0.326248 -2.590162 1.471279 0
M  V30 33 H 1.485754 -0.906610 0.885987 0
M  V30 34 H 2.565019 -2.221180 0.397695 0
M  V30 35 H 1.539031 -1.087933 -1.447194 0
M  V30 36 H 1.205271 -2.870856 -1.368917 0
M  V30 37 H -1.019661 -2.264275 -1.443193 0
M  V30 38 H -0.625824 4.406761 1.208681 0
M  V30 39 H 1.072029 5.879466 2.098078 0
M  V30 40 H 4.008933 2.908084 1.506296 0
M  V30 41 H 2.345084 1.312231 0.575821 0
M  V30 42 H -4.039361 2.870943 -0.034084 0
M  V30 43 H -5.222192 -0.864648 -1.695571 0
M  V30 44 H -2.899592 -1.601547 -1.537544 0
M  V30 END ATOM
M  V30 BEGIN BOND
M  V30 1 2 1 2
M  V30 2 1 2 3
M  V30 3 1 2 4
M  V30 4 1 4 5
M  V30 5 1 5 6
M  V30 6 1 6 7
M  V30 7 1 7 8
M  V30 8 1 8 9
M  V30 9 1 9 10
M  V30 10 2 10 11
M  V30 11 1 11 12
M  V30 12 1 12 13
M  V30 13 2 13 14
M  V30 14 1 14 15
M  V30 15 2 15 16
M  V30 16 1 16 17
M  V30 17 2 17 18
M  V30 18 2 12 19
M  V30 19 1 19 20
M  V30 20 2 20 21
M  V30 21 1 21 22
M  V30 22 2 22 23
M  V30 23 1 23 24
M  V30 24 2 24 25
M  V30 25 1 25 10
M  V30 26 1 18 13
M  V30 27 1 25 20
M  V30 28 1 3 26
M  V30 29 1 4 27
M  V30 30 1 4 28
M  V30 31 1 5 29
M  V30 32 1 5 30
M  V30 33 1 6 31
M  V30 34 1 6 32
M  V30 35 1 7 33
M  V30 36 1 7 34
M  V30 37 1 8 35
M  V30 38 1 8 36
M  V30 39 1 9 37
M  V30 40 1 14 38
M  V30 41 1 15 39
M  V30 42 1 17 40
M  V30 43 1 18 41
M  V30 44 1 21 42
M  V30 45 1 23 43
M  V30 46 1 24 44
M  V30 END BOND
M  V30 END CTAB
M  END
>  <Dataset>  (513) 
ChEMBL_Kinases

>  <Ligand_Instance>  (513) 
nan

>  <PDB_ID>  (513) 
nan

>  <Standardized_SMILES>  (513) 
O=C(O)CCCCCNc1nc(-c2ccncc2)nc2cnccc12

>  <Name>  (513) 
nan

>  <Pocket>  (513) 
nan

>  <ATP_Site>  (513) 
nan

>  <Peripheral>  (513) 
nan

>  <Num_H_Atoms_ProtBoundConf>  (513) 
nan

>  <Num_Resolved_Atoms>  (513) 
nan

>  <Num_Not_Resolved_Atoms>  (513) 
nan

$$$$
CHEMBL4639487
     RDKit          3D

  0  0  0  0  0  0  0  0  0  0999 V3000
M  V30 BEGIN CTAB
M  V30 COUNTS 69 74 0 0 0
M  V30 BEGIN ATOM
M  V30 1 C 4.333810 2.168123 5.953283 0
M  V30 2 C 4.579289 1.120363 4.921543 0
M  V30 3 O 5.059968 -0.028187 5.546592 0
M  V30 4 C 3.314976 0.872820 4.228474 0
M  V30 5 C 2.284522 0.670411 3.647795 0
M  V30 6 C 1.062317 0.409389 2.939991 0
M  V30 7 C 0.426870 1.397824 2.237294 0
M  V30 8 C -0.724622 1.170364 1.564146 0
M  V30 9 C -1.345757 -0.053581 1.528932 0
M  V30 10 N -2.556882 -0.246602 0.842779 0
M  V30 11 C -3.197342 0.965014 0.357170 0
M  V30 12 C -2.941715 1.091473 -1.128467 0
M  V30 13 C -2.786554 -0.284195 -1.738434 0
M  V30 14 N -3.179331 -0.254163 -3.132506 0
M  V30 15 C -2.362892 0.689786 -3.869420 0
M  V30 16 C -2.627734 0.609392 -5.336410 0
M  V30 17 O -2.765161 -0.674599 -5.813653 0
M  V30 18 C -2.089976 -1.522492 -4.957503 0
M  V30 19 C -2.897153 -1.585061 -3.667470 0
M  V30 20 C -3.760731 -1.217790 -1.058069 0
M  V30 21 C -3.419914 -1.280391 0.422605 0
M  V30 22 C -0.752945 -1.084935 2.213638 0
M  V30 23 N -1.081352 -2.412982 2.402864 0
M  V30 24 C -1.190441 -3.654368 1.723363 0
M  V30 25 N -1.651379 -4.812834 2.217763 0
M  V30 26 C -1.703455 -5.945242 1.510276 0
M  V30 27 N -1.295412 -6.018939 0.235073 0
M  V30 28 C -0.820380 -4.897321 -0.328655 0
M  V30 29 N -0.360837 -4.754322 -1.582650 0
M  V30 30 C 0.013693 -3.470154 -1.715489 0
M  V30 31 C -0.229233 -2.840559 -0.516091 0
M  V30 32 C -0.762221 -3.723328 0.392172 0
M  V30 33 C 0.447679 -0.835227 2.913241 0
M  V30 34 C 5.659503 1.519203 3.966699 0
M  V30 35 N 6.138019 0.887106 2.963502 0
M  V30 36 C 7.103255 1.458933 2.264643 0
M  V30 37 C 7.601910 2.789352 2.646044 0
M  V30 38 S 6.495631 3.078983 4.124914 0
M  V30 39 H 3.531400 1.858813 6.618630 0
M  V30 40 H 4.237730 3.195447 5.530096 0
M  V30 41 H 5.285030 2.229035 6.560853 0
M  V30 42 H 4.796361 -0.790739 4.960704 0
M  V30 43 H 0.914391 2.374599 2.259829 0
M  V30 44 H -1.079589 2.053003 1.055855 0
M  V30 45 H -4.314713 0.857419 0.506073 0
M  V30 46 H -2.955601 1.866143 0.939159 0
M  V30 47 H -3.828596 1.533790 -1.608215 0
M  V30 48 H -2.049550 1.699652 -1.266172 0
M  V30 49 H -1.786693 -0.707038 -1.678892 0
M  V30 50 H -2.689364 1.725249 -3.557755 0
M  V30 51 H -1.309451 0.503308 -3.599719 0
M  V30 52 H -3.529595 1.233746 -5.602596 0
M  V30 53 H -1.755593 1.079965 -5.858730 0
M  V30 54 H -2.045748 -2.583640 -5.309785 0
M  V30 55 H -1.068242 -1.191568 -4.703994 0
M  V30 56 H -3.867144 -2.107319 -3.818395 0
M  V30 57 H -2.259154 -2.183265 -2.971576 0
M  V30 58 H -4.793335 -0.856861 -1.256570 0
M  V30 59 H -3.684569 -2.234990 -1.510358 0
M  V30 60 H -3.232158 -2.302180 0.659088 0
M  V30 61 H -4.434891 -1.078511 0.924644 0
M  V30 62 H -1.370930 -2.588488 3.420107 0
M  V30 63 H -2.118132 -6.744480 2.139662 0
M  V30 64 H -0.287234 -5.464608 -2.342220 0
M  V30 65 H 0.435892 -3.000802 -2.610994 0
M  V30 66 H -0.021855 -1.797737 -0.332156 0
M  V30 67 H 1.022439 -1.571183 3.501557 0
M  V30 68 H 7.409227 0.794929 1.436923 0
M  V30 69 H 8.440481 3.091269 1.899289 0
M  V30 END ATOM
M  V30 BEGIN BOND
M  V30 1 1 1 2
M  V30 2 1 2 3
M  V30 3 1 2 4
M  V30 4 3 4 5
M  V30 5 1 5 6
M  V30 6 2 6 7
M  V30 7 1 7 8
M  V30 8 2 8 9
M  V30 9 1 9 10
M  V30 10 1 10 11
M  V30 11 1 11 12
M  V30 12 1 12 13
M  V30 13 1 13 14
M  V30 14 1 14 15
M  V30 15 1 15 16
M  V30 16 1 16 17
M  V30 17 1 17 18
M  V30 18 1 18 19
M  V30 19 1 13 20
M  V30 20 1 20 21
M  V30 21 1 9 22
M  V30 22 1 22 23
M  V30 23 1 23 24
M  V30 24 2 24 25
M  V30 25 1 25 26
M  V30 26 2 26 27
M  V30 27 1 27 28
M  V30 28 1 28 29
M  V30 29 1 29 30
M  V30 30 2 30 31
M  V30 31 1 31 32
M  V30 32 2 22 33
M  V30 33 1 2 34
M  V30 34 2 34 35
M  V30 35 1 35 36
M  V30 36 2 36 37
M  V30 37 1 37 38
M  V30 38 1 33 6
M  V30 39 1 38 34
M  V30 40 1 21 10
M  V30 41 1 32 24
M  V30 42 1 19 14
M  V30 43 2 32 28
M  V30 44 1 1 39
M  V30 45 1 1 40
M  V30 46 1 1 41
M  V30 47 1 3 42
M  V30 48 1 7 43
M  V30 49 1 8 44
M  V30 50 1 11 45
M  V30 51 1 11 46
M  V30 52 1 12 47
M  V30 53 1 12 48
M  V30 54 1 13 49
M  V30 55 1 15 50
M  V30 56 1 15 51
M  V30 57 1 16 52
M  V30 58 1 16 53
M  V30 59 1 18 54
M  V30 60 1 18 55
M  V30 61 1 19 56
M  V30 62 1 19 57
M  V30 63 1 20 58
M  V30 64 1 20 59
M  V30 65 1 21 60
M  V30 66 1 21 61
M  V30 67 1 23 62
M  V30 68 1 26 63
M  V30 69 1 29 64
M  V30 70 1 30 65
M  V30 71 1 31 66
M  V30 72 1 33 67
M  V30 73 1 36 68
M  V30 74 1 37 69
M  V30 END BOND
M  V30 END CTAB
M  END
>  <Dataset>  (514) 
ChEMBL_Kinases

>  <Ligand_Instance>  (514) 
nan

>  <PDB_ID>  (514) 
nan

>  <Standardized_SMILES>  (514) 
CC(O)(C#Cc1ccc(N2CCC(N3CCOCC3)CC2)c(Nc2ncnc3[nH]ccc23)c1)c1nccs1

>  <Name>  (514) 
nan

>  <Pocket>  (514) 
nan

>  <ATP_Site>  (514) 
nan

>  <Peripheral>  (514) 
nan

>  <Num_H_Atoms_ProtBoundConf>  (514) 
nan

>  <Num_Resolved_Atoms>  (514) 
nan

>  <Num_Not_Resolved_Atoms>  (514) 
nan

$$$$
CHEMBL4639541
     RDKit          3D

  0  0  0  0  0  0  0  0  0  0999 V3000
M  V30 BEGIN CTAB
M  V30 COUNTS 49 52 0 0 0
M  V30 BEGIN ATOM
M  V30 1 C 5.974133 -4.923148 2.528323 0
M  V30 2 C 5.033268 -5.433964 1.482985 0
M  V30 3 C 3.745082 -5.836066 2.175752 0
M  V30 4 C 4.669974 -4.369795 0.463586 0
M  V30 5 N 4.056163 -3.231678 0.876555 0
M  V30 6 C 3.395526 -1.999697 1.325872 0
M  V30 7 N 3.777008 -1.057968 2.199315 0
M  V30 8 C 2.969016 0.011276 2.441607 0
M  V30 9 C 1.803770 0.014495 1.741099 0
M  V30 10 Br 0.823306 1.603913 2.139396 0
M  V30 11 N 1.378555 -0.885799 0.872162 0
M  V30 12 C 0.237328 -0.889722 0.169887 0
M  V30 13 C -0.919616 -0.026809 0.039273 0
M  V30 14 C -1.807494 0.438812 0.983273 0
M  V30 15 C -2.837964 1.304806 0.692829 0
M  V30 16 C -3.023018 1.750036 -0.599885 0
M  V30 17 C -4.087968 2.671120 -0.983045 0
M  V30 18 O -4.230084 3.007708 -2.182192 0
M  V30 19 N -4.996034 3.220562 -0.039532 0
M  V30 20 C -6.029613 4.119422 -0.442199 0
M  V30 21 C -6.623270 5.095116 0.504349 0
M  V30 22 C -7.394103 3.877056 0.217520 0
M  V30 23 C -2.143403 1.290533 -1.551989 0
M  V30 24 C -1.106016 0.423735 -1.276697 0
M  V30 25 C 0.327061 -2.065232 -0.593281 0
M  V30 26 N 1.488533 -2.657764 -0.290083 0
M  V30 27 C 2.173701 -1.941441 0.629519 0
M  V30 28 H 6.504245 -5.802553 2.982900 0
M  V30 29 H 6.681859 -4.205261 2.083968 0
M  V30 30 H 5.439664 -4.461622 3.394631 0
M  V30 31 H 5.389373 -6.309416 0.925340 0
M  V30 32 H 3.107331 -6.496454 1.581597 0
M  V30 33 H 4.026673 -6.411201 3.090278 0
M  V30 34 H 3.140743 -4.967612 2.497976 0
M  V30 35 H 3.994588 -4.981247 -0.274929 0
M  V30 36 H 5.558375 -4.188097 -0.197776 0
M  V30 37 H 4.901556 -3.082516 1.505018 0
M  V30 38 H 3.380961 0.697124 3.157322 0
M  V30 39 H -1.669693 0.056262 1.983601 0
M  V30 40 H -3.495734 1.629642 1.483272 0
M  V30 41 H -4.930919 2.980966 0.973079 0
M  V30 42 H -6.060040 4.310905 -1.540999 0
M  V30 43 H -6.119112 5.185499 1.473191 0
M  V30 44 H -6.967417 6.055497 0.072464 0
M  V30 45 H -7.492977 3.052063 0.949502 0
M  V30 46 H -8.298399 3.994099 -0.400419 0
M  V30 47 H -2.293021 1.647043 -2.583487 0
M  V30 48 H -0.479553 0.138297 -2.133568 0
M  V30 49 H -0.379447 -2.458376 -1.301764 0
M  V30 END ATOM
M  V30 BEGIN BOND
M  V30 1 1 1 2
M  V30 2 1 2 3
M  V30 3 1 2 4
M  V30 4 1 4 5
M  V30 5 1 5 6
M  V30 6 2 6 7
M  V30 7 1 7 8
M  V30 8 2 8 9
M  V30 9 1 9 10
M  V30 10 1 9 11
M  V30 11 1 11 12
M  V30 12 1 12 13
M  V30 13 2 13 14
M  V30 14 1 14 15
M  V30 15 2 15 16
M  V30 16 1 16 17
M  V30 17 2 17 18
M  V30 18 1 17 19
M  V30 19 1 19 20
M  V30 20 1 20 21
M  V30 21 1 21 22
M  V30 22 1 16 23
M  V30 23 2 23 24
M  V30 24 2 12 25
M  V30 25 1 25 26
M  V30 26 2 26 27
M  V30 27 1 27 6
M  V30 28 1 27 11
M  V30 29 1 24 13
M  V30 30 1 22 20
M  V30 31 1 1 28
M  V30 32 1 1 29
M  V30 33 1 1 30
M  V30 34 1 2 31
M  V30 35 1 3 32
M  V30 36 1 3 33
M  V30 37 1 3 34
M  V30 38 1 4 35
M  V30 39 1 4 36
M  V30 40 1 5 37
M  V30 41 1 8 38
M  V30 42 1 14 39
M  V30 43 1 15 40
M  V30 44 1 19 41
M  V30 45 1 20 42
M  V30 46 1 21 43
M  V30 47 1 21 44
M  V30 48 1 22 45
M  V30 49 1 22 46
M  V30 50 1 23 47
M  V30 51 1 24 48
M  V30 52 1 25 49
M  V30 END BOND
M  V30 END CTAB
M  END
>  <Dataset>  (515) 
ChEMBL_Kinases

>  <Ligand_Instance>  (515) 
nan

>  <PDB_ID>  (515) 
nan

>  <Standardized_SMILES>  (515) 
CC(C)CNc1ncc(Br)n2c(-c3ccc(C(=O)NC4CC4)cc3)cnc12

>  <Name>  (515) 
nan

>  <Pocket>  (515) 
nan

>  <ATP_Site>  (515) 
nan

>  <Peripheral>  (515) 
nan

>  <Num_H_Atoms_ProtBoundConf>  (515) 
nan

>  <Num_Resolved_Atoms>  (515) 
nan

>  <Num_Not_Resolved_Atoms>  (515) 
nan

$$$$
CHEMBL4639551
     RDKit          3D

  0  0  0  0  0  0  0  0  0  0999 V3000
M  V30 BEGIN CTAB
M  V30 COUNTS 45 49 0 0 0
M  V30 BEGIN ATOM
M  V30 1 C 1.580516 -6.857785 2.460249 0
M  V30 2 O 1.248375 -5.878109 1.506976 0
M  V30 3 C 2.225216 -5.100064 0.884671 0
M  V30 4 C 3.570909 -5.233261 1.155560 0
M  V30 5 C 4.459420 -4.416811 0.487710 0
M  V30 6 C 3.944966 -3.516134 -0.411378 0
M  V30 7 C 2.588421 -3.348977 -0.715216 0
M  V30 8 C 2.234728 -2.316555 -1.722033 0
M  V30 9 N 2.020066 -0.999167 -1.138764 0
M  V30 10 C 3.119175 -0.232487 -1.046656 0
M  V30 11 N 2.917361 0.981965 -0.503230 0
M  V30 12 C 1.670228 1.348931 -0.096333 0
M  V30 13 S 0.997024 2.870164 0.670474 0
M  V30 14 C -0.703205 2.306868 0.785434 0
M  V30 15 C -1.621424 3.272832 1.372816 0
M  V30 16 C -1.181012 4.530796 1.803161 0
M  V30 17 C -2.015022 5.482000 2.367218 0
M  V30 18 C -3.330507 5.178036 2.510485 0
M  V30 19 C -3.844546 3.972804 2.117010 0
M  V30 20 N -5.093759 3.501183 2.177342 0
M  V30 21 C -5.051227 2.266222 1.657733 0
M  V30 22 C -3.751288 2.002710 1.282899 0
M  V30 23 C -2.948585 3.084923 1.566478 0
M  V30 24 C -0.625101 1.112441 0.275532 0
M  V30 25 C 0.533341 0.581102 -0.181219 0
M  V30 26 C 0.785354 -0.660806 -0.746307 0
M  V30 27 O -0.131585 -1.535798 -0.920797 0
M  V30 28 C 1.738320 -4.185209 -0.024728 0
M  V30 29 H 2.384949 -6.482486 3.127630 0
M  V30 30 H 0.709367 -7.063004 3.133560 0
M  V30 31 H 1.895538 -7.801623 1.973721 0
M  V30 32 H 3.909293 -5.963223 1.875696 0
M  V30 33 H 5.526114 -4.471068 0.654360 0
M  V30 34 H 4.672840 -2.880284 -0.927582 0
M  V30 35 H 3.070692 -2.255687 -2.443417 0
M  V30 36 H 1.309229 -2.652779 -2.261948 0
M  V30 37 H 4.124756 -0.436523 -1.336767 0
M  V30 38 H -0.158777 4.861073 1.730763 0
M  V30 39 H -1.666287 6.440222 2.692321 0
M  V30 40 H -3.989261 5.910371 2.948169 0
M  V30 41 H -5.925288 4.012029 2.558717 0
M  V30 42 H -5.942477 1.669381 1.593060 0
M  V30 43 H -3.574418 1.040938 0.848827 0
M  V30 44 H -1.543964 0.551482 0.231587 0
M  V30 45 H 0.690366 -4.063638 -0.253639 0
M  V30 END ATOM
M  V30 BEGIN BOND
M  V30 1 1 1 2
M  V30 2 1 2 3
M  V30 3 2 3 4
M  V30 4 1 4 5
M  V30 5 2 5 6
M  V30 6 1 6 7
M  V30 7 1 7 8
M  V30 8 1 8 9
M  V30 9 1 9 10
M  V30 10 2 10 11
M  V30 11 1 11 12
M  V30 12 1 12 13
M  V30 13 1 13 14
M  V30 14 1 14 15
M  V30 15 2 15 16
M  V30 16 1 16 17
M  V30 17 2 17 18
M  V30 18 1 18 19
M  V30 19 1 19 20
M  V30 20 1 20 21
M  V30 21 2 21 22
M  V30 22 1 22 23
M  V30 23 2 14 24
M  V30 24 1 24 25
M  V30 25 1 25 26
M  V30 26 2 26 27
M  V30 27 2 7 28
M  V30 28 1 28 3
M  V30 29 1 26 9
M  V30 30 2 25 12
M  V30 31 1 23 15
M  V30 32 2 23 19
M  V30 33 1 1 29
M  V30 34 1 1 30
M  V30 35 1 1 31
M  V30 36 1 4 32
M  V30 37 1 5 33
M  V30 38 1 6 34
M  V30 39 1 8 35
M  V30 40 1 8 36
M  V30 41 1 10 37
M  V30 42 1 16 38
M  V30 43 1 17 39
M  V30 44 1 18 40
M  V30 45 1 20 41
M  V30 46 1 21 42
M  V30 47 1 22 43
M  V30 48 1 24 44
M  V30 49 1 28 45
M  V30 END BOND
M  V30 END CTAB
M  END
>  <Dataset>  (516) 
ChEMBL_Kinases

>  <Ligand_Instance>  (516) 
nan

>  <PDB_ID>  (516) 
nan

>  <Standardized_SMILES>  (516) 
COc1cccc(Cn2cnc3sc(-c4cccc5[nH]ccc45)cc3c2=O)c1

>  <Name>  (516) 
nan

>  <Pocket>  (516) 
nan

>  <ATP_Site>  (516) 
nan

>  <Peripheral>  (516) 
nan

>  <Num_H_Atoms_ProtBoundConf>  (516) 
nan

>  <Num_Resolved_Atoms>  (516) 
nan

>  <Num_Not_Resolved_Atoms>  (516) 
nan

$$$$
CHEMBL454874
     RDKit          3D

  0  0  0  0  0  0  0  0  0  0999 V3000
M  V30 BEGIN CTAB
M  V30 COUNTS 54 55 0 0 0
M  V30 BEGIN ATOM
M  V30 1 C 0.016456 0.066118 2.771501 0
M  V30 2 C 1.478961 0.265962 2.998642 0
M  V30 3 C 1.842116 -0.358318 4.350251 0
M  V30 4 C 2.310184 -0.487568 1.973102 0
M  V30 5 C 1.892498 1.706601 3.067373 0
M  V30 6 C 1.605350 2.484481 1.860081 0
M  V30 7 O 1.953074 3.703525 1.808395 0
M  V30 8 O 0.973390 1.981010 0.753963 0
M  V30 9 C 0.696822 2.725608 -0.410919 0
M  V30 10 C -0.013997 1.903294 -1.458319 0
M  V30 11 C -0.286766 2.718871 -2.700165 0
M  V30 12 O 0.889098 3.245858 -3.234098 0
M  V30 13 C 0.840757 0.685580 -1.786321 0
M  V30 14 C -0.003711 -0.467877 -1.304662 0
M  V30 15 C 0.307724 -1.710088 -0.923183 0
M  V30 16 C -0.661748 -2.702690 -0.477506 0
M  V30 17 C -1.705833 -2.475261 0.395736 0
M  V30 18 C -2.602712 -3.454102 0.768211 0
M  V30 19 C -3.709930 -3.152268 1.713910 0
M  V30 20 F -4.860467 -2.799571 1.047948 0
M  V30 21 F -3.308419 -2.034636 2.445377 0
M  V30 22 F -3.902834 -4.235025 2.549147 0
M  V30 23 C -2.457571 -4.736414 0.245275 0
M  V30 24 C -1.428460 -4.998732 -0.626899 0
M  V30 25 C -1.353670 -6.394598 -1.133345 0
M  V30 26 F -2.578649 -6.690432 -1.702127 0
M  V30 27 F -0.318209 -6.516510 -2.027396 0
M  V30 28 F -1.185227 -7.275157 -0.059959 0
M  V30 29 C -0.552698 -3.990220 -0.974005 0
M  V30 30 C -1.384654 0.061056 -1.359629 0
M  V30 31 O -2.343898 -0.720487 -1.701487 0
M  V30 32 O -1.259403 1.412941 -0.985393 0
M  V30 33 H -0.129638 0.031833 1.659211 0
M  V30 34 H -0.611804 0.821748 3.242474 0
M  V30 35 H -0.272343 -0.938828 3.181639 0
M  V30 36 H 1.390260 -1.364864 4.382513 0
M  V30 37 H 2.929483 -0.418137 4.507064 0
M  V30 38 H 1.375815 0.260757 5.151607 0
M  V30 39 H 1.916473 -1.518393 1.863754 0
M  V30 40 H 2.286901 0.020932 0.994772 0
M  V30 41 H 3.365515 -0.595087 2.355446 0
M  V30 42 H 2.980125 1.717462 3.356625 0
M  V30 43 H 1.361017 2.152615 3.958511 0
M  V30 44 H 1.640712 3.096627 -0.842848 0
M  V30 45 H 0.101131 3.619504 -0.137797 0
M  V30 46 H -0.976721 3.550986 -2.521505 0
M  V30 47 H -0.794529 2.045207 -3.428940 0
M  V30 48 H 1.076011 4.137936 -2.803155 0
M  V30 49 H 1.796774 0.700375 -1.250032 0
M  V30 50 H 0.971915 0.664194 -2.876394 0
M  V30 51 H 1.365840 -1.965415 -0.961126 0
M  V30 52 H -1.823759 -1.500380 0.815416 0
M  V30 53 H -3.160598 -5.485396 0.543510 0
M  V30 54 H 0.214804 -4.318077 -1.665544 0
M  V30 END ATOM
M  V30 BEGIN BOND
M  V30 1 1 1 2
M  V30 2 1 2 3
M  V30 3 1 2 4
M  V30 4 1 2 5
M  V30 5 1 5 6
M  V30 6 2 6 7
M  V30 7 1 6 8
M  V30 8 1 8 9
M  V30 9 1 9 10
M  V30 10 1 10 11
M  V30 11 1 11 12
M  V30 12 1 10 13
M  V30 13 1 13 14
M  V30 14 2 14 15
M  V30 15 1 15 16
M  V30 16 2 16 17
M  V30 17 1 17 18
M  V30 18 1 18 19
M  V30 19 1 19 20
M  V30 20 1 19 21
M  V30 21 1 19 22
M  V30 22 2 18 23
M  V30 23 1 23 24
M  V30 24 1 24 25
M  V30 25 1 25 26
M  V30 26 1 25 27
M  V30 27 1 25 28
M  V30 28 2 24 29
M  V30 29 1 14 30
M  V30 30 2 30 31
M  V30 31 1 30 32
M  V30 32 1 32 10
M  V30 33 1 29 16
M  V30 34 1 1 33
M  V30 35 1 1 34
M  V30 36 1 1 35
M  V30 37 1 3 36
M  V30 38 1 3 37
M  V30 39 1 3 38
M  V30 40 1 4 39
M  V30 41 1 4 40
M  V30 42 1 4 41
M  V30 43 1 5 42
M  V30 44 1 5 43
M  V30 45 1 9 44
M  V30 46 1 9 45
M  V30 47 1 11 46
M  V30 48 1 11 47
M  V30 49 1 12 48
M  V30 50 1 13 49
M  V30 51 1 13 50
M  V30 52 1 15 51
M  V30 53 1 17 52
M  V30 54 1 23 53
M  V30 55 1 29 54
M  V30 END BOND
M  V30 END CTAB
M  END
>  <Dataset>  (517) 
ChEMBL_Kinases

>  <Ligand_Instance>  (517) 
nan

>  <PDB_ID>  (517) 
nan

>  <Standardized_SMILES>  (517) 
CC(C)(C)CC(=O)OCC1(CO)C/C(=C/c2cc(C(F)(F)F)cc(C(F)(F)F)c2)C(=O)O1

>  <Name>  (517) 
nan

>  <Pocket>  (517) 
nan

>  <ATP_Site>  (517) 
nan

>  <Peripheral>  (517) 
nan

>  <Num_H_Atoms_ProtBoundConf>  (517) 
nan

>  <Num_Resolved_Atoms>  (517) 
nan

>  <Num_Not_Resolved_Atoms>  (517) 
nan

$$$$
CHEMBL454870
     RDKit          3D

  0  0  0  0  0  0  0  0  0  0999 V3000
M  V30 BEGIN CTAB
M  V30 COUNTS 46 48 0 0 0
M  V30 BEGIN ATOM
M  V30 1 C 0.129270 -5.693879 2.576462 0
M  V30 2 C 0.589222 -4.696891 1.577325 0
M  V30 3 C 1.374059 -4.988943 0.495069 0
M  V30 4 C 1.822678 -4.084520 -0.442420 0
M  V30 5 C 1.443593 -2.774339 -0.266562 0
M  V30 6 C 1.861941 -1.718971 -1.177716 0
M  V30 7 O 2.605842 -2.024773 -2.147865 0
M  V30 8 O 1.446743 -0.412850 -0.972219 0
M  V30 9 C 1.810758 0.647078 -1.794764 0
M  V30 10 C 1.224909 1.970857 -1.370014 0
M  V30 11 C 1.776737 3.055534 -2.223012 0
M  V30 12 O 3.171399 3.057088 -2.036164 0
M  V30 13 C 1.521784 2.283030 0.080257 0
M  V30 14 C 0.324170 1.757561 0.797455 0
M  V30 15 C -0.045132 1.615855 2.059320 0
M  V30 16 C -1.291149 1.070557 2.575974 0
M  V30 17 C -1.336109 0.095591 3.554249 0
M  V30 18 C -2.552077 -0.383696 4.054855 0
M  V30 19 C -3.752468 0.130210 3.559483 0
M  V30 20 C -3.723475 1.119314 2.567681 0
M  V30 21 C -2.507126 1.565072 2.101016 0
M  V30 22 C -0.581109 1.260195 -0.235410 0
M  V30 23 O -1.581513 0.454259 -0.240766 0
M  V30 24 O -0.197030 1.835984 -1.441453 0
M  V30 25 C 0.640000 -2.447112 0.832846 0
M  V30 26 C 0.199888 -3.390316 1.768678 0
M  V30 27 H 0.860190 -6.523259 2.610636 0
M  V30 28 H -0.892433 -5.990782 2.322495 0
M  V30 29 H 0.120614 -5.190236 3.580714 0
M  V30 30 H 1.674603 -6.028065 0.357612 0
M  V30 31 H 2.440889 -4.338281 -1.286882 0
M  V30 32 H 1.415243 0.443634 -2.820656 0
M  V30 33 H 2.919382 0.681772 -1.921866 0
M  V30 34 H 1.580954 2.854523 -3.294300 0
M  V30 35 H 1.431439 4.052211 -1.903881 0
M  V30 36 H 3.434213 2.683653 -1.177300 0
M  V30 37 H 1.476072 3.392057 0.208455 0
M  V30 38 H 2.470389 1.874120 0.427184 0
M  V30 39 H 0.720460 1.967096 2.772387 0
M  V30 40 H -0.412458 -0.309373 3.945602 0
M  V30 41 H -2.619804 -1.142327 4.816719 0
M  V30 42 H -4.740984 -0.197368 3.903299 0
M  V30 43 H -4.679734 1.501616 2.201738 0
M  V30 44 H -2.607256 2.348489 1.340439 0
M  V30 45 H 0.341077 -1.406792 0.970647 0
M  V30 46 H -0.420365 -3.021049 2.582553 0
M  V30 END ATOM
M  V30 BEGIN BOND
M  V30 1 1 1 2
M  V30 2 2 2 3
M  V30 3 1 3 4
M  V30 4 2 4 5
M  V30 5 1 5 6
M  V30 6 2 6 7
M  V30 7 1 6 8
M  V30 8 1 8 9
M  V30 9 1 9 10
M  V30 10 1 10 11
M  V30 11 1 11 12
M  V30 12 1 10 13
M  V30 13 1 13 14
M  V30 14 2 14 15
M  V30 15 1 15 16
M  V30 16 2 16 17
M  V30 17 1 17 18
M  V30 18 2 18 19
M  V30 19 1 19 20
M  V30 20 2 20 21
M  V30 21 1 14 22
M  V30 22 2 22 23
M  V30 23 1 22 24
M  V30 24 1 5 25
M  V30 25 2 25 26
M  V30 26 1 26 2
M  V30 27 1 24 10
M  V30 28 1 21 16
M  V30 29 1 1 27
M  V30 30 1 1 28
M  V30 31 1 1 29
M  V30 32 1 3 30
M  V30 33 1 4 31
M  V30 34 1 9 32
M  V30 35 1 9 33
M  V30 36 1 11 34
M  V30 37 1 11 35
M  V30 38 1 12 36
M  V30 39 1 13 37
M  V30 40 1 13 38
M  V30 41 1 15 39
M  V30 42 1 17 40
M  V30 43 1 18 41
M  V30 44 1 19 42
M  V30 45 1 20 43
M  V30 46 1 21 44
M  V30 47 1 25 45
M  V30 48 1 26 46
M  V30 END BOND
M  V30 END CTAB
M  END
>  <Dataset>  (518) 
ChEMBL_Kinases

>  <Ligand_Instance>  (518) 
nan

>  <PDB_ID>  (518) 
nan

>  <Standardized_SMILES>  (518) 
Cc1ccc(C(=O)OCC2(CO)C/C(=C/c3ccccc3)C(=O)O2)cc1

>  <Name>  (518) 
nan

>  <Pocket>  (518) 
nan

>  <ATP_Site>  (518) 
nan

>  <Peripheral>  (518) 
nan

>  <Num_H_Atoms_ProtBoundConf>  (518) 
nan

>  <Num_Resolved_Atoms>  (518) 
nan

>  <Num_Not_Resolved_Atoms>  (518) 
nan

$$$$
CHEMBL4548552
     RDKit          3D

  0  0  0  0  0  0  0  0  0  0999 V3000
M  V30 BEGIN CTAB
M  V30 COUNTS 57 61 0 0 0
M  V30 BEGIN ATOM
M  V30 1 C 2.742685 -1.261587 4.549184 0
M  V30 2 C 4.203783 -1.065215 4.437071 0
M  V30 3 O 4.972291 -1.720114 5.196131 0
M  V30 4 C 4.820130 -0.140863 3.482071 0
M  V30 5 C 6.174747 -0.028195 3.456461 0
M  V30 6 C 6.712566 0.843496 2.552866 0
M  V30 7 C 5.912474 1.571927 1.708673 0
M  V30 8 C 4.524718 1.486589 1.701934 0
M  V30 9 N 3.801007 2.282290 0.789127 0
M  V30 10 C 2.411128 2.354509 0.594090 0
M  V30 11 O 1.681728 1.629428 1.308229 0
M  V30 12 N 1.798396 3.196062 -0.359146 0
M  V30 13 C 0.427444 3.346617 -0.641860 0
M  V30 14 C -0.625117 2.709143 -0.056502 0
M  V30 15 C -1.948399 2.899176 -0.383650 0
M  V30 16 O -2.997504 2.234757 0.231265 0
M  V30 17 C -3.495344 1.030641 -0.182267 0
M  V30 18 C -4.492238 0.786462 -1.109379 0
M  V30 19 C -4.956105 -0.451394 -1.489752 0
M  V30 20 C -4.402349 -1.579166 -0.916967 0
M  V30 21 N -4.699979 -2.842011 -1.139147 0
M  V30 22 C -4.204970 -3.788241 -0.629168 0
M  V30 23 N -4.195898 -5.259019 -0.562417 0
M  V30 24 C -3.329172 -5.993938 -1.390207 0
M  V30 25 O -2.572631 -5.351236 -2.179241 0
M  V30 26 C -3.375591 -7.480640 -1.267226 0
M  V30 27 C -1.978111 -8.129165 -1.346139 0
M  V30 28 C -2.949595 -8.326949 -2.430483 0
M  V30 29 S -2.949123 -3.064155 0.520614 0
M  V30 30 C -3.399148 -1.323502 0.015881 0
M  V30 31 C -2.914641 -0.066807 0.414538 0
M  V30 32 C -2.287882 3.795251 -1.375963 0
M  V30 33 C -1.248770 4.458586 -1.990216 0
M  V30 34 C 0.055641 4.234357 -1.628104 0
M  V30 35 F 0.999918 4.953872 -2.310921 0
M  V30 36 C 4.044653 0.595758 2.630704 0
M  V30 37 H 2.538583 -2.223326 5.051546 0
M  V30 38 H 2.288855 -0.437966 5.142955 0
M  V30 39 H 2.269234 -1.248364 3.558972 0
M  V30 40 H 6.805307 -0.589468 4.107585 0
M  V30 41 H 7.788266 0.946965 2.517503 0
M  V30 42 H 6.427251 2.238898 1.024453 0
M  V30 43 H 4.351691 2.907154 0.167548 0
M  V30 44 H 2.475983 3.764397 -0.906047 0
M  V30 45 H -0.459675 2.001238 0.718243 0
M  V30 46 H -4.925169 1.681706 -1.557648 0
M  V30 47 H -5.746028 -0.468544 -2.232410 0
M  V30 48 H -4.873989 -5.593222 0.123987 0
M  V30 49 H -4.079760 -7.945619 -0.537446 0
M  V30 50 H -1.112334 -7.477953 -1.584203 0
M  V30 51 H -1.765349 -8.955727 -0.641211 0
M  V30 52 H -3.387177 -9.344721 -2.493726 0
M  V30 53 H -2.844703 -7.784916 -3.392518 0
M  V30 54 H -2.138011 -0.116217 1.148240 0
M  V30 55 H -3.310871 3.975698 -1.664514 0
M  V30 56 H -1.494016 5.164087 -2.768818 0
M  V30 57 H 2.993184 0.455420 2.708515 0
M  V30 END ATOM
M  V30 BEGIN BOND
M  V30 1 1 1 2
M  V30 2 2 2 3
M  V30 3 1 2 4
M  V30 4 2 4 5
M  V30 5 1 5 6
M  V30 6 2 6 7
M  V30 7 1 7 8
M  V30 8 1 8 9
M  V30 9 1 9 10
M  V30 10 2 10 11
M  V30 11 1 10 12
M  V30 12 1 12 13
M  V30 13 2 13 14
M  V30 14 1 14 15
M  V30 15 1 15 16
M  V30 16 1 16 17
M  V30 17 2 17 18
M  V30 18 1 18 19
M  V30 19 2 19 20
M  V30 20 1 20 21
M  V30 21 2 21 22
M  V30 22 1 22 23
M  V30 23 1 23 24
M  V30 24 2 24 25
M  V30 25 1 24 26
M  V30 26 1 26 27
M  V30 27 1 27 28
M  V30 28 1 22 29
M  V30 29 1 29 30
M  V30 30 2 30 31
M  V30 31 2 15 32
M  V30 32 1 32 33
M  V30 33 2 33 34
M  V30 34 1 34 35
M  V30 35 2 8 36
M  V30 36 1 36 4
M  V30 37 1 34 13
M  V30 38 1 31 17
M  V30 39 1 30 20
M  V30 40 1 28 26
M  V30 41 1 1 37
M  V30 42 1 1 38
M  V30 43 1 1 39
M  V30 44 1 5 40
M  V30 45 1 6 41
M  V30 46 1 7 42
M  V30 47 1 9 43
M  V30 48 1 12 44
M  V30 49 1 14 45
M  V30 50 1 18 46
M  V30 51 1 19 47
M  V30 52 1 23 48
M  V30 53 1 26 49
M  V30 54 1 27 50
M  V30 55 1 27 51
M  V30 56 1 28 52
M  V30 57 1 28 53
M  V30 58 1 31 54
M  V30 59 1 32 55
M  V30 60 1 33 56
M  V30 61 1 36 57
M  V30 END BOND
M  V30 END CTAB
M  END
>  <Dataset>  (519) 
ChEMBL_Kinases

>  <Ligand_Instance>  (519) 
nan

>  <PDB_ID>  (519) 
nan

>  <Standardized_SMILES>  (519) 
CC(=O)c1cccc(NC(=O)Nc2cc(Oc3ccc4nc(NC(=O)C5CC5)sc4c3)ccc2F)c1

>  <Name>  (519) 
nan

>  <Pocket>  (519) 
nan

>  <ATP_Site>  (519) 
nan

>  <Peripheral>  (519) 
nan

>  <Num_H_Atoms_ProtBoundConf>  (519) 
nan

>  <Num_Resolved_Atoms>  (519) 
nan

>  <Num_Not_Resolved_Atoms>  (519) 
nan

$$$$
CHEMBL4548492
     RDKit          3D

  0  0  0  0  0  0  0  0  0  0999 V3000
M  V30 BEGIN CTAB
M  V30 COUNTS 55 59 0 0 0
M  V30 BEGIN ATOM
M  V30 1 O 0.987852 -2.489084 2.137946 0
M  V30 2 C 0.521378 -1.715723 1.319191 0
M  V30 3 N 1.685185 -1.035869 0.952090 0
M  V30 4 C 2.847262 -0.357047 0.585556 0
M  V30 5 C 4.030037 -0.766037 0.152653 0
M  V30 6 C 4.950370 0.211549 -0.110854 0
M  V30 7 C 4.701270 1.555881 0.047644 0
M  V30 8 C 3.482152 1.947761 0.488868 0
M  V30 9 N 2.658975 0.985912 0.723677 0
M  V30 10 C 2.698754 3.137337 0.763008 0
M  V30 11 N 2.702904 3.774152 -0.449893 0
M  V30 12 N 2.000746 4.912110 -0.387045 0
M  V30 13 C 1.581591 4.939563 0.880535 0
M  V30 14 N 2.000740 3.855181 1.609072 0
M  V30 15 C 1.714478 3.681361 2.985961 0
M  V30 16 C 1.467464 2.352870 3.515734 0
M  V30 17 C 0.262390 1.560827 3.322282 0
M  V30 18 C -0.348850 1.260753 2.016706 0
M  V30 19 O -1.160705 0.121522 2.163017 0
M  V30 20 C -1.868427 -0.656744 1.339661 0
M  V30 21 C -3.106560 -0.827617 0.784286 0
M  V30 22 C -3.375803 -1.874299 -0.072301 0
M  V30 23 C -2.413439 -2.799535 -0.411696 0
M  V30 24 N -2.794932 -3.842820 -1.297878 0
M  V30 25 C -4.159050 -3.910811 -1.731872 0
M  V30 26 C -4.353120 -5.248907 -2.429600 0
M  V30 27 O -3.900051 -6.240735 -1.572428 0
M  V30 28 C -2.505964 -6.227730 -1.457343 0
M  V30 29 C -1.935685 -4.874973 -1.831257 0
M  V30 30 C -1.110108 -2.716272 0.100611 0
M  V30 31 C -0.922656 -1.647793 0.942405 0
M  V30 32 H 1.244207 -0.675196 0.100505 0
M  V30 33 H 3.902817 -1.797865 0.120132 0
M  V30 34 H 5.909294 -0.086797 -0.455752 0
M  V30 35 H 5.292284 2.434394 -0.116984 0
M  V30 36 H 0.973772 5.818305 1.135336 0
M  V30 37 H 2.492319 4.207718 3.649406 0
M  V30 38 H 0.800838 4.313524 3.247750 0
M  V30 39 H 1.545064 2.455381 4.675826 0
M  V30 40 H 2.422834 1.688004 3.406262 0
M  V30 41 H -0.606941 1.913611 3.993694 0
M  V30 42 H 0.432783 0.520491 3.811049 0
M  V30 43 H 0.205049 1.207688 1.113787 0
M  V30 44 H -1.161842 2.103533 1.893706 0
M  V30 45 H -3.714405 -0.025285 1.157072 0
M  V30 46 H -4.394628 -1.875934 -0.428228 0
M  V30 47 H -4.354637 -3.082449 -2.440803 0
M  V30 48 H -4.878286 -3.912628 -0.885605 0
M  V30 49 H -5.419932 -5.448184 -2.658840 0
M  V30 50 H -3.740859 -5.317713 -3.364139 0
M  V30 51 H -2.011878 -7.016593 -2.047534 0
M  V30 52 H -2.263092 -6.389482 -0.374822 0
M  V30 53 H -0.906610 -4.859925 -1.437536 0
M  V30 54 H -1.828274 -4.755508 -2.938410 0
M  V30 55 H -0.332991 -3.424808 -0.127360 0
M  V30 END ATOM
M  V30 BEGIN BOND
M  V30 1 2 1 2
M  V30 2 1 2 3
M  V30 3 1 3 4
M  V30 4 1 4 5
M  V30 5 2 5 6
M  V30 6 1 6 7
M  V30 7 2 7 8
M  V30 8 1 8 9
M  V30 9 1 8 10
M  V30 10 2 10 11
M  V30 11 1 11 12
M  V30 12 2 12 13
M  V30 13 1 13 14
M  V30 14 1 14 15
M  V30 15 1 15 16
M  V30 16 1 16 17
M  V30 17 1 17 18
M  V30 18 1 18 19
M  V30 19 1 19 20
M  V30 20 2 20 21
M  V30 21 1 21 22
M  V30 22 2 22 23
M  V30 23 1 23 24
M  V30 24 1 24 25
M  V30 25 1 25 26
M  V30 26 1 26 27
M  V30 27 1 27 28
M  V30 28 1 28 29
M  V30 29 1 23 30
M  V30 30 2 30 31
M  V30 31 1 31 2
M  V30 32 2 9 4
M  V30 33 1 14 10
M  V30 34 1 31 20
M  V30 35 1 29 24
M  V30 36 1 3 32
M  V30 37 1 5 33
M  V30 38 1 6 34
M  V30 39 1 7 35
M  V30 40 1 13 36
M  V30 41 1 15 37
M  V30 42 1 15 38
M  V30 43 1 16 39
M  V30 44 1 16 40
M  V30 45 1 17 41
M  V30 46 1 17 42
M  V30 47 1 18 43
M  V30 48 1 18 44
M  V30 49 1 21 45
M  V30 50 1 22 46
M  V30 51 1 25 47
M  V30 52 1 25 48
M  V30 53 1 26 49
M  V30 54 1 26 50
M  V30 55 1 28 51
M  V30 56 1 28 52
M  V30 57 1 29 53
M  V30 58 1 29 54
M  V30 59 1 30 55
M  V30 END BOND
M  V30 END CTAB
M  END
>  <Dataset>  (520) 
ChEMBL_Kinases

>  <Ligand_Instance>  (520) 
nan

>  <PDB_ID>  (520) 
nan

>  <Standardized_SMILES>  (520) 
O=C1Nc2cccc(n2)-c2nncn2CCCCOc2ccc(N3CCOCC3)cc21

>  <Name>  (520) 
nan

>  <Pocket>  (520) 
nan

>  <ATP_Site>  (520) 
nan

>  <Peripheral>  (520) 
nan

>  <Num_H_Atoms_ProtBoundConf>  (520) 
nan

>  <Num_Resolved_Atoms>  (520) 
nan

>  <Num_Not_Resolved_Atoms>  (520) 
nan

$$$$
CHEMBL455125
     RDKit          3D

  0  0  0  0  0  0  0  0  0  0999 V3000
M  V30 BEGIN CTAB
M  V30 COUNTS 46 47 0 0 0
M  V30 BEGIN ATOM
M  V30 1 C 2.572195 -4.764821 4.494569 0
M  V30 2 C 2.491438 -4.723767 2.981918 0
M  V30 3 C 1.077413 -5.112009 2.595329 0
M  V30 4 C 2.817021 -3.343979 2.500710 0
M  V30 5 O 3.052250 -2.526039 3.409882 0
M  V30 6 O 2.798491 -3.226404 1.147675 0
M  V30 7 C 3.033745 -2.081707 0.422858 0
M  V30 8 C 2.007758 -1.043958 0.372537 0
M  V30 9 C 1.716564 -0.214379 1.551610 0
M  V30 10 O 0.957126 -0.771104 2.549651 0
M  V30 11 C 2.424977 0.007972 -0.742797 0
M  V30 12 C 1.093480 0.663342 -0.882769 0
M  V30 13 C 0.598842 1.910679 -0.977116 0
M  V30 14 C -0.828462 2.171552 -1.103363 0
M  V30 15 C -1.429672 2.994489 -2.010241 0
M  V30 16 C -2.792845 3.194509 -2.021701 0
M  V30 17 C -3.608957 2.563588 -1.106445 0
M  V30 18 O -4.963657 2.622571 -0.948196 0
M  V30 19 C -5.669972 3.528029 -0.152743 0
M  V30 20 F -7.016458 3.253054 -0.270512 0
M  V30 21 F -5.501032 4.845097 -0.568038 0
M  V30 22 F -5.350892 3.480672 1.170653 0
M  V30 23 C -3.013937 1.714102 -0.164924 0
M  V30 24 C -1.627202 1.513937 -0.157344 0
M  V30 25 C 0.240156 -0.544966 -0.963682 0
M  V30 26 O -0.865956 -0.670084 -1.606450 0
M  V30 27 O 0.808030 -1.571561 -0.228202 0
M  V30 28 H 3.311900 -5.519743 4.839053 0
M  V30 29 H 2.896854 -3.772701 4.865768 0
M  V30 30 H 1.599469 -5.009024 4.968909 0
M  V30 31 H 3.183902 -5.489537 2.593742 0
M  V30 32 H 0.549925 -5.585165 3.457674 0
M  V30 33 H 1.033200 -5.839603 1.762058 0
M  V30 34 H 0.448208 -4.238695 2.314811 0
M  V30 35 H 3.310447 -2.369317 -0.646471 0
M  V30 36 H 3.986139 -1.600035 0.837592 0
M  V30 37 H 1.275835 0.767239 1.210521 0
M  V30 38 H 2.706114 0.080879 2.008250 0
M  V30 39 H 1.075511 -0.346865 3.425488 0
M  V30 40 H 3.183038 0.630718 -0.265759 0
M  V30 41 H 2.732137 -0.583555 -1.601764 0
M  V30 42 H 1.431373 2.629087 -0.941350 0
M  V30 43 H -0.795262 3.490634 -2.729885 0
M  V30 44 H -3.305582 3.829334 -2.712783 0
M  V30 45 H -3.562696 1.157952 0.613647 0
M  V30 46 H -1.192658 0.853111 0.595532 0
M  V30 END ATOM
M  V30 BEGIN BOND
M  V30 1 1 1 2
M  V30 2 1 2 3
M  V30 3 1 2 4
M  V30 4 2 4 5
M  V30 5 1 4 6
M  V30 6 1 6 7
M  V30 7 1 7 8
M  V30 8 1 8 9
M  V30 9 1 9 10
M  V30 10 1 8 11
M  V30 11 1 11 12
M  V30 12 2 12 13
M  V30 13 1 13 14
M  V30 14 2 14 15
M  V30 15 1 15 16
M  V30 16 2 16 17
M  V30 17 1 17 18
M  V30 18 1 18 19
M  V30 19 1 19 20
M  V30 20 1 19 21
M  V30 21 1 19 22
M  V30 22 1 17 23
M  V30 23 2 23 24
M  V30 24 1 12 25
M  V30 25 2 25 26
M  V30 26 1 25 27
M  V30 27 1 27 8
M  V30 28 1 24 14
M  V30 29 1 1 28
M  V30 30 1 1 29
M  V30 31 1 1 30
M  V30 32 1 2 31
M  V30 33 1 3 32
M  V30 34 1 3 33
M  V30 35 1 3 34
M  V30 36 1 7 35
M  V30 37 1 7 36
M  V30 38 1 9 37
M  V30 39 1 9 38
M  V30 40 1 10 39
M  V30 41 1 11 40
M  V30 42 1 11 41
M  V30 43 1 13 42
M  V30 44 1 15 43
M  V30 45 1 16 44
M  V30 46 1 23 45
M  V30 47 1 24 46
M  V30 END BOND
M  V30 END CTAB
M  END
>  <Dataset>  (521) 
ChEMBL_Kinases

>  <Ligand_Instance>  (521) 
nan

>  <PDB_ID>  (521) 
nan

>  <Standardized_SMILES>  (521) 
CC(C)C(=O)OCC1(CO)C/C(=C/c2ccc(OC(F)(F)F)cc2)C(=O)O1

>  <Name>  (521) 
nan

>  <Pocket>  (521) 
nan

>  <ATP_Site>  (521) 
nan

>  <Peripheral>  (521) 
nan

>  <Num_H_Atoms_ProtBoundConf>  (521) 
nan

>  <Num_Resolved_Atoms>  (521) 
nan

>  <Num_Not_Resolved_Atoms>  (521) 
nan

$$$$
CHEMBL4547989
     RDKit          3D

  0  0  0  0  0  0  0  0  0  0999 V3000
M  V30 BEGIN CTAB
M  V30 COUNTS 33 36 0 0 0
M  V30 BEGIN ATOM
M  V30 1 C -2.685291 -1.237249 0.625253 0
M  V30 2 C -1.668416 -2.329746 0.889777 0
M  V30 3 N -0.558480 -1.918915 1.728872 0
M  V30 4 C 0.274311 -0.852025 1.290173 0
M  V30 5 N -0.030435 -0.296923 0.119252 0
M  V30 6 C 0.689840 0.733960 -0.412503 0
M  V30 7 C 0.329631 1.322461 -1.701336 0
M  V30 8 C -0.756785 2.137444 -2.014750 0
M  V30 9 N -0.716242 2.464884 -3.335260 0
M  V30 10 C 0.393277 1.843353 -3.799877 0
M  V30 11 O 0.974775 1.190813 -2.826792 0
M  V30 12 N 1.748422 1.191009 0.295911 0
M  V30 13 C 2.087580 0.646395 1.496020 0
M  V30 14 C 3.172379 1.122280 2.211413 0
M  V30 15 N 3.474602 0.553809 3.397952 0
M  V30 16 C 2.755354 -0.462480 3.910456 0
M  V30 17 C 1.666327 -0.958866 3.218530 0
M  V30 18 C 1.350617 -0.395694 2.022233 0
M  V30 19 C -2.087188 -3.750594 0.832112 0
M  V30 20 C -1.352832 -3.157835 -0.343988 0
M  V30 21 H -2.275312 -0.248172 0.914020 0
M  V30 22 H -3.575363 -1.497139 1.248724 0
M  V30 23 H -2.974441 -1.175693 -0.439178 0
M  V30 24 H -0.515710 -2.491196 2.589534 0
M  V30 25 H -1.511299 2.451111 -1.293044 0
M  V30 26 H 0.865764 1.790748 -4.787220 0
M  V30 27 H 3.739793 1.947614 1.773883 0
M  V30 28 H 3.020908 -0.887027 4.847481 0
M  V30 29 H 1.081844 -1.768442 3.612075 0
M  V30 30 H -1.551221 -4.460825 1.483739 0
M  V30 31 H -3.180661 -3.960191 0.681520 0
M  V30 32 H -0.339685 -3.547715 -0.515614 0
M  V30 33 H -1.905082 -2.981226 -1.284258 0
M  V30 END ATOM
M  V30 BEGIN BOND
M  V30 1 1 1 2
M  V30 2 1 2 3
M  V30 3 1 3 4
M  V30 4 2 4 5
M  V30 5 1 5 6
M  V30 6 1 6 7
M  V30 7 2 7 8
M  V30 8 1 8 9
M  V30 9 2 9 10
M  V30 10 1 10 11
M  V30 11 2 6 12
M  V30 12 1 12 13
M  V30 13 2 13 14
M  V30 14 1 14 15
M  V30 15 2 15 16
M  V30 16 1 16 17
M  V30 17 2 17 18
M  V30 18 1 2 19
M  V30 19 1 19 20
M  V30 20 1 20 2
M  V30 21 1 18 4
M  V30 22 1 11 7
M  V30 23 1 18 13
M  V30 24 1 1 21
M  V30 25 1 1 22
M  V30 26 1 1 23
M  V30 27 1 3 24
M  V30 28 1 8 25
M  V30 29 1 10 26
M  V30 30 1 14 27
M  V30 31 1 16 28
M  V30 32 1 17 29
M  V30 33 1 19 30
M  V30 34 1 19 31
M  V30 35 1 20 32
M  V30 36 1 20 33
M  V30 END BOND
M  V30 END CTAB
M  END
>  <Dataset>  (522) 
ChEMBL_Kinases

>  <Ligand_Instance>  (522) 
nan

>  <PDB_ID>  (522) 
nan

>  <Standardized_SMILES>  (522) 
CC1(Nc2nc(-c3cnco3)nc3cnccc23)CC1

>  <Name>  (522) 
nan

>  <Pocket>  (522) 
nan

>  <ATP_Site>  (522) 
nan

>  <Peripheral>  (522) 
nan

>  <Num_H_Atoms_ProtBoundConf>  (522) 
nan

>  <Num_Resolved_Atoms>  (522) 
nan

>  <Num_Not_Resolved_Atoms>  (522) 
nan

$$$$
CHEMBL4547932
     RDKit          3D

  0  0  0  0  0  0  0  0  0  0999 V3000
M  V30 BEGIN CTAB
M  V30 COUNTS 39 42 0 0 0
M  V30 BEGIN ATOM
M  V30 1 C 0.885743 -3.857920 3.741639 0
M  V30 2 C 1.701549 -3.239795 2.647954 0
M  V30 3 N 2.961059 -3.645280 2.339867 0
M  V30 4 C 3.661486 -3.060386 1.345810 0
M  V30 5 C 3.102028 -2.027634 0.617034 0
M  V30 6 C 1.822564 -1.633292 0.947840 0
M  V30 7 C 1.291377 -0.600522 0.202874 0
M  V30 8 N 1.929909 0.093378 -0.864839 0
M  V30 9 C 1.354433 1.186196 -1.648107 0
M  V30 10 C 0.111789 0.806155 -2.385330 0
M  V30 11 C 2.109100 2.413516 -1.954239 0
M  V30 12 C 1.205353 2.457648 -0.786590 0
M  V30 13 N 0.043691 -0.206068 0.515387 0
M  V30 14 C -0.699457 -0.752351 1.494660 0
M  V30 15 C -2.048187 -0.271828 1.777533 0
M  V30 16 C -2.764835 -0.869693 2.794142 0
M  V30 17 C -4.057118 -0.408505 3.064420 0
M  V30 18 N -4.566794 0.602157 2.329525 0
M  V30 19 C -3.841521 1.172058 1.336376 0
M  V30 20 C -2.562284 0.762065 1.021575 0
M  V30 21 N -0.150467 -1.752657 2.196495 0
M  V30 22 C 1.094779 -2.213868 1.953149 0
M  V30 23 H 0.058795 -4.445455 3.256028 0
M  V30 24 H 0.468386 -3.025341 4.363416 0
M  V30 25 H 1.448881 -4.540451 4.380667 0
M  V30 26 H 4.661064 -3.455723 1.175963 0
M  V30 27 H 3.657196 -1.571327 -0.163470 0
M  V30 28 H 2.864213 -0.048558 -1.251978 0
M  V30 29 H -0.415461 0.023679 -1.803457 0
M  V30 30 H -0.611480 1.634728 -2.529203 0
M  V30 31 H 0.312871 0.351324 -3.378760 0
M  V30 32 H 1.762536 2.958017 -2.858176 0
M  V30 33 H 3.198394 2.423934 -1.833874 0
M  V30 34 H 0.236116 2.980432 -0.814330 0
M  V30 35 H 1.696954 2.515566 0.185057 0
M  V30 36 H -2.318428 -1.690550 3.372474 0
M  V30 37 H -4.576598 -0.911919 3.872444 0
M  V30 38 H -4.389773 1.954544 0.855210 0
M  V30 39 H -2.050899 1.252922 0.230926 0
M  V30 END ATOM
M  V30 BEGIN BOND
M  V30 1 1 1 2
M  V30 2 2 2 3
M  V30 3 1 3 4
M  V30 4 2 4 5
M  V30 5 1 5 6
M  V30 6 2 6 7
M  V30 7 1 7 8
M  V30 8 1 8 9
M  V30 9 1 9 10
M  V30 10 1 9 11
M  V30 11 1 11 12
M  V30 12 1 7 13
M  V30 13 2 13 14
M  V30 14 1 14 15
M  V30 15 2 15 16
M  V30 16 1 16 17
M  V30 17 2 17 18
M  V30 18 1 18 19
M  V30 19 2 19 20
M  V30 20 1 14 21
M  V30 21 2 21 22
M  V30 22 1 22 2
M  V30 23 1 22 6
M  V30 24 1 12 9
M  V30 25 1 20 15
M  V30 26 1 1 23
M  V30 27 1 1 24
M  V30 28 1 1 25
M  V30 29 1 4 26
M  V30 30 1 5 27
M  V30 31 1 8 28
M  V30 32 1 10 29
M  V30 33 1 10 30
M  V30 34 1 10 31
M  V30 35 1 11 32
M  V30 36 1 11 33
M  V30 37 1 12 34
M  V30 38 1 12 35
M  V30 39 1 16 36
M  V30 40 1 17 37
M  V30 41 1 19 38
M  V30 42 1 20 39
M  V30 END BOND
M  V30 END CTAB
M  END
>  <Dataset>  (523) 
ChEMBL_Kinases

>  <Ligand_Instance>  (523) 
nan

>  <PDB_ID>  (523) 
nan

>  <Standardized_SMILES>  (523) 
Cc1nccc2c(NC3(C)CC3)nc(-c3ccncc3)nc12

>  <Name>  (523) 
nan

>  <Pocket>  (523) 
nan

>  <ATP_Site>  (523) 
nan

>  <Peripheral>  (523) 
nan

>  <Num_H_Atoms_ProtBoundConf>  (523) 
nan

>  <Num_Resolved_Atoms>  (523) 
nan

>  <Num_Not_Resolved_Atoms>  (523) 
nan

$$$$
CHEMBL4547786
     RDKit          3D

  0  0  0  0  0  0  0  0  0  0999 V3000
M  V30 BEGIN CTAB
M  V30 COUNTS 41 44 0 0 0
M  V30 BEGIN ATOM
M  V30 1 C 5.337148 -5.970672 2.484274 0
M  V30 2 N 4.556938 -5.391298 1.406771 0
M  V30 3 C 4.421466 -5.874457 0.159726 0
M  V30 4 N 3.620828 -5.057507 -0.542162 0
M  V30 5 C 3.246451 -4.053321 0.259352 0
M  V30 6 C 2.368822 -2.923831 -0.085183 0
M  V30 7 C 2.009463 -1.900708 0.791722 0
M  V30 8 N 1.195945 -0.913738 0.363411 0
M  V30 9 C 0.705509 -0.866170 -0.888803 0
M  V30 10 C -0.138455 0.040478 -1.545993 0
M  V30 11 C -0.726704 1.261832 -0.933341 0
M  V30 12 C -0.655505 2.375884 -1.706856 0
M  V30 13 S -1.494225 3.644665 -0.571934 0
M  V30 14 C -1.775835 2.486352 0.687261 0
M  V30 15 C -2.460151 2.784555 2.021649 0
M  V30 16 O -2.605784 1.858689 2.854014 0
M  V30 17 N -2.909595 4.081637 2.287619 0
M  V30 18 C -3.568997 4.574272 3.449856 0
M  V30 19 C -4.885549 3.882243 3.684404 0
M  V30 20 F -5.745676 4.065988 2.596351 0
M  V30 21 F -5.563779 4.432122 4.763745 0
M  V30 22 F -4.792045 2.539216 3.936327 0
M  V30 23 C -1.309224 1.324906 0.308375 0
M  V30 24 C -0.269129 -0.466864 -2.823842 0
M  V30 25 N 0.452585 -1.599943 -2.911438 0
M  V30 26 N 1.044998 -1.848856 -1.746526 0
M  V30 27 C 1.854602 -2.855186 -1.364048 0
M  V30 28 C 3.835446 -4.261750 1.488498 0
M  V30 29 H 6.283029 -5.429589 2.621777 0
M  V30 30 H 5.588595 -7.009189 2.216151 0
M  V30 31 H 4.741064 -5.980346 3.436964 0
M  V30 32 H 4.895006 -6.786186 -0.203238 0
M  V30 33 H 2.416594 -1.960175 1.794960 0
M  V30 34 H -0.272290 2.602689 -2.672418 0
M  V30 35 H -2.724602 4.776132 1.505063 0
M  V30 36 H -2.976905 4.413144 4.387064 0
M  V30 37 H -3.724123 5.667519 3.386849 0
M  V30 38 H -1.370394 0.432275 0.937205 0
M  V30 39 H -0.886445 0.070685 -3.532631 0
M  V30 40 H 2.087074 -3.612714 -2.105005 0
M  V30 41 H 3.746683 -3.648832 2.359114 0
M  V30 END ATOM
M  V30 BEGIN BOND
M  V30 1 1 1 2
M  V30 2 1 2 3
M  V30 3 2 3 4
M  V30 4 1 4 5
M  V30 5 1 5 6
M  V30 6 1 6 7
M  V30 7 2 7 8
M  V30 8 1 8 9
M  V30 9 2 9 10
M  V30 10 1 10 11
M  V30 11 2 11 12
M  V30 12 1 12 13
M  V30 13 1 13 14
M  V30 14 1 14 15
M  V30 15 2 15 16
M  V30 16 1 15 17
M  V30 17 1 17 18
M  V30 18 1 18 19
M  V30 19 1 19 20
M  V30 20 1 19 21
M  V30 21 1 19 22
M  V30 22 2 14 23
M  V30 23 1 10 24
M  V30 24 2 24 25
M  V30 25 1 25 26
M  V30 26 1 26 27
M  V30 27 2 5 28
M  V30 28 1 28 2
M  V30 29 2 27 6
M  V30 30 1 26 9
M  V30 31 1 23 11
M  V30 32 1 1 29
M  V30 33 1 1 30
M  V30 34 1 1 31
M  V30 35 1 3 32
M  V30 36 1 7 33
M  V30 37 1 12 34
M  V30 38 1 17 35
M  V30 39 1 18 36
M  V30 40 1 18 37
M  V30 41 1 23 38
M  V30 42 1 24 39
M  V30 43 1 27 40
M  V30 44 1 28 41
M  V30 END BOND
M  V30 END CTAB
M  END
>  <Dataset>  (524) 
ChEMBL_Kinases

>  <Ligand_Instance>  (524) 
nan

>  <PDB_ID>  (524) 
nan

>  <Standardized_SMILES>  (524) 
Cn1cnc(-c2cnc3c(-c4csc(C(=O)NCC(F)(F)F)c4)cnn3c2)c1

>  <Name>  (524) 
nan

>  <Pocket>  (524) 
nan

>  <ATP_Site>  (524) 
nan

>  <Peripheral>  (524) 
nan

>  <Num_H_Atoms_ProtBoundConf>  (524) 
nan

>  <Num_Resolved_Atoms>  (524) 
nan

>  <Num_Not_Resolved_Atoms>  (524) 
nan

$$$$
CHEMBL4639597
     RDKit          3D

  0  0  0  0  0  0  0  0  0  0999 V3000
M  V30 BEGIN CTAB
M  V30 COUNTS 49 51 0 0 0
M  V30 BEGIN ATOM
M  V30 1 N -0.475226 -2.133675 4.458171 0
M  V30 2 C -0.204844 -2.169525 3.080079 0
M  V30 3 O -0.757794 -3.270228 3.173541 0
M  V30 4 C 0.467587 -1.045735 2.450223 0
M  V30 5 C 0.949011 -0.029670 3.243468 0
M  V30 6 N 1.612587 0.909127 2.554772 0
M  V30 7 C 1.771621 0.833073 1.232614 0
M  V30 8 N 2.458780 1.852513 0.502376 0
M  V30 9 C 3.051542 1.682250 -0.817008 0
M  V30 10 C 2.376140 2.541017 -1.865638 0
M  V30 11 C 2.290678 3.995110 -1.449802 0
M  V30 12 C 1.763274 4.059300 -0.033697 0 CFG=2
M  V30 13 N 1.640422 5.430158 0.408238 0
M  V30 14 C 2.670115 3.252931 0.909391 0
M  V30 15 N 1.280163 -0.180712 0.505253 0
M  V30 16 C 0.586738 -1.187407 1.110696 0
M  V30 17 N 0.032936 -2.160431 0.297543 0
M  V30 18 C -0.976594 -3.142409 0.269744 0
M  V30 19 C -2.251778 -2.617163 0.535370 0
M  V30 20 C -3.394910 -3.381516 0.579659 0
M  V30 21 C -4.734993 -2.799331 0.870318 0
M  V30 22 F -5.436271 -3.582075 1.769192 0
M  V30 23 F -5.436395 -2.763036 -0.315786 0
M  V30 24 F -4.630783 -1.504597 1.333068 0
M  V30 25 C -3.307143 -4.741766 0.353570 0
M  V30 26 C -2.050533 -5.248093 0.092676 0
M  V30 27 C -1.849536 -6.700954 -0.166400 0
M  V30 28 F -0.780337 -7.085609 0.622468 0
M  V30 29 F -2.969900 -7.448031 0.081064 0
M  V30 30 F -1.453523 -6.820813 -1.485136 0
M  V30 31 C -0.897769 -4.495844 0.044926 0
M  V30 32 H 0.128865 -1.942199 5.281839 0
M  V30 33 H -0.830064 -2.145201 5.406233 0
M  V30 34 H 0.759843 -0.076122 4.300040 0
M  V30 35 H 2.944561 0.617542 -1.132572 0
M  V30 36 H 4.111892 1.977586 -0.745098 0
M  V30 37 H 1.362603 2.198070 -2.104887 0
M  V30 38 H 2.990417 2.421644 -2.795936 0
M  V30 39 H 1.470216 4.437628 -2.085545 0
M  V30 40 H 3.226776 4.554794 -1.575889 0
M  V30 41 H 0.770313 3.549416 -0.058749 0
M  V30 42 H 0.788294 5.860329 -0.008477 0
M  V30 43 H 1.677108 5.478594 1.438180 0
M  V30 44 H 3.687160 3.597937 0.742817 0
M  V30 45 H 2.272390 3.386986 1.937437 0
M  V30 46 H 0.417320 -2.312695 -0.654555 0
M  V30 47 H -2.438300 -1.560501 0.726108 0
M  V30 48 H -4.187440 -5.362713 0.384100 0
M  V30 49 H 0.097681 -4.835404 -0.154403 0
M  V30 END ATOM
M  V30 BEGIN BOND
M  V30 1 1 1 2
M  V30 2 2 2 3
M  V30 3 1 2 4
M  V30 4 2 4 5
M  V30 5 1 5 6
M  V30 6 2 6 7
M  V30 7 1 7 8
M  V30 8 1 8 9
M  V30 9 1 9 10
M  V30 10 1 10 11
M  V30 11 1 11 12
M  V30 12 1 12 13
M  V30 13 1 12 14
M  V30 14 1 7 15
M  V30 15 2 15 16
M  V30 16 1 16 17
M  V30 17 1 17 18
M  V30 18 2 18 19
M  V30 19 1 19 20
M  V30 20 1 20 21
M  V30 21 1 21 22
M  V30 22 1 21 23
M  V30 23 1 21 24
M  V30 24 2 20 25
M  V30 25 1 25 26
M  V30 26 1 26 27
M  V30 27 1 27 28
M  V30 28 1 27 29
M  V30 29 1 27 30
M  V30 30 2 26 31
M  V30 31 1 16 4
M  V30 32 1 31 18
M  V30 33 1 14 8
M  V30 34 1 1 32
M  V30 35 1 1 33
M  V30 36 1 5 34
M  V30 37 1 9 35
M  V30 38 1 9 36
M  V30 39 1 10 37
M  V30 40 1 10 38
M  V30 41 1 11 39
M  V30 42 1 11 40
M  V30 43 1 12 41 CFG=3
M  V30 44 1 13 42
M  V30 45 1 13 43
M  V30 46 1 14 44
M  V30 47 1 14 45
M  V30 48 1 17 46
M  V30 49 1 19 47
M  V30 50 1 25 48
M  V30 51 1 31 49
M  V30 END BOND
M  V30 END CTAB
M  END
>  <Dataset>  (525) 
ChEMBL_Kinases

>  <Ligand_Instance>  (525) 
nan

>  <PDB_ID>  (525) 
nan

>  <Standardized_SMILES>  (525) 
NC(=O)c1cnc(N2CCC[C@H](N)C2)nc1Nc1cc(C(F)(F)F)cc(C(F)(F)F)c1

>  <Name>  (525) 
nan

>  <Pocket>  (525) 
nan

>  <ATP_Site>  (525) 
nan

>  <Peripheral>  (525) 
nan

>  <Num_H_Atoms_ProtBoundConf>  (525) 
nan

>  <Num_Resolved_Atoms>  (525) 
nan

>  <Num_Not_Resolved_Atoms>  (525) 
nan

$$$$
CHEMBL4547658
     RDKit          3D

  0  0  0  0  0  0  0  0  0  0999 V3000
M  V30 BEGIN CTAB
M  V30 COUNTS 63 66 0 0 0
M  V30 BEGIN ATOM
M  V30 1 C 4.273941 0.312831 6.294749 0
M  V30 2 O 2.951882 -0.037259 6.160169 0
M  V30 3 C 2.314904 0.427996 5.032209 0
M  V30 4 C 2.350303 1.910777 4.989965 0
M  V30 5 N 1.713606 2.500657 3.841365 0
M  V30 6 C 2.420566 2.267965 2.622795 0
M  V30 7 C 1.733027 1.411159 1.637057 0
M  V30 8 C 0.316573 1.979101 1.429843 0
M  V30 9 C -0.258823 1.140529 0.304590 0
M  V30 10 C -0.443918 2.021666 -0.783750 0
M  V30 11 C -0.936940 1.362891 -1.949154 0
M  V30 12 C -1.118061 0.063006 -1.759643 0
M  V30 13 O -1.607086 -0.820370 -2.803264 0
M  V30 14 C -1.906255 -0.291849 -4.062323 0
M  V30 15 C -2.405257 -1.399537 -4.974307 0
M  V30 16 C -1.669217 -2.223266 -5.858792 0
M  V30 17 C -2.419988 -3.135689 -6.560681 0
M  V30 18 C -3.767435 -3.293394 -6.464955 0
M  V30 19 C -4.487763 -2.475667 -5.589094 0
M  V30 20 C -3.751441 -1.532702 -4.857426 0
M  V30 21 C -1.085554 -1.015461 -1.032881 0
M  V30 22 C -1.047276 -2.162854 -0.205295 0
M  V30 23 O -1.066462 -2.650183 -1.391303 0
M  V30 24 N -1.008492 -2.891019 0.954738 0
M  V30 25 C -0.990408 -4.280540 0.948059 0
M  V30 26 C -0.889750 -5.285946 0.026739 0
M  V30 27 C -0.951928 -6.610906 0.426761 0
M  V30 28 N -1.106258 -6.931737 1.706327 0
M  V30 29 N -1.208111 -6.006625 2.632295 0
M  V30 30 C -1.154291 -4.687550 2.283209 0
M  V30 31 C -0.559782 -0.232557 0.165783 0
M  V30 32 C -0.397999 1.754094 2.742796 0
M  V30 33 C 0.322452 2.539890 3.802467 0
M  V30 34 H 4.451884 1.400253 6.366277 0
M  V30 35 H 4.619734 -0.099593 7.275542 0
M  V30 36 H 4.926637 -0.169541 5.538712 0
M  V30 37 H 1.319158 -0.027574 4.978614 0
M  V30 38 H 2.850606 0.070810 4.113894 0
M  V30 39 H 2.043723 2.412649 5.918944 0
M  V30 40 H 3.444758 2.191578 4.860891 0
M  V30 41 H 3.403107 1.809166 2.922487 0
M  V30 42 H 2.683628 3.256376 2.166886 0
M  V30 43 H 2.273325 1.343817 0.668865 0
M  V30 44 H 1.552791 0.398299 2.096109 0
M  V30 45 H 0.321159 3.001329 1.077112 0
M  V30 46 H -0.335551 3.046666 -1.030113 0
M  V30 47 H -1.207239 1.654766 -2.969888 0
M  V30 48 H -0.976226 0.107035 -4.581963 0
M  V30 49 H -2.582853 0.559337 -4.032826 0
M  V30 50 H -0.626805 -1.962406 -5.799088 0
M  V30 51 H -1.733066 -3.705222 -7.211743 0
M  V30 52 H -4.111516 -4.085664 -7.134318 0
M  V30 53 H -5.547377 -2.701254 -5.606341 0
M  V30 54 H -4.438926 -0.968389 -4.209047 0
M  V30 55 H -1.010716 -2.161118 1.673659 0
M  V30 56 H -0.776270 -4.874022 -0.966341 0
M  V30 57 H -0.870719 -7.341447 -0.367215 0
M  V30 58 H -1.272096 -4.097666 3.204743 0
M  V30 59 H -0.239685 -0.424569 1.251062 0
M  V30 60 H -1.454960 2.137236 2.718911 0
M  V30 61 H -0.411585 0.662643 2.926827 0
M  V30 62 H -0.125669 2.279645 4.805701 0
M  V30 63 H 0.016526 3.626842 3.654894 0
M  V30 END ATOM
M  V30 BEGIN BOND
M  V30 1 1 1 2
M  V30 2 1 2 3
M  V30 3 1 3 4
M  V30 4 1 4 5
M  V30 5 1 5 6
M  V30 6 1 6 7
M  V30 7 1 7 8
M  V30 8 1 8 9
M  V30 9 2 9 10
M  V30 10 1 10 11
M  V30 11 2 11 12
M  V30 12 1 12 13
M  V30 13 1 13 14
M  V30 14 1 14 15
M  V30 15 2 15 16
M  V30 16 1 16 17
M  V30 17 2 17 18
M  V30 18 1 18 19
M  V30 19 2 19 20
M  V30 20 1 12 21
M  V30 21 1 21 22
M  V30 22 2 22 23
M  V30 23 1 22 24
M  V30 24 1 24 25
M  V30 25 2 25 26
M  V30 26 1 26 27
M  V30 27 2 27 28
M  V30 28 1 28 29
M  V30 29 2 29 30
M  V30 30 2 21 31
M  V30 31 1 8 32
M  V30 32 1 32 33
M  V30 33 1 33 5
M  V30 34 1 31 9
M  V30 35 1 20 15
M  V30 36 1 30 25
M  V30 37 1 1 34
M  V30 38 1 1 35
M  V30 39 1 1 36
M  V30 40 1 3 37
M  V30 41 1 3 38
M  V30 42 1 4 39
M  V30 43 1 4 40
M  V30 44 1 6 41
M  V30 45 1 6 42
M  V30 46 1 7 43
M  V30 47 1 7 44
M  V30 48 1 8 45
M  V30 49 1 10 46
M  V30 50 1 11 47
M  V30 51 1 14 48
M  V30 52 1 14 49
M  V30 53 1 16 50
M  V30 54 1 17 51
M  V30 55 1 18 52
M  V30 56 1 19 53
M  V30 57 1 20 54
M  V30 58 1 24 55
M  V30 59 1 26 56
M  V30 60 1 27 57
M  V30 61 1 30 58
M  V30 62 1 31 59
M  V30 63 1 32 60
M  V30 64 1 32 61
M  V30 65 1 33 62
M  V30 66 1 33 63
M  V30 END BOND
M  V30 END CTAB
M  END
>  <Dataset>  (526) 
ChEMBL_Kinases

>  <Ligand_Instance>  (526) 
nan

>  <PDB_ID>  (526) 
nan

>  <Standardized_SMILES>  (526) 
COCCN1CCC(c2ccc(OCc3ccccc3)c(C(=O)Nc3ccnnc3)c2)CC1

>  <Name>  (526) 
nan

>  <Pocket>  (526) 
nan

>  <ATP_Site>  (526) 
nan

>  <Peripheral>  (526) 
nan

>  <Num_H_Atoms_ProtBoundConf>  (526) 
nan

>  <Num_Resolved_Atoms>  (526) 
nan

>  <Num_Not_Resolved_Atoms>  (526) 
nan

$$$$
CHEMBL4639700
     RDKit          3D

  0  0  0  0  0  0  0  0  0  0999 V3000
M  V30 BEGIN CTAB
M  V30 COUNTS 63 66 0 0 0
M  V30 BEGIN ATOM
M  V30 1 C 2.394726 -0.453411 5.643266 0
M  V30 2 O 2.323430 -1.865640 5.758568 0
M  V30 3 C 2.201991 -2.662540 4.635974 0
M  V30 4 C 2.152677 -2.040784 3.407130 0
M  V30 5 C 2.031899 -2.788086 2.254295 0
M  V30 6 C 1.954263 -2.350671 0.863871 0
M  V30 7 C 2.763468 -2.988816 -0.083522 0
M  V30 8 N 2.696879 -2.584290 -1.382092 0
M  V30 9 C 1.866325 -1.588127 -1.744182 0
M  V30 10 C 1.050765 -0.940673 -0.806351 0
M  V30 11 C 0.236029 0.102966 -1.421566 0
M  V30 12 C 0.077164 1.382350 -0.926319 0
M  V30 13 C -0.729390 2.270239 -1.607744 0
M  V30 14 C -1.416214 2.003120 -2.771265 0
M  V30 15 N -2.236294 2.926291 -3.451997 0
M  V30 16 C -2.385628 4.283195 -2.963220 0
M  V30 17 C -3.757857 4.471626 -2.360155 0
M  V30 18 C -4.401561 3.128646 -2.215335 0
M  V30 19 N -4.987223 2.710840 -3.474061 0
M  V30 20 C -4.150079 1.704949 -4.117698 0
M  V30 21 C -2.897166 2.422958 -4.629250 0
M  V30 22 C -1.242347 0.722095 -3.245575 0
M  V30 23 C -0.445566 -0.205249 -2.601082 0
M  V30 24 C 1.106235 -1.334178 0.496910 0
M  V30 25 C 0.229640 -0.626350 1.419218 0
M  V30 26 C 1.962721 -4.159475 2.363273 0
M  V30 27 C 2.010176 -4.802579 3.582662 0
M  V30 28 O 1.953506 -6.158408 3.865808 0
M  V30 29 C 1.831270 -7.194801 2.946715 0
M  V30 30 C 2.132519 -4.040115 4.746834 0
M  V30 31 O 2.191898 -4.554402 6.035762 0
M  V30 32 C 1.066033 -4.780789 6.843922 0
M  V30 33 H 1.467548 -0.107203 5.103578 0
M  V30 34 H 2.364090 0.041301 6.626548 0
M  V30 35 H 3.257459 -0.109451 5.047521 0
M  V30 36 H 2.202260 -0.977281 3.224263 0
M  V30 37 H 3.434983 -3.796184 0.217850 0
M  V30 38 H 1.901784 -1.352415 -2.815661 0
M  V30 39 H 0.598710 1.636872 -0.017058 0
M  V30 40 H -0.785673 3.235765 -1.135589 0
M  V30 41 H -1.593536 4.629402 -2.300040 0
M  V30 42 H -2.317056 4.952242 -3.875021 0
M  V30 43 H -3.709544 5.036687 -1.404868 0
M  V30 44 H -4.400096 5.090819 -3.031719 0
M  V30 45 H -3.675152 2.364180 -1.871791 0
M  V30 46 H -5.219386 3.139744 -1.454619 0
M  V30 47 H -5.962782 2.390721 -3.405358 0
M  V30 48 H -3.864749 0.968358 -3.339662 0
M  V30 49 H -4.670415 1.172489 -4.914211 0
M  V30 50 H -2.292178 1.833274 -5.306972 0
M  V30 51 H -3.283741 3.288725 -5.244022 0
M  V30 52 H -1.698145 0.340936 -4.131504 0
M  V30 53 H -0.314654 -1.224990 -2.989858 0
M  V30 54 H 0.637988 0.253405 1.920199 0
M  V30 55 H -0.792158 -0.414558 1.002010 0
M  V30 56 H -0.005606 -1.355052 2.250431 0
M  V30 57 H 1.867791 -4.860035 1.545520 0
M  V30 58 H 2.794245 -7.751369 2.796877 0
M  V30 59 H 1.466387 -6.800275 1.994482 0
M  V30 60 H 1.090089 -7.972008 3.266303 0
M  V30 61 H 1.191033 -5.758242 7.361614 0
M  V30 62 H 0.935830 -3.970870 7.592957 0
M  V30 63 H 0.134917 -4.867448 6.245294 0
M  V30 END ATOM
M  V30 BEGIN BOND
M  V30 1 1 1 2
M  V30 2 1 2 3
M  V30 3 2 3 4
M  V30 4 1 4 5
M  V30 5 1 5 6
M  V30 6 2 6 7
M  V30 7 1 7 8
M  V30 8 2 8 9
M  V30 9 1 9 10
M  V30 10 1 10 11
M  V30 11 2 11 12
M  V30 12 1 12 13
M  V30 13 2 13 14
M  V30 14 1 14 15
M  V30 15 1 15 16
M  V30 16 1 16 17
M  V30 17 1 17 18
M  V30 18 1 18 19
M  V30 19 1 19 20
M  V30 20 1 20 21
M  V30 21 1 14 22
M  V30 22 2 22 23
M  V30 23 2 10 24
M  V30 24 1 24 25
M  V30 25 2 5 26
M  V30 26 1 26 27
M  V30 27 1 27 28
M  V30 28 1 28 29
M  V30 29 2 27 30
M  V30 30 1 30 31
M  V30 31 1 31 32
M  V30 32 1 30 3
M  V30 33 1 24 6
M  V30 34 1 23 11
M  V30 35 1 21 15
M  V30 36 1 1 33
M  V30 37 1 1 34
M  V30 38 1 1 35
M  V30 39 1 4 36
M  V30 40 1 7 37
M  V30 41 1 9 38
M  V30 42 1 12 39
M  V30 43 1 13 40
M  V30 44 1 16 41
M  V30 45 1 16 42
M  V30 46 1 17 43
M  V30 47 1 17 44
M  V30 48 1 18 45
M  V30 49 1 18 46
M  V30 50 1 19 47
M  V30 51 1 20 48
M  V30 52 1 20 49
M  V30 53 1 21 50
M  V30 54 1 21 51
M  V30 55 1 22 52
M  V30 56 1 23 53
M  V30 57 1 25 54
M  V30 58 1 25 55
M  V30 59 1 25 56
M  V30 60 1 26 57
M  V30 61 1 29 58
M  V30 62 1 29 59
M  V30 63 1 29 60
M  V30 64 1 32 61
M  V30 65 1 32 62
M  V30 66 1 32 63
M  V30 END BOND
M  V30 END CTAB
M  END
>  <Dataset>  (527) 
ChEMBL_Kinases

>  <Ligand_Instance>  (527) 
nan

>  <PDB_ID>  (527) 
nan

>  <Standardized_SMILES>  (527) 
COc1cc(-c2cncc(-c3ccc(N4CCCNCC4)cc3)c2C)cc(OC)c1OC

>  <Name>  (527) 
nan

>  <Pocket>  (527) 
nan

>  <ATP_Site>  (527) 
nan

>  <Peripheral>  (527) 
nan

>  <Num_H_Atoms_ProtBoundConf>  (527) 
nan

>  <Num_Resolved_Atoms>  (527) 
nan

>  <Num_Not_Resolved_Atoms>  (527) 
nan

$$$$
CHEMBL4547613
     RDKit          3D

  0  0  0  0  0  0  0  0  0  0999 V3000
M  V30 BEGIN CTAB
M  V30 COUNTS 37 38 0 0 0
M  V30 BEGIN ATOM
M  V30 1 C -0.992235 -2.679892 3.321304 0
M  V30 2 C -0.259266 -3.618238 2.369097 0
M  V30 3 C -1.174070 -4.788186 2.116455 0
M  V30 4 C 1.025701 -4.018968 3.062882 0
M  V30 5 C 0.140049 -2.905179 1.127101 0
M  V30 6 C -0.073262 -1.585485 0.782227 0
M  V30 7 C 0.381572 -1.112401 -0.431196 0
M  V30 8 N 0.131626 0.256260 -0.729917 0
M  V30 9 C 0.940382 1.386287 -0.445986 0
M  V30 10 O 2.050593 1.331912 0.140939 0
M  V30 11 C 0.460367 2.707044 -0.859058 0
M  V30 12 N -0.711453 2.878792 -1.492311 0
M  V30 13 C -1.148101 4.114365 -1.872155 0
M  V30 14 C -0.337154 5.212765 -1.583412 0
M  V30 15 N 0.839277 5.054495 -0.949414 0
M  V30 16 C 1.244881 3.811183 -0.584836 0
M  V30 17 N 2.511387 3.721286 0.087777 0
M  V30 18 C 1.048782 -1.959194 -1.297685 0
M  V30 19 C 1.243080 -3.271843 -0.918005 0
M  V30 20 N 0.791080 -3.713464 0.270910 0
M  V30 21 H -0.403148 -1.723529 3.440937 0
M  V30 22 H -1.022835 -3.104122 4.345843 0
M  V30 23 H -2.018367 -2.440109 2.980037 0
M  V30 24 H -1.285032 -5.301134 3.097155 0
M  V30 25 H -2.186471 -4.359218 1.897592 0
M  V30 26 H -0.826930 -5.442947 1.301473 0
M  V30 27 H 1.496145 -4.834371 2.459340 0
M  V30 28 H 0.904293 -4.271184 4.117215 0
M  V30 29 H 1.729042 -3.148257 2.942752 0
M  V30 30 H -0.604432 -1.022360 1.537578 0
M  V30 31 H -0.779612 0.403004 -1.224216 0
M  V30 32 H -2.093584 4.261331 -2.384132 0
M  V30 33 H -0.705850 6.186803 -1.895625 0
M  V30 34 H 2.784562 3.460468 1.061929 0
M  V30 35 H 3.356765 3.962461 -0.497586 0
M  V30 36 H 1.365373 -1.501256 -2.218492 0
M  V30 37 H 1.774493 -3.903544 -1.633546 0
M  V30 END ATOM
M  V30 BEGIN BOND
M  V30 1 1 1 2
M  V30 2 1 2 3
M  V30 3 1 2 4
M  V30 4 1 2 5
M  V30 5 2 5 6
M  V30 6 1 6 7
M  V30 7 1 7 8
M  V30 8 1 8 9
M  V30 9 2 9 10
M  V30 10 1 9 11
M  V30 11 2 11 12
M  V30 12 1 12 13
M  V30 13 2 13 14
M  V30 14 1 14 15
M  V30 15 2 15 16
M  V30 16 1 16 17
M  V30 17 2 7 18
M  V30 18 1 18 19
M  V30 19 2 19 20
M  V30 20 1 20 5
M  V30 21 1 16 11
M  V30 22 1 1 21
M  V30 23 1 1 22
M  V30 24 1 1 23
M  V30 25 1 3 24
M  V30 26 1 3 25
M  V30 27 1 3 26
M  V30 28 1 4 27
M  V30 29 1 4 28
M  V30 30 1 4 29
M  V30 31 1 6 30
M  V30 32 1 8 31
M  V30 33 1 13 32
M  V30 34 1 14 33
M  V30 35 1 17 34
M  V30 36 1 17 35
M  V30 37 1 18 36
M  V30 38 1 19 37
M  V30 END BOND
M  V30 END CTAB
M  END
>  <Dataset>  (528) 
ChEMBL_Kinases

>  <Ligand_Instance>  (528) 
nan

>  <PDB_ID>  (528) 
nan

>  <Standardized_SMILES>  (528) 
CC(C)(C)c1cc(NC(=O)c2nccnc2N)ccn1

>  <Name>  (528) 
nan

>  <Pocket>  (528) 
nan

>  <ATP_Site>  (528) 
nan

>  <Peripheral>  (528) 
nan

>  <Num_H_Atoms_ProtBoundConf>  (528) 
nan

>  <Num_Resolved_Atoms>  (528) 
nan

>  <Num_Not_Resolved_Atoms>  (528) 
nan

$$$$
CHEMBL4639779
     RDKit          3D

  0  0  0  0  0  0  0  0  0  0999 V3000
M  V30 BEGIN CTAB
M  V30 COUNTS 63 65 0 0 0
M  V30 BEGIN ATOM
M  V30 1 C -0.901972 0.407673 5.511680 0
M  V30 2 C 0.045918 -0.572834 4.888866 0
M  V30 3 C -0.660541 -1.894277 4.577135 0
M  V30 4 C 0.762947 -0.022044 3.726822 0
M  V30 5 C 2.020527 0.603644 3.830147 0
M  V30 6 N 2.425323 1.004771 2.628046 0
M  V30 7 N 1.514867 0.687587 1.726848 0
M  V30 8 C 1.372167 0.847218 0.376042 0
M  V30 9 N 2.495089 1.536298 -0.191168 0
M  V30 10 C 2.349390 2.679780 -1.093788 0
M  V30 11 C 1.491173 3.688582 -0.368992 0
M  V30 12 C 0.172215 3.736764 -0.790527 0
M  V30 13 C -0.767613 4.585182 -0.243169 0
M  V30 14 C -0.334103 5.428472 0.788626 0
M  V30 15 C 0.997110 5.387198 1.221373 0
M  V30 16 C 1.893904 4.518993 0.638965 0
M  V30 17 F 3.205204 4.429628 1.014299 0
M  V30 18 C 0.284432 0.421525 -0.339244 0
M  V30 19 C -0.716835 -0.205841 0.377953 0
M  V30 20 N -1.912114 -0.664420 -0.231216 0
M  V30 21 C -2.313316 -0.637064 -1.587356 0
M  V30 22 C -1.698449 -1.614398 -2.527953 0
M  V30 23 C -1.986012 -3.053800 -2.136864 0
M  V30 24 C -1.427978 -4.059870 -3.096086 0
M  V30 25 C -1.738128 -5.481617 -2.680590 0
M  V30 26 C -1.157463 -5.873540 -1.361782 0
M  V30 27 C 0.356370 -5.796843 -1.368607 0
M  V30 28 N 0.810330 -6.195790 -0.050262 0
M  V30 29 N -0.564807 -0.361561 1.727494 0
M  V30 30 C 0.522979 0.076216 2.372806 0
M  V30 31 H -0.854958 0.289624 6.612612 0
M  V30 32 H -0.584620 1.429835 5.210842 0
M  V30 33 H -1.966452 0.194768 5.235253 0
M  V30 34 H 0.798467 -0.856459 5.685911 0
M  V30 35 H -0.870458 -2.411109 5.556073 0
M  V30 36 H -0.029485 -2.557086 3.977504 0
M  V30 37 H -1.659113 -1.742801 4.130590 0
M  V30 38 H 2.666253 0.799308 4.670264 0
M  V30 39 H 3.451672 1.183228 0.068818 0
M  V30 40 H 1.952080 2.435765 -2.072261 0
M  V30 41 H 3.369312 3.138691 -1.167645 0
M  V30 42 H -0.187056 3.093157 -1.592429 0
M  V30 43 H -1.787468 4.581817 -0.611161 0
M  V30 44 H -1.045670 6.106450 1.241632 0
M  V30 45 H 1.332370 6.042079 2.023870 0
M  V30 46 H 0.221656 0.571704 -1.405545 0
M  V30 47 H -2.638644 -1.106606 0.411942 0
M  V30 48 H -3.423373 -0.755810 -1.705733 0
M  V30 49 H -2.145447 0.399390 -2.029389 0
M  V30 50 H -0.630214 -1.476971 -2.742776 0
M  V30 51 H -2.234742 -1.467416 -3.511242 0
M  V30 52 H -1.629888 -3.210471 -1.090685 0
M  V30 53 H -3.078264 -3.247953 -2.083272 0
M  V30 54 H -1.922533 -3.910053 -4.081890 0
M  V30 55 H -0.349511 -4.004944 -3.250140 0
M  V30 56 H -2.826144 -5.603038 -2.644262 0
M  V30 57 H -1.338037 -6.153083 -3.477342 0
M  V30 58 H -1.443636 -6.919634 -1.161995 0
M  V30 59 H -1.607420 -5.265575 -0.550251 0
M  V30 60 H 0.762649 -4.826948 -1.634700 0
M  V30 61 H 0.709304 -6.548712 -2.131292 0
M  V30 62 H 0.359506 -5.579531 0.640856 0
M  V30 63 H 0.433782 -7.159817 0.158638 0
M  V30 END ATOM
M  V30 BEGIN BOND
M  V30 1 1 1 2
M  V30 2 1 2 3
M  V30 3 1 2 4
M  V30 4 1 4 5
M  V30 5 2 5 6
M  V30 6 1 6 7
M  V30 7 1 7 8
M  V30 8 1 8 9
M  V30 9 1 9 10
M  V30 10 1 10 11
M  V30 11 2 11 12
M  V30 12 1 12 13
M  V30 13 2 13 14
M  V30 14 1 14 15
M  V30 15 2 15 16
M  V30 16 1 16 17
M  V30 17 2 8 18
M  V30 18 1 18 19
M  V30 19 1 19 20
M  V30 20 1 20 21
M  V30 21 1 21 22
M  V30 22 1 22 23
M  V30 23 1 23 24
M  V30 24 1 24 25
M  V30 25 1 25 26
M  V30 26 1 26 27
M  V30 27 1 27 28
M  V30 28 2 19 29
M  V30 29 1 29 30
M  V30 30 2 30 4
M  V30 31 1 30 7
M  V30 32 1 16 11
M  V30 33 1 1 31
M  V30 34 1 1 32
M  V30 35 1 1 33
M  V30 36 1 2 34
M  V30 37 1 3 35
M  V30 38 1 3 36
M  V30 39 1 3 37
M  V30 40 1 5 38
M  V30 41 1 9 39
M  V30 42 1 10 40
M  V30 43 1 10 41
M  V30 44 1 12 42
M  V30 45 1 13 43
M  V30 46 1 14 44
M  V30 47 1 15 45
M  V30 48 1 18 46
M  V30 49 1 20 47
M  V30 50 1 21 48
M  V30 51 1 21 49
M  V30 52 1 22 50
M  V30 53 1 22 51
M  V30 54 1 23 52
M  V30 55 1 23 53
M  V30 56 1 24 54
M  V30 57 1 24 55
M  V30 58 1 25 56
M  V30 59 1 25 57
M  V30 60 1 26 58
M  V30 61 1 26 59
M  V30 62 1 27 60
M  V30 63 1 27 61
M  V30 64 1 28 62
M  V30 65 1 28 63
M  V30 END BOND
M  V30 END CTAB
M  END
>  <Dataset>  (529) 
ChEMBL_Kinases

>  <Ligand_Instance>  (529) 
nan

>  <PDB_ID>  (529) 
nan

>  <Standardized_SMILES>  (529) 
CC(C)c1cnn2c(NCc3ccccc3F)cc(NCCCCCCCN)nc12

>  <Name>  (529) 
nan

>  <Pocket>  (529) 
nan

>  <ATP_Site>  (529) 
nan

>  <Peripheral>  (529) 
nan

>  <Num_H_Atoms_ProtBoundConf>  (529) 
nan

>  <Num_Resolved_Atoms>  (529) 
nan

>  <Num_Not_Resolved_Atoms>  (529) 
nan

$$$$
CHEMBL4547575
     RDKit          3D

  0  0  0  0  0  0  0  0  0  0999 V3000
M  V30 BEGIN CTAB
M  V30 COUNTS 51 55 0 0 0
M  V30 BEGIN ATOM
M  V30 1 C 3.799359 -0.494992 8.040347 0
M  V30 2 C 3.891703 -0.692570 6.565786 0
M  V30 3 C 5.099222 -0.970640 5.959097 0
M  V30 4 C 5.131756 -1.147265 4.572923 0
M  V30 5 C 3.928392 -1.028024 3.898895 0
M  V30 6 C 3.941838 -1.209276 2.449631 0
M  V30 7 C 2.880464 -1.139478 1.569221 0
M  V30 8 C 3.342898 -1.375269 0.290327 0
M  V30 9 C 2.543899 -1.391910 -0.931994 0
M  V30 10 C 3.162646 -1.645321 -2.139307 0
M  V30 11 C 2.435703 -1.670623 -3.333274 0
M  V30 12 C 1.067936 -1.422114 -3.185007 0
M  V30 13 C 0.427902 -1.169159 -2.010388 0
M  V30 14 N -0.974695 -0.927273 -1.962982 0
M  V30 15 C -1.590458 0.337120 -2.075083 0
M  V30 16 O -0.818032 1.322077 -2.229516 0
M  V30 17 C -3.050123 0.487813 -2.014152 0
M  V30 18 C -3.557163 1.784273 -2.135856 0
M  V30 19 C -4.941463 1.956012 -2.081412 0
M  V30 20 C -5.666393 0.792945 -1.909024 0
M  V30 21 C -7.036680 0.923843 -1.850663 0
M  V30 22 C -7.923576 -0.129998 -1.682158 0
M  V30 23 C -7.383436 -1.397124 -1.565593 0
M  V30 24 C -6.003156 -1.557349 -1.621124 0
M  V30 25 C -5.158868 -0.483871 -1.789601 0
M  V30 26 N -3.823677 -0.608254 -1.846850 0
M  V30 27 C 1.186939 -1.154438 -0.858303 0
M  V30 28 N 4.663415 -1.584402 0.395756 0
M  V30 29 N 5.033623 -1.487696 1.682713 0
M  V30 30 C 2.715342 -0.749951 4.498070 0
M  V30 31 C 2.698191 -0.576011 5.883465 0
M  V30 32 H 3.035154 0.287615 8.285829 0
M  V30 33 H 3.396915 -1.429313 8.462957 0
M  V30 34 H 4.736062 -0.172358 8.506067 0
M  V30 35 H 6.021417 -1.055534 6.528198 0
M  V30 36 H 6.046770 -1.368605 4.027137 0
M  V30 37 H 1.842884 -0.934209 1.817818 0
M  V30 38 H 4.238062 -1.834311 -2.204085 0
M  V30 39 H 2.860005 -1.862750 -4.309600 0
M  V30 40 H 0.503803 -1.443164 -4.122961 0
M  V30 41 H -1.536390 -1.805369 -1.832106 0
M  V30 42 H -2.930598 2.642227 -2.267938 0
M  V30 43 H -5.429320 2.907367 -2.164516 0
M  V30 44 H -7.511822 1.894518 -1.936672 0
M  V30 45 H -8.992120 0.025288 -1.642765 0
M  V30 46 H -8.076249 -2.226566 -1.433249 0
M  V30 47 H -5.600279 -2.558917 -1.527701 0
M  V30 48 H 0.696884 -0.954247 0.093759 0
M  V30 49 H 5.355871 -1.796587 -0.378880 0
M  V30 50 H 1.812685 -0.674301 3.880765 0
M  V30 51 H 1.754463 -0.358568 6.358659 0
M  V30 END ATOM
M  V30 BEGIN BOND
M  V30 1 1 1 2
M  V30 2 2 2 3
M  V30 3 1 3 4
M  V30 4 2 4 5
M  V30 5 1 5 6
M  V30 6 1 6 7
M  V30 7 2 7 8
M  V30 8 1 8 9
M  V30 9 2 9 10
M  V30 10 1 10 11
M  V30 11 2 11 12
M  V30 12 1 12 13
M  V30 13 1 13 14
M  V30 14 1 14 15
M  V30 15 2 15 16
M  V30 16 1 15 17
M  V30 17 2 17 18
M  V30 18 1 18 19
M  V30 19 2 19 20
M  V30 20 1 20 21
M  V30 21 2 21 22
M  V30 22 1 22 23
M  V30 23 2 23 24
M  V30 24 1 24 25
M  V30 25 2 25 26
M  V30 26 2 13 27
M  V30 27 1 8 28
M  V30 28 1 28 29
M  V30 29 1 5 30
M  V30 30 2 30 31
M  V30 31 1 31 2
M  V30 32 2 29 6
M  V30 33 1 27 9
M  V30 34 1 26 17
M  V30 35 1 25 20
M  V30 36 1 1 32
M  V30 37 1 1 33
M  V30 38 1 1 34
M  V30 39 1 3 35
M  V30 40 1 4 36
M  V30 41 1 7 37
M  V30 42 1 10 38
M  V30 43 1 11 39
M  V30 44 1 12 40
M  V30 45 1 14 41
M  V30 46 1 18 42
M  V30 47 1 19 43
M  V30 48 1 21 44
M  V30 49 1 22 45
M  V30 50 1 23 46
M  V30 51 1 24 47
M  V30 52 1 27 48
M  V30 53 1 28 49
M  V30 54 1 30 50
M  V30 55 1 31 51
M  V30 END BOND
M  V30 END CTAB
M  END
>  <Dataset>  (530) 
ChEMBL_Kinases

>  <Ligand_Instance>  (530) 
nan

>  <PDB_ID>  (530) 
nan

>  <Standardized_SMILES>  (530) 
Cc1ccc(-c2cc(-c3cccc(NC(=O)c4ccc5ccccc5n4)c3)[nH]n2)cc1

>  <Name>  (530) 
nan

>  <Pocket>  (530) 
nan

>  <ATP_Site>  (530) 
nan

>  <Peripheral>  (530) 
nan

>  <Num_H_Atoms_ProtBoundConf>  (530) 
nan

>  <Num_Resolved_Atoms>  (530) 
nan

>  <Num_Not_Resolved_Atoms>  (530) 
nan

$$$$
CHEMBL4547563
     RDKit          3D

  0  0  0  0  0  0  0  0  0  0999 V3000
M  V30 BEGIN CTAB
M  V30 COUNTS 50 54 0 0 0
M  V30 BEGIN ATOM
M  V30 1 C 0.793170 -0.480873 4.419695 0
M  V30 2 N 1.938752 -1.147143 3.810690 0
M  V30 3 N 2.235141 -2.422838 3.663008 0
M  V30 4 C 3.402918 -2.524401 2.968627 0
M  V30 5 C 3.946424 -1.274264 2.609349 0
M  V30 6 C 2.949829 -0.513600 3.189094 0
M  V30 7 N 3.061072 0.887617 3.096904 0
M  V30 8 C 3.330321 2.270992 2.802137 0
M  V30 9 N 3.081484 3.243534 2.082174 0
M  V30 10 C 2.817930 4.182672 1.357577 0
M  V30 11 C 1.937508 3.721816 0.449389 0
M  V30 12 C 1.751311 2.361419 0.775996 0
M  V30 13 C 0.983947 1.534087 -0.225829 0
M  V30 14 C 1.330591 0.227492 0.017031 0
M  V30 15 C 0.770524 -0.930820 -0.502898 0
M  V30 16 C -0.242592 -0.574050 -1.354336 0
M  V30 17 C -0.607969 0.747640 -1.600118 0
M  V30 18 C -0.004386 1.883724 -1.052740 0
M  V30 19 C -1.976945 0.779491 -2.179832 0
M  V30 20 O -2.714266 1.717523 -2.571221 0
M  V30 21 N -2.402932 -0.595230 -2.245908 0
M  V30 22 C -3.547572 -1.431245 -2.052855 0
M  V30 23 C -3.212238 -2.404234 -0.933654 0
M  V30 24 C -3.249622 -2.285155 0.431134 0
M  V30 25 C -2.803497 -3.362957 1.221257 0
M  V30 26 C -2.327759 -4.533622 0.670675 0
M  V30 27 Cl -1.722220 -5.855479 1.696236 0
M  V30 28 C -2.271611 -4.706977 -0.700607 0
M  V30 29 F -1.831158 -5.841696 -1.323447 0
M  V30 30 C -2.726633 -3.614536 -1.392800 0
M  V30 31 C -1.129748 -1.176713 -2.431516 0
M  V30 32 N 2.483892 2.102932 1.807841 0
M  V30 33 H -0.093836 -0.783606 3.761916 0
M  V30 34 H 0.594991 -0.830074 5.424575 0
M  V30 35 H 0.813526 0.627480 4.305663 0
M  V30 36 H 3.631237 -3.606362 2.885175 0
M  V30 37 H 4.835525 -1.314022 2.090386 0
M  V30 38 H 2.653203 1.311649 4.019275 0
M  V30 39 H 3.163899 5.250613 1.309327 0
M  V30 40 H 1.456282 4.193664 -0.363917 0
M  V30 41 H 2.135315 -0.125282 0.666982 0
M  V30 42 H 0.856730 -1.974893 -0.450643 0
M  V30 43 H -0.132245 2.909219 -1.105673 0
M  V30 44 H -4.433768 -0.818965 -1.713716 0
M  V30 45 H -3.744670 -1.966861 -2.981886 0
M  V30 46 H -3.640039 -1.351110 0.774357 0
M  V30 47 H -2.848159 -3.206725 2.285107 0
M  V30 48 H -2.711200 -3.809606 -2.508925 0
M  V30 49 H -1.040554 -2.274967 -2.319987 0
M  V30 50 H -0.638382 -0.856693 -3.409806 0
M  V30 END ATOM
M  V30 BEGIN BOND
M  V30 1 1 1 2
M  V30 2 1 2 3
M  V30 3 2 3 4
M  V30 4 1 4 5
M  V30 5 2 5 6
M  V30 6 1 6 7
M  V30 7 1 7 8
M  V30 8 2 8 9
M  V30 9 1 9 10
M  V30 10 2 10 11
M  V30 11 1 11 12
M  V30 12 1 12 13
M  V30 13 2 13 14
M  V30 14 1 14 15
M  V30 15 2 15 16
M  V30 16 1 16 17
M  V30 17 2 17 18
M  V30 18 1 17 19
M  V30 19 2 19 20
M  V30 20 1 19 21
M  V30 21 1 21 22
M  V30 22 1 22 23
M  V30 23 2 23 24
M  V30 24 1 24 25
M  V30 25 2 25 26
M  V30 26 1 26 27
M  V30 27 1 26 28
M  V30 28 1 28 29
M  V30 29 2 28 30
M  V30 30 1 21 31
M  V30 31 2 12 32
M  V30 32 1 6 2
M  V30 33 1 32 8
M  V30 34 1 18 13
M  V30 35 1 30 23
M  V30 36 1 31 16
M  V30 37 1 1 33
M  V30 38 1 1 34
M  V30 39 1 1 35
M  V30 40 1 4 36
M  V30 41 1 5 37
M  V30 42 1 7 38
M  V30 43 1 10 39
M  V30 44 1 11 40
M  V30 45 1 14 41
M  V30 46 1 15 42
M  V30 47 1 18 43
M  V30 48 1 22 44
M  V30 49 1 22 45
M  V30 50 1 24 46
M  V30 51 1 25 47
M  V30 52 1 30 48
M  V30 53 1 31 49
M  V30 54 1 31 50
M  V30 END BOND
M  V30 END CTAB
M  END
>  <Dataset>  (531) 
ChEMBL_Kinases

>  <Ligand_Instance>  (531) 
nan

>  <PDB_ID>  (531) 
nan

>  <Standardized_SMILES>  (531) 
Cn1nccc1Nc1nccc(-c2ccc3c(c2)C(=O)N(Cc2ccc(Cl)c(F)c2)C3)n1

>  <Name>  (531) 
nan

>  <Pocket>  (531) 
nan

>  <ATP_Site>  (531) 
nan

>  <Peripheral>  (531) 
nan

>  <Num_H_Atoms_ProtBoundConf>  (531) 
nan

>  <Num_Resolved_Atoms>  (531) 
nan

>  <Num_Not_Resolved_Atoms>  (531) 
nan

$$$$
CHEMBL4547530
     RDKit          3D

  0  0  0  0  0  0  0  0  0  0999 V3000
M  V30 BEGIN CTAB
M  V30 COUNTS 49 52 0 0 0
M  V30 BEGIN ATOM
M  V30 1 C -1.028155 1.492642 5.501594 0
M  V30 2 O -1.003360 0.472824 4.512931 0
M  V30 3 C -0.137224 0.508469 3.441642 0
M  V30 4 C 0.788903 1.486033 3.166286 0
M  V30 5 C 1.643772 1.508954 2.087440 0
M  V30 6 C 2.590799 2.580375 1.871118 0
M  V30 7 O 3.569724 2.924678 2.576630 0
M  V30 8 N 2.459991 3.409579 0.715351 0
M  V30 9 C 3.428364 4.466515 0.538954 0
M  V30 10 C 1.386335 3.208301 -0.265132 0
M  V30 11 C 1.580687 0.439763 1.166918 0
M  V30 12 C 0.640467 -0.504128 1.492747 0
M  V30 13 C -0.239676 -0.576092 2.557234 0
M  V30 14 N -1.164245 -1.686669 2.669101 0
M  V30 15 C -0.984471 -2.693144 1.641728 0
M  V30 16 N -1.465546 -2.563149 0.389424 0
M  V30 17 C -1.233729 -3.525600 -0.550938 0
M  V30 18 O -1.758856 -3.312486 -1.825055 0
M  V30 19 C -2.565618 -2.197099 -2.131632 0
M  V30 20 C -3.310644 -2.384299 -3.395740 0
M  V30 21 O -2.319354 -1.699070 -4.134099 0
M  V30 22 C -1.852826 -1.122658 -2.953641 0
M  V30 23 C -0.497874 -4.621934 -0.169334 0
M  V30 24 C -0.148174 -5.704195 -0.963353 0
M  V30 25 C 0.581041 -6.506975 -0.101802 0
M  V30 26 N 0.673081 -5.957244 1.132684 0
M  V30 27 C 0.006186 -4.782303 1.104201 0
M  V30 28 N -0.266185 -3.779608 1.989339 0
M  V30 29 H -0.024438 1.785511 5.866000 0
M  V30 30 H -1.653133 1.192711 6.362816 0
M  V30 31 H -1.476726 2.406369 5.067340 0
M  V30 32 H 0.800418 2.290434 3.904343 0
M  V30 33 H 4.464782 4.052606 0.587937 0
M  V30 34 H 3.252345 4.942911 -0.450504 0
M  V30 35 H 3.354063 5.259650 1.335249 0
M  V30 36 H 1.762691 2.461985 -0.967542 0
M  V30 37 H 0.422882 2.927691 0.223820 0
M  V30 38 H 1.231717 4.181741 -0.805278 0
M  V30 39 H 2.234478 0.439774 0.327333 0
M  V30 40 H 0.658877 -1.304056 0.721908 0
M  V30 41 H -1.794424 -1.547851 3.484333 0
M  V30 42 H -3.026580 -1.782090 -1.238450 0
M  V30 43 H -4.320328 -1.947934 -3.450526 0
M  V30 44 H -3.355887 -3.441963 -3.800915 0
M  V30 45 H -2.353134 -0.134709 -2.773663 0
M  V30 46 H -0.772857 -1.052555 -2.821119 0
M  V30 47 H -0.355218 -5.950851 -2.000306 0
M  V30 48 H 1.023000 -7.462942 -0.389257 0
M  V30 49 H 1.146959 -6.305363 1.997485 0
M  V30 END ATOM
M  V30 BEGIN BOND
M  V30 1 1 1 2
M  V30 2 1 2 3
M  V30 3 2 3 4
M  V30 4 1 4 5
M  V30 5 1 5 6
M  V30 6 2 6 7
M  V30 7 1 6 8
M  V30 8 1 8 9
M  V30 9 1 8 10
M  V30 10 2 5 11
M  V30 11 1 11 12
M  V30 12 2 12 13
M  V30 13 1 13 14
M  V30 14 1 14 15
M  V30 15 2 15 16
M  V30 16 1 16 17
M  V30 17 1 17 18
M  V30 18 1 18 19
M  V30 19 1 19 20
M  V30 20 1 20 21
M  V30 21 1 21 22
M  V30 22 2 17 23
M  V30 23 1 23 24
M  V30 24 2 24 25
M  V30 25 1 25 26
M  V30 26 1 26 27
M  V30 27 2 27 28
M  V30 28 1 13 3
M  V30 29 1 28 15
M  V30 30 1 22 19
M  V30 31 1 27 23
M  V30 32 1 1 29
M  V30 33 1 1 30
M  V30 34 1 1 31
M  V30 35 1 4 32
M  V30 36 1 9 33
M  V30 37 1 9 34
M  V30 38 1 9 35
M  V30 39 1 10 36
M  V30 40 1 10 37
M  V30 41 1 10 38
M  V30 42 1 11 39
M  V30 43 1 12 40
M  V30 44 1 14 41
M  V30 45 1 19 42
M  V30 46 1 20 43
M  V30 47 1 20 44
M  V30 48 1 22 45
M  V30 49 1 22 46
M  V30 50 1 24 47
M  V30 51 1 25 48
M  V30 52 1 26 49
M  V30 END BOND
M  V30 END CTAB
M  END
>  <Dataset>  (532) 
ChEMBL_Kinases

>  <Ligand_Instance>  (532) 
nan

>  <PDB_ID>  (532) 
nan

>  <Standardized_SMILES>  (532) 
COc1cc(C(=O)N(C)C)ccc1Nc1nc(OC2COC2)c2cc[nH]c2n1

>  <Name>  (532) 
nan

>  <Pocket>  (532) 
nan

>  <ATP_Site>  (532) 
nan

>  <Peripheral>  (532) 
nan

>  <Num_H_Atoms_ProtBoundConf>  (532) 
nan

>  <Num_Resolved_Atoms>  (532) 
nan

>  <Num_Not_Resolved_Atoms>  (532) 
nan

$$$$
CHEMBL4547465
     RDKit          3D

  0  0  0  0  0  0  0  0  0  0999 V3000
M  V30 BEGIN CTAB
M  V30 COUNTS 86 91 0 0 0
M  V30 BEGIN ATOM
M  V30 1 C 1.102596 -3.310241 4.625142 0
M  V30 2 C 0.887656 -3.757693 3.195433 0
M  V30 3 C -0.551729 -4.175598 2.964899 0
M  V30 4 S 1.391729 -2.464002 2.030511 0
M  V30 5 C 3.134777 -2.212440 2.156640 0
M  V30 6 N 3.823372 -2.937389 3.052469 0
M  V30 7 C 5.160627 -2.736537 3.112111 0
M  V30 8 C 5.782478 -1.828765 2.287703 0
M  V30 9 C 5.063619 -1.106742 1.388483 0
M  V30 10 C 3.712551 -1.287317 1.305997 0
M  V30 11 C 2.906811 -0.507448 0.357038 0
M  V30 12 N 2.230543 0.629755 0.933547 0
M  V30 13 C 1.362170 1.057255 1.956150 0
M  V30 14 N 1.769068 1.922527 2.885040 0
M  V30 15 C 0.992974 2.364666 3.877126 0
M  V30 16 C -0.277551 1.878937 3.903072 0
M  V30 17 C -1.156056 2.337907 4.959463 0
M  V30 18 N -1.856129 2.710351 5.802570 0
M  V30 19 C -0.800624 0.983727 2.997113 0
M  V30 20 N -2.123909 0.473938 2.962864 0
M  V30 21 C -3.131051 -0.329589 2.427203 0
M  V30 22 C -3.248382 -0.443195 0.932453 0
M  V30 23 C -4.490771 -1.299768 0.582000 0
M  V30 24 C -4.615884 -1.328975 -0.927449 0
M  V30 25 C -3.396875 -1.934753 -1.607092 0
M  V30 26 C -2.200318 -1.149650 -1.186802 0
M  V30 27 C -2.132873 -1.263979 0.327043 0
M  V30 28 C -2.234864 0.267229 -1.650294 0
M  V30 29 N -2.176150 0.343280 -3.058052 0
M  V30 30 C -1.062931 -0.272127 -3.688933 0
M  V30 31 C 0.279625 0.312098 -3.458135 0 CFG=1
M  V30 32 C 1.261660 -0.562553 -4.252268 0
M  V30 33 C 2.678594 -0.148008 -4.029319 0
M  V30 34 C 2.876984 1.327546 -4.212257 0 CFG=2
M  V30 35 O 3.226110 1.907284 -3.011261 0
M  V30 36 C 1.640117 1.903933 -4.824292 0
M  V30 37 C 0.389894 1.704229 -4.018217 0
M  V30 38 C -3.551474 0.865264 -1.176731 0
M  V30 39 C -4.754078 0.050467 -1.537194 0
M  V30 40 C -3.463692 0.899880 0.342111 0
M  V30 41 N 0.120213 0.663763 2.090910 0
M  V30 42 H 0.412143 -3.848911 5.292694 0
M  V30 43 H 2.183775 -3.500015 4.892720 0
M  V30 44 H 0.980608 -2.226738 4.676733 0
M  V30 45 H 1.503291 -4.685645 3.057000 0
M  V30 46 H -1.112075 -3.446675 2.342537 0
M  V30 47 H -1.081805 -4.206753 3.941750 0
M  V30 48 H -0.618777 -5.196910 2.533981 0
M  V30 49 H 5.751340 -3.287329 3.807666 0
M  V30 50 H 6.855754 -1.654471 2.320226 0
M  V30 51 H 5.514353 -0.382370 0.724804 0
M  V30 52 H 3.559004 -0.234356 -0.473419 0
M  V30 53 H 2.162844 -1.234129 -0.085755 0
M  V30 54 H 2.437749 1.532380 0.403674 0
M  V30 55 H 1.291708 3.062427 4.639527 0
M  V30 56 H -2.608544 0.957461 3.789441 0
M  V30 57 H -4.143918 -0.014381 2.795819 0
M  V30 58 H -3.030253 -1.378526 2.808036 0
M  V30 59 H -4.283741 -2.329024 0.903864 0
M  V30 60 H -5.407777 -0.862868 0.976419 0
M  V30 61 H -5.499740 -1.895812 -1.237445 0
M  V30 62 H -3.589248 -1.926410 -2.686120 0
M  V30 63 H -3.285171 -2.966020 -1.177967 0
M  V30 64 H -1.264426 -1.677818 -1.536798 0
M  V30 65 H -1.150361 -1.152713 0.726440 0
M  V30 66 H -2.406591 -2.347537 0.541624 0
M  V30 67 H -1.460828 0.879230 -1.130908 0
M  V30 68 H -3.054377 0.084463 -3.544430 0
M  V30 69 H -1.228223 -0.219778 -4.815639 0
M  V30 70 H -1.071286 -1.356628 -3.484592 0
M  V30 71 H 0.640664 0.232103 -2.413566 0
M  V30 72 H 1.014089 -0.599044 -5.311761 0
M  V30 73 H 1.152693 -1.589955 -3.846555 0
M  V30 74 H 3.077296 -0.544612 -3.070378 0
M  V30 75 H 3.275603 -0.663481 -4.826687 0
M  V30 76 H 3.711767 1.546191 -4.922007 0
M  V30 77 H 4.203495 1.734831 -2.838206 0
M  V30 78 H 1.795904 3.010349 -4.882346 0
M  V30 79 H 1.560914 1.569222 -5.879882 0
M  V30 80 H 0.428099 2.460452 -3.182615 0
M  V30 81 H -0.458543 1.998142 -4.668957 0
M  V30 82 H -3.693559 1.914750 -1.505321 0
M  V30 83 H -5.635879 0.598918 -1.159154 0
M  V30 84 H -4.857046 -0.132212 -2.633646 0
M  V30 85 H -4.487154 1.234525 0.668097 0
M  V30 86 H -2.765115 1.670409 0.701683 0
M  V30 END ATOM
M  V30 BEGIN BOND
M  V30 1 1 1 2
M  V30 2 1 2 3
M  V30 3 1 2 4
M  V30 4 1 4 5
M  V30 5 2 5 6
M  V30 6 1 6 7
M  V30 7 2 7 8
M  V30 8 1 8 9
M  V30 9 2 9 10
M  V30 10 1 10 11
M  V30 11 1 11 12
M  V30 12 1 12 13
M  V30 13 2 13 14
M  V30 14 1 14 15
M  V30 15 2 15 16
M  V30 16 1 16 17
M  V30 17 3 17 18
M  V30 18 1 16 19
M  V30 19 1 19 20
M  V30 20 1 20 21
M  V30 21 1 21 22
M  V30 22 1 22 23
M  V30 23 1 23 24
M  V30 24 1 24 25
M  V30 25 1 25 26
M  V30 26 1 26 27
M  V30 27 1 26 28
M  V30 28 1 28 29
M  V30 29 1 29 30
M  V30 30 1 30 31
M  V30 31 1 31 32
M  V30 32 1 32 33
M  V30 33 1 33 34
M  V30 34 1 34 35
M  V30 35 1 34 36
M  V30 36 1 36 37
M  V30 37 1 28 38
M  V30 38 1 38 39
M  V30 39 1 38 40
M  V30 40 2 19 41
M  V30 41 1 10 5
M  V30 42 1 41 13
M  V30 43 1 27 22
M  V30 44 1 37 31
M  V30 45 1 40 22
M  V30 46 1 39 24
M  V30 47 1 1 42
M  V30 48 1 1 43
M  V30 49 1 1 44
M  V30 50 1 2 45
M  V30 51 1 3 46
M  V30 52 1 3 47
M  V30 53 1 3 48
M  V30 54 1 7 49
M  V30 55 1 8 50
M  V30 56 1 9 51
M  V30 57 1 11 52
M  V30 58 1 11 53
M  V30 59 1 12 54
M  V30 60 1 15 55
M  V30 61 1 20 56
M  V30 62 1 21 57
M  V30 63 1 21 58
M  V30 64 1 23 59
M  V30 65 1 23 60
M  V30 66 1 24 61
M  V30 67 1 25 62
M  V30 68 1 25 63
M  V30 69 1 26 64
M  V30 70 1 27 65
M  V30 71 1 27 66
M  V30 72 1 28 67
M  V30 73 1 29 68
M  V30 74 1 30 69
M  V30 75 1 30 70
M  V30 76 1 31 71 CFG=1
M  V30 77 1 32 72
M  V30 78 1 32 73
M  V30 79 1 33 74
M  V30 80 1 33 75
M  V30 81 1 34 76 CFG=3
M  V30 82 1 35 77
M  V30 83 1 36 78
M  V30 84 1 36 79
M  V30 85 1 37 80
M  V30 86 1 37 81
M  V30 87 1 38 82
M  V30 88 1 39 83
M  V30 89 1 39 84
M  V30 90 1 40 85
M  V30 91 1 40 86
M  V30 END BOND
M  V30 END CTAB
M  END
>  <Dataset>  (533) 
ChEMBL_Kinases

>  <Ligand_Instance>  (533) 
nan

>  <PDB_ID>  (533) 
nan

>  <Standardized_SMILES>  (533) 
CC(C)Sc1ncccc1CNc1ncc(C#N)c(NCC23CC4CC(C2)C(NC[C@H]2CC[C@H](O)CC2)C(C4)C3)n1

>  <Name>  (533) 
nan

>  <Pocket>  (533) 
nan

>  <ATP_Site>  (533) 
nan

>  <Peripheral>  (533) 
nan

>  <Num_H_Atoms_ProtBoundConf>  (533) 
nan

>  <Num_Resolved_Atoms>  (533) 
nan

>  <Num_Not_Resolved_Atoms>  (533) 
nan

$$$$
CHEMBL4548154
     RDKit          3D

  0  0  0  0  0  0  0  0  0  0999 V3000
M  V30 BEGIN CTAB
M  V30 COUNTS 65 70 0 0 0
M  V30 BEGIN ATOM
M  V30 1 C 4.170086 -0.970687 6.066599 0
M  V30 2 C 3.623128 -0.411610 4.799829 0
M  V30 3 N 3.805849 -1.037565 3.638636 0
M  V30 4 C 3.288613 -0.492523 2.501991 0
M  V30 5 N 3.490254 -1.193982 1.275993 0
M  V30 6 C 3.041748 -0.788993 -0.011796 0
M  V30 7 N 3.777178 -0.135609 -0.948704 0
M  V30 8 C 3.244010 0.206766 -2.135191 0
M  V30 9 C 1.947251 -0.077017 -2.467375 0
M  V30 10 C 1.200798 -0.741495 -1.512085 0
M  V30 11 C -0.198485 -1.127130 -1.659570 0
M  V30 12 S -1.204221 0.472866 -1.951775 0
M  V30 13 C -2.812327 -0.553700 -2.060769 0
M  V30 14 C -4.191564 0.051943 -2.300702 0
M  V30 15 C -5.038972 -0.157717 -1.044548 0
M  V30 16 C -6.462113 -0.466206 -1.416933 0
M  V30 17 N -6.554406 -1.736778 -2.095458 0
M  V30 18 C -5.343091 -2.029072 -2.856909 0
M  V30 19 C -4.805197 -0.734516 -3.405528 0
M  V30 20 N -2.410420 -1.594737 -1.904072 0
M  V30 21 C -1.190084 -2.043726 -1.698903 0
M  V30 22 C -0.597674 -3.358953 -1.488893 0
M  V30 23 C -0.757218 -4.177762 -2.605106 0
M  V30 24 C -0.279382 -5.470141 -2.635994 0
M  V30 25 C 0.382662 -5.998356 -1.541896 0
M  V30 26 F 0.874077 -7.264745 -1.516875 0
M  V30 27 C 0.530980 -5.171507 -0.445397 0
M  V30 28 C 0.062410 -3.878251 -0.391378 0
M  V30 29 N 1.781291 -1.061673 -0.341672 0
M  V30 30 C 2.600393 0.675277 2.584345 0
M  V30 31 C 2.378250 1.374970 3.777593 0
M  V30 32 C 1.608270 2.598625 3.618118 0
M  V30 33 C 2.367932 3.886514 3.366667 0
M  V30 34 C 1.142199 4.576401 3.995793 0
M  V30 35 C 1.007979 3.268312 4.804595 0
M  V30 36 C 2.924859 0.774847 4.891170 0
M  V30 37 F 2.717055 1.438651 6.050585 0
M  V30 38 H 3.562940 -0.654659 6.929674 0
M  V30 39 H 5.198961 -0.544535 6.253362 0
M  V30 40 H 4.296445 -2.069716 6.014910 0
M  V30 41 H 4.007121 -2.095778 1.247802 0
M  V30 42 H 3.856118 0.728892 -2.867587 0
M  V30 43 H 1.455452 0.160258 -3.382966 0
M  V30 44 H -4.061321 1.136047 -2.500796 0
M  V30 45 H -4.605723 -0.981538 -0.434570 0
M  V30 46 H -5.011640 0.759234 -0.415240 0
M  V30 47 H -7.060459 -0.469206 -0.469778 0
M  V30 48 H -6.826613 0.379846 -2.056375 0
M  V30 49 H -7.348117 -1.817525 -2.747648 0
M  V30 50 H -5.575305 -2.756339 -3.683539 0
M  V30 51 H -4.619180 -2.465809 -2.161316 0
M  V30 52 H -4.035706 -0.992475 -4.191297 0
M  V30 53 H -5.605783 -0.178120 -3.954491 0
M  V30 54 H -1.250727 -3.902600 -3.525697 0
M  V30 55 H -0.379670 -6.142165 -3.478641 0
M  V30 56 H 1.038090 -5.520007 0.442646 0
M  V30 57 H 0.134670 -3.184102 0.410402 0
M  V30 58 H 2.232599 1.022969 1.629159 0
M  V30 59 H 0.813440 2.537872 2.810857 0
M  V30 60 H 3.215449 4.086692 4.032074 0
M  V30 61 H 2.518197 4.089302 2.300792 0
M  V30 62 H 0.397387 4.684777 3.185575 0
M  V30 63 H 1.366170 5.452096 4.601051 0
M  V30 64 H 1.577994 3.355132 5.727327 0
M  V30 65 H -0.093970 3.122928 4.954719 0
M  V30 END ATOM
M  V30 BEGIN BOND
M  V30 1 1 1 2
M  V30 2 2 2 3
M  V30 3 1 3 4
M  V30 4 1 4 5
M  V30 5 1 5 6
M  V30 6 2 6 7
M  V30 7 1 7 8
M  V30 8 2 8 9
M  V30 9 1 9 10
M  V30 10 1 10 11
M  V30 11 1 11 12
M  V30 12 1 12 13
M  V30 13 1 13 14
M  V30 14 1 14 15
M  V30 15 1 15 16
M  V30 16 1 16 17
M  V30 17 1 17 18
M  V30 18 1 18 19
M  V30 19 2 13 20
M  V30 20 1 20 21
M  V30 21 1 21 22
M  V30 22 2 22 23
M  V30 23 1 23 24
M  V30 24 2 24 25
M  V30 25 1 25 26
M  V30 26 1 25 27
M  V30 27 2 27 28
M  V30 28 2 10 29
M  V30 29 2 4 30
M  V30 30 1 30 31
M  V30 31 1 31 32
M  V30 32 1 32 33
M  V30 33 1 33 34
M  V30 34 1 34 35
M  V30 35 2 31 36
M  V30 36 1 36 37
M  V30 37 1 36 2
M  V30 38 1 29 6
M  V30 39 1 35 32
M  V30 40 2 21 11
M  V30 41 1 28 22
M  V30 42 1 19 14
M  V30 43 1 1 38
M  V30 44 1 1 39
M  V30 45 1 1 40
M  V30 46 1 5 41
M  V30 47 1 8 42
M  V30 48 1 9 43
M  V30 49 1 14 44
M  V30 50 1 15 45
M  V30 51 1 15 46
M  V30 52 1 16 47
M  V30 53 1 16 48
M  V30 54 1 17 49
M  V30 55 1 18 50
M  V30 56 1 18 51
M  V30 57 1 19 52
M  V30 58 1 19 53
M  V30 59 1 23 54
M  V30 60 1 24 55
M  V30 61 1 27 56
M  V30 62 1 28 57
M  V30 63 1 30 58
M  V30 64 1 32 59
M  V30 65 1 33 60
M  V30 66 1 33 61
M  V30 67 1 34 62
M  V30 68 1 34 63
M  V30 69 1 35 64
M  V30 70 1 35 65
M  V30 END BOND
M  V30 END CTAB
M  END
>  <Dataset>  (534) 
ChEMBL_Kinases

>  <Ligand_Instance>  (534) 
nan

>  <PDB_ID>  (534) 
nan

>  <Standardized_SMILES>  (534) 
Cc1nc(Nc2nccc(-c3sc(C4CCNCC4)nc3-c3ccc(F)cc3)n2)cc(C2CCC2)c1F

>  <Name>  (534) 
nan

>  <Pocket>  (534) 
nan

>  <ATP_Site>  (534) 
nan

>  <Peripheral>  (534) 
nan

>  <Num_H_Atoms_ProtBoundConf>  (534) 
nan

>  <Num_Resolved_Atoms>  (534) 
nan

>  <Num_Not_Resolved_Atoms>  (534) 
nan

$$$$
CHEMBL455124
     RDKit          3D

  0  0  0  0  0  0  0  0  0  0999 V3000
M  V30 BEGIN CTAB
M  V30 COUNTS 45 46 0 0 0
M  V30 BEGIN ATOM
M  V30 1 C 1.022531 -5.100271 3.051599 0
M  V30 2 C 1.349919 -4.651945 1.641952 0
M  V30 3 C 0.178629 -5.015853 0.773133 0
M  V30 4 C 1.685227 -3.223812 1.649910 0
M  V30 5 O 1.802612 -2.268322 2.451102 0
M  V30 6 O 2.011344 -2.477216 0.525623 0
M  V30 7 C 2.321599 -1.101063 0.636492 0
M  V30 8 C 2.626928 -0.445072 -0.662608 0
M  V30 9 C 3.838039 -0.942350 -1.356473 0
M  V30 10 O 3.683843 -2.282677 -1.702062 0
M  V30 11 C 2.619639 1.057862 -0.464883 0
M  V30 12 C 1.146932 1.264289 -0.212690 0
M  V30 13 C 0.503594 2.232455 0.410723 0
M  V30 14 C -0.917440 2.373599 0.616182 0
M  V30 15 C -1.183416 2.639882 1.970135 0
M  V30 16 C -2.450146 2.840545 2.486800 0
M  V30 17 C -3.521403 2.774770 1.616212 0
M  V30 18 C -4.944909 2.968815 2.070337 0
M  V30 19 F -5.179960 2.334592 3.256175 0
M  V30 20 F -5.277748 4.310860 2.104295 0
M  V30 21 F -5.811882 2.382637 1.144878 0
M  V30 22 C -3.292751 2.513545 0.266704 0
M  V30 23 C -2.016719 2.319737 -0.211058 0
M  V30 24 C 0.459551 0.086876 -0.787092 0
M  V30 25 O -0.752584 -0.234445 -0.643966 0
M  V30 26 O 1.475881 -0.571155 -1.515713 0
M  V30 27 H 0.564727 -6.110192 3.040491 0
M  V30 28 H 1.949964 -5.111084 3.655716 0
M  V30 29 H 0.273962 -4.382165 3.484654 0
M  V30 30 H 2.254342 -5.217180 1.296792 0
M  V30 31 H 0.456857 -4.997641 -0.286658 0
M  V30 32 H -0.112390 -6.057743 1.052346 0
M  V30 33 H -0.678609 -4.339709 0.999724 0
M  V30 34 H 1.393926 -0.630052 1.077164 0
M  V30 35 H 3.171229 -0.945278 1.323106 0
M  V30 36 H 4.089790 -0.379563 -2.262106 0
M  V30 37 H 4.686673 -0.922648 -0.610861 0
M  V30 38 H 3.119681 -2.411178 -2.498002 0
M  V30 39 H 3.230868 1.397705 0.375474 0
M  V30 40 H 2.814553 1.596194 -1.406622 0
M  V30 41 H 1.192975 3.003175 0.799706 0
M  V30 42 H -0.437415 2.721532 2.774002 0
M  V30 43 H -2.688381 3.044508 3.505913 0
M  V30 44 H -4.083036 2.446390 -0.484024 0
M  V30 45 H -1.748194 2.135642 -1.232376 0
M  V30 END ATOM
M  V30 BEGIN BOND
M  V30 1 1 1 2
M  V30 2 1 2 3
M  V30 3 1 2 4
M  V30 4 2 4 5
M  V30 5 1 4 6
M  V30 6 1 6 7
M  V30 7 1 7 8
M  V30 8 1 8 9
M  V30 9 1 9 10
M  V30 10 1 8 11
M  V30 11 1 11 12
M  V30 12 2 12 13
M  V30 13 1 13 14
M  V30 14 2 14 15
M  V30 15 1 15 16
M  V30 16 2 16 17
M  V30 17 1 17 18
M  V30 18 1 18 19
M  V30 19 1 18 20
M  V30 20 1 18 21
M  V30 21 1 17 22
M  V30 22 2 22 23
M  V30 23 1 12 24
M  V30 24 2 24 25
M  V30 25 1 24 26
M  V30 26 1 26 8
M  V30 27 1 23 14
M  V30 28 1 1 27
M  V30 29 1 1 28
M  V30 30 1 1 29
M  V30 31 1 2 30
M  V30 32 1 3 31
M  V30 33 1 3 32
M  V30 34 1 3 33
M  V30 35 1 7 34
M  V30 36 1 7 35
M  V30 37 1 9 36
M  V30 38 1 9 37
M  V30 39 1 10 38
M  V30 40 1 11 39
M  V30 41 1 11 40
M  V30 42 1 13 41
M  V30 43 1 15 42
M  V30 44 1 16 43
M  V30 45 1 22 44
M  V30 46 1 23 45
M  V30 END BOND
M  V30 END CTAB
M  END
>  <Dataset>  (535) 
ChEMBL_Kinases

>  <Ligand_Instance>  (535) 
nan

>  <PDB_ID>  (535) 
nan

>  <Standardized_SMILES>  (535) 
CC(C)C(=O)OCC1(CO)C/C(=C/c2ccc(C(F)(F)F)cc2)C(=O)O1

>  <Name>  (535) 
nan

>  <Pocket>  (535) 
nan

>  <ATP_Site>  (535) 
nan

>  <Peripheral>  (535) 
nan

>  <Num_H_Atoms_ProtBoundConf>  (535) 
nan

>  <Num_Resolved_Atoms>  (535) 
nan

>  <Num_Not_Resolved_Atoms>  (535) 
nan

$$$$
CHEMBL455123
     RDKit          3D

  0  0  0  0  0  0  0  0  0  0999 V3000
M  V30 BEGIN CTAB
M  V30 COUNTS 48 49 0 0 0
M  V30 BEGIN ATOM
M  V30 1 C 5.550031 -4.073706 -0.190684 0
M  V30 2 C 4.721430 -3.512236 0.941305 0
M  V30 3 C 5.598024 -3.346746 2.157725 0
M  V30 4 C 4.195021 -2.138029 0.619377 0
M  V30 5 O 4.483968 -1.643159 -0.478602 0
M  V30 6 O 3.455682 -1.661447 1.654234 0
M  V30 7 C 2.814791 -0.440234 1.700792 0
M  V30 8 C 1.650289 -0.167237 0.833757 0
M  V30 9 C 1.909643 -0.072119 -0.627888 0
M  V30 10 O 0.739443 0.449125 -1.243715 0
M  V30 11 C 1.033536 1.205468 1.205491 0
M  V30 12 C -0.421915 0.942197 1.104565 0
M  V30 13 C -1.469911 1.694197 0.765218 0
M  V30 14 C -2.857312 1.265424 0.715086 0
M  V30 15 C -3.883577 2.020692 1.248688 0
M  V30 16 C -5.211972 1.593870 1.167731 0
M  V30 17 C -6.289803 2.444583 1.761554 0
M  V30 18 F -6.191846 3.697479 1.163050 0
M  V30 19 F -7.526855 1.946534 1.392421 0
M  V30 20 F -6.170953 2.572996 3.131526 0
M  V30 21 C -5.520613 0.401014 0.547896 0
M  V30 22 C -4.517176 -0.373814 0.005655 0
M  V30 23 C -4.880402 -1.662061 -0.662573 0
M  V30 24 F -4.432534 -2.749594 0.058976 0
M  V30 25 F -6.225179 -1.765165 -0.829106 0
M  V30 26 F -4.203174 -1.648228 -1.888861 0
M  V30 27 C -3.211989 0.061090 0.093390 0
M  V30 28 C -0.545374 -0.447240 1.524056 0
M  V30 29 O -1.584618 -0.886483 2.138556 0
M  V30 30 O 0.613589 -1.091916 1.133300 0
M  V30 31 H 5.796406 -5.121365 0.040910 0
M  V30 32 H 6.436859 -3.440960 -0.378690 0
M  V30 33 H 4.932696 -4.117852 -1.138001 0
M  V30 34 H 3.877079 -4.210439 1.106047 0
M  V30 35 H 5.193137 -2.565462 2.844497 0
M  V30 36 H 6.574913 -2.947409 1.822070 0
M  V30 37 H 5.729488 -4.310861 2.674609 0
M  V30 38 H 3.602902 0.395991 1.573434 0
M  V30 39 H 2.449373 -0.342266 2.775960 0
M  V30 40 H 2.748071 0.549934 -0.943111 0
M  V30 41 H 2.056549 -1.095083 -1.096918 0
M  V30 42 H 0.981604 0.879371 -2.102279 0
M  V30 43 H 1.267684 1.372960 2.275791 0
M  V30 44 H 1.377132 1.994279 0.534698 0
M  V30 45 H -1.226373 2.733481 0.503666 0
M  V30 46 H -3.613042 2.952888 1.729211 0
M  V30 47 H -6.559084 0.089642 0.496607 0
M  V30 48 H -2.501612 -0.599316 -0.366696 0
M  V30 END ATOM
M  V30 BEGIN BOND
M  V30 1 1 1 2
M  V30 2 1 2 3
M  V30 3 1 2 4
M  V30 4 2 4 5
M  V30 5 1 4 6
M  V30 6 1 6 7
M  V30 7 1 7 8
M  V30 8 1 8 9
M  V30 9 1 9 10
M  V30 10 1 8 11
M  V30 11 1 11 12
M  V30 12 2 12 13
M  V30 13 1 13 14
M  V30 14 2 14 15
M  V30 15 1 15 16
M  V30 16 1 16 17
M  V30 17 1 17 18
M  V30 18 1 17 19
M  V30 19 1 17 20
M  V30 20 2 16 21
M  V30 21 1 21 22
M  V30 22 1 22 23
M  V30 23 1 23 24
M  V30 24 1 23 25
M  V30 25 1 23 26
M  V30 26 2 22 27
M  V30 27 1 12 28
M  V30 28 2 28 29
M  V30 29 1 28 30
M  V30 30 1 30 8
M  V30 31 1 27 14
M  V30 32 1 1 31
M  V30 33 1 1 32
M  V30 34 1 1 33
M  V30 35 1 2 34
M  V30 36 1 3 35
M  V30 37 1 3 36
M  V30 38 1 3 37
M  V30 39 1 7 38
M  V30 40 1 7 39
M  V30 41 1 9 40
M  V30 42 1 9 41
M  V30 43 1 10 42
M  V30 44 1 11 43
M  V30 45 1 11 44
M  V30 46 1 13 45
M  V30 47 1 15 46
M  V30 48 1 21 47
M  V30 49 1 27 48
M  V30 END BOND
M  V30 END CTAB
M  END
>  <Dataset>  (536) 
ChEMBL_Kinases

>  <Ligand_Instance>  (536) 
nan

>  <PDB_ID>  (536) 
nan

>  <Standardized_SMILES>  (536) 
CC(C)C(=O)OCC1(CO)C/C(=C/c2cc(C(F)(F)F)cc(C(F)(F)F)c2)C(=O)O1

>  <Name>  (536) 
nan

>  <Pocket>  (536) 
nan

>  <ATP_Site>  (536) 
nan

>  <Peripheral>  (536) 
nan

>  <Num_H_Atoms_ProtBoundConf>  (536) 
nan

>  <Num_Resolved_Atoms>  (536) 
nan

>  <Num_Not_Resolved_Atoms>  (536) 
nan

$$$$
CHEMBL4551217
     RDKit          3D

  0  0  0  0  0  0  0  0  0  0999 V3000
M  V30 BEGIN CTAB
M  V30 COUNTS 40 44 0 0 0
M  V30 BEGIN ATOM
M  V30 1 O 1.042468 -2.858409 3.698921 0
M  V30 2 C 1.149729 -2.054028 2.745760 0
M  V30 3 N 2.316737 -1.711772 2.006046 0
M  V30 4 C 2.105765 -0.742412 0.982653 0
M  V30 5 N 2.616550 -0.507485 -0.151577 0
M  V30 6 C 2.177245 0.587752 -0.990928 0
M  V30 7 C 1.339501 0.284847 -2.047716 0
M  V30 8 C 0.840483 1.202450 -2.926930 0
M  V30 9 C 1.190227 2.526022 -2.757985 0
M  V30 10 C 2.023466 2.848705 -1.711745 0
M  V30 11 C 2.388945 4.178633 -1.523105 0
M  V30 12 C 3.234142 4.475108 -0.454840 0
M  V30 13 C 3.720546 3.522498 0.415384 0
M  V30 14 C 3.356840 2.205639 0.226154 0
M  V30 15 C 2.521181 1.915749 -0.830793 0
M  V30 16 S 0.756376 0.211901 1.779701 0
M  V30 17 C -0.022576 -1.355884 2.309461 0
M  V30 18 C -1.294126 -1.577144 2.155414 0
M  V30 19 C -2.381241 -0.728478 1.698510 0
M  V30 20 O -2.140320 0.466749 1.414145 0
M  V30 21 N -3.548795 -1.510185 1.679798 0
M  V30 22 C -3.159458 -2.828103 2.123956 0
M  V30 23 C -4.048641 -3.878693 2.213244 0
M  V30 24 C -3.569566 -5.092416 2.617931 0
M  V30 25 C -2.223466 -5.227458 2.920851 0
M  V30 26 Br -1.655166 -6.967528 3.475305 0
M  V30 27 C -1.416232 -4.125208 2.802757 0
M  V30 28 C -1.816432 -2.889504 2.411428 0
M  V30 29 H 3.300391 -2.113602 2.148744 0
M  V30 30 H 1.047395 -0.749491 -2.204987 0
M  V30 31 H 0.177714 0.893246 -3.747168 0
M  V30 32 H 0.805844 3.260811 -3.441585 0
M  V30 33 H 2.010845 4.929315 -2.201880 0
M  V30 34 H 3.486605 5.524069 -0.354159 0
M  V30 35 H 4.374113 3.869453 1.214674 0
M  V30 36 H 3.734937 1.452204 0.905549 0
M  V30 37 H -4.473651 -1.130596 1.387897 0
M  V30 38 H -5.094474 -3.810154 1.987048 0
M  V30 39 H -4.245516 -5.930372 2.696541 0
M  V30 40 H -0.424905 -4.414673 3.033354 0
M  V30 END ATOM
M  V30 BEGIN BOND
M  V30 1 2 1 2
M  V30 2 1 2 3
M  V30 3 1 3 4
M  V30 4 2 4 5
M  V30 5 1 5 6
M  V30 6 2 6 7
M  V30 7 1 7 8
M  V30 8 2 8 9
M  V30 9 1 9 10
M  V30 10 2 10 11
M  V30 11 1 11 12
M  V30 12 2 12 13
M  V30 13 1 13 14
M  V30 14 2 14 15
M  V30 15 1 4 16
M  V30 16 1 16 17
M  V30 17 2 17 18
M  V30 18 1 18 19
M  V30 19 2 19 20
M  V30 20 1 19 21
M  V30 21 1 21 22
M  V30 22 2 22 23
M  V30 23 1 23 24
M  V30 24 2 24 25
M  V30 25 1 25 26
M  V30 26 1 25 27
M  V30 27 2 27 28
M  V30 28 1 17 2
M  V30 29 1 28 18
M  V30 30 1 15 6
M  V30 31 1 28 22
M  V30 32 1 15 10
M  V30 33 1 3 29
M  V30 34 1 7 30
M  V30 35 1 8 31
M  V30 36 1 9 32
M  V30 37 1 11 33
M  V30 38 1 12 34
M  V30 39 1 13 35
M  V30 40 1 14 36
M  V30 41 1 21 37
M  V30 42 1 23 38
M  V30 43 1 24 39
M  V30 44 1 27 40
M  V30 END BOND
M  V30 END CTAB
M  END
>  <Dataset>  (537) 
ChEMBL_Kinases

>  <Ligand_Instance>  (537) 
nan

>  <PDB_ID>  (537) 
nan

>  <Standardized_SMILES>  (537) 
O=C1N/C(=N/c2cccc3ccccc23)S/C1=C1\C(=O)Nc2ccc(Br)cc21

>  <Name>  (537) 
nan

>  <Pocket>  (537) 
nan

>  <ATP_Site>  (537) 
nan

>  <Peripheral>  (537) 
nan

>  <Num_H_Atoms_ProtBoundConf>  (537) 
nan

>  <Num_Resolved_Atoms>  (537) 
nan

>  <Num_Not_Resolved_Atoms>  (537) 
nan

$$$$
CHEMBL4639109
     RDKit          3D

  0  0  0  0  0  0  0  0  0  0999 V3000
M  V30 BEGIN CTAB
M  V30 COUNTS 52 55 0 0 0
M  V30 BEGIN ATOM
M  V30 1 C -1.490498 -8.191252 -1.967797 0
M  V30 2 O -0.277460 -7.624890 -2.366384 0
M  V30 3 C 0.142406 -6.365915 -1.908344 0
M  V30 4 C -0.682987 -5.687432 -1.042031 0
M  V30 5 C -0.232081 -4.438827 -0.608260 0
M  V30 6 C 0.960540 -3.867280 -0.991878 0
M  V30 7 N 1.398924 -2.587776 -0.562795 0
M  V30 8 C 0.676978 -1.445615 -0.122337 0
M  V30 9 C 1.346479 -0.502210 0.669103 0
M  V30 10 N 0.689953 0.591590 1.084848 0
M  V30 11 C -0.591643 0.857124 0.792888 0
M  V30 12 C -1.230393 1.949211 1.214402 0
M  V30 13 N -0.835201 3.066224 2.013133 0
M  V30 14 C -0.989748 3.048767 3.474185 0
M  V30 15 C -1.732582 4.305317 3.860861 0 CFG=1
M  V30 16 C -1.945035 4.255142 5.343464 0
M  V30 17 O -1.224146 5.446815 3.347177 0
M  V30 18 C -0.155010 5.326806 2.487516 0 CFG=1
M  V30 19 C 1.177947 5.290362 3.230826 0
M  V30 20 C -0.267184 4.266899 1.444556 0
M  V30 21 S -2.858768 1.865755 0.595927 0
M  V30 22 N -2.589775 0.229523 -0.276791 0
M  V30 23 C -1.302119 -0.030847 0.019702 0
M  V30 24 C -0.640124 -1.161493 -0.416388 0
M  V30 25 C 1.721535 -4.616385 -1.859469 0
M  V30 26 C 1.348004 -5.849319 -2.329521 0
M  V30 27 O 2.154877 -6.562973 -3.204436 0
M  V30 28 C 3.391410 -6.008282 -3.622244 0
M  V30 29 H -1.485012 -9.259066 -2.320132 0
M  V30 30 H -1.641184 -8.197366 -0.868999 0
M  V30 31 H -2.371455 -7.698801 -2.433880 0
M  V30 32 H -1.626993 -6.102628 -0.718602 0
M  V30 33 H -0.902113 -3.944808 0.078187 0
M  V30 34 H 2.460163 -2.482548 -0.579991 0
M  V30 35 H 2.397188 -0.689102 0.927211 0
M  V30 36 H -1.590157 2.150968 3.718158 0
M  V30 37 H -0.018108 2.933714 3.990153 0
M  V30 38 H -2.759091 4.170932 3.405027 0
M  V30 39 H -1.011865 4.028646 5.884128 0
M  V30 40 H -2.498160 5.111311 5.753741 0
M  V30 41 H -2.619524 3.367233 5.524246 0
M  V30 42 H -0.148862 6.300330 1.915018 0
M  V30 43 H 1.904793 4.611944 2.772178 0
M  V30 44 H 1.034921 5.064145 4.316085 0
M  V30 45 H 1.673817 6.301658 3.241399 0
M  V30 46 H -0.790215 4.553475 0.522472 0
M  V30 47 H 0.781497 3.991337 1.145423 0
M  V30 48 H -1.113407 -1.908115 -1.036946 0
M  V30 49 H 2.683182 -4.230038 -2.209320 0
M  V30 50 H 4.031766 -5.752889 -2.768907 0
M  V30 51 H 3.139792 -5.084948 -4.214870 0
M  V30 52 H 3.869067 -6.690967 -4.358007 0
M  V30 END ATOM
M  V30 BEGIN BOND
M  V30 1 1 1 2
M  V30 2 1 2 3
M  V30 3 2 3 4
M  V30 4 1 4 5
M  V30 5 2 5 6
M  V30 6 1 6 7
M  V30 7 1 7 8
M  V30 8 1 8 9
M  V30 9 2 9 10
M  V30 10 1 10 11
M  V30 11 2 11 12
M  V30 12 1 12 13
M  V30 13 1 13 14
M  V30 14 1 14 15
M  V30 15 1 15 16
M  V30 16 1 15 17
M  V30 17 1 17 18
M  V30 18 1 18 19
M  V30 19 1 18 20
M  V30 20 1 12 21
M  V30 21 1 21 22
M  V30 22 2 22 23
M  V30 23 1 23 24
M  V30 24 1 6 25
M  V30 25 2 25 26
M  V30 26 1 26 27
M  V30 27 1 27 28
M  V30 28 1 26 3
M  V30 29 2 24 8
M  V30 30 1 23 11
M  V30 31 1 20 13
M  V30 32 1 1 29
M  V30 33 1 1 30
M  V30 34 1 1 31
M  V30 35 1 4 32
M  V30 36 1 5 33
M  V30 37 1 7 34
M  V30 38 1 9 35
M  V30 39 1 14 36
M  V30 40 1 14 37
M  V30 41 1 15 38 CFG=3
M  V30 42 1 16 39
M  V30 43 1 16 40
M  V30 44 1 16 41
M  V30 45 1 18 42 CFG=3
M  V30 46 1 19 43
M  V30 47 1 19 44
M  V30 48 1 19 45
M  V30 49 1 20 46
M  V30 50 1 20 47
M  V30 51 1 24 48
M  V30 52 1 25 49
M  V30 53 1 28 50
M  V30 54 1 28 51
M  V30 55 1 28 52
M  V30 END BOND
M  V30 END CTAB
M  END
>  <Dataset>  (538) 
ChEMBL_Kinases

>  <Ligand_Instance>  (538) 
nan

>  <PDB_ID>  (538) 
nan

>  <Standardized_SMILES>  (538) 
COc1ccc(Nc2cnc3c(N4C[C@@H](C)O[C@@H](C)C4)snc3c2)cc1OC

>  <Name>  (538) 
nan

>  <Pocket>  (538) 
nan

>  <ATP_Site>  (538) 
nan

>  <Peripheral>  (538) 
nan

>  <Num_H_Atoms_ProtBoundConf>  (538) 
nan

>  <Num_Resolved_Atoms>  (538) 
nan

>  <Num_Not_Resolved_Atoms>  (538) 
nan

$$$$
CHEMBL4551036
     RDKit          3D

  0  0  0  0  0  0  0  0  0  0999 V3000
M  V30 BEGIN CTAB
M  V30 COUNTS 69 74 0 0 0
M  V30 BEGIN ATOM
M  V30 1 F 2.096908 -1.246636 7.411104 0
M  V30 2 C 2.059740 -0.700178 6.170190 0
M  V30 3 C 0.846663 -0.410959 5.587959 0
M  V30 4 C 0.838437 0.145939 4.321682 0
M  V30 5 C 1.999675 0.421045 3.623489 0
M  V30 6 C 1.956454 1.018886 2.266230 0
M  V30 7 N 2.492840 2.206942 2.067488 0
M  V30 8 C 2.549827 2.806165 1.106881 0
M  V30 9 C 3.053218 4.123480 0.511823 0
M  V30 10 C 4.093067 3.865277 -0.528450 0
M  V30 11 C 3.529820 3.657665 -1.896345 0
M  V30 12 N 2.726709 4.816767 -2.230493 0
M  V30 13 C 1.569566 4.938652 -1.370484 0
M  V30 14 C 1.903605 4.968682 0.078692 0
M  V30 15 S 1.677071 1.659184 -0.130076 0
M  V30 16 C 1.383959 0.430773 1.127948 0
M  V30 17 C 0.736837 -0.939543 1.239263 0
M  V30 18 C 1.505687 -2.021439 1.604890 0
M  V30 19 C 0.838652 -3.238689 1.683940 0
M  V30 20 N -0.476438 -3.324445 1.414209 0
M  V30 21 C -1.212929 -2.258553 1.058223 0
M  V30 22 N -2.600206 -2.374897 0.778349 0
M  V30 23 C -3.278135 -3.649800 0.892567 0
M  V30 24 C -4.582497 -3.512818 0.138876 0
M  V30 25 C -4.287726 -2.914714 -1.235002 0
M  V30 26 N -3.151639 -3.631640 -1.762196 0
M  V30 27 C -2.732341 -3.190003 -3.072530 0
M  V30 28 C -1.513361 -4.012080 -3.442825 0
M  V30 29 O -1.075857 -4.831655 -2.415833 0
M  V30 30 C -2.066541 -5.733475 -2.036894 0
M  V30 31 C -3.418771 -5.023767 -1.900508 0
M  V30 32 C -4.025957 -1.471565 -0.998509 0
M  V30 33 C -3.376700 -1.221773 0.368642 0
M  V30 34 N -0.574667 -1.091780 0.982515 0
M  V30 35 C 3.229744 0.123847 4.222915 0
M  V30 36 C 3.228147 -0.432894 5.489301 0
M  V30 37 H -0.098112 -0.600976 6.079118 0
M  V30 38 H -0.122598 0.368096 3.876613 0
M  V30 39 H 3.533095 4.614047 1.385758 0
M  V30 40 H 4.716230 4.794014 -0.580324 0
M  V30 41 H 4.744460 3.046086 -0.165852 0
M  V30 42 H 4.388957 3.673806 -2.619486 0
M  V30 43 H 2.951305 2.748128 -2.048261 0
M  V30 44 H 3.291988 5.693161 -2.264896 0
M  V30 45 H 1.085282 5.913272 -1.625152 0
M  V30 46 H 0.841407 4.172026 -1.671181 0
M  V30 47 H 2.126230 6.033014 0.368720 0
M  V30 48 H 0.995958 4.628465 0.650305 0
M  V30 49 H 2.552786 -1.832907 1.797279 0
M  V30 50 H 1.459135 -4.084387 1.974366 0
M  V30 51 H -2.649869 -4.477525 0.568675 0
M  V30 52 H -3.521499 -3.791140 1.977856 0
M  V30 53 H -5.202437 -4.404823 0.115356 0
M  V30 54 H -5.167267 -2.743993 0.714401 0
M  V30 55 H -5.205731 -3.029934 -1.840561 0
M  V30 56 H -3.541453 -3.424333 -3.803725 0
M  V30 57 H -2.425607 -2.136446 -3.134262 0
M  V30 58 H -0.629930 -3.375184 -3.714468 0
M  V30 59 H -1.680352 -4.644999 -4.350091 0
M  V30 60 H -2.099303 -6.540524 -2.790066 0
M  V30 61 H -1.808445 -6.147615 -1.046446 0
M  V30 62 H -4.006056 -5.505003 -1.121652 0
M  V30 63 H -3.919968 -5.183125 -2.900246 0
M  V30 64 H -3.373977 -0.983974 -1.741081 0
M  V30 65 H -4.988360 -0.918767 -0.995210 0
M  V30 66 H -2.717468 -0.326050 0.329429 0
M  V30 67 H -4.166202 -0.969982 1.135207 0
M  V30 68 H 4.124465 0.347831 3.657493 0
M  V30 69 H 4.179310 -0.666037 5.959680 0
M  V30 END ATOM
M  V30 BEGIN BOND
M  V30 1 1 1 2
M  V30 2 2 2 3
M  V30 3 1 3 4
M  V30 4 2 4 5
M  V30 5 1 5 6
M  V30 6 1 6 7
M  V30 7 2 7 8
M  V30 8 1 8 9
M  V30 9 1 9 10
M  V30 10 1 10 11
M  V30 11 1 11 12
M  V30 12 1 12 13
M  V30 13 1 13 14
M  V30 14 1 8 15
M  V30 15 1 15 16
M  V30 16 1 16 17
M  V30 17 2 17 18
M  V30 18 1 18 19
M  V30 19 2 19 20
M  V30 20 1 20 21
M  V30 21 1 21 22
M  V30 22 1 22 23
M  V30 23 1 23 24
M  V30 24 1 24 25
M  V30 25 1 25 26
M  V30 26 1 26 27
M  V30 27 1 27 28
M  V30 28 1 28 29
M  V30 29 1 29 30
M  V30 30 1 30 31
M  V30 31 1 25 32
M  V30 32 1 32 33
M  V30 33 2 21 34
M  V30 34 1 5 35
M  V30 35 2 35 36
M  V30 36 1 36 2
M  V30 37 2 16 6
M  V30 38 1 34 17
M  V30 39 1 14 9
M  V30 40 1 33 22
M  V30 41 1 31 26
M  V30 42 1 3 37
M  V30 43 1 4 38
M  V30 44 1 9 39
M  V30 45 1 10 40
M  V30 46 1 10 41
M  V30 47 1 11 42
M  V30 48 1 11 43
M  V30 49 1 12 44
M  V30 50 1 13 45
M  V30 51 1 13 46
M  V30 52 1 14 47
M  V30 53 1 14 48
M  V30 54 1 18 49
M  V30 55 1 19 50
M  V30 56 1 23 51
M  V30 57 1 23 52
M  V30 58 1 24 53
M  V30 59 1 24 54
M  V30 60 1 25 55
M  V30 61 1 27 56
M  V30 62 1 27 57
M  V30 63 1 28 58
M  V30 64 1 28 59
M  V30 65 1 30 60
M  V30 66 1 30 61
M  V30 67 1 31 62
M  V30 68 1 31 63
M  V30 69 1 32 64
M  V30 70 1 32 65
M  V30 71 1 33 66
M  V30 72 1 33 67
M  V30 73 1 35 68
M  V30 74 1 36 69
M  V30 END BOND
M  V30 END CTAB
M  END
>  <Dataset>  (539) 
ChEMBL_Kinases

>  <Ligand_Instance>  (539) 
nan

>  <PDB_ID>  (539) 
nan

>  <Standardized_SMILES>  (539) 
Fc1ccc(-c2nc(C3CCNCC3)sc2-c2ccnc(N3CCC(N4CCOCC4)CC3)n2)cc1

>  <Name>  (539) 
nan

>  <Pocket>  (539) 
nan

>  <ATP_Site>  (539) 
nan

>  <Peripheral>  (539) 
nan

>  <Num_H_Atoms_ProtBoundConf>  (539) 
nan

>  <Num_Resolved_Atoms>  (539) 
nan

>  <Num_Not_Resolved_Atoms>  (539) 
nan

$$$$
CHEMBL4550952
     RDKit          3D

  0  0  0  0  0  0  0  0  0  0999 V3000
M  V30 BEGIN CTAB
M  V30 COUNTS 59 63 0 0 0
M  V30 BEGIN ATOM
M  V30 1 C 2.716734 -5.284603 2.272055 0
M  V30 2 C 3.272806 -3.938653 1.944925 0
M  V30 3 C 4.097184 -3.716860 0.861445 0
M  V30 4 C 4.602770 -2.465896 0.573035 0
M  V30 5 C 4.285260 -1.397350 1.379662 0
M  V30 6 C 4.745189 0.022207 1.213212 0
M  V30 7 C 3.762626 0.722358 0.356919 0
M  V30 8 O 2.926375 -0.193813 0.117778 0
M  V30 9 N 3.838506 2.067330 -0.030064 0
M  V30 10 C 2.794260 2.564557 -0.860609 0
M  V30 11 C 1.618245 3.139652 -0.384010 0
M  V30 12 C 0.649624 3.599676 -1.276053 0
M  V30 13 O -0.432170 4.131285 -0.590819 0
M  V30 14 C -1.486173 3.314749 -0.239544 0
M  V30 15 C -2.619476 3.763273 0.450480 0
M  V30 16 C -3.676461 2.984339 0.812159 0
M  V30 17 C -3.694128 1.638349 0.504356 0
M  V30 18 N -4.597794 0.728580 0.756227 0
M  V30 19 C -4.600322 -0.416778 0.487990 0
M  V30 20 N -5.351658 -1.627823 0.590507 0
M  V30 21 C -4.972290 -2.886091 0.099047 0
M  V30 22 O -3.859003 -3.026174 -0.507616 0
M  V30 23 C -5.871633 -4.055183 0.287545 0
M  V30 24 C -5.925482 -4.962808 -0.958715 0
M  V30 25 C -5.217911 -5.404607 0.267673 0
M  V30 26 S -2.914887 -0.602708 -0.424966 0
M  V30 27 C -2.523763 1.227676 -0.195848 0
M  V30 28 C -1.419023 1.989653 -0.586143 0
M  V30 29 C 0.844961 3.490514 -2.639254 0
M  V30 30 C 2.005967 2.922545 -3.124646 0
M  V30 31 C 2.966703 2.466411 -2.226853 0
M  V30 32 F 4.093910 1.914703 -2.732847 0
M  V30 33 C 3.448494 -1.647095 2.471229 0
M  V30 34 C 2.925124 -2.891294 2.786864 0
M  V30 35 C 2.038201 -3.033008 3.986351 0
M  V30 36 H 3.132809 -5.674604 3.230286 0
M  V30 37 H 3.042674 -5.981479 1.466062 0
M  V30 38 H 1.601267 -5.246200 2.319985 0
M  V30 39 H 4.362895 -4.549276 0.207501 0
M  V30 40 H 5.247251 -2.239378 -0.256275 0
M  V30 41 H 5.758217 -0.028457 0.759677 0
M  V30 42 H 4.861040 0.466397 2.212070 0
M  V30 43 H 4.670084 2.616707 0.325309 0
M  V30 44 H 1.571454 3.173859 0.697403 0
M  V30 45 H -2.600539 4.838824 0.693959 0
M  V30 46 H -4.470648 3.481867 1.339147 0
M  V30 47 H -6.240385 -1.425906 1.096018 0
M  V30 48 H -6.834622 -3.894010 0.821557 0
M  V30 49 H -5.329487 -4.706134 -1.833812 0
M  V30 50 H -6.894405 -5.490210 -1.139836 0
M  V30 51 H -4.110870 -5.438525 0.222439 0
M  V30 52 H -5.649654 -6.182085 0.931423 0
M  V30 53 H -0.648885 1.472598 -1.105275 0
M  V30 54 H 0.022732 3.882803 -3.229355 0
M  V30 55 H 2.088187 2.871082 -4.202100 0
M  V30 56 H 3.172175 -0.823257 3.137368 0
M  V30 57 H 1.259327 -2.241985 4.034185 0
M  V30 58 H 1.525399 -3.998604 3.934859 0
M  V30 59 H 2.662086 -3.036074 4.905484 0
M  V30 END ATOM
M  V30 BEGIN BOND
M  V30 1 1 1 2
M  V30 2 2 2 3
M  V30 3 1 3 4
M  V30 4 2 4 5
M  V30 5 1 5 6
M  V30 6 1 6 7
M  V30 7 2 7 8
M  V30 8 1 7 9
M  V30 9 1 9 10
M  V30 10 2 10 11
M  V30 11 1 11 12
M  V30 12 1 12 13
M  V30 13 1 13 14
M  V30 14 2 14 15
M  V30 15 1 15 16
M  V30 16 2 16 17
M  V30 17 1 17 18
M  V30 18 2 18 19
M  V30 19 1 19 20
M  V30 20 1 20 21
M  V30 21 2 21 22
M  V30 22 1 21 23
M  V30 23 1 23 24
M  V30 24 1 24 25
M  V30 25 1 19 26
M  V30 26 1 26 27
M  V30 27 2 27 28
M  V30 28 2 12 29
M  V30 29 1 29 30
M  V30 30 2 30 31
M  V30 31 1 31 32
M  V30 32 1 5 33
M  V30 33 2 33 34
M  V30 34 1 34 35
M  V30 35 1 34 2
M  V30 36 1 31 10
M  V30 37 1 28 14
M  V30 38 1 27 17
M  V30 39 1 25 23
M  V30 40 1 1 36
M  V30 41 1 1 37
M  V30 42 1 1 38
M  V30 43 1 3 39
M  V30 44 1 4 40
M  V30 45 1 6 41
M  V30 46 1 6 42
M  V30 47 1 9 43
M  V30 48 1 11 44
M  V30 49 1 15 45
M  V30 50 1 16 46
M  V30 51 1 20 47
M  V30 52 1 23 48
M  V30 53 1 24 49
M  V30 54 1 24 50
M  V30 55 1 25 51
M  V30 56 1 25 52
M  V30 57 1 28 53
M  V30 58 1 29 54
M  V30 59 1 30 55
M  V30 60 1 33 56
M  V30 61 1 35 57
M  V30 62 1 35 58
M  V30 63 1 35 59
M  V30 END BOND
M  V30 END CTAB
M  END
>  <Dataset>  (540) 
ChEMBL_Kinases

>  <Ligand_Instance>  (540) 
nan

>  <PDB_ID>  (540) 
nan

>  <Standardized_SMILES>  (540) 
Cc1ccc(CC(=O)Nc2cc(Oc3ccc4nc(NC(=O)C5CC5)sc4c3)ccc2F)cc1C

>  <Name>  (540) 
nan

>  <Pocket>  (540) 
nan

>  <ATP_Site>  (540) 
nan

>  <Peripheral>  (540) 
nan

>  <Num_H_Atoms_ProtBoundConf>  (540) 
nan

>  <Num_Resolved_Atoms>  (540) 
nan

>  <Num_Not_Resolved_Atoms>  (540) 
nan

$$$$
CHEMBL4550946
     RDKit          3D

  0  0  0  0  0  0  0  0  0  0999 V3000
M  V30 BEGIN CTAB
M  V30 COUNTS 49 51 0 0 0
M  V30 BEGIN ATOM
M  V30 1 C 1.110200 -5.718481 1.237766 0
M  V30 2 O 1.482568 -4.375582 1.045461 0
M  V30 3 C 0.887830 -3.570503 0.119217 0
M  V30 4 O 0.162235 -4.539585 -0.194961 0
M  V30 5 C 1.396821 -2.207967 0.054257 0
M  V30 6 C 2.900385 -2.404632 -0.307320 0
M  V30 7 C 0.875408 -1.473674 -1.196859 0
M  V30 8 C 1.420227 -1.381459 1.242893 0
M  V30 9 C 0.249839 -0.959760 2.036753 0
M  V30 10 N -0.704006 -0.182286 1.325632 0
M  V30 11 C -0.541621 1.164166 1.094359 0
M  V30 12 C 0.507513 2.027707 1.431531 0
M  V30 13 C 0.523875 3.370620 1.124802 0
M  V30 14 O 1.566547 4.211063 1.464193 0
M  V30 15 C 2.719425 3.793736 2.155643 0
M  V30 16 C -0.554413 3.896791 0.446446 0
M  V30 17 C -1.604758 3.073428 0.099219 0
M  V30 18 C -1.585748 1.754842 0.418512 0
M  V30 19 C -2.472082 0.737215 0.201649 0
M  V30 20 C -3.706384 0.711042 -0.407407 0
M  V30 21 C -4.397397 -0.481859 -0.458499 0
M  V30 22 N -3.826031 -1.566002 0.093835 0
M  V30 23 C -2.601113 -1.546567 0.699197 0
M  V30 24 C -2.279368 -2.862484 1.235811 0
M  V30 25 C -1.893975 -0.378176 0.761391 0
M  V30 26 H 0.054643 -5.838864 1.570532 0
M  V30 27 H 1.218788 -6.329635 0.320435 0
M  V30 28 H 1.796625 -6.133424 2.026259 0
M  V30 29 H 3.342102 -2.954636 0.539709 0
M  V30 30 H 2.961122 -2.950118 -1.258808 0
M  V30 31 H 3.357033 -1.398580 -0.348438 0
M  V30 32 H 1.356820 -2.005566 -2.064564 0
M  V30 33 H -0.218468 -1.506036 -1.278148 0
M  V30 34 H 1.200401 -0.432915 -1.170124 0
M  V30 35 H 1.965579 -0.422695 0.937209 0
M  V30 36 H 2.204380 -1.829144 1.954986 0
M  V30 37 H -0.128930 -1.665504 2.794833 0
M  V30 38 H 0.720255 -0.201297 2.772132 0
M  V30 39 H 1.382754 1.682489 1.962751 0
M  V30 40 H 3.456236 4.623913 2.110980 0
M  V30 41 H 3.198901 2.909947 1.707408 0
M  V30 42 H 2.466037 3.605382 3.227725 0
M  V30 43 H -0.659677 4.938111 0.147922 0
M  V30 44 H -2.487669 3.445703 -0.442534 0
M  V30 45 H -4.088046 1.651671 -0.829187 0
M  V30 46 H -5.351932 -0.454919 -0.941745 0
M  V30 47 H -2.306588 -3.541748 0.315966 0
M  V30 48 H -3.149780 -3.310977 1.806610 0
M  V30 49 H -1.333666 -3.080202 1.660169 0
M  V30 END ATOM
M  V30 BEGIN BOND
M  V30 1 1 1 2
M  V30 2 1 2 3
M  V30 3 2 3 4
M  V30 4 1 3 5
M  V30 5 1 5 6
M  V30 6 1 5 7
M  V30 7 1 5 8
M  V30 8 1 8 9
M  V30 9 1 9 10
M  V30 10 1 10 11
M  V30 11 2 11 12
M  V30 12 1 12 13
M  V30 13 1 13 14
M  V30 14 1 14 15
M  V30 15 2 13 16
M  V30 16 1 16 17
M  V30 17 2 17 18
M  V30 18 1 18 19
M  V30 19 2 19 20
M  V30 20 1 20 21
M  V30 21 2 21 22
M  V30 22 1 22 23
M  V30 23 1 23 24
M  V30 24 2 23 25
M  V30 25 1 25 10
M  V30 26 1 18 11
M  V30 27 1 25 19
M  V30 28 1 1 26
M  V30 29 1 1 27
M  V30 30 1 1 28
M  V30 31 1 6 29
M  V30 32 1 6 30
M  V30 33 1 6 31
M  V30 34 1 7 32
M  V30 35 1 7 33
M  V30 36 1 7 34
M  V30 37 1 8 35
M  V30 38 1 8 36
M  V30 39 1 9 37
M  V30 40 1 9 38
M  V30 41 1 12 39
M  V30 42 1 15 40
M  V30 43 1 15 41
M  V30 44 1 15 42
M  V30 45 1 16 43
M  V30 46 1 17 44
M  V30 47 1 20 45
M  V30 48 1 21 46
M  V30 49 1 24 47
M  V30 50 1 24 48
M  V30 51 1 24 49
M  V30 END BOND
M  V30 END CTAB
M  END
>  <Dataset>  (541) 
ChEMBL_Kinases

>  <Ligand_Instance>  (541) 
nan

>  <PDB_ID>  (541) 
nan

>  <Standardized_SMILES>  (541) 
COC(=O)C(C)(C)CCn1c2cc(OC)ccc2c2ccnc(C)c21

>  <Name>  (541) 
nan

>  <Pocket>  (541) 
nan

>  <ATP_Site>  (541) 
nan

>  <Peripheral>  (541) 
nan

>  <Num_H_Atoms_ProtBoundConf>  (541) 
nan

>  <Num_Resolved_Atoms>  (541) 
nan

>  <Num_Not_Resolved_Atoms>  (541) 
nan

$$$$
CHEMBL4639224
     RDKit          3D

  0  0  0  0  0  0  0  0  0  0999 V3000
M  V30 BEGIN CTAB
M  V30 COUNTS 65 68 0 0 0
M  V30 BEGIN ATOM
M  V30 1 C 3.059194 -7.558193 3.855112 0
M  V30 2 C 2.808569 -6.093555 3.504940 0
M  V30 3 C 3.436635 -5.715228 2.204546 0
M  V30 4 C 3.180038 -4.241446 1.860508 0
M  V30 5 N 1.748343 -4.010551 1.759263 0
M  V30 6 C 1.320188 -2.667693 1.447099 0
M  V30 7 O 2.506946 -2.276462 1.403533 0
M  V30 8 C -0.088189 -2.345774 1.324143 0
M  V30 9 C -0.947223 -3.377309 1.601537 0
M  V30 10 N -2.248984 -3.104630 1.523382 0
M  V30 11 C -2.756618 -1.918502 1.199796 0
M  V30 12 C -4.113194 -1.722717 1.144906 0
M  V30 13 C -4.681018 -0.515945 0.817929 0
M  V30 14 C -3.793932 0.498127 0.545177 0
M  V30 15 C -4.334793 1.799831 0.196771 0
M  V30 16 C -3.557490 2.901406 -0.093736 0
M  V30 17 C -4.030162 4.132996 -0.425583 0
M  V30 18 Cl -2.964567 5.482675 -0.781415 0
M  V30 19 C -5.378921 4.346661 -0.489710 0
M  V30 20 O -5.900451 5.581611 -0.822767 0
M  V30 21 C -6.207214 3.284874 -0.209991 0
M  V30 22 Cl -7.928542 3.573304 -0.295796 0
M  V30 23 C -5.679319 2.059841 0.120334 0
M  V30 24 N -2.471121 0.289216 0.603388 0
M  V30 25 C -1.896722 -0.894231 0.923976 0
M  V30 26 C -0.521052 -1.085123 0.979539 0
M  V30 27 N 0.326588 -0.021130 0.668648 0
M  V30 28 C 1.597792 0.581823 0.465205 0 CFG=1
M  V30 29 C 2.368465 0.040727 -0.712214 0
M  V30 30 C 2.387970 0.913295 -1.918317 0
M  V30 31 C 1.161402 1.783813 -2.042745 0 CFG=2
M  V30 32 C 1.383843 2.746470 -3.150713 0
M  V30 33 N 1.617177 2.199967 -4.441761 0
M  V30 34 O 1.390398 4.014614 -3.081067 0
M  V30 35 C 0.902392 2.569907 -0.780680 0
M  V30 36 C 1.642258 2.085743 0.410728 0
M  V30 37 H 3.170261 -8.127290 2.917364 0
M  V30 38 H 2.275103 -7.986849 4.495245 0
M  V30 39 H 4.035646 -7.623752 4.383968 0
M  V30 40 H 1.716290 -5.918192 3.528444 0
M  V30 41 H 3.264824 -5.503032 4.329157 0
M  V30 42 H 4.530444 -5.889608 2.219572 0
M  V30 43 H 3.002183 -6.373034 1.419525 0
M  V30 44 H 3.697350 -4.026701 0.879216 0
M  V30 45 H 3.653211 -3.667046 2.682618 0
M  V30 46 H 1.091450 -4.846517 1.919005 0
M  V30 47 H -0.793695 -4.403029 1.881177 0
M  V30 48 H -4.729021 -2.591237 1.378421 0
M  V30 49 H -5.742387 -0.493754 0.810460 0
M  V30 50 H -2.480532 2.815034 -0.063333 0
M  V30 51 H -5.872462 6.346984 -0.157323 0
M  V30 52 H -6.415190 1.312268 0.316519 0
M  V30 53 H -0.210819 0.840961 0.445327 0
M  V30 54 H 2.237996 0.338109 1.386234 0
M  V30 55 H 3.413338 -0.162473 -0.418476 0
M  V30 56 H 1.925422 -0.967526 -0.921445 0
M  V30 57 H 2.347121 0.224255 -2.808225 0
M  V30 58 H 3.332863 1.481757 -2.042467 0
M  V30 59 H 0.323723 1.123136 -2.318645 0
M  V30 60 H 2.167570 1.397032 -4.805391 0
M  V30 61 H 1.178357 2.636591 -5.272289 0
M  V30 62 H 1.220640 3.645402 -0.936600 0
M  V30 63 H -0.187976 2.561607 -0.613761 0
M  V30 64 H 2.690954 2.370018 0.342642 0
M  V30 65 H 1.137591 2.540668 1.313883 0
M  V30 END ATOM
M  V30 BEGIN BOND
M  V30 1 1 1 2
M  V30 2 1 2 3
M  V30 3 1 3 4
M  V30 4 1 4 5
M  V30 5 1 5 6
M  V30 6 2 6 7
M  V30 7 1 6 8
M  V30 8 2 8 9
M  V30 9 1 9 10
M  V30 10 2 10 11
M  V30 11 1 11 12
M  V30 12 2 12 13
M  V30 13 1 13 14
M  V30 14 1 14 15
M  V30 15 2 15 16
M  V30 16 1 16 17
M  V30 17 1 17 18
M  V30 18 2 17 19
M  V30 19 1 19 20
M  V30 20 1 19 21
M  V30 21 1 21 22
M  V30 22 2 21 23
M  V30 23 2 14 24
M  V30 24 1 24 25
M  V30 25 2 25 26
M  V30 26 1 26 27
M  V30 27 1 27 28
M  V30 28 1 28 29
M  V30 29 1 29 30
M  V30 30 1 30 31
M  V30 31 1 31 32
M  V30 32 1 32 33
M  V30 33 2 32 34
M  V30 34 1 31 35
M  V30 35 1 35 36
M  V30 36 1 26 8
M  V30 37 1 36 28
M  V30 38 1 25 11
M  V30 39 1 23 15
M  V30 40 1 1 37
M  V30 41 1 1 38
M  V30 42 1 1 39
M  V30 43 1 2 40
M  V30 44 1 2 41
M  V30 45 1 3 42
M  V30 46 1 3 43
M  V30 47 1 4 44
M  V30 48 1 4 45
M  V30 49 1 5 46
M  V30 50 1 9 47
M  V30 51 1 12 48
M  V30 52 1 13 49
M  V30 53 1 16 50
M  V30 54 1 20 51
M  V30 55 1 23 52
M  V30 56 1 27 53
M  V30 57 1 28 54 CFG=1
M  V30 58 1 29 55
M  V30 59 1 29 56
M  V30 60 1 30 57
M  V30 61 1 30 58
M  V30 62 1 31 59 CFG=3
M  V30 63 1 33 60
M  V30 64 1 33 61
M  V30 65 1 35 62
M  V30 66 1 35 63
M  V30 67 1 36 64
M  V30 68 1 36 65
M  V30 END BOND
M  V30 END CTAB
M  END
>  <Dataset>  (542) 
ChEMBL_Kinases

>  <Ligand_Instance>  (542) 
nan

>  <PDB_ID>  (542) 
nan

>  <Standardized_SMILES>  (542) 
CCCCNC(=O)c1cnc2ccc(-c3cc(Cl)c(O)c(Cl)c3)nc2c1N[C@H]1CC[C@H](C(N)=O)CC1

>  <Name>  (542) 
nan

>  <Pocket>  (542) 
nan

>  <ATP_Site>  (542) 
nan

>  <Peripheral>  (542) 
nan

>  <Num_H_Atoms_ProtBoundConf>  (542) 
nan

>  <Num_Resolved_Atoms>  (542) 
nan

>  <Num_Not_Resolved_Atoms>  (542) 
nan

$$$$
CHEMBL4550810
     RDKit          3D

  0  0  0  0  0  0  0  0  0  0999 V3000
M  V30 BEGIN CTAB
M  V30 COUNTS 43 45 0 0 0
M  V30 BEGIN ATOM
M  V30 1 N 2.977235 -3.493339 5.142240 0
M  V30 2 C 2.168764 -2.966711 4.481900 0
M  V30 3 C 1.190967 -2.304763 3.656450 0
M  V30 4 C 1.553559 -1.700517 2.454802 0
M  V30 5 N 2.825914 -1.653298 1.831274 0
M  V30 6 C 3.448027 -0.987935 0.735891 0
M  V30 7 C 2.687291 -0.933834 -0.545033 0
M  V30 8 N 1.460823 -0.192500 -0.505455 0
M  V30 9 C 0.844590 -0.258521 -1.828276 0
M  V30 10 C 1.670264 0.423569 -2.870056 0
M  V30 11 N 2.112632 1.743759 -2.538082 0
M  V30 12 C 2.684492 1.796554 -1.206310 0
M  V30 13 C 1.672474 1.222796 -0.251976 0
M  V30 14 S 0.063957 -1.037828 1.813197 0
M  V30 15 C -1.020334 -1.569692 3.143273 0
M  V30 16 C -2.402946 -1.326220 3.212467 0
M  V30 17 O -3.051728 -1.661189 4.214251 0
M  V30 18 C -3.068866 -0.671451 2.075583 0
M  V30 19 C -4.446927 -0.393610 2.085245 0
M  V30 20 C -4.900563 0.196111 0.940027 0
M  V30 21 C -4.094128 0.477575 -0.086903 0
M  V30 22 Br -4.328198 1.275600 -1.816109 0
M  V30 23 S -2.428168 -0.134541 0.540091 0
M  V30 24 C -0.129782 -2.185330 3.916858 0
M  V30 25 N -0.683344 -2.753800 5.127007 0
M  V30 26 H 3.524701 -2.300637 2.319047 0
M  V30 27 H 4.409490 -1.530243 0.478113 0
M  V30 28 H 3.826874 0.020685 1.050533 0
M  V30 29 H 3.302181 -0.668681 -1.414086 0
M  V30 30 H 2.368182 -2.007112 -0.748249 0
M  V30 31 H 0.700053 -1.315920 -2.129497 0
M  V30 32 H -0.121968 0.288115 -1.744896 0
M  V30 33 H 0.990518 0.540409 -3.765574 0
M  V30 34 H 2.538290 -0.143634 -3.230061 0
M  V30 35 H 1.326273 2.427565 -2.582096 0
M  V30 36 H 2.805688 2.885743 -0.947130 0
M  V30 37 H 3.677844 1.282645 -1.173584 0
M  V30 38 H 0.701902 1.710018 -0.478114 0
M  V30 39 H 1.885167 1.449708 0.819758 0
M  V30 40 H -5.146091 -0.606513 2.910515 0
M  V30 41 H -5.921296 0.488963 0.746747 0
M  V30 42 H -1.128234 -3.698126 5.083216 0
M  V30 43 H -0.570613 -2.113252 5.971789 0
M  V30 END ATOM
M  V30 BEGIN BOND
M  V30 1 3 1 2
M  V30 2 1 2 3
M  V30 3 2 3 4
M  V30 4 1 4 5
M  V30 5 1 5 6
M  V30 6 1 6 7
M  V30 7 1 7 8
M  V30 8 1 8 9
M  V30 9 1 9 10
M  V30 10 1 10 11
M  V30 11 1 11 12
M  V30 12 1 12 13
M  V30 13 1 4 14
M  V30 14 1 14 15
M  V30 15 1 15 16
M  V30 16 2 16 17
M  V30 17 1 16 18
M  V30 18 2 18 19
M  V30 19 1 19 20
M  V30 20 2 20 21
M  V30 21 1 21 22
M  V30 22 1 21 23
M  V30 23 2 15 24
M  V30 24 1 24 25
M  V30 25 1 24 3
M  V30 26 1 13 8
M  V30 27 1 23 18
M  V30 28 1 5 26
M  V30 29 1 6 27
M  V30 30 1 6 28
M  V30 31 1 7 29
M  V30 32 1 7 30
M  V30 33 1 9 31
M  V30 34 1 9 32
M  V30 35 1 10 33
M  V30 36 1 10 34
M  V30 37 1 11 35
M  V30 38 1 12 36
M  V30 39 1 12 37
M  V30 40 1 13 38
M  V30 41 1 13 39
M  V30 42 1 19 40
M  V30 43 1 20 41
M  V30 44 1 25 42
M  V30 45 1 25 43
M  V30 END BOND
M  V30 END CTAB
M  END
>  <Dataset>  (543) 
ChEMBL_Kinases

>  <Ligand_Instance>  (543) 
nan

>  <PDB_ID>  (543) 
nan

>  <Standardized_SMILES>  (543) 
N#Cc1c(NCCN2CCNCC2)sc(C(=O)c2ccc(Br)s2)c1N

>  <Name>  (543) 
nan

>  <Pocket>  (543) 
nan

>  <ATP_Site>  (543) 
nan

>  <Peripheral>  (543) 
nan

>  <Num_H_Atoms_ProtBoundConf>  (543) 
nan

>  <Num_Resolved_Atoms>  (543) 
nan

>  <Num_Not_Resolved_Atoms>  (543) 
nan

$$$$
CHEMBL4550791
     RDKit          3D

  0  0  0  0  0  0  0  0  0  0999 V3000
M  V30 BEGIN CTAB
M  V30 COUNTS 52 55 0 0 0
M  V30 BEGIN ATOM
M  V30 1 C 0.134944 -6.243897 1.334513 0
M  V30 2 N 0.745754 -5.056820 0.853963 0
M  V30 3 C 1.347539 -3.886537 0.380687 0
M  V30 4 N 1.272386 -2.615062 0.733692 0
M  V30 5 C 1.920793 -1.610664 0.135998 0
M  V30 6 N 1.579032 -0.410838 0.809024 0
M  V30 7 C 0.395866 0.263131 0.402477 0
M  V30 8 C -0.366164 -0.185402 -0.655681 0
M  V30 9 N -1.483572 0.486210 -0.976163 0
M  V30 10 C -1.873671 1.582166 -0.290011 0
M  V30 11 C -3.091082 2.196306 -0.745078 0
M  V30 12 N -4.079099 2.686072 -1.093349 0
M  V30 13 C -1.148133 2.084723 0.787392 0
M  V30 14 O -1.674334 3.196373 1.375578 0
M  V30 15 C -1.171593 3.919796 2.461664 0
M  V30 16 C -2.035976 3.753617 3.702800 0
M  V30 17 C -3.432057 4.264468 3.462601 0
M  V30 18 C -3.513343 5.277121 2.365377 0
M  V30 19 N -2.345213 5.953634 2.020646 0
M  V30 20 C -1.076457 5.385398 2.225735 0
M  V30 21 C -0.005876 1.378420 1.096048 0
M  V30 22 N 2.682558 -1.987806 -0.883753 0
M  V30 23 C 2.857762 -3.209290 -1.350142 0
M  V30 24 C 2.155249 -4.235672 -0.689226 0
M  V30 25 C 2.509351 -5.504870 -1.354098 0
M  V30 26 C 2.468893 -5.646395 -2.723668 0
M  V30 27 C 2.800025 -6.807571 -3.381601 0
M  V30 28 C 3.200105 -7.902885 -2.604671 0
M  V30 29 N 3.241687 -7.769087 -1.261955 0
M  V30 30 C 2.911702 -6.619874 -0.646883 0
M  V30 31 H 0.395016 -7.071359 0.602502 0
M  V30 32 H -0.983504 -6.233503 1.356108 0
M  V30 33 H 0.494572 -6.599009 2.314524 0
M  V30 34 H 0.220224 -4.561592 1.650585 0
M  V30 35 H 2.172350 -0.041186 1.569221 0
M  V30 36 H -0.036947 -1.051041 -1.179803 0
M  V30 37 H -0.182094 3.512225 2.730649 0
M  V30 38 H -2.071312 2.699523 4.035119 0
M  V30 39 H -1.549961 4.336538 4.509738 0
M  V30 40 H -4.081775 3.381442 3.281231 0
M  V30 41 H -3.785634 4.723309 4.408275 0
M  V30 42 H -4.331766 5.997639 2.566243 0
M  V30 43 H -3.853184 4.697648 1.455482 0
M  V30 44 H -2.415960 6.692687 1.303107 0
M  V30 45 H -0.389432 5.693223 1.410868 0
M  V30 46 H -0.641511 5.841566 3.156305 0
M  V30 47 H 0.555616 1.772063 1.931407 0
M  V30 48 H 3.534950 -3.223072 -2.191510 0
M  V30 49 H 2.167452 -4.827260 -3.354870 0
M  V30 50 H 2.769275 -6.920703 -4.457402 0
M  V30 51 H 3.477833 -8.854943 -3.036487 0
M  V30 52 H 2.973057 -6.595502 0.430482 0
M  V30 END ATOM
M  V30 BEGIN BOND
M  V30 1 1 1 2
M  V30 2 1 2 3
M  V30 3 2 3 4
M  V30 4 1 4 5
M  V30 5 1 5 6
M  V30 6 1 6 7
M  V30 7 2 7 8
M  V30 8 1 8 9
M  V30 9 2 9 10
M  V30 10 1 10 11
M  V30 11 3 11 12
M  V30 12 1 10 13
M  V30 13 1 13 14
M  V30 14 1 14 15
M  V30 15 1 15 16
M  V30 16 1 16 17
M  V30 17 1 17 18
M  V30 18 1 18 19
M  V30 19 1 19 20
M  V30 20 2 13 21
M  V30 21 2 5 22
M  V30 22 1 22 23
M  V30 23 2 23 24
M  V30 24 1 24 25
M  V30 25 2 25 26
M  V30 26 1 26 27
M  V30 27 2 27 28
M  V30 28 1 28 29
M  V30 29 2 29 30
M  V30 30 1 24 3
M  V30 31 1 30 25
M  V30 32 1 21 7
M  V30 33 1 20 15
M  V30 34 1 1 31
M  V30 35 1 1 32
M  V30 36 1 1 33
M  V30 37 1 2 34
M  V30 38 1 6 35
M  V30 39 1 8 36
M  V30 40 1 15 37
M  V30 41 1 16 38
M  V30 42 1 16 39
M  V30 43 1 17 40
M  V30 44 1 17 41
M  V30 45 1 18 42
M  V30 46 1 18 43
M  V30 47 1 19 44
M  V30 48 1 20 45
M  V30 49 1 20 46
M  V30 50 1 21 47
M  V30 51 1 23 48
M  V30 52 1 26 49
M  V30 53 1 27 50
M  V30 54 1 28 51
M  V30 55 1 30 52
M  V30 END BOND
M  V30 END CTAB
M  END
>  <Dataset>  (544) 
ChEMBL_Kinases

>  <Ligand_Instance>  (544) 
nan

>  <PDB_ID>  (544) 
nan

>  <Standardized_SMILES>  (544) 
CNc1nc(Nc2cnc(C#N)c(OC3CCCNC3)c2)ncc1-c1cccnc1

>  <Name>  (544) 
nan

>  <Pocket>  (544) 
nan

>  <ATP_Site>  (544) 
nan

>  <Peripheral>  (544) 
nan

>  <Num_H_Atoms_ProtBoundConf>  (544) 
nan

>  <Num_Resolved_Atoms>  (544) 
nan

>  <Num_Not_Resolved_Atoms>  (544) 
nan

$$$$
CHEMBL4550759
     RDKit          3D

  0  0  0  0  0  0  0  0  0  0999 V3000
M  V30 BEGIN CTAB
M  V30 COUNTS 50 53 0 0 0
M  V30 BEGIN ATOM
M  V30 1 C -1.136482 0.120735 -3.612380 0
M  V30 2 O -0.747414 -0.564378 -2.456957 0
M  V30 3 C 0.299088 -1.446598 -2.357899 0
M  V30 4 C 0.673612 -2.107439 -1.215707 0
M  V30 5 C 1.725046 -2.982783 -1.155677 0
M  V30 6 C 1.989376 -3.574889 0.042162 0
M  V30 7 C 1.373679 -3.422656 1.311113 0
M  V30 8 C 2.428705 -2.505821 2.007553 0
M  V30 9 C 2.230626 -1.081295 1.623136 0
M  V30 10 N 0.903273 -0.593109 1.901059 0
M  V30 11 C 0.789930 0.771833 1.515386 0
M  V30 12 O 1.958925 0.987536 1.063819 0
M  V30 13 C -0.401573 1.604106 1.649936 0
M  V30 14 C -0.446059 2.106536 2.956007 0
M  V30 15 C -1.492285 2.941533 3.367874 0
M  V30 16 C -2.488545 3.266110 2.461408 0
M  V30 17 O -3.565250 4.081019 2.763739 0
M  V30 18 C -4.799073 3.657858 3.272057 0
M  V30 19 F -4.679794 3.018699 4.486459 0
M  V30 20 F -5.592718 4.783326 3.433464 0
M  V30 21 F -5.418691 2.772301 2.395942 0
M  V30 22 C -2.423682 2.758973 1.178986 0
M  V30 23 C -1.400842 1.937228 0.761608 0
M  V30 24 C 0.057543 -1.580230 2.479723 0
M  V30 25 C 0.169759 -2.948611 1.832197 0
M  V30 26 N 3.064045 -4.428202 -0.054487 0
M  V30 27 C 3.738622 -4.635933 -1.160171 0
M  V30 28 N 3.425325 -4.021448 -2.297445 0
M  V30 29 C 2.411516 -3.173767 -2.342612 0
M  V30 30 C 2.059868 -2.524529 -3.507456 0
M  V30 31 N 1.000439 -1.659908 -3.508805 0
M  V30 32 H -1.980247 -0.408038 -4.100750 0
M  V30 33 H -1.334835 1.163629 -3.370728 0
M  V30 34 H -0.232976 0.121811 -4.288578 0
M  V30 35 H 0.098036 -1.907780 -0.364608 0
M  V30 36 H 1.592217 -4.406268 1.860722 0
M  V30 37 H 2.247289 -2.633639 3.098766 0
M  V30 38 H 3.438778 -2.840723 1.785838 0
M  V30 39 H 2.953860 -0.486693 2.255186 0
M  V30 40 H 2.531591 -0.862678 0.588971 0
M  V30 41 H 0.248712 1.948448 3.776134 0
M  V30 42 H -1.600004 3.365374 4.345036 0
M  V30 43 H -3.162586 2.967660 0.417948 0
M  V30 44 H -1.227003 1.477455 -0.193816 0
M  V30 45 H 0.272332 -1.576075 3.578136 0
M  V30 46 H -1.021462 -1.230534 2.443449 0
M  V30 47 H -0.071472 -3.602332 2.757888 0
M  V30 48 H -0.815060 -3.211909 1.314102 0
M  V30 49 H 4.587303 -5.321702 -1.199266 0
M  V30 50 H 2.670083 -2.753641 -4.369199 0
M  V30 END ATOM
M  V30 BEGIN BOND
M  V30 1 1 1 2
M  V30 2 1 2 3
M  V30 3 2 3 4
M  V30 4 1 4 5
M  V30 5 2 5 6
M  V30 6 1 6 7
M  V30 7 1 7 8
M  V30 8 1 8 9
M  V30 9 1 9 10
M  V30 10 1 10 11
M  V30 11 2 11 12
M  V30 12 1 11 13
M  V30 13 2 13 14
M  V30 14 1 14 15
M  V30 15 2 15 16
M  V30 16 1 16 17
M  V30 17 1 17 18
M  V30 18 1 18 19
M  V30 19 1 18 20
M  V30 20 1 18 21
M  V30 21 1 16 22
M  V30 22 2 22 23
M  V30 23 1 10 24
M  V30 24 1 24 25
M  V30 25 1 6 26
M  V30 26 2 26 27
M  V30 27 1 27 28
M  V30 28 2 28 29
M  V30 29 1 29 30
M  V30 30 2 30 31
M  V30 31 1 31 3
M  V30 32 1 29 5
M  V30 33 1 25 7
M  V30 34 1 23 13
M  V30 35 1 1 32
M  V30 36 1 1 33
M  V30 37 1 1 34
M  V30 38 1 4 35
M  V30 39 1 7 36
M  V30 40 1 8 37
M  V30 41 1 8 38
M  V30 42 1 9 39
M  V30 43 1 9 40
M  V30 44 1 14 41
M  V30 45 1 15 42
M  V30 46 1 22 43
M  V30 47 1 23 44
M  V30 48 1 24 45
M  V30 49 1 24 46
M  V30 50 1 25 47
M  V30 51 1 25 48
M  V30 52 1 27 49
M  V30 53 1 30 50
M  V30 END BOND
M  V30 END CTAB
M  END
>  <Dataset>  (545) 
ChEMBL_Kinases

>  <Ligand_Instance>  (545) 
nan

>  <PDB_ID>  (545) 
nan

>  <Standardized_SMILES>  (545) 
COc1cc2c(C3CCN(C(=O)c4ccc(OC(F)(F)F)cc4)CC3)ncnc2cn1

>  <Name>  (545) 
nan

>  <Pocket>  (545) 
nan

>  <ATP_Site>  (545) 
nan

>  <Peripheral>  (545) 
nan

>  <Num_H_Atoms_ProtBoundConf>  (545) 
nan

>  <Num_Resolved_Atoms>  (545) 
nan

>  <Num_Not_Resolved_Atoms>  (545) 
nan

$$$$
CHEMBL4639441
     RDKit          3D

  0  0  0  0  0  0  0  0  0  0999 V3000
M  V30 BEGIN CTAB
M  V30 COUNTS 69 73 0 0 0
M  V30 BEGIN ATOM
M  V30 1 C 2.462706 -4.372242 4.493929 0
M  V30 2 C 3.180575 -4.889312 3.257595 0
M  V30 3 O 2.742765 -4.089051 2.178725 0
M  V30 4 C 3.157385 -4.239285 0.891972 0
M  V30 5 O 3.855367 -5.172486 1.307048 0
M  V30 6 C 2.977052 -3.678466 -0.428262 0
M  V30 7 C 3.729107 -4.318691 -1.380271 0
M  V30 8 N 3.686470 -3.932097 -2.663057 0
M  V30 9 C 2.905568 -2.913286 -3.022962 0
M  V30 10 C 2.874764 -2.513589 -4.350914 0
M  V30 11 C 2.076853 -1.458035 -4.712488 0
M  V30 12 C 1.325440 -0.819790 -3.750627 0
M  V30 13 C 0.489238 0.298144 -4.164163 0
M  V30 14 C 0.393177 0.765049 -5.453771 0
M  V30 15 C -0.393227 1.821750 -5.855369 0
M  V30 16 Cl -0.442780 2.334830 -7.522157 0
M  V30 17 C -1.159051 2.490294 -4.922550 0
M  V30 18 O -1.966755 3.560021 -5.276556 0
M  V30 19 C -1.083207 2.046072 -3.626837 0
M  V30 20 Cl -2.070257 2.913721 -2.444570 0
M  V30 21 C -0.298060 1.000773 -3.261288 0
M  V30 22 N 1.401094 -1.256077 -2.487820 0
M  V30 23 C 2.155317 -2.278295 -2.058979 0
M  V30 24 C 2.145047 -2.617515 -0.721809 0
M  V30 25 N 1.402170 -1.974099 0.288234 0
M  V30 26 C 0.439522 -0.919447 0.321265 0 CFG=1
M  V30 27 C -0.908409 -1.251644 -0.213522 0
M  V30 28 C -1.881546 -0.142563 0.140467 0
M  V30 29 C -2.178224 -0.175555 1.647159 0 CFG=2
M  V30 30 C -2.567913 1.146803 2.122576 0
M  V30 31 O -2.526507 1.876356 1.075105 0
M  V30 32 N -2.912035 1.554020 3.413532 0
M  V30 33 C -2.970856 0.753581 4.628956 0
M  V30 34 C -4.021141 1.271873 5.597623 0
M  V30 35 O -3.674966 2.607640 5.855561 0
M  V30 36 C -4.066610 3.308748 4.718408 0
M  V30 37 C -3.249645 2.975255 3.515533 0
M  V30 38 C -0.996811 -0.785581 2.376477 0
M  V30 39 C 0.307574 -0.390159 1.727971 0
M  V30 40 H 1.684626 -5.116537 4.811732 0
M  V30 41 H 3.216865 -4.308242 5.307210 0
M  V30 42 H 1.934545 -3.425048 4.308322 0
M  V30 43 H 4.273230 -4.726713 3.365112 0
M  V30 44 H 2.911690 -5.958299 3.120475 0
M  V30 45 H 4.381823 -5.142018 -1.189162 0
M  V30 46 H 3.499553 -3.072407 -5.046639 0
M  V30 47 H 2.125396 -1.233559 -5.749095 0
M  V30 48 H 0.955954 0.299934 -6.236709 0
M  V30 49 H -2.324004 3.634624 -6.213752 0
M  V30 50 H -0.320283 0.743854 -2.215910 0
M  V30 51 H 1.585047 -2.347292 1.246103 0
M  V30 52 H 0.866388 -0.112283 -0.343775 0
M  V30 53 H -1.253539 -2.197023 0.292442 0
M  V30 54 H -1.013506 -1.432247 -1.273978 0
M  V30 55 H -2.793407 -0.264812 -0.471326 0
M  V30 56 H -1.408871 0.832407 -0.083941 0
M  V30 57 H -3.029525 -0.871163 1.774860 0
M  V30 58 H -2.011371 0.788987 5.208755 0
M  V30 59 H -3.279302 -0.288511 4.373139 0
M  V30 60 H -3.853821 0.720976 6.543092 0
M  V30 61 H -5.039951 1.157225 5.227283 0
M  V30 62 H -3.955215 4.402245 4.904913 0
M  V30 63 H -5.145817 3.133718 4.525143 0
M  V30 64 H -2.317279 3.586396 3.479309 0
M  V30 65 H -3.847103 3.308142 2.623680 0
M  V30 66 H -1.064518 -0.506376 3.423817 0
M  V30 67 H -1.098883 -1.886111 2.299569 0
M  V30 68 H 0.434989 0.720757 1.732852 0
M  V30 69 H 1.155934 -0.784068 2.320639 0
M  V30 END ATOM
M  V30 BEGIN BOND
M  V30 1 1 1 2
M  V30 2 1 2 3
M  V30 3 1 3 4
M  V30 4 2 4 5
M  V30 5 1 4 6
M  V30 6 2 6 7
M  V30 7 1 7 8
M  V30 8 2 8 9
M  V30 9 1 9 10
M  V30 10 2 10 11
M  V30 11 1 11 12
M  V30 12 1 12 13
M  V30 13 2 13 14
M  V30 14 1 14 15
M  V30 15 1 15 16
M  V30 16 2 15 17
M  V30 17 1 17 18
M  V30 18 1 17 19
M  V30 19 1 19 20
M  V30 20 2 19 21
M  V30 21 2 12 22
M  V30 22 1 22 23
M  V30 23 2 23 24
M  V30 24 1 24 25
M  V30 25 1 25 26
M  V30 26 1 26 27
M  V30 27 1 27 28
M  V30 28 1 28 29
M  V30 29 1 29 30
M  V30 30 2 30 31
M  V30 31 1 30 32
M  V30 32 1 32 33
M  V30 33 1 33 34
M  V30 34 1 34 35
M  V30 35 1 35 36
M  V30 36 1 36 37
M  V30 37 1 29 38
M  V30 38 1 38 39
M  V30 39 1 24 6
M  V30 40 1 39 26
M  V30 41 1 23 9
M  V30 42 1 37 32
M  V30 43 1 21 13
M  V30 44 1 1 40
M  V30 45 1 1 41
M  V30 46 1 1 42
M  V30 47 1 2 43
M  V30 48 1 2 44
M  V30 49 1 7 45
M  V30 50 1 10 46
M  V30 51 1 11 47
M  V30 52 1 14 48
M  V30 53 1 18 49
M  V30 54 1 21 50
M  V30 55 1 25 51
M  V30 56 1 26 52 CFG=3
M  V30 57 1 27 53
M  V30 58 1 27 54
M  V30 59 1 28 55
M  V30 60 1 28 56
M  V30 61 1 29 57 CFG=3
M  V30 62 1 33 58
M  V30 63 1 33 59
M  V30 64 1 34 60
M  V30 65 1 34 61
M  V30 66 1 36 62
M  V30 67 1 36 63
M  V30 68 1 37 64
M  V30 69 1 37 65
M  V30 70 1 38 66
M  V30 71 1 38 67
M  V30 72 1 39 68
M  V30 73 1 39 69
M  V30 END BOND
M  V30 END CTAB
M  END
>  <Dataset>  (546) 
ChEMBL_Kinases

>  <Ligand_Instance>  (546) 
nan

>  <PDB_ID>  (546) 
nan

>  <Standardized_SMILES>  (546) 
CCOC(=O)c1cnc2ccc(-c3cc(Cl)c(O)c(Cl)c3)nc2c1N[C@H]1CC[C@H](C(=O)N2CCOCC2)CC1

>  <Name>  (546) 
nan

>  <Pocket>  (546) 
nan

>  <ATP_Site>  (546) 
nan

>  <Peripheral>  (546) 
nan

>  <Num_H_Atoms_ProtBoundConf>  (546) 
nan

>  <Num_Resolved_Atoms>  (546) 
nan

>  <Num_Not_Resolved_Atoms>  (546) 
nan

$$$$
CHEMBL4550589
     RDKit          3D

  0  0  0  0  0  0  0  0  0  0999 V3000
M  V30 BEGIN CTAB
M  V30 COUNTS 63 67 0 0 0
M  V30 BEGIN ATOM
M  V30 1 C 1.099095 -0.765419 5.964888 0
M  V30 2 N 1.643786 -0.380712 4.660657 0
M  V30 3 C 2.466338 -1.466453 4.180843 0
M  V30 4 C 3.125014 -1.139255 2.864659 0
M  V30 5 N 2.945293 0.300659 2.621603 0
M  V30 6 C 2.386932 0.850766 1.437635 0
M  V30 7 C 1.560853 0.068789 0.658401 0
M  V30 8 N 1.060851 0.607338 -0.460874 0
M  V30 9 C 1.268665 1.823446 -0.917325 0
M  V30 10 C 0.662267 2.206649 -2.106806 0
M  V30 11 C -0.229331 1.418410 -2.946854 0
M  V30 12 C -1.615031 1.683278 -2.405925 0
M  V30 13 C -2.678309 0.836697 -3.037726 0
M  V30 14 N -2.236946 -0.537932 -2.882287 0
M  V30 15 C -3.050259 -1.274923 -1.945263 0
M  V30 16 O -3.946377 -0.531317 -1.499969 0
M  V30 17 C -3.166745 -2.596890 -1.350463 0
M  V30 18 C -2.125209 -3.066447 -0.581178 0
M  V30 19 C -2.282893 -4.333610 -0.025053 0
M  V30 20 C -3.456962 -5.050057 -0.265520 0
M  V30 21 O -3.513197 -6.302248 0.336919 0
M  V30 22 C -4.045687 -6.474676 1.640643 0
M  V30 23 F -4.013287 -7.789175 2.053161 0
M  V30 24 F -5.360464 -6.044562 1.638504 0
M  V30 25 F -3.293127 -5.707363 2.519365 0
M  V30 26 C -4.480858 -4.552411 -1.040128 0
M  V30 27 C -4.343787 -3.311391 -1.594210 0
M  V30 28 C -1.079359 -0.804377 -3.721592 0
M  V30 29 C 0.118796 0.011638 -3.212893 0
M  V30 30 N 0.968736 3.482035 -2.456405 0
M  V30 31 C 1.757712 4.296350 -1.757041 0
M  V30 32 N 2.341345 3.902538 -0.595095 0
M  V30 33 C 2.092365 2.629052 -0.157558 0
M  V30 34 C 2.652626 2.137551 1.025451 0
M  V30 35 C 3.417680 0.991686 3.807861 0
M  V30 36 C 2.301509 0.870075 4.827707 0
M  V30 37 H 0.044974 -0.403488 5.953208 0
M  V30 38 H 1.142031 -1.863763 6.118428 0
M  V30 39 H 1.646272 -0.256651 6.772734 0
M  V30 40 H 3.212824 -1.785863 4.951269 0
M  V30 41 H 1.795829 -2.333102 4.026620 0
M  V30 42 H 4.212882 -1.345706 2.981581 0
M  V30 43 H 2.658761 -1.752277 2.076995 0
M  V30 44 H 1.272096 -0.945254 0.862520 0
M  V30 45 H -0.233194 1.933312 -3.965113 0
M  V30 46 H -1.600346 1.579900 -1.301811 0
M  V30 47 H -1.853857 2.741625 -2.633101 0
M  V30 48 H -3.615665 1.059751 -2.531489 0
M  V30 49 H -2.712054 1.076018 -4.123410 0
M  V30 50 H -1.238115 -2.468871 -0.427463 0
M  V30 51 H -1.454672 -4.681856 0.573742 0
M  V30 52 H -5.369761 -5.164614 -1.187707 0
M  V30 53 H -5.161667 -2.967567 -2.187232 0
M  V30 54 H -1.281413 -0.421223 -4.748075 0
M  V30 55 H -0.789313 -1.877190 -3.718117 0
M  V30 56 H 0.523241 -0.516989 -2.355525 0
M  V30 57 H 0.824257 -0.044456 -4.104966 0
M  V30 58 H 1.927970 5.311701 -2.149462 0
M  V30 59 H 3.296156 2.789493 1.604232 0
M  V30 60 H 4.359867 0.586748 4.198843 0
M  V30 61 H 3.598835 2.070672 3.610276 0
M  V30 62 H 1.552451 1.681224 4.578341 0
M  V30 63 H 2.634113 1.078122 5.866847 0
M  V30 END ATOM
M  V30 BEGIN BOND
M  V30 1 1 1 2
M  V30 2 1 2 3
M  V30 3 1 3 4
M  V30 4 1 4 5
M  V30 5 1 5 6
M  V30 6 2 6 7
M  V30 7 1 7 8
M  V30 8 2 8 9
M  V30 9 1 9 10
M  V30 10 1 10 11
M  V30 11 1 11 12
M  V30 12 1 12 13
M  V30 13 1 13 14
M  V30 14 1 14 15
M  V30 15 2 15 16
M  V30 16 1 15 17
M  V30 17 2 17 18
M  V30 18 1 18 19
M  V30 19 2 19 20
M  V30 20 1 20 21
M  V30 21 1 21 22
M  V30 22 1 22 23
M  V30 23 1 22 24
M  V30 24 1 22 25
M  V30 25 1 20 26
M  V30 26 2 26 27
M  V30 27 1 14 28
M  V30 28 1 28 29
M  V30 29 2 10 30
M  V30 30 1 30 31
M  V30 31 2 31 32
M  V30 32 1 32 33
M  V30 33 2 33 34
M  V30 34 1 5 35
M  V30 35 1 35 36
M  V30 36 1 36 2
M  V30 37 1 34 6
M  V30 38 1 33 9
M  V30 39 1 29 11
M  V30 40 1 27 17
M  V30 41 1 1 37
M  V30 42 1 1 38
M  V30 43 1 1 39
M  V30 44 1 3 40
M  V30 45 1 3 41
M  V30 46 1 4 42
M  V30 47 1 4 43
M  V30 48 1 7 44
M  V30 49 1 11 45
M  V30 50 1 12 46
M  V30 51 1 12 47
M  V30 52 1 13 48
M  V30 53 1 13 49
M  V30 54 1 18 50
M  V30 55 1 19 51
M  V30 56 1 26 52
M  V30 57 1 27 53
M  V30 58 1 28 54
M  V30 59 1 28 55
M  V30 60 1 29 56
M  V30 61 1 29 57
M  V30 62 1 31 58
M  V30 63 1 34 59
M  V30 64 1 35 60
M  V30 65 1 35 61
M  V30 66 1 36 62
M  V30 67 1 36 63
M  V30 END BOND
M  V30 END CTAB
M  END
>  <Dataset>  (547) 
ChEMBL_Kinases

>  <Ligand_Instance>  (547) 
nan

>  <PDB_ID>  (547) 
nan

>  <Standardized_SMILES>  (547) 
CN1CCN(c2cnc3c(C4CCN(C(=O)c5ccc(OC(F)(F)F)cc5)CC4)ncnc3c2)CC1

>  <Name>  (547) 
nan

>  <Pocket>  (547) 
nan

>  <ATP_Site>  (547) 
nan

>  <Peripheral>  (547) 
nan

>  <Num_H_Atoms_ProtBoundConf>  (547) 
nan

>  <Num_Resolved_Atoms>  (547) 
nan

>  <Num_Not_Resolved_Atoms>  (547) 
nan

$$$$
CHEMBL4550486
     RDKit          3D

  0  0  0  0  0  0  0  0  0  0999 V3000
M  V30 BEGIN CTAB
M  V30 COUNTS 56 60 0 0 0
M  V30 BEGIN ATOM
M  V30 1 C -0.282130 -4.852074 2.474148 0
M  V30 2 C 0.315942 -3.523032 2.270606 0
M  V30 3 S 1.201520 -2.649774 3.661117 0
M  V30 4 C 1.590789 -1.219186 2.664743 0
M  V30 5 C 2.327910 -0.082109 3.190532 0
M  V30 6 O 2.685534 -0.140755 4.381955 0
M  V30 7 N 2.566110 0.986550 2.284372 0
M  V30 8 C 3.277716 2.195913 2.620262 0 CFG=2
M  V30 9 C 2.389951 3.423878 2.524207 0
M  V30 10 C 3.026107 4.462073 3.447895 0
M  V30 11 C 4.516715 4.253081 3.552019 0
M  V30 12 C 5.109155 3.742287 2.257537 0
M  V30 13 C 4.485457 2.465492 1.784778 0 CFG=2
M  V30 14 N 4.174104 2.641168 0.382066 0
M  V30 15 C 1.080824 -1.463413 1.466689 0
M  V30 16 C 0.415333 -2.636572 1.215503 0
M  V30 17 C -0.204159 -3.070290 -0.031472 0
M  V30 18 C 0.495432 -3.791384 -0.991074 0
M  V30 19 N -0.337468 -4.046479 -2.025901 0
M  V30 20 N -1.519531 -3.517668 -1.752649 0
M  V30 21 C -2.718529 -3.455162 -2.402161 0
M  V30 22 C -3.793281 -2.808358 -1.829365 0
M  V30 23 C -5.044518 -2.792680 -2.602778 0
M  V30 24 C -6.006125 -1.796861 -2.591538 0
M  V30 25 N -6.981341 -2.146993 -3.416825 0
M  V30 26 N -6.723149 -3.309351 -3.970408 0
M  V30 27 C -7.597944 -3.968516 -4.922895 0
M  V30 28 C -5.530601 -3.731061 -3.484023 0
M  V30 29 C -3.726655 -2.197905 -0.592981 0
M  V30 30 N -2.524986 -2.273633 0.032455 0
M  V30 31 C -1.475628 -2.914894 -0.545865 0
M  V30 32 H -0.784293 -4.949750 3.459204 0
M  V30 33 H -1.067034 -4.964955 1.703221 0
M  V30 34 H 0.417036 -5.696444 2.382251 0
M  V30 35 H 2.241100 0.981457 1.292050 0
M  V30 36 H 3.580599 2.118787 3.670885 0
M  V30 37 H 1.349401 3.197716 2.788112 0
M  V30 38 H 2.475052 3.850505 1.502198 0
M  V30 39 H 2.716452 5.476151 3.200997 0
M  V30 40 H 2.618880 4.221918 4.467991 0
M  V30 41 H 4.812832 3.613239 4.404886 0
M  V30 42 H 4.982363 5.244146 3.741902 0
M  V30 43 H 5.066596 4.557424 1.502315 0
M  V30 44 H 6.181298 3.542033 2.453990 0
M  V30 45 H 5.164494 1.582389 1.832543 0
M  V30 46 H 3.830587 1.801542 -0.097179 0
M  V30 47 H 4.891624 3.194557 -0.111267 0
M  V30 48 H 1.194710 -0.721677 0.679723 0
M  V30 49 H 1.527635 -4.111647 -0.953124 0
M  V30 50 H -2.774123 -3.928693 -3.363285 0
M  V30 51 H -5.956333 -0.897157 -2.007000 0
M  V30 52 H -7.187262 -4.963834 -5.146058 0
M  V30 53 H -8.639766 -4.010998 -4.555417 0
M  V30 54 H -7.606209 -3.355383 -5.864013 0
M  V30 55 H -5.032118 -4.669848 -3.749566 0
M  V30 56 H -4.572569 -1.699634 -0.163461 0
M  V30 END ATOM
M  V30 BEGIN BOND
M  V30 1 1 1 2
M  V30 2 1 2 3
M  V30 3 1 3 4
M  V30 4 1 4 5
M  V30 5 2 5 6
M  V30 6 1 5 7
M  V30 7 1 7 8
M  V30 8 1 8 9
M  V30 9 1 9 10
M  V30 10 1 10 11
M  V30 11 1 11 12
M  V30 12 1 12 13
M  V30 13 1 13 14
M  V30 14 2 4 15
M  V30 15 1 15 16
M  V30 16 1 16 17
M  V30 17 1 17 18
M  V30 18 2 18 19
M  V30 19 1 19 20
M  V30 20 1 20 21
M  V30 21 2 21 22
M  V30 22 1 22 23
M  V30 23 1 23 24
M  V30 24 2 24 25
M  V30 25 1 25 26
M  V30 26 1 26 27
M  V30 27 1 26 28
M  V30 28 1 22 29
M  V30 29 2 29 30
M  V30 30 1 30 31
M  V30 31 2 16 2
M  V30 32 2 31 17
M  V30 33 1 13 8
M  V30 34 1 31 20
M  V30 35 2 28 23
M  V30 36 1 1 32
M  V30 37 1 1 33
M  V30 38 1 1 34
M  V30 39 1 7 35
M  V30 40 1 8 36 CFG=1
M  V30 41 1 9 37
M  V30 42 1 9 38
M  V30 43 1 10 39
M  V30 44 1 10 40
M  V30 45 1 11 41
M  V30 46 1 11 42
M  V30 47 1 12 43
M  V30 48 1 12 44
M  V30 49 1 13 45 CFG=3
M  V30 50 1 14 46
M  V30 51 1 14 47
M  V30 52 1 15 48
M  V30 53 1 18 49
M  V30 54 1 21 50
M  V30 55 1 24 51
M  V30 56 1 27 52
M  V30 57 1 27 53
M  V30 58 1 27 54
M  V30 59 1 28 55
M  V30 60 1 29 56
M  V30 END BOND
M  V30 END CTAB
M  END
>  <Dataset>  (548) 
ChEMBL_Kinases

>  <Ligand_Instance>  (548) 
nan

>  <PDB_ID>  (548) 
nan

>  <Standardized_SMILES>  (548) 
Cc1sc(C(=O)N[C@@H]2CCCC[C@@H]2N)cc1-c1cnn2cc(-c3cnn(C)c3)cnc12

>  <Name>  (548) 
nan

>  <Pocket>  (548) 
nan

>  <ATP_Site>  (548) 
nan

>  <Peripheral>  (548) 
nan

>  <Num_H_Atoms_ProtBoundConf>  (548) 
nan

>  <Num_Resolved_Atoms>  (548) 
nan

>  <Num_Not_Resolved_Atoms>  (548) 
nan

$$$$
CHEMBL4550313
     RDKit          3D

  0  0  0  0  0  0  0  0  0  0999 V3000
M  V30 BEGIN CTAB
M  V30 COUNTS 39 41 0 0 0
M  V30 BEGIN ATOM
M  V30 1 C -0.964838 -4.532306 1.269973 0
M  V30 2 C 0.222116 -4.113613 2.057182 0
M  V30 3 O -0.105499 -3.742122 3.331520 0
M  V30 4 C 1.143697 -3.136035 1.341153 0
M  V30 5 C 1.582455 -3.862879 0.065922 0
M  V30 6 N 0.658642 -1.832433 1.168731 0
M  V30 7 C 0.231891 -0.484285 0.957798 0
M  V30 8 N 0.919608 0.507607 0.384897 0
M  V30 9 C 0.518759 1.756747 0.203241 0
M  V30 10 C 1.400262 2.719612 -0.443955 0
M  V30 11 C 0.874072 3.987433 -0.577413 0
M  V30 12 C 1.685738 4.937316 -1.191199 0
M  V30 13 N 2.918761 4.600926 -1.621654 0
M  V30 14 C 3.380770 3.329635 -1.459870 0
M  V30 15 C 2.631070 2.316212 -0.854561 0
M  V30 16 N -0.706995 2.005641 0.655216 0
M  V30 17 C -1.520693 1.127938 1.249322 0
M  V30 18 C -2.752390 1.614212 1.634110 0
M  V30 19 N -3.577738 0.714495 2.236041 0
M  V30 20 C -3.194093 -0.560056 2.431413 0
M  V30 21 C -1.946560 -0.963421 2.016703 0
M  V30 22 C -1.025622 -0.147554 1.398185 0
M  V30 23 H -1.348389 -3.747840 0.583245 0
M  V30 24 H -1.781154 -4.880523 1.960488 0
M  V30 25 H -0.720986 -5.395205 0.624184 0
M  V30 26 H 0.864293 -5.041949 2.163776 0
M  V30 27 H 0.329199 -2.890830 3.626893 0
M  V30 28 H 2.070937 -3.153561 2.008684 0
M  V30 29 H 0.749252 -3.981996 -0.633701 0
M  V30 30 H 2.429161 -3.306945 -0.393807 0
M  V30 31 H 1.994643 -4.828861 0.406810 0
M  V30 32 H 1.590625 -1.700619 0.706563 0
M  V30 33 H -0.135654 4.232752 -0.216398 0
M  V30 34 H 1.317127 5.951964 -1.320378 0
M  V30 35 H 4.388404 3.123309 -1.830988 0
M  V30 36 H 3.021957 1.329267 -0.742688 0
M  V30 37 H -3.028376 2.644673 1.461611 0
M  V30 38 H -3.856368 -1.269914 2.910898 0
M  V30 39 H -1.671121 -1.967594 2.178169 0
M  V30 END ATOM
M  V30 BEGIN BOND
M  V30 1 1 1 2
M  V30 2 1 2 3
M  V30 3 1 2 4
M  V30 4 1 4 5
M  V30 5 1 4 6
M  V30 6 1 6 7
M  V30 7 2 7 8
M  V30 8 1 8 9
M  V30 9 1 9 10
M  V30 10 2 10 11
M  V30 11 1 11 12
M  V30 12 2 12 13
M  V30 13 1 13 14
M  V30 14 2 14 15
M  V30 15 2 9 16
M  V30 16 1 16 17
M  V30 17 2 17 18
M  V30 18 1 18 19
M  V30 19 2 19 20
M  V30 20 1 20 21
M  V30 21 2 21 22
M  V30 22 1 22 7
M  V30 23 1 15 10
M  V30 24 1 22 17
M  V30 25 1 1 23
M  V30 26 1 1 24
M  V30 27 1 1 25
M  V30 28 1 2 26
M  V30 29 1 3 27
M  V30 30 1 4 28
M  V30 31 1 5 29
M  V30 32 1 5 30
M  V30 33 1 5 31
M  V30 34 1 6 32
M  V30 35 1 11 33
M  V30 36 1 12 34
M  V30 37 1 14 35
M  V30 38 1 15 36
M  V30 39 1 18 37
M  V30 40 1 20 38
M  V30 41 1 21 39
M  V30 END BOND
M  V30 END CTAB
M  END
>  <Dataset>  (549) 
ChEMBL_Kinases

>  <Ligand_Instance>  (549) 
nan

>  <PDB_ID>  (549) 
nan

>  <Standardized_SMILES>  (549) 
CC(O)C(C)Nc1nc(-c2ccncc2)nc2cnccc12

>  <Name>  (549) 
nan

>  <Pocket>  (549) 
nan

>  <ATP_Site>  (549) 
nan

>  <Peripheral>  (549) 
nan

>  <Num_H_Atoms_ProtBoundConf>  (549) 
nan

>  <Num_Resolved_Atoms>  (549) 
nan

>  <Num_Not_Resolved_Atoms>  (549) 
nan

$$$$
CHEMBL4639293
     RDKit          3D

  0  0  0  0  0  0  0  0  0  0999 V3000
M  V30 BEGIN CTAB
M  V30 COUNTS 37 40 0 0 0
M  V30 BEGIN ATOM
M  V30 1 N 1.967905 -7.154815 2.497421 0
M  V30 2 C 1.175865 -6.038365 2.155230 0
M  V30 3 N -0.159943 -6.239413 2.033684 0
M  V30 4 C -0.975653 -5.214133 1.708505 0
M  V30 5 C -0.361058 -3.983364 1.515609 0
M  V30 6 N 0.958196 -3.742955 1.626501 0
M  V30 7 C 1.683888 -2.620850 1.471128 0
M  V30 8 C 1.261530 -1.290983 1.128145 0
M  V30 9 C 0.365117 -1.016834 0.118377 0
M  V30 10 C -0.058431 0.248046 -0.233092 0
M  V30 11 C 0.431046 1.334298 0.455053 0
M  V30 12 C 0.106024 2.738757 0.233338 0
M  V30 13 O 0.547401 3.709645 0.852922 0
M  V30 14 N -0.824944 3.096651 -0.807290 0
M  V30 15 C -1.201758 4.464014 -1.093221 0
M  V30 16 C -2.581379 4.806044 -1.501609 0
M  V30 17 C -1.480011 4.841717 -2.483291 0
M  V30 18 C 1.340446 1.084114 1.482543 0
M  V30 19 C 1.771229 -0.198371 1.840458 0
M  V30 20 C 2.987454 -2.989163 1.713135 0
M  V30 21 N 3.012282 -4.321220 2.007388 0
M  V30 22 C 1.750784 -4.794336 1.954519 0
M  V30 23 H 2.668003 -7.844603 2.129548 0
M  V30 24 H 1.801506 -7.395731 3.498465 0
M  V30 25 H -2.043524 -5.330365 1.601616 0
M  V30 26 H -1.034807 -3.178253 1.256162 0
M  V30 27 H -0.062592 -1.819581 -0.466758 0
M  V30 28 H -0.751265 0.467110 -1.012740 0
M  V30 29 H -1.288288 2.391771 -1.422904 0
M  V30 30 H -0.710205 5.214263 -0.439908 0
M  V30 31 H -3.352808 4.009504 -1.481309 0
M  V30 32 H -3.007571 5.791117 -1.218458 0
M  V30 33 H -1.141042 5.818090 -2.863919 0
M  V30 34 H -1.354099 4.021159 -3.237861 0
M  V30 35 H 1.766552 1.913592 2.068720 0
M  V30 36 H 2.480848 -0.305099 2.652017 0
M  V30 37 H 3.910951 -2.427883 1.704850 0
M  V30 END ATOM
M  V30 BEGIN BOND
M  V30 1 1 1 2
M  V30 2 2 2 3
M  V30 3 1 3 4
M  V30 4 2 4 5
M  V30 5 1 5 6
M  V30 6 1 6 7
M  V30 7 1 7 8
M  V30 8 2 8 9
M  V30 9 1 9 10
M  V30 10 2 10 11
M  V30 11 1 11 12
M  V30 12 2 12 13
M  V30 13 1 12 14
M  V30 14 1 14 15
M  V30 15 1 15 16
M  V30 16 1 16 17
M  V30 17 1 11 18
M  V30 18 2 18 19
M  V30 19 2 7 20
M  V30 20 1 20 21
M  V30 21 2 21 22
M  V30 22 1 22 2
M  V30 23 1 22 6
M  V30 24 1 19 8
M  V30 25 1 17 15
M  V30 26 1 1 23
M  V30 27 1 1 24
M  V30 28 1 4 25
M  V30 29 1 5 26
M  V30 30 1 9 27
M  V30 31 1 10 28
M  V30 32 1 14 29
M  V30 33 1 15 30
M  V30 34 1 16 31
M  V30 35 1 16 32
M  V30 36 1 17 33
M  V30 37 1 17 34
M  V30 38 1 18 35
M  V30 39 1 19 36
M  V30 40 1 20 37
M  V30 END BOND
M  V30 END CTAB
M  END
>  <Dataset>  (550) 
ChEMBL_Kinases

>  <Ligand_Instance>  (550) 
nan

>  <PDB_ID>  (550) 
nan

>  <Standardized_SMILES>  (550) 
Nc1nccn2c(-c3ccc(C(=O)NC4CC4)cc3)cnc12

>  <Name>  (550) 
nan

>  <Pocket>  (550) 
nan

>  <ATP_Site>  (550) 
nan

>  <Peripheral>  (550) 
nan

>  <Num_H_Atoms_ProtBoundConf>  (550) 
nan

>  <Num_Resolved_Atoms>  (550) 
nan

>  <Num_Not_Resolved_Atoms>  (550) 
nan

$$$$
CHEMBL4550262
     RDKit          3D

  0  0  0  0  0  0  0  0  0  0999 V3000
M  V30 BEGIN CTAB
M  V30 COUNTS 40 43 0 0 0
M  V30 BEGIN ATOM
M  V30 1 O 4.335342 -2.913251 -2.346335 0
M  V30 2 C 3.694966 -2.384303 -1.406497 0
M  V30 3 N 3.834842 -2.923436 -0.115219 0
M  V30 4 C 4.593604 -4.016351 0.446309 0
M  V30 5 C 6.062780 -3.735570 0.239951 0
M  V30 6 F 6.825658 -4.763063 0.779566 0
M  V30 7 F 6.335960 -2.526388 0.856659 0
M  V30 8 F 6.362179 -3.663751 -1.099113 0
M  V30 9 C 2.850050 -1.239853 -1.743172 0
M  V30 10 C 2.052764 -0.454463 -1.037564 0
M  V30 11 C 1.376122 0.562421 -1.669230 0
M  V30 12 C 0.461296 1.487267 -0.960845 0
M  V30 13 C 0.377699 2.860508 -1.056970 0
M  V30 14 N -0.621788 3.212266 -0.198896 0
M  V30 15 N -1.123012 2.136308 0.387822 0
M  V30 16 C -2.114945 1.962363 1.303396 0
M  V30 17 C -2.440293 0.687513 1.754913 0
M  V30 18 C -3.490339 0.420680 2.733061 0
M  V30 19 C -3.810718 1.307520 3.739985 0
M  V30 20 C -4.787604 1.122002 4.695477 0
M  V30 21 C -5.467478 -0.094395 4.564785 0
M  V30 22 N -5.166437 -0.968931 3.588585 0
M  V30 23 C -4.210164 -0.767911 2.667410 0
M  V30 24 C -1.760801 -0.433304 1.281800 0
M  V30 25 N -0.788658 -0.210954 0.378012 0
M  V30 26 C -0.483027 1.036943 -0.052479 0
M  V30 27 C 1.558814 0.720444 -3.017237 0
M  V30 28 S 2.777089 -0.680364 -3.390809 0
M  V30 29 H 3.225392 -2.367802 0.567048 0
M  V30 30 H 4.348538 -4.985102 -0.060089 0
M  V30 31 H 4.391035 -4.086614 1.530090 0
M  V30 32 H 1.978481 -0.663807 0.020617 0
M  V30 33 H 0.998882 3.474896 -1.694407 0
M  V30 34 H -2.666553 2.808098 1.695533 0
M  V30 35 H -3.250294 2.242899 3.797966 0
M  V30 36 H -4.999680 1.844065 5.460740 0
M  V30 37 H -6.250980 -0.314845 5.277930 0
M  V30 38 H -4.010017 -1.506720 1.903768 0
M  V30 39 H -1.943796 -1.453169 1.573409 0
M  V30 40 H 1.148571 1.419707 -3.690146 0
M  V30 END ATOM
M  V30 BEGIN BOND
M  V30 1 2 1 2
M  V30 2 1 2 3
M  V30 3 1 3 4
M  V30 4 1 4 5
M  V30 5 1 5 6
M  V30 6 1 5 7
M  V30 7 1 5 8
M  V30 8 1 2 9
M  V30 9 2 9 10
M  V30 10 1 10 11
M  V30 11 1 11 12
M  V30 12 1 12 13
M  V30 13 2 13 14
M  V30 14 1 14 15
M  V30 15 1 15 16
M  V30 16 2 16 17
M  V30 17 1 17 18
M  V30 18 2 18 19
M  V30 19 1 19 20
M  V30 20 2 20 21
M  V30 21 1 21 22
M  V30 22 2 22 23
M  V30 23 1 17 24
M  V30 24 2 24 25
M  V30 25 1 25 26
M  V30 26 2 11 27
M  V30 27 1 27 28
M  V30 28 1 28 9
M  V30 29 2 26 12
M  V30 30 1 26 15
M  V30 31 1 23 18
M  V30 32 1 3 29
M  V30 33 1 4 30
M  V30 34 1 4 31
M  V30 35 1 10 32
M  V30 36 1 13 33
M  V30 37 1 16 34
M  V30 38 1 19 35
M  V30 39 1 20 36
M  V30 40 1 21 37
M  V30 41 1 23 38
M  V30 42 1 24 39
M  V30 43 1 27 40
M  V30 END BOND
M  V30 END CTAB
M  END
>  <Dataset>  (551) 
ChEMBL_Kinases

>  <Ligand_Instance>  (551) 
nan

>  <PDB_ID>  (551) 
nan

>  <Standardized_SMILES>  (551) 
O=C(NCC(F)(F)F)c1cc(-c2cnn3cc(-c4cccnc4)cnc23)cs1

>  <Name>  (551) 
nan

>  <Pocket>  (551) 
nan

>  <ATP_Site>  (551) 
nan

>  <Peripheral>  (551) 
nan

>  <Num_H_Atoms_ProtBoundConf>  (551) 
nan

>  <Num_Resolved_Atoms>  (551) 
nan

>  <Num_Not_Resolved_Atoms>  (551) 
nan

$$$$
CHEMBL4550261
     RDKit          3D

  0  0  0  0  0  0  0  0  0  0999 V3000
M  V30 BEGIN CTAB
M  V30 COUNTS 47 50 0 0 0
M  V30 BEGIN ATOM
M  V30 1 N 1.357920 0.720238 4.999880 0
M  V30 2 C 2.084050 1.020537 3.815968 0
M  V30 3 N 3.444904 1.042101 3.708569 0
M  V30 4 C 4.033552 1.340661 2.533811 0
M  V30 5 C 3.333454 1.641833 1.370853 0
M  V30 6 C 4.008917 1.960831 0.115745 0
M  V30 7 C 3.349687 1.600180 -1.050063 0
M  V30 8 C 3.876627 1.843554 -2.302868 0
M  V30 9 C 5.104525 2.468940 -2.385829 0
M  V30 10 F 5.662648 2.729381 -3.589369 0
M  V30 11 C 5.759033 2.827400 -1.207617 0
M  V30 12 C 5.230220 2.583184 0.050087 0
M  V30 13 C 1.935468 1.631286 1.435857 0
M  V30 14 C 1.385906 1.319803 2.660464 0
M  V30 15 N -0.058986 1.325176 2.663770 0
M  V30 16 C -0.511312 0.017254 2.330141 0
M  V30 17 O 0.479056 -0.765065 2.128948 0
M  V30 18 C -1.917452 -0.366840 2.233784 0
M  V30 19 C -3.014004 0.460648 2.444900 0
M  V30 20 C -4.280113 -0.072796 2.310770 0
M  V30 21 N -4.482004 -1.366465 1.982590 0
M  V30 22 C -3.427833 -2.197626 1.770593 0
M  V30 23 N -3.568992 -3.581600 1.419325 0
M  V30 24 C -3.620179 -3.745972 0.005222 0
M  V30 25 O -3.546432 -2.769018 -0.783158 0
M  V30 26 C -3.761358 -5.044486 -0.667181 0
M  V30 27 C -2.875435 -5.231597 -1.914703 0
M  V30 28 C -4.371277 -5.204703 -1.991023 0
M  V30 29 C -2.124012 -1.708772 1.893394 0
M  V30 30 H 0.669765 -0.070569 5.004609 0
M  V30 31 H 1.540239 1.315186 5.849110 0
M  V30 32 H 5.120974 1.345339 2.497117 0
M  V30 33 H 2.388321 1.108817 -1.061806 0
M  V30 34 H 3.360166 1.560761 -3.228159 0
M  V30 35 H 6.737876 3.326306 -1.253850 0
M  V30 36 H 5.736990 2.860703 0.962988 0
M  V30 37 H 1.370630 1.856330 0.567307 0
M  V30 38 H -0.791672 2.071991 2.855749 0
M  V30 39 H -2.780779 1.475825 2.702416 0
M  V30 40 H -5.121697 0.586614 2.479041 0
M  V30 41 H -3.637279 -4.447135 1.995968 0
M  V30 42 H -3.827224 -5.918934 0.039436 0
M  V30 43 H -2.352277 -4.324962 -2.284341 0
M  V30 44 H -2.318954 -6.172031 -1.962890 0
M  V30 45 H -4.803936 -6.207091 -2.231480 0
M  V30 46 H -4.900400 -4.390942 -2.509950 0
M  V30 47 H -1.287233 -2.398549 1.717473 0
M  V30 END ATOM
M  V30 BEGIN BOND
M  V30 1 1 1 2
M  V30 2 2 2 3
M  V30 3 1 3 4
M  V30 4 2 4 5
M  V30 5 1 5 6
M  V30 6 2 6 7
M  V30 7 1 7 8
M  V30 8 2 8 9
M  V30 9 1 9 10
M  V30 10 1 9 11
M  V30 11 2 11 12
M  V30 12 1 5 13
M  V30 13 2 13 14
M  V30 14 1 14 15
M  V30 15 1 15 16
M  V30 16 2 16 17
M  V30 17 1 16 18
M  V30 18 2 18 19
M  V30 19 1 19 20
M  V30 20 2 20 21
M  V30 21 1 21 22
M  V30 22 1 22 23
M  V30 23 1 23 24
M  V30 24 2 24 25
M  V30 25 1 24 26
M  V30 26 1 26 27
M  V30 27 1 27 28
M  V30 28 2 22 29
M  V30 29 1 14 2
M  V30 30 1 29 18
M  V30 31 1 12 6
M  V30 32 1 28 26
M  V30 33 1 1 30
M  V30 34 1 1 31
M  V30 35 1 4 32
M  V30 36 1 7 33
M  V30 37 1 8 34
M  V30 38 1 11 35
M  V30 39 1 12 36
M  V30 40 1 13 37
M  V30 41 1 15 38
M  V30 42 1 19 39
M  V30 43 1 20 40
M  V30 44 1 23 41
M  V30 45 1 26 42
M  V30 46 1 27 43
M  V30 47 1 27 44
M  V30 48 1 28 45
M  V30 49 1 28 46
M  V30 50 1 29 47
M  V30 END BOND
M  V30 END CTAB
M  END
>  <Dataset>  (552) 
ChEMBL_Kinases

>  <Ligand_Instance>  (552) 
nan

>  <PDB_ID>  (552) 
nan

>  <Standardized_SMILES>  (552) 
Nc1ncc(-c2ccc(F)cc2)cc1NC(=O)c1ccnc(NC(=O)C2CC2)c1

>  <Name>  (552) 
nan

>  <Pocket>  (552) 
nan

>  <ATP_Site>  (552) 
nan

>  <Peripheral>  (552) 
nan

>  <Num_H_Atoms_ProtBoundConf>  (552) 
nan

>  <Num_Resolved_Atoms>  (552) 
nan

>  <Num_Not_Resolved_Atoms>  (552) 
nan

$$$$
CHEMBL4550214
     RDKit          3D

  0  0  0  0  0  0  0  0  0  0999 V3000
M  V30 BEGIN CTAB
M  V30 COUNTS 52 55 0 0 0
M  V30 BEGIN ATOM
M  V30 1 O 2.482172 -4.177294 5.271972 0
M  V30 2 C 2.329916 -4.474101 4.059944 0
M  V30 3 N 2.019337 -5.845281 3.872913 0
M  V30 4 O 1.872031 -6.834807 4.781480 0
M  V30 5 C 2.444572 -3.565945 2.928235 0
M  V30 6 C 2.278073 -3.964493 1.619085 0
M  V30 7 C 2.410905 -3.012894 0.635195 0
M  V30 8 C 2.696258 -1.678548 0.798141 0
M  V30 9 C 2.848433 -0.644516 -0.233900 0
M  V30 10 N 1.620799 -0.011753 -0.599416 0
M  V30 11 C 1.138150 1.077298 0.070176 0
M  V30 12 O 1.763112 1.566304 1.046082 0
M  V30 13 N 0.000310 1.742563 -0.197888 0
M  V30 14 C -0.460851 2.877589 0.534968 0
M  V30 15 C -1.345398 2.577855 1.700139 0
M  V30 16 C -2.590390 1.868764 1.353896 0
M  V30 17 C -2.773288 0.498239 1.300134 0
M  V30 18 C -4.006010 -0.050491 0.957360 0
M  V30 19 C -5.087833 0.746564 0.659400 0
M  V30 20 C -4.967051 2.119371 0.695837 0
M  V30 21 C -3.723896 2.622059 1.041441 0
M  V30 22 C -0.781753 1.340771 -1.216686 0
M  V30 23 O -1.857130 1.914570 -1.522704 0
M  V30 24 C -0.373398 0.247227 -1.951833 0
M  V30 25 C -1.154651 -0.176269 -3.007118 0
M  V30 26 C -0.765417 -1.272347 -3.778358 0
M  V30 27 C 0.424927 -1.908709 -3.442789 0
M  V30 28 C 1.157716 -1.437917 -2.379420 0
M  V30 29 C 0.807266 -0.371411 -1.604217 0
M  V30 30 C 2.851604 -1.348498 2.151763 0
M  V30 31 C 2.736575 -2.234923 3.202119 0
M  V30 32 H 1.858634 -6.273880 2.949287 0
M  V30 33 H 1.443634 -6.553200 5.623308 0
M  V30 34 H 2.050863 -4.995078 1.386701 0
M  V30 35 H 2.272386 -3.387375 -0.366124 0
M  V30 36 H 3.511314 0.154916 0.219387 0
M  V30 37 H 3.452837 -1.021754 -1.083847 0
M  V30 38 H -1.012976 3.587692 -0.126174 0
M  V30 39 H 0.430217 3.403815 0.930323 0
M  V30 40 H -0.783934 2.050159 2.521782 0
M  V30 41 H -1.624257 3.553615 2.149155 0
M  V30 42 H -1.905903 -0.106092 1.538841 0
M  V30 43 H -4.117548 -1.133274 0.924010 0
M  V30 44 H -6.062763 0.355360 0.388168 0
M  V30 45 H -5.774022 2.800280 0.473868 0
M  V30 46 H -3.632061 3.700790 1.069363 0
M  V30 47 H -2.069597 0.354792 -3.223880 0
M  V30 48 H -1.407139 -1.570921 -4.595854 0
M  V30 49 H 0.734733 -2.768052 -4.044428 0
M  V30 50 H 2.054260 -1.970241 -2.198375 0
M  V30 51 H 3.085525 -0.334946 2.470964 0
M  V30 52 H 2.865049 -1.932126 4.231263 0
M  V30 END ATOM
M  V30 BEGIN BOND
M  V30 1 2 1 2
M  V30 2 1 2 3
M  V30 3 1 3 4
M  V30 4 1 2 5
M  V30 5 2 5 6
M  V30 6 1 6 7
M  V30 7 2 7 8
M  V30 8 1 8 9
M  V30 9 1 9 10
M  V30 10 1 10 11
M  V30 11 2 11 12
M  V30 12 1 11 13
M  V30 13 1 13 14
M  V30 14 1 14 15
M  V30 15 1 15 16
M  V30 16 2 16 17
M  V30 17 1 17 18
M  V30 18 2 18 19
M  V30 19 1 19 20
M  V30 20 2 20 21
M  V30 21 1 13 22
M  V30 22 2 22 23
M  V30 23 1 22 24
M  V30 24 2 24 25
M  V30 25 1 25 26
M  V30 26 2 26 27
M  V30 27 1 27 28
M  V30 28 2 28 29
M  V30 29 1 8 30
M  V30 30 2 30 31
M  V30 31 1 31 5
M  V30 32 1 29 10
M  V30 33 1 21 16
M  V30 34 1 29 24
M  V30 35 1 3 32
M  V30 36 1 4 33
M  V30 37 1 6 34
M  V30 38 1 7 35
M  V30 39 1 9 36
M  V30 40 1 9 37
M  V30 41 1 14 38
M  V30 42 1 14 39
M  V30 43 1 15 40
M  V30 44 1 15 41
M  V30 45 1 17 42
M  V30 46 1 18 43
M  V30 47 1 19 44
M  V30 48 1 20 45
M  V30 49 1 21 46
M  V30 50 1 25 47
M  V30 51 1 26 48
M  V30 52 1 27 49
M  V30 53 1 28 50
M  V30 54 1 30 51
M  V30 55 1 31 52
M  V30 END BOND
M  V30 END CTAB
M  END
>  <Dataset>  (553) 
ChEMBL_Kinases

>  <Ligand_Instance>  (553) 
nan

>  <PDB_ID>  (553) 
nan

>  <Standardized_SMILES>  (553) 
O=C(NO)c1ccc(Cn2c(=O)n(CCc3ccccc3)c(=O)c3ccccc32)cc1

>  <Name>  (553) 
nan

>  <Pocket>  (553) 
nan

>  <ATP_Site>  (553) 
nan

>  <Peripheral>  (553) 
nan

>  <Num_H_Atoms_ProtBoundConf>  (553) 
nan

>  <Num_Resolved_Atoms>  (553) 
nan

>  <Num_Not_Resolved_Atoms>  (553) 
nan

$$$$
CHEMBL4550131
     RDKit          3D

  0  0  0  0  0  0  0  0  0  0999 V3000
M  V30 BEGIN CTAB
M  V30 COUNTS 105 108 0 0 0
M  V30 BEGIN ATOM
M  V30 1 C 0.830854 -5.022095 1.085592 0
M  V30 2 C 1.689470 -4.013645 1.846994 0
M  V30 3 C 0.800679 -3.052497 2.601180 0
M  V30 4 C 1.550033 -2.028708 3.375080 0
M  V30 5 C 2.505546 -1.145573 2.697401 0
M  V30 6 C 2.112113 -0.220747 1.622145 0
M  V30 7 C 1.587428 -0.735190 0.350319 0
M  V30 8 C 1.308902 0.452666 -0.569511 0
M  V30 9 O 1.544497 1.630865 -0.138071 0
M  V30 10 O 0.820749 0.116473 -1.803949 0
M  V30 11 C 0.513315 1.106947 -2.802785 0 CFG=1
M  V30 12 C 1.460062 0.736431 -3.930590 0
M  V30 13 C 2.412179 1.505790 -4.376442 0
M  V30 14 C 3.320589 1.168254 -5.447858 0
M  V30 15 O 4.226153 1.915932 -5.863401 0
M  V30 16 O 3.568122 0.139088 -6.303705 0
M  V30 17 C 4.629109 0.273413 -7.237708 0
M  V30 18 C 1.216507 -0.583738 -4.491750 0
M  V30 19 C -0.193908 -1.093571 -4.420728 0 CFG=1
M  V30 20 C -0.121344 -2.556298 -4.059666 0
M  V30 21 C -1.454250 -3.233511 -3.923773 0 CFG=2
M  V30 22 C -2.257863 -3.238945 -5.201260 0
M  V30 23 O -2.712036 -2.006792 -5.589071 0
M  V30 24 O -2.218584 -2.708870 -2.853330 0
M  V30 25 C -2.556860 -3.494666 -1.766803 0
M  V30 26 O -2.232377 -4.703660 -1.629748 0
M  V30 27 C -3.353501 -2.715506 -0.784225 0
M  V30 28 C -2.403254 -2.095097 0.230889 0
M  V30 29 O -3.089664 -1.317721 1.161223 0
M  V30 30 C -2.524267 -0.624633 2.197017 0
M  V30 31 C -2.489472 -1.216376 3.441869 0
M  V30 32 C -1.956432 -0.650410 4.581531 0
M  V30 33 C -1.416653 0.612706 4.449705 0
M  V30 34 C -0.833767 1.278064 5.635939 0
M  V30 35 C -1.235821 2.619949 5.686451 0
M  V30 36 C -0.792962 3.425349 6.725077 0
M  V30 37 C 0.036717 2.947142 7.718534 0
M  V30 38 C 0.400368 1.617836 7.617591 0
M  V30 39 C -0.019578 0.785926 6.600160 0
M  V30 40 O 0.300506 -0.534830 6.439873 0
M  V30 41 C 1.153210 -1.126879 7.413374 0
M  V30 42 C -1.435013 1.233583 3.217444 0
M  V30 43 C -1.978851 0.632658 2.100642 0
M  V30 44 C -1.900037 1.472252 0.923865 0
M  V30 45 O -1.758386 2.718860 0.979130 0
M  V30 46 O -1.959690 1.122384 -0.439779 0
M  V30 47 C -1.869142 2.094423 -1.444062 0
M  V30 48 C -1.968251 1.620135 -2.837900 0
M  V30 49 C -3.285959 0.877146 -3.060668 0
M  V30 50 C -2.157429 2.916814 -3.676126 0
M  V30 51 C -0.844574 0.880673 -3.424640 0 CFG=1
M  V30 52 O -0.732735 1.306232 -4.780076 0
M  V30 53 O -0.995558 -0.503413 -3.462586 0
M  V30 54 H 1.402153 -5.533665 0.294391 0
M  V30 55 H -0.032942 -4.490459 0.643587 0
M  V30 56 H 0.421456 -5.788862 1.771875 0
M  V30 57 H 2.279602 -4.611822 2.584708 0
M  V30 58 H 2.395731 -3.499208 1.187555 0
M  V30 59 H 0.247836 -3.708337 3.370121 0
M  V30 60 H 0.034439 -2.598959 1.980409 0
M  V30 61 H 0.746562 -1.388265 3.871377 0
M  V30 62 H 2.024978 -2.513919 4.300486 0
M  V30 63 H 3.064538 -0.584527 3.521774 0
M  V30 64 H 3.337401 -1.849411 2.304665 0
M  V30 65 H 1.468477 0.600218 2.062408 0
M  V30 66 H 3.055024 0.374671 1.351427 0
M  V30 67 H 2.456132 -1.238816 -0.183040 0
M  V30 68 H 0.775361 -1.429907 0.315673 0
M  V30 69 H 0.701931 2.126281 -2.464592 0
M  V30 70 H 2.551379 2.467201 -3.929239 0
M  V30 71 H 5.568345 0.400465 -6.656832 0
M  V30 72 H 4.669947 -0.560676 -7.936172 0
M  V30 73 H 4.533843 1.198469 -7.865937 0
M  V30 74 H 1.506273 -0.584504 -5.561325 0
M  V30 75 H 1.941996 -1.289482 -4.001726 0
M  V30 76 H -0.680841 -1.014823 -5.411378 0
M  V30 77 H 0.334681 -2.581047 -3.030115 0
M  V30 78 H 0.495835 -3.134539 -4.779298 0
M  V30 79 H -1.201541 -4.322365 -3.716560 0
M  V30 80 H -3.168101 -3.881185 -5.048043 0
M  V30 81 H -1.696335 -3.769198 -6.009072 0
M  V30 82 H -3.619535 -2.012473 -5.983321 0
M  V30 83 H -4.020132 -2.005457 -1.266968 0
M  V30 84 H -3.967634 -3.459260 -0.204303 0
M  V30 85 H -1.565834 -1.577448 -0.238925 0
M  V30 86 H -2.009779 -2.986167 0.809604 0
M  V30 87 H -2.904300 -2.216307 3.594968 0
M  V30 88 H -1.953926 -1.158068 5.537000 0
M  V30 89 H -1.885350 3.136426 4.977137 0
M  V30 90 H -1.076097 4.476619 6.811454 0
M  V30 91 H 0.388818 3.565413 8.533748 0
M  V30 92 H 1.043954 1.191878 8.361912 0
M  V30 93 H 2.160719 -0.655317 7.243585 0
M  V30 94 H 0.859193 -0.922270 8.442658 0
M  V30 95 H 1.301197 -2.205438 7.195557 0
M  V30 96 H -0.979105 2.234020 3.225471 0
M  V30 97 H -2.665164 2.849386 -1.275641 0
M  V30 98 H -0.909379 2.682427 -1.355455 0
M  V30 99 H -3.368179 0.000499 -2.413176 0
M  V30 100 H -3.305021 0.509411 -4.108122 0
M  V30 101 H -4.118784 1.582215 -2.912679 0
M  V30 102 H -2.148930 2.665840 -4.734259 0
M  V30 103 H -3.083486 3.419297 -3.352998 0
M  V30 104 H -1.317085 3.612359 -3.468261 0
M  V30 105 H -1.405097 0.882172 -5.353672 0
M  V30 END ATOM
M  V30 BEGIN BOND
M  V30 1 1 1 2
M  V30 2 1 2 3
M  V30 3 1 3 4
M  V30 4 1 4 5
M  V30 5 1 5 6
M  V30 6 1 6 7
M  V30 7 1 7 8
M  V30 8 2 8 9
M  V30 9 1 8 10
M  V30 10 1 10 11
M  V30 11 1 11 12
M  V30 12 2 12 13
M  V30 13 1 13 14
M  V30 14 2 14 15
M  V30 15 1 14 16
M  V30 16 1 16 17
M  V30 17 1 12 18
M  V30 18 1 18 19
M  V30 19 1 19 20
M  V30 20 1 20 21
M  V30 21 1 21 22
M  V30 22 1 22 23
M  V30 23 1 21 24
M  V30 24 1 24 25
M  V30 25 2 25 26
M  V30 26 1 25 27
M  V30 27 1 27 28
M  V30 28 1 28 29
M  V30 29 1 29 30
M  V30 30 2 30 31
M  V30 31 1 31 32
M  V30 32 2 32 33
M  V30 33 1 33 34
M  V30 34 2 34 35
M  V30 35 1 35 36
M  V30 36 2 36 37
M  V30 37 1 37 38
M  V30 38 2 38 39
M  V30 39 1 39 40
M  V30 40 1 40 41
M  V30 41 1 33 42
M  V30 42 2 42 43
M  V30 43 1 43 44
M  V30 44 2 44 45
M  V30 45 1 44 46
M  V30 46 1 46 47
M  V30 47 1 47 48
M  V30 48 1 48 49
M  V30 49 1 48 50
M  V30 50 1 48 51
M  V30 51 1 51 52 CFG=3
M  V30 52 1 51 53
M  V30 53 1 51 11
M  V30 54 1 53 19
M  V30 55 1 43 30
M  V30 56 1 39 34
M  V30 57 1 1 54
M  V30 58 1 1 55
M  V30 59 1 1 56
M  V30 60 1 2 57
M  V30 61 1 2 58
M  V30 62 1 3 59
M  V30 63 1 3 60
M  V30 64 1 4 61
M  V30 65 1 4 62
M  V30 66 1 5 63
M  V30 67 1 5 64
M  V30 68 1 6 65
M  V30 69 1 6 66
M  V30 70 1 7 67
M  V30 71 1 7 68
M  V30 72 1 11 69 CFG=1
M  V30 73 1 13 70
M  V30 74 1 17 71
M  V30 75 1 17 72
M  V30 76 1 17 73
M  V30 77 1 18 74
M  V30 78 1 18 75
M  V30 79 1 19 76 CFG=3
M  V30 80 1 20 77
M  V30 81 1 20 78
M  V30 82 1 21 79 CFG=1
M  V30 83 1 22 80
M  V30 84 1 22 81
M  V30 85 1 23 82
M  V30 86 1 27 83
M  V30 87 1 27 84
M  V30 88 1 28 85
M  V30 89 1 28 86
M  V30 90 1 31 87
M  V30 91 1 32 88
M  V30 92 1 35 89
M  V30 93 1 36 90
M  V30 94 1 37 91
M  V30 95 1 38 92
M  V30 96 1 41 93
M  V30 97 1 41 94
M  V30 98 1 41 95
M  V30 99 1 42 96
M  V30 100 1 47 97
M  V30 101 1 47 98
M  V30 102 1 49 99
M  V30 103 1 49 100
M  V30 104 1 49 101
M  V30 105 1 50 102
M  V30 106 1 50 103
M  V30 107 1 50 104
M  V30 108 1 52 105
M  V30 END BOND
M  V30 END CTAB
M  END
>  <Dataset>  (554) 
ChEMBL_Kinases

>  <Ligand_Instance>  (554) 
nan

>  <PDB_ID>  (554) 
nan

>  <Standardized_SMILES>  (554) 
CCCCCCCC(=O)O[C@H]1/C(=C/C(=O)OC)C[C@H]2C[C@H](CO)OC(=O)CCOc3ccc(-c4ccccc4OC)cc3C(=O)OCC(C)(C)[C@]1(O)O2

>  <Name>  (554) 
nan

>  <Pocket>  (554) 
nan

>  <ATP_Site>  (554) 
nan

>  <Peripheral>  (554) 
nan

>  <Num_H_Atoms_ProtBoundConf>  (554) 
nan

>  <Num_Resolved_Atoms>  (554) 
nan

>  <Num_Not_Resolved_Atoms>  (554) 
nan

$$$$
CHEMBL4549792
     RDKit          3D

  0  0  0  0  0  0  0  0  0  0999 V3000
M  V30 BEGIN CTAB
M  V30 COUNTS 53 56 0 0 0
M  V30 BEGIN ATOM
M  V30 1 O 2.070375 -0.042777 -1.497738 0
M  V30 2 C 1.033127 -0.739488 -1.320170 0
M  V30 3 N 0.969594 -1.688536 -2.372383 0
M  V30 4 C 2.090974 -1.504314 -3.231563 0
M  V30 5 C 1.971108 -0.636051 -4.297308 0
M  V30 6 C 2.997065 -0.389600 -5.184977 0
M  V30 7 N 4.170554 -1.022880 -5.007221 0
M  V30 8 N 4.310504 -1.859722 -3.993521 0
M  V30 9 C 3.332271 -2.124146 -3.108771 0
M  V30 10 C 0.113303 -0.544834 -0.209684 0
M  V30 11 C 0.499656 0.499483 0.642753 0
M  V30 12 C -0.226547 0.855045 1.754962 0
M  V30 13 N 0.200353 1.918672 2.595123 0
M  V30 14 C -0.609007 2.322039 3.721567 0
M  V30 15 C -0.306925 3.651406 4.293120 0
M  V30 16 C 0.827215 4.410333 3.712972 0
M  V30 17 F 0.518879 4.939418 2.457311 0
M  V30 18 C 1.952454 3.424425 3.464559 0
M  V30 19 C 1.474397 2.589965 2.294499 0
M  V30 20 C -1.383095 0.173287 2.065049 0
M  V30 21 C -1.751772 -0.850448 1.219647 0
M  V30 22 C -1.041858 -1.226023 0.099774 0
M  V30 23 O -1.379628 -2.216764 -0.737026 0
M  V30 24 C -2.364772 -3.135826 -0.865499 0
M  V30 25 C -2.579143 -4.120973 0.191018 0
M  V30 26 C -1.765163 -5.254227 0.036325 0
M  V30 27 C -1.804742 -6.318304 0.912797 0
M  V30 28 C -2.656765 -6.316952 1.994660 0
M  V30 29 C -3.458391 -5.205408 2.150195 0
M  V30 30 C -3.424107 -4.139763 1.278965 0
M  V30 31 H 0.159381 -2.339784 -2.359534 0
M  V30 32 H 1.021797 -0.126917 -4.436975 0
M  V30 33 H 2.798407 0.313616 -5.992056 0
M  V30 34 H 3.432759 -2.808000 -2.272730 0
M  V30 35 H 1.408709 1.097586 0.470634 0
M  V30 36 H -1.701137 2.362599 3.433581 0
M  V30 37 H -0.509855 1.510265 4.469809 0
M  V30 38 H -1.187778 4.357988 4.315028 0
M  V30 39 H -0.072542 3.516356 5.390588 0
M  V30 40 H 1.198141 5.163709 4.418186 0
M  V30 41 H 2.117740 2.752028 4.318280 0
M  V30 42 H 2.868767 3.933105 3.117341 0
M  V30 43 H 2.284122 1.817773 2.159983 0
M  V30 44 H 1.420659 3.155635 1.353306 0
M  V30 45 H -1.981364 0.418980 2.927744 0
M  V30 46 H -2.649721 -1.359530 1.479828 0
M  V30 47 H -3.343119 -2.578751 -1.019080 0
M  V30 48 H -2.234514 -3.645450 -1.869094 0
M  V30 49 H -1.041508 -5.399103 -0.770950 0
M  V30 50 H -1.185054 -7.198150 0.808316 0
M  V30 51 H -2.788806 -7.072225 2.749100 0
M  V30 52 H -4.182502 -5.062310 2.959373 0
M  V30 53 H -4.026430 -3.270437 1.357490 0
M  V30 END ATOM
M  V30 BEGIN BOND
M  V30 1 2 1 2
M  V30 2 1 2 3
M  V30 3 1 3 4
M  V30 4 2 4 5
M  V30 5 1 5 6
M  V30 6 2 6 7
M  V30 7 1 7 8
M  V30 8 2 8 9
M  V30 9 1 2 10
M  V30 10 2 10 11
M  V30 11 1 11 12
M  V30 12 1 12 13
M  V30 13 1 13 14
M  V30 14 1 14 15
M  V30 15 1 15 16
M  V30 16 1 16 17
M  V30 17 1 16 18
M  V30 18 1 18 19
M  V30 19 2 12 20
M  V30 20 1 20 21
M  V30 21 2 21 22
M  V30 22 1 22 23
M  V30 23 1 23 24
M  V30 24 1 24 25
M  V30 25 2 25 26
M  V30 26 1 26 27
M  V30 27 2 27 28
M  V30 28 1 28 29
M  V30 29 2 29 30
M  V30 30 1 9 4
M  V30 31 1 22 10
M  V30 32 1 30 25
M  V30 33 1 19 13
M  V30 34 1 3 31
M  V30 35 1 5 32
M  V30 36 1 6 33
M  V30 37 1 9 34
M  V30 38 1 11 35
M  V30 39 1 14 36
M  V30 40 1 14 37
M  V30 41 1 15 38
M  V30 42 1 15 39
M  V30 43 1 16 40
M  V30 44 1 18 41
M  V30 45 1 18 42
M  V30 46 1 19 43
M  V30 47 1 19 44
M  V30 48 1 20 45
M  V30 49 1 21 46
M  V30 50 1 24 47
M  V30 51 1 24 48
M  V30 52 1 26 49
M  V30 53 1 27 50
M  V30 54 1 28 51
M  V30 55 1 29 52
M  V30 56 1 30 53
M  V30 END BOND
M  V30 END CTAB
M  END
>  <Dataset>  (555) 
ChEMBL_Kinases

>  <Ligand_Instance>  (555) 
nan

>  <PDB_ID>  (555) 
nan

>  <Standardized_SMILES>  (555) 
O=C(Nc1ccnnc1)c1cc(N2CCC(F)CC2)ccc1OCc1ccccc1

>  <Name>  (555) 
nan

>  <Pocket>  (555) 
nan

>  <ATP_Site>  (555) 
nan

>  <Peripheral>  (555) 
nan

>  <Num_H_Atoms_ProtBoundConf>  (555) 
nan

>  <Num_Resolved_Atoms>  (555) 
nan

>  <Num_Not_Resolved_Atoms>  (555) 
nan

$$$$
CHEMBL454973
     RDKit          3D

  0  0  0  0  0  0  0  0  0  0999 V3000
M  V30 BEGIN CTAB
M  V30 COUNTS 44 47 0 0 0
M  V30 BEGIN ATOM
M  V30 1 C 2.635922 -5.736967 4.143336 0
M  V30 2 N 1.476896 -5.873623 3.290135 0
M  V30 3 C 0.936036 -4.890054 2.437686 0
M  V30 4 N 1.598213 -3.741158 2.460818 0
M  V30 5 C 1.191766 -2.682991 1.681891 0
M  V30 6 S 1.816682 -0.923373 1.410274 0
M  V30 7 C 0.478393 -0.569995 0.203034 0
M  V30 8 C 0.304889 0.780959 -0.521677 0
M  V30 9 C -0.731626 0.906687 -1.388931 0
M  V30 10 C -0.833343 2.135682 -2.006168 0
M  V30 11 C 0.058684 3.156040 -1.753842 0
M  V30 12 C 1.094235 2.978375 -0.864463 0
M  V30 13 C 2.134302 3.973289 -0.483118 0
M  V30 14 N 1.674398 4.719008 0.667566 0
M  V30 15 C 0.735128 5.757462 0.757113 0
M  V30 16 C 0.411319 6.386498 2.056367 0
M  V30 17 O 0.200467 6.101833 -0.344069 0
M  V30 18 C 1.248830 1.755997 -0.208446 0
M  V30 19 N -0.139241 -1.574357 0.152435 0
M  V30 20 C 0.103073 -2.679410 0.823078 0
M  V30 21 C -0.571357 -3.882750 0.813899 0
M  V30 22 C -0.153780 -4.931607 1.597550 0
M  V30 23 N -0.963088 -6.017325 1.431052 0
M  V30 24 C -1.906459 -5.663923 0.534562 0
M  V30 25 N -1.657006 -4.400826 0.183345 0
M  V30 26 C -2.443323 -3.613086 -0.777457 0
M  V30 27 H 3.517086 -6.203902 3.666257 0
M  V30 28 H 2.454708 -6.196682 5.131588 0
M  V30 29 H 2.921094 -4.660167 4.271350 0
M  V30 30 H 0.960026 -6.778981 3.276341 0
M  V30 31 H -1.384428 0.057141 -1.529133 0
M  V30 32 H -1.646280 2.276403 -2.704713 0
M  V30 33 H 0.000816 4.119499 -2.223047 0
M  V30 34 H 2.232336 4.746593 -1.302488 0
M  V30 35 H 3.112264 3.498588 -0.317269 0
M  V30 36 H 2.117853 4.431467 1.571146 0
M  V30 37 H -0.401438 5.813227 2.559533 0
M  V30 38 H 0.079459 7.433276 1.958048 0
M  V30 39 H 1.328263 6.319617 2.711555 0
M  V30 40 H 2.051138 1.544901 0.512247 0
M  V30 41 H -2.707223 -6.287356 0.173823 0
M  V30 42 H -2.963607 -2.763670 -0.309163 0
M  V30 43 H -3.174515 -4.283883 -1.285686 0
M  V30 44 H -1.799676 -3.207276 -1.578772 0
M  V30 END ATOM
M  V30 BEGIN BOND
M  V30 1 1 1 2
M  V30 2 1 2 3
M  V30 3 2 3 4
M  V30 4 1 4 5
M  V30 5 1 5 6
M  V30 6 1 6 7
M  V30 7 1 7 8
M  V30 8 2 8 9
M  V30 9 1 9 10
M  V30 10 2 10 11
M  V30 11 1 11 12
M  V30 12 1 12 13
M  V30 13 1 13 14
M  V30 14 1 14 15
M  V30 15 1 15 16
M  V30 16 2 15 17
M  V30 17 2 12 18
M  V30 18 2 7 19
M  V30 19 1 19 20
M  V30 20 1 20 21
M  V30 21 2 21 22
M  V30 22 1 22 23
M  V30 23 2 23 24
M  V30 24 1 24 25
M  V30 25 1 25 26
M  V30 26 1 22 3
M  V30 27 2 20 5
M  V30 28 1 25 21
M  V30 29 1 18 8
M  V30 30 1 1 27
M  V30 31 1 1 28
M  V30 32 1 1 29
M  V30 33 1 2 30
M  V30 34 1 9 31
M  V30 35 1 10 32
M  V30 36 1 11 33
M  V30 37 1 13 34
M  V30 38 1 13 35
M  V30 39 1 14 36
M  V30 40 1 16 37
M  V30 41 1 16 38
M  V30 42 1 16 39
M  V30 43 1 18 40
M  V30 44 1 24 41
M  V30 45 1 26 42
M  V30 46 1 26 43
M  V30 47 1 26 44
M  V30 END BOND
M  V30 END CTAB
M  END
>  <Dataset>  (556) 
ChEMBL_Kinases

>  <Ligand_Instance>  (556) 
nan

>  <PDB_ID>  (556) 
nan

>  <Standardized_SMILES>  (556) 
CNc1nc2sc(-c3cccc(CNC(C)=O)c3)nc2c2c1ncn2C

>  <Name>  (556) 
nan

>  <Pocket>  (556) 
nan

>  <ATP_Site>  (556) 
nan

>  <Peripheral>  (556) 
nan

>  <Num_H_Atoms_ProtBoundConf>  (556) 
nan

>  <Num_Resolved_Atoms>  (556) 
nan

>  <Num_Not_Resolved_Atoms>  (556) 
nan

$$$$
CHEMBL4549553
     RDKit          3D

  0  0  0  0  0  0  0  0  0  0999 V3000
M  V30 BEGIN CTAB
M  V30 COUNTS 44 47 0 0 0
M  V30 BEGIN ATOM
M  V30 1 C 2.005165 -3.522171 1.368912 0
M  V30 2 C 2.014507 -2.384665 2.394184 0
M  V30 3 C 2.048224 -1.067809 1.723887 0
M  V30 4 N 3.298679 -0.550480 1.490169 0
M  V30 5 C 3.180278 0.631630 0.868280 0
M  V30 6 C 4.178842 1.479313 0.455420 0
M  V30 7 N 3.786093 2.610895 -0.148261 0
M  V30 8 C 2.480416 2.867766 -0.322795 0
M  V30 9 C 2.197018 4.056007 -0.958864 0
M  V30 10 C 0.862975 4.348363 -1.159589 0
M  V30 11 C -0.159091 3.486031 -0.741118 0
M  V30 12 Cl -1.816912 3.953763 -1.045982 0
M  V30 13 C 0.244951 2.324214 -0.114605 0
M  V30 14 C 1.544349 1.966323 0.120119 0
M  V30 15 C 1.818483 0.779340 0.750148 0
M  V30 16 N 1.097250 -0.226654 1.255382 0
M  V30 17 C -0.291989 -0.418191 1.308207 0 CFG=2
M  V30 18 C -0.731020 -1.402737 2.439972 0
M  V30 19 C -2.274983 -1.312704 2.503215 0
M  V30 20 O -2.769756 -1.991391 1.468069 0
M  V30 21 C -2.090499 -1.947634 0.317800 0 CFG=2
M  V30 22 C -1.826643 -3.370868 -0.250631 0
M  V30 23 C -3.156434 -3.962757 -0.463995 0
M  V30 24 N -4.200940 -4.409575 -0.623094 0
M  V30 25 C -0.924293 -1.077763 0.097374 0
M  V30 26 H 1.138642 -3.509661 0.711423 0
M  V30 27 H 2.960364 -3.547678 0.821420 0
M  V30 28 H 1.957962 -4.463431 1.979321 0
M  V30 29 H 1.352823 -2.517669 3.232502 0
M  V30 30 H 3.033796 -2.569836 2.894337 0
M  V30 31 H 5.214747 1.234031 0.615230 0
M  V30 32 H 2.956477 4.727169 -1.285967 0
M  V30 33 H 0.618523 5.277031 -1.657329 0
M  V30 34 H -0.596382 1.748903 0.150132 0
M  V30 35 H -0.929837 0.443887 1.590215 0
M  V30 36 H -0.558432 -2.388502 2.063802 0
M  V30 37 H -0.414906 -1.082974 3.413828 0
M  V30 38 H -2.589979 -0.260955 2.614199 0
M  V30 39 H -2.540935 -1.831030 3.452529 0
M  V30 40 H -2.868728 -1.583095 -0.459190 0
M  V30 41 H -1.396508 -3.188406 -1.256366 0
M  V30 42 H -1.197441 -3.966811 0.401306 0
M  V30 43 H -1.108711 -0.310322 -0.714843 0
M  V30 44 H -0.148258 -1.739715 -0.421164 0
M  V30 END ATOM
M  V30 BEGIN BOND
M  V30 1 1 1 2
M  V30 2 1 2 3
M  V30 3 2 3 4
M  V30 4 1 4 5
M  V30 5 2 5 6
M  V30 6 1 6 7
M  V30 7 2 7 8
M  V30 8 1 8 9
M  V30 9 2 9 10
M  V30 10 1 10 11
M  V30 11 1 11 12
M  V30 12 2 11 13
M  V30 13 1 13 14
M  V30 14 2 14 15
M  V30 15 1 15 16
M  V30 16 1 16 17
M  V30 17 1 17 18
M  V30 18 1 18 19
M  V30 19 1 19 20
M  V30 20 1 20 21
M  V30 21 1 21 22
M  V30 22 1 22 23
M  V30 23 3 23 24
M  V30 24 1 21 25
M  V30 25 1 16 3
M  V30 26 1 25 17
M  V30 27 1 15 5
M  V30 28 1 14 8
M  V30 29 1 1 26
M  V30 30 1 1 27
M  V30 31 1 1 28
M  V30 32 1 2 29
M  V30 33 1 2 30
M  V30 34 1 6 31
M  V30 35 1 9 32
M  V30 36 1 10 33
M  V30 37 1 13 34
M  V30 38 1 17 35 CFG=1
M  V30 39 1 18 36
M  V30 40 1 18 37
M  V30 41 1 19 38
M  V30 42 1 19 39
M  V30 43 1 21 40 CFG=3
M  V30 44 1 22 41
M  V30 45 1 22 42
M  V30 46 1 25 43
M  V30 47 1 25 44
M  V30 END BOND
M  V30 END CTAB
M  END
>  <Dataset>  (557) 
ChEMBL_Kinases

>  <Ligand_Instance>  (557) 
nan

>  <PDB_ID>  (557) 
nan

>  <Standardized_SMILES>  (557) 
CCc1nc2cnc3ccc(Cl)cc3c2n1[C@@H]1CCO[C@H](CC#N)C1

>  <Name>  (557) 
nan

>  <Pocket>  (557) 
nan

>  <ATP_Site>  (557) 
nan

>  <Peripheral>  (557) 
nan

>  <Num_H_Atoms_ProtBoundConf>  (557) 
nan

>  <Num_Resolved_Atoms>  (557) 
nan

>  <Num_Not_Resolved_Atoms>  (557) 
nan

$$$$
CHEMBL4549539
     RDKit          3D

  0  0  0  0  0  0  0  0  0  0999 V3000
M  V30 BEGIN CTAB
M  V30 COUNTS 42 44 0 0 0
M  V30 BEGIN ATOM
M  V30 1 C -1.449574 -5.745783 -0.354739 0
M  V30 2 S -0.223937 -5.300143 0.816850 0
M  V30 3 O -0.564723 -5.685136 2.214102 0
M  V30 4 O 1.094749 -5.956325 0.497106 0
M  V30 5 C 0.064811 -3.516268 0.713387 0
M  V30 6 C 0.521209 -3.217649 -0.656508 0
M  V30 7 C 0.828270 -1.843366 -1.008496 0
M  V30 8 C 1.217367 -1.555709 -2.325005 0
M  V30 9 N 1.445032 -0.253699 -2.422775 0
M  V30 10 C 1.229531 0.339870 -1.246685 0
M  V30 11 C 1.312488 1.633100 -0.792894 0
M  V30 12 C 1.724069 2.594062 -1.797043 0
M  V30 13 N 1.856447 3.941915 -1.483100 0
M  V30 14 O 2.025225 2.522159 -3.006480 0
M  V30 15 C 1.042953 2.048908 0.487720 0
M  V30 16 C 0.661370 0.989390 1.317296 0
M  V30 17 C 0.343964 1.305604 2.724564 0
M  V30 18 C -0.598725 0.543293 3.380135 0
M  V30 19 C -0.866580 0.876987 4.708148 0
M  V30 20 C -0.216127 1.918992 5.326563 0
M  V30 21 C 0.720075 2.656343 4.634733 0
M  V30 22 C 1.022599 2.366408 3.315082 0
M  V30 23 C 0.554106 -0.331164 0.940370 0
M  V30 24 C 0.848054 -0.631313 -0.364774 0
M  V30 25 H -2.314040 -6.219398 0.163841 0
M  V30 26 H -1.801091 -4.862633 -0.884076 0
M  V30 27 H -0.987856 -6.447071 -1.094002 0
M  V30 28 H 0.898635 -3.366428 1.427134 0
M  V30 29 H -0.894329 -3.064017 1.001539 0
M  V30 30 H -0.316562 -3.543384 -1.348718 0
M  V30 31 H 1.356800 -3.927851 -0.937102 0
M  V30 32 H 1.334693 -2.240445 -3.179383 0
M  V30 33 H 1.751909 0.232023 -3.306961 0
M  V30 34 H 1.046470 4.446488 -1.030055 0
M  V30 35 H 1.997171 4.938979 -1.267596 0
M  V30 36 H 1.111866 3.055379 0.823860 0
M  V30 37 H -1.111404 -0.276915 2.894899 0
M  V30 38 H -1.609664 0.285156 5.243166 0
M  V30 39 H -0.428040 2.181401 6.374115 0
M  V30 40 H 1.219475 3.464483 5.126175 0
M  V30 41 H 1.761492 2.957404 2.787491 0
M  V30 42 H 0.256713 -1.106191 1.619828 0
M  V30 END ATOM
M  V30 BEGIN BOND
M  V30 1 1 1 2
M  V30 2 2 2 3
M  V30 3 2 2 4
M  V30 4 1 2 5
M  V30 5 1 5 6
M  V30 6 1 6 7
M  V30 7 2 7 8
M  V30 8 1 8 9
M  V30 9 1 9 10
M  V30 10 2 10 11
M  V30 11 1 11 12
M  V30 12 1 12 13
M  V30 13 2 12 14
M  V30 14 1 11 15
M  V30 15 2 15 16
M  V30 16 1 16 17
M  V30 17 2 17 18
M  V30 18 1 18 19
M  V30 19 2 19 20
M  V30 20 1 20 21
M  V30 21 2 21 22
M  V30 22 1 16 23
M  V30 23 2 23 24
M  V30 24 1 24 7
M  V30 25 1 24 10
M  V30 26 1 22 17
M  V30 27 1 1 25
M  V30 28 1 1 26
M  V30 29 1 1 27
M  V30 30 1 5 28
M  V30 31 1 5 29
M  V30 32 1 6 30
M  V30 33 1 6 31
M  V30 34 1 8 32
M  V30 35 1 9 33
M  V30 36 1 13 34
M  V30 37 1 13 35
M  V30 38 1 15 36
M  V30 39 1 18 37
M  V30 40 1 19 38
M  V30 41 1 20 39
M  V30 42 1 21 40
M  V30 43 1 22 41
M  V30 44 1 23 42
M  V30 END BOND
M  V30 END CTAB
M  END
>  <Dataset>  (558) 
ChEMBL_Kinases

>  <Ligand_Instance>  (558) 
nan

>  <PDB_ID>  (558) 
nan

>  <Standardized_SMILES>  (558) 
CS(=O)(=O)CCc1c[nH]c2c(C(N)=O)cc(-c3ccccc3)cc12

>  <Name>  (558) 
nan

>  <Pocket>  (558) 
nan

>  <ATP_Site>  (558) 
nan

>  <Peripheral>  (558) 
nan

>  <Num_H_Atoms_ProtBoundConf>  (558) 
nan

>  <Num_Resolved_Atoms>  (558) 
nan

>  <Num_Not_Resolved_Atoms>  (558) 
nan

$$$$
CHEMBL4639268
     RDKit          3D

  0  0  0  0  0  0  0  0  0  0999 V3000
M  V30 BEGIN CTAB
M  V30 COUNTS 37 40 0 0 0
M  V30 BEGIN ATOM
M  V30 1 C 0.799371 -2.735226 5.642355 0
M  V30 2 C -0.266037 -2.708365 4.655413 0
M  V30 3 C 0.117790 -2.854072 3.352055 0
M  V30 4 C -0.935045 -2.849678 2.347562 0
M  V30 5 C -2.009701 -3.733468 2.500756 0
M  V30 6 N -3.033308 -3.846337 1.635915 0
M  V30 7 C -3.036760 -3.052158 0.531392 0
M  V30 8 C -1.977579 -2.182404 0.383292 0
M  V30 9 C -2.002107 -1.381392 -0.739889 0
M  V30 10 C -0.978278 -0.485899 -0.946932 0
M  V30 11 C 0.096682 -0.316475 -0.106721 0
M  V30 12 O 1.177200 0.529434 -0.188637 0
M  V30 13 C 1.328079 1.408795 -1.244048 0 CFG=1
M  V30 14 C 1.507044 2.858844 -0.758898 0
M  V30 15 C 2.015039 3.490472 -2.053553 0
M  V30 16 N 2.786356 2.474855 -2.733312 0
M  V30 17 C 2.648776 1.255911 -1.972137 0
M  V30 18 C 0.103170 -1.139049 1.027742 0
M  V30 19 C -0.915096 -2.035738 1.240614 0
M  V30 20 C 1.492293 -3.015765 3.080349 0
M  V30 21 S 2.375229 -2.977723 4.631345 0
M  V30 22 H 0.681717 -2.631028 6.766988 0
M  V30 23 H -1.237580 -2.574229 5.091736 0
M  V30 24 H -2.064051 -4.393073 3.361142 0
M  V30 25 H -3.837761 -3.102887 -0.198198 0
M  V30 26 H -2.795521 -1.407490 -1.495522 0
M  V30 27 H -0.989063 0.140705 -1.817462 0
M  V30 28 H 0.539707 1.398973 -2.017170 0
M  V30 29 H 2.328222 2.858984 -0.020774 0
M  V30 30 H 0.567816 3.284909 -0.411566 0
M  V30 31 H 1.094864 3.695212 -2.650397 0
M  V30 32 H 2.561097 4.415763 -1.873097 0
M  V30 33 H 2.455311 2.276870 -3.700352 0
M  V30 34 H 3.451891 1.250652 -1.199855 0
M  V30 35 H 2.690211 0.347161 -2.585635 0
M  V30 36 H 0.893092 -1.077717 1.748664 0
M  V30 37 H 1.964577 -3.143793 2.159806 0
M  V30 END ATOM
M  V30 BEGIN BOND
M  V30 1 2 1 2
M  V30 2 1 2 3
M  V30 3 1 3 4
M  V30 4 2 4 5
M  V30 5 1 5 6
M  V30 6 2 6 7
M  V30 7 1 7 8
M  V30 8 2 8 9
M  V30 9 1 9 10
M  V30 10 2 10 11
M  V30 11 1 11 12
M  V30 12 1 12 13
M  V30 13 1 13 14
M  V30 14 1 14 15
M  V30 15 1 15 16
M  V30 16 1 16 17
M  V30 17 1 11 18
M  V30 18 2 18 19
M  V30 19 2 3 20
M  V30 20 1 20 21
M  V30 21 1 21 1
M  V30 22 1 19 4
M  V30 23 1 19 8
M  V30 24 1 17 13
M  V30 25 1 1 22
M  V30 26 1 2 23
M  V30 27 1 5 24
M  V30 28 1 7 25
M  V30 29 1 9 26
M  V30 30 1 10 27
M  V30 31 1 13 28 CFG=3
M  V30 32 1 14 29
M  V30 33 1 14 30
M  V30 34 1 15 31
M  V30 35 1 15 32
M  V30 36 1 16 33
M  V30 37 1 17 34
M  V30 38 1 17 35
M  V30 39 1 18 36
M  V30 40 1 20 37
M  V30 END BOND
M  V30 END CTAB
M  END
>  <Dataset>  (559) 
ChEMBL_Kinases

>  <Ligand_Instance>  (559) 
nan

>  <PDB_ID>  (559) 
nan

>  <Standardized_SMILES>  (559) 
c1cc(-c2cncc3ccc(O[C@H]4CCNC4)cc23)cs1

>  <Name>  (559) 
nan

>  <Pocket>  (559) 
nan

>  <ATP_Site>  (559) 
nan

>  <Peripheral>  (559) 
nan

>  <Num_H_Atoms_ProtBoundConf>  (559) 
nan

>  <Num_Resolved_Atoms>  (559) 
nan

>  <Num_Not_Resolved_Atoms>  (559) 
nan

$$$$
CHEMBL4585042
     RDKit          3D

  0  0  0  0  0  0  0  0  0  0999 V3000
M  V30 BEGIN CTAB
M  V30 COUNTS 58 61 0 0 0
M  V30 BEGIN ATOM
M  V30 1 C 4.488686 -2.294311 -2.138385 0
M  V30 2 C 3.695465 -1.408340 -1.221472 0
M  V30 3 C 2.448377 -1.790724 -0.716842 0
M  V30 4 C 1.898041 -0.835720 0.102300 0
M  V30 5 C 2.439584 0.355843 0.427376 0
M  V30 6 C 3.664408 0.655783 -0.107875 0
M  V30 7 C 4.330510 -0.216174 -0.949081 0
M  V30 8 C 4.305980 1.862785 0.183434 0
M  V30 9 O 5.411979 2.130548 -0.300492 0
M  V30 10 N 3.657408 2.696551 1.007312 0
M  V30 11 C 2.456174 2.414954 1.538266 0
M  V30 12 C 1.861767 3.338313 2.378561 0
M  V30 13 C 2.583678 4.591761 2.651513 0
M  V30 14 C 0.630191 3.000999 2.893424 0
M  V30 15 C 0.000083 1.783808 2.586932 0
M  V30 16 O -1.235002 1.749996 3.267464 0
M  V30 17 C 0.652269 0.883727 1.727336 0
M  V30 18 C -0.293568 -0.195569 1.650682 0
M  V30 19 C -1.217263 -0.012545 0.610176 0
M  V30 20 C -2.260042 -0.889513 0.395428 0
M  V30 21 C -2.408719 -1.983517 1.223200 0
M  V30 22 C -3.502083 -2.979514 1.030752 0 CFG=1
M  V30 23 C -4.834278 -2.310224 0.971368 0
M  V30 24 C -3.206903 -3.940980 -0.070446 0
M  V30 25 N -3.016250 -3.411875 -1.368194 0
M  V30 26 C -4.225891 -2.911822 -1.962973 0
M  V30 27 C -2.402098 -4.384368 -2.236119 0
M  V30 28 C -1.496353 -2.174497 2.260802 0
M  V30 29 C -0.466831 -1.324091 2.486650 0
M  V30 30 C 1.857198 1.240751 1.240192 0
M  V30 31 H 3.925098 -3.209772 -2.388778 0
M  V30 32 H 4.707758 -1.755930 -3.081183 0
M  V30 33 H 5.444638 -2.591750 -1.693067 0
M  V30 34 H 2.165385 -2.750230 -1.066115 0
M  V30 35 H 1.007553 -1.290671 0.379208 0
M  V30 36 H 5.275190 0.064346 -1.337694 0
M  V30 37 H 4.132805 3.597684 1.226761 0
M  V30 38 H 3.630453 4.417738 3.025121 0
M  V30 39 H 2.699779 5.125945 1.671686 0
M  V30 40 H 2.028772 5.194542 3.399420 0
M  V30 41 H 0.248143 3.787760 3.538497 0
M  V30 42 H -2.064670 1.861838 2.706041 0
M  V30 43 H -1.188004 0.823651 -0.102437 0
M  V30 44 H -2.966783 -0.749763 -0.398275 0
M  V30 45 H -3.525507 -3.627304 1.964559 0
M  V30 46 H -4.990532 -1.826102 1.981168 0
M  V30 47 H -5.637760 -3.069491 0.897015 0
M  V30 48 H -4.910325 -1.539850 0.173015 0
M  V30 49 H -2.378806 -4.602928 0.273039 0
M  V30 50 H -4.096997 -4.642136 -0.099239 0
M  V30 51 H -5.125441 -3.307162 -1.412364 0
M  V30 52 H -4.367433 -3.332994 -2.995486 0
M  V30 53 H -4.231448 -1.822838 -2.096302 0
M  V30 54 H -1.375078 -4.045650 -2.567795 0
M  V30 55 H -2.208199 -5.369013 -1.728880 0
M  V30 56 H -3.004905 -4.635503 -3.138104 0
M  V30 57 H -1.564162 -3.025798 2.950113 0
M  V30 58 H 0.298570 -1.358506 3.246049 0
M  V30 END ATOM
M  V30 BEGIN BOND
M  V30 1 1 1 2
M  V30 2 2 2 3
M  V30 3 1 3 4
M  V30 4 2 4 5
M  V30 5 1 5 6
M  V30 6 2 6 7
M  V30 7 1 6 8
M  V30 8 2 8 9
M  V30 9 1 8 10
M  V30 10 1 10 11
M  V30 11 2 11 12
M  V30 12 1 12 13
M  V30 13 1 12 14
M  V30 14 2 14 15
M  V30 15 1 15 16
M  V30 16 1 15 17
M  V30 17 1 17 18
M  V30 18 2 18 19
M  V30 19 1 19 20
M  V30 20 2 20 21
M  V30 21 1 21 22
M  V30 22 1 22 23
M  V30 23 1 22 24
M  V30 24 1 24 25
M  V30 25 1 25 26
M  V30 26 1 25 27
M  V30 27 1 21 28
M  V30 28 2 28 29
M  V30 29 2 17 30
M  V30 30 1 7 2
M  V30 31 1 30 11
M  V30 32 1 30 5
M  V30 33 1 29 18
M  V30 34 1 1 31
M  V30 35 1 1 32
M  V30 36 1 1 33
M  V30 37 1 3 34
M  V30 38 1 4 35
M  V30 39 1 7 36
M  V30 40 1 10 37
M  V30 41 1 13 38
M  V30 42 1 13 39
M  V30 43 1 13 40
M  V30 44 1 14 41
M  V30 45 1 16 42
M  V30 46 1 19 43
M  V30 47 1 20 44
M  V30 48 1 22 45 CFG=1
M  V30 49 1 23 46
M  V30 50 1 23 47
M  V30 51 1 23 48
M  V30 52 1 24 49
M  V30 53 1 24 50
M  V30 54 1 26 51
M  V30 55 1 26 52
M  V30 56 1 26 53
M  V30 57 1 27 54
M  V30 58 1 27 55
M  V30 59 1 27 56
M  V30 60 1 28 57
M  V30 61 1 29 58
M  V30 END BOND
M  V30 END CTAB
M  END
>  <Dataset>  (560) 
ChEMBL_Kinases

>  <Ligand_Instance>  (560) 
nan

>  <PDB_ID>  (560) 
nan

>  <Standardized_SMILES>  (560) 
Cc1ccc2c(c1)c(=O)[nH]c1c(C)cc(O)c(-c3ccc([C@@H](C)CN(C)C)cc3)c12

>  <Name>  (560) 
nan

>  <Pocket>  (560) 
nan

>  <ATP_Site>  (560) 
nan

>  <Peripheral>  (560) 
nan

>  <Num_H_Atoms_ProtBoundConf>  (560) 
nan

>  <Num_Resolved_Atoms>  (560) 
nan

>  <Num_Not_Resolved_Atoms>  (560) 
nan

$$$$
CHEMBL461377
     RDKit          3D

  0  0  0  0  0  0  0  0  0  0999 V3000
M  V30 BEGIN CTAB
M  V30 COUNTS 57 58 0 0 0
M  V30 BEGIN ATOM
M  V30 1 C -0.573357 -5.953298 2.404322 0
M  V30 2 C 0.544035 -5.069064 1.666928 0
M  V30 3 C 0.187120 -3.704262 2.091937 0
M  V30 4 C 1.075232 -2.599861 1.722715 0
M  V30 5 O 2.306784 -2.790540 1.427824 0
M  V30 6 O 0.680234 -1.296500 1.659308 0
M  V30 7 C 1.532654 -0.216737 1.302947 0
M  V30 8 C 0.638337 1.019246 1.364421 0
M  V30 9 C 0.172854 1.114338 2.801217 0
M  V30 10 O -0.503494 -0.100007 3.057270 0
M  V30 11 C -0.496197 0.932111 0.396611 0
M  V30 12 C -0.806650 2.361914 0.131979 0
M  V30 13 C -1.875226 3.077324 -0.123941 0
M  V30 14 C -1.967253 4.510510 -0.355735 0
M  V30 15 C -1.384595 5.555621 0.328004 0
M  V30 16 C -1.557312 6.872936 -0.031972 0
M  V30 17 C -2.353662 7.151260 -1.130140 0
M  V30 18 F -2.513239 8.473516 -1.470236 0
M  V30 19 C -2.969325 6.127386 -1.859525 0
M  V30 20 C -2.767800 4.822065 -1.462386 0
M  V30 21 C 0.532051 2.935552 0.186376 0
M  V30 22 O 0.872078 3.965996 -0.475634 0
M  V30 23 O 1.308917 2.184077 1.045798 0
M  V30 24 C 0.274861 -5.464750 0.266769 0
M  V30 25 C 0.946124 -4.982315 -0.921903 0
M  V30 26 C 0.845659 -3.534270 -1.292653 0
M  V30 27 C 0.340236 -5.756664 -2.121248 0
M  V30 28 C 2.432031 -5.330509 -0.988079 0
M  V30 29 H -0.518653 -6.970006 1.986024 0
M  V30 30 H -0.400122 -5.876086 3.480159 0
M  V30 31 H -1.556227 -5.515248 2.156427 0
M  V30 32 H 1.471398 -5.475185 2.115057 0
M  V30 33 H -0.876062 -3.517777 1.743841 0
M  V30 34 H 0.065892 -3.620455 3.221291 0
M  V30 35 H 1.993138 -0.339327 0.297519 0
M  V30 36 H 2.349874 -0.059404 2.007624 0
M  V30 37 H -0.422440 2.000418 3.021482 0
M  V30 38 H 1.033892 1.097594 3.503424 0
M  V30 39 H -1.447703 0.070853 2.818134 0
M  V30 40 H -0.129330 0.505766 -0.543922 0
M  V30 41 H -1.374879 0.390676 0.806380 0
M  V30 42 H -2.794894 2.467767 -0.156409 0
M  V30 43 H -0.798748 5.270758 1.165227 0
M  V30 44 H -1.051431 7.600236 0.579847 0
M  V30 45 H -3.590681 6.394117 -2.721116 0
M  V30 46 H -3.282905 4.073620 -2.084305 0
M  V30 47 H -0.848612 -5.212336 0.108364 0
M  V30 48 H 0.171348 -6.625627 0.212036 0
M  V30 49 H 0.594719 -3.427197 -2.408775 0
M  V30 50 H 1.744855 -2.938214 -1.112288 0
M  V30 51 H -0.043693 -3.100753 -0.791274 0
M  V30 52 H 0.101346 -6.782786 -1.808598 0
M  V30 53 H -0.629083 -5.266758 -2.376724 0
M  V30 54 H 1.011823 -5.749879 -2.977546 0
M  V30 55 H 3.016014 -4.908417 -0.158768 0
M  V30 56 H 2.809601 -4.874486 -1.926198 0
M  V30 57 H 2.542477 -6.430691 -1.086798 0
M  V30 END ATOM
M  V30 BEGIN BOND
M  V30 1 1 1 2
M  V30 2 1 2 3
M  V30 3 1 3 4
M  V30 4 2 4 5
M  V30 5 1 4 6
M  V30 6 1 6 7
M  V30 7 1 7 8
M  V30 8 1 8 9
M  V30 9 1 9 10
M  V30 10 1 8 11
M  V30 11 1 11 12
M  V30 12 2 12 13
M  V30 13 1 13 14
M  V30 14 2 14 15
M  V30 15 1 15 16
M  V30 16 2 16 17
M  V30 17 1 17 18
M  V30 18 1 17 19
M  V30 19 2 19 20
M  V30 20 1 12 21
M  V30 21 2 21 22
M  V30 22 1 21 23
M  V30 23 1 2 24
M  V30 24 1 24 25
M  V30 25 1 25 26
M  V30 26 1 25 27
M  V30 27 1 25 28
M  V30 28 1 23 8
M  V30 29 1 20 14
M  V30 30 1 1 29
M  V30 31 1 1 30
M  V30 32 1 1 31
M  V30 33 1 2 32
M  V30 34 1 3 33
M  V30 35 1 3 34
M  V30 36 1 7 35
M  V30 37 1 7 36
M  V30 38 1 9 37
M  V30 39 1 9 38
M  V30 40 1 10 39
M  V30 41 1 11 40
M  V30 42 1 11 41
M  V30 43 1 13 42
M  V30 44 1 15 43
M  V30 45 1 16 44
M  V30 46 1 19 45
M  V30 47 1 20 46
M  V30 48 1 24 47
M  V30 49 1 24 48
M  V30 50 1 26 49
M  V30 51 1 26 50
M  V30 52 1 26 51
M  V30 53 1 27 52
M  V30 54 1 27 53
M  V30 55 1 27 54
M  V30 56 1 28 55
M  V30 57 1 28 56
M  V30 58 1 28 57
M  V30 END BOND
M  V30 END CTAB
M  END
>  <Dataset>  (561) 
ChEMBL_Kinases

>  <Ligand_Instance>  (561) 
nan

>  <PDB_ID>  (561) 
nan

>  <Standardized_SMILES>  (561) 
CC(CC(=O)OCC1(CO)C/C(=C/c2ccc(F)cc2)C(=O)O1)CC(C)(C)C

>  <Name>  (561) 
nan

>  <Pocket>  (561) 
nan

>  <ATP_Site>  (561) 
nan

>  <Peripheral>  (561) 
nan

>  <Num_H_Atoms_ProtBoundConf>  (561) 
nan

>  <Num_Resolved_Atoms>  (561) 
nan

>  <Num_Not_Resolved_Atoms>  (561) 
nan

$$$$
CHEMBL461561
     RDKit          3D

  0  0  0  0  0  0  0  0  0  0999 V3000
M  V30 BEGIN CTAB
M  V30 COUNTS 58 59 0 0 0
M  V30 BEGIN ATOM
M  V30 1 C 1.840332 -0.775343 7.642554 0
M  V30 2 C 2.649517 -1.079308 6.394842 0
M  V30 3 C 2.355703 -0.033098 5.311005 0
M  V30 4 C 3.152200 -0.343093 4.091154 0
M  V30 5 C 2.955815 0.597660 2.953862 0
M  V30 6 C 3.809138 0.203095 1.775053 0
M  V30 7 C 3.543925 -1.150381 1.221317 0
M  V30 8 C 1.540875 0.709312 2.500933 0
M  V30 9 O 0.563059 0.113972 2.999898 0
M  V30 10 O 1.434600 1.564957 1.443396 0
M  V30 11 C 0.367292 1.969095 0.692603 0
M  V30 12 C -0.343164 1.045665 -0.202067 0
M  V30 13 C -1.519006 1.706741 -0.917546 0
M  V30 14 O -2.332599 2.252435 0.051064 0
M  V30 15 C -0.794553 -0.210026 0.461376 0
M  V30 16 C -1.454256 -0.873665 -0.754404 0
M  V30 17 C -2.520501 -1.526959 -1.107550 0
M  V30 18 C -2.883796 -2.049067 -2.395880 0
M  V30 19 C -2.843478 -1.473416 -3.640567 0
M  V30 20 C -3.193126 -2.073699 -4.816432 0
M  V30 21 C -3.630730 -3.397218 -4.720504 0
M  V30 22 O -4.009135 -4.096485 -5.856809 0
M  V30 23 C -3.919519 -3.383778 -7.092028 0
M  V30 24 C -3.693024 -4.027563 -3.496021 0
M  V30 25 C -3.324408 -3.375150 -2.313292 0
M  V30 26 C -0.336567 -0.586786 -1.698422 0
M  V30 27 O -0.137890 -1.250331 -2.783192 0
M  V30 28 O 0.469971 0.493302 -1.258002 0
M  V30 29 H 2.482693 -0.322846 8.415856 0
M  V30 30 H 1.443999 -1.728353 8.065447 0
M  V30 31 H 1.014247 -0.100623 7.329481 0
M  V30 32 H 3.706369 -1.096230 6.686618 0
M  V30 33 H 2.411719 -2.100557 6.030503 0
M  V30 34 H 1.280160 0.061767 5.192836 0
M  V30 35 H 2.688112 0.934251 5.796196 0
M  V30 36 H 2.955574 -1.401374 3.810901 0
M  V30 37 H 4.224389 -0.275272 4.387058 0
M  V30 38 H 3.279869 1.610356 3.264659 0
M  V30 39 H 4.893148 0.330959 2.003940 0
M  V30 40 H 3.596827 0.944368 0.959953 0
M  V30 41 H 3.457989 -1.973716 1.923014 0
M  V30 42 H 4.434358 -1.399484 0.571116 0
M  V30 43 H 2.681026 -1.173507 0.507430 0
M  V30 44 H -0.414441 2.513101 1.303318 0
M  V30 45 H 0.751366 2.812785 0.024068 0
M  V30 46 H -2.035511 0.929510 -1.511508 0
M  V30 47 H -1.117170 2.481050 -1.605173 0
M  V30 48 H -2.354956 3.246065 -0.017375 0
M  V30 49 H -1.507711 -0.120155 1.268633 0
M  V30 50 H 0.080375 -0.877640 0.650426 0
M  V30 51 H -3.151240 -1.628734 -0.215160 0
M  V30 52 H -2.521055 -0.461183 -3.666115 0
M  V30 53 H -3.132055 -1.551639 -5.748967 0
M  V30 54 H -4.600124 -2.509718 -7.007392 0
M  V30 55 H -4.218974 -4.014526 -7.946042 0
M  V30 56 H -2.864089 -3.060596 -7.170125 0
M  V30 57 H -4.044782 -5.068137 -3.479372 0
M  V30 58 H -3.422179 -3.988639 -1.423300 0
M  V30 END ATOM
M  V30 BEGIN BOND
M  V30 1 1 1 2
M  V30 2 1 2 3
M  V30 3 1 3 4
M  V30 4 1 4 5
M  V30 5 1 5 6
M  V30 6 1 6 7
M  V30 7 1 5 8
M  V30 8 2 8 9
M  V30 9 1 8 10
M  V30 10 1 10 11
M  V30 11 1 11 12
M  V30 12 1 12 13
M  V30 13 1 13 14
M  V30 14 1 12 15
M  V30 15 1 15 16
M  V30 16 2 16 17
M  V30 17 1 17 18
M  V30 18 2 18 19
M  V30 19 1 19 20
M  V30 20 2 20 21
M  V30 21 1 21 22
M  V30 22 1 22 23
M  V30 23 1 21 24
M  V30 24 2 24 25
M  V30 25 1 16 26
M  V30 26 2 26 27
M  V30 27 1 26 28
M  V30 28 1 28 12
M  V30 29 1 25 18
M  V30 30 1 1 29
M  V30 31 1 1 30
M  V30 32 1 1 31
M  V30 33 1 2 32
M  V30 34 1 2 33
M  V30 35 1 3 34
M  V30 36 1 3 35
M  V30 37 1 4 36
M  V30 38 1 4 37
M  V30 39 1 5 38
M  V30 40 1 6 39
M  V30 41 1 6 40
M  V30 42 1 7 41
M  V30 43 1 7 42
M  V30 44 1 7 43
M  V30 45 1 11 44
M  V30 46 1 11 45
M  V30 47 1 13 46
M  V30 48 1 13 47
M  V30 49 1 14 48
M  V30 50 1 15 49
M  V30 51 1 15 50
M  V30 52 1 17 51
M  V30 53 1 19 52
M  V30 54 1 20 53
M  V30 55 1 23 54
M  V30 56 1 23 55
M  V30 57 1 23 56
M  V30 58 1 24 57
M  V30 59 1 25 58
M  V30 END BOND
M  V30 END CTAB
M  END
>  <Dataset>  (562) 
ChEMBL_Kinases

>  <Ligand_Instance>  (562) 
nan

>  <PDB_ID>  (562) 
nan

>  <Standardized_SMILES>  (562) 
CCCCC(CC)C(=O)OCC1(CO)C/C(=C/c2ccc(OC)cc2)C(=O)O1

>  <Name>  (562) 
nan

>  <Pocket>  (562) 
nan

>  <ATP_Site>  (562) 
nan

>  <Peripheral>  (562) 
nan

>  <Num_H_Atoms_ProtBoundConf>  (562) 
nan

>  <Num_Resolved_Atoms>  (562) 
nan

>  <Num_Not_Resolved_Atoms>  (562) 
nan

$$$$
CHEMBL4584996
     RDKit          3D

  0  0  0  0  0  0  0  0  0  0999 V3000
M  V30 BEGIN CTAB
M  V30 COUNTS 39 42 0 0 0
M  V30 BEGIN ATOM
M  V30 1 C -1.860288 -2.761243 4.528691 0
M  V30 2 C -1.758439 -2.545300 3.053099 0
M  V30 3 N -2.007862 -3.356224 2.016192 0
M  V30 4 C -1.765732 -2.703984 0.847173 0
M  V30 5 C -1.966899 -3.590833 -0.318714 0
M  V30 6 C -1.096623 -4.842421 -0.349841 0
M  V30 7 C -0.869288 -3.795619 -1.336699 0
M  V30 8 C -1.357709 -1.450906 1.220706 0
M  V30 9 C -0.994957 -0.475753 0.217941 0
M  V30 10 C -1.149096 -0.412889 -1.136067 0
M  V30 11 C -0.705447 0.560588 -1.990490 0
M  V30 12 N -0.028924 1.589136 -1.405038 0
M  V30 13 C 0.167500 1.606370 -0.068793 0
M  V30 14 N 0.884173 2.715782 0.459933 0
M  V30 15 C 2.270566 2.436696 0.482726 0
M  V30 16 O 2.594204 1.288515 0.041470 0
M  V30 17 C 3.344276 3.352587 0.967167 0
M  V30 18 C 4.696747 3.116462 0.403951 0
M  V30 19 C 4.453473 2.660411 1.776228 0
M  V30 20 C -0.298791 0.601894 0.747845 0
M  V30 21 N -1.358580 -1.376994 2.542855 0
M  V30 22 H -1.026750 -2.256954 5.074365 0
M  V30 23 H -1.945257 -3.829318 4.755772 0
M  V30 24 H -2.793236 -2.244597 4.870306 0
M  V30 25 H -2.987008 -3.692923 -0.730375 0
M  V30 26 H -0.411128 -4.990931 0.514884 0
M  V30 27 H -1.626512 -5.772408 -0.625969 0
M  V30 28 H 0.032893 -3.132581 -1.288717 0
M  V30 29 H -1.156050 -3.983944 -2.387635 0
M  V30 30 H -1.712267 -1.223419 -1.547943 0
M  V30 31 H -0.903059 0.469780 -3.030157 0
M  V30 32 H 0.591381 3.654634 0.817937 0
M  V30 33 H 3.051481 4.356211 1.351919 0
M  V30 34 H 5.382177 3.980094 0.278297 0
M  V30 35 H 4.772834 2.400113 -0.461229 0
M  V30 36 H 4.360302 1.573792 1.971135 0
M  V30 37 H 4.920132 3.214002 2.614469 0
M  V30 38 H -0.074844 0.734828 1.804101 0
M  V30 39 H -1.080428 -0.513460 3.064619 0
M  V30 END ATOM
M  V30 BEGIN BOND
M  V30 1 1 1 2
M  V30 2 2 2 3
M  V30 3 1 3 4
M  V30 4 1 4 5
M  V30 5 1 5 6
M  V30 6 1 6 7
M  V30 7 2 4 8
M  V30 8 1 8 9
M  V30 9 2 9 10
M  V30 10 1 10 11
M  V30 11 2 11 12
M  V30 12 1 12 13
M  V30 13 1 13 14
M  V30 14 1 14 15
M  V30 15 2 15 16
M  V30 16 1 15 17
M  V30 17 1 17 18
M  V30 18 1 18 19
M  V30 19 2 13 20
M  V30 20 1 8 21
M  V30 21 1 21 2
M  V30 22 1 7 5
M  V30 23 1 20 9
M  V30 24 1 19 17
M  V30 25 1 1 22
M  V30 26 1 1 23
M  V30 27 1 1 24
M  V30 28 1 5 25
M  V30 29 1 6 26
M  V30 30 1 6 27
M  V30 31 1 7 28
M  V30 32 1 7 29
M  V30 33 1 10 30
M  V30 34 1 11 31
M  V30 35 1 14 32
M  V30 36 1 17 33
M  V30 37 1 18 34
M  V30 38 1 18 35
M  V30 39 1 19 36
M  V30 40 1 19 37
M  V30 41 1 20 38
M  V30 42 1 21 39
M  V30 END BOND
M  V30 END CTAB
M  END
>  <Dataset>  (563) 
ChEMBL_Kinases

>  <Ligand_Instance>  (563) 
nan

>  <PDB_ID>  (563) 
nan

>  <Standardized_SMILES>  (563) 
Cc1nc(C2CC2)c(-c2ccnc(NC(=O)C3CC3)c2)[nH]1

>  <Name>  (563) 
nan

>  <Pocket>  (563) 
nan

>  <ATP_Site>  (563) 
nan

>  <Peripheral>  (563) 
nan

>  <Num_H_Atoms_ProtBoundConf>  (563) 
nan

>  <Num_Resolved_Atoms>  (563) 
nan

>  <Num_Not_Resolved_Atoms>  (563) 
nan

$$$$
CHEMBL4584982
     RDKit          3D

  0  0  0  0  0  0  0  0  0  0999 V3000
M  V30 BEGIN CTAB
M  V30 COUNTS 30 32 0 0 0
M  V30 BEGIN ATOM
M  V30 1 N -0.367836 -2.700294 3.612665 0
M  V30 2 C 0.371402 -3.596448 2.797517 0
M  V30 3 N 0.684154 -4.807577 3.289147 0
M  V30 4 C 1.394148 -5.685266 2.523322 0
M  V30 5 C 1.803474 -5.345559 1.231509 0
M  V30 6 N 1.473781 -4.109456 0.754104 0
M  V30 7 C 0.773273 -3.259256 1.525549 0
M  V30 8 C 0.406907 -1.933660 1.043242 0
M  V30 9 O -0.248174 -1.168509 1.794584 0
M  V30 10 N 0.739514 -1.426980 -0.238237 0
M  V30 11 C 0.217316 -0.088559 -0.371701 0
M  V30 12 C -1.071544 0.098505 -0.883395 0
M  V30 13 C -1.574628 1.394117 -1.011610 0
M  V30 14 C -0.765529 2.438396 -0.622432 0
M  V30 15 N -1.057785 3.760895 -0.663574 0
M  V30 16 C 0.011071 4.431117 -0.190940 0
M  V30 17 C 0.986081 3.510600 0.150581 0
M  V30 18 C 0.507225 2.244202 -0.117685 0
M  V30 19 C 1.027886 0.959445 0.018293 0
M  V30 20 H -1.373751 -2.970686 3.591447 0
M  V30 21 H -0.014214 -1.873621 4.175256 0
M  V30 22 H 1.586623 -6.630600 3.026917 0
M  V30 23 H 2.360321 -6.091973 0.689247 0
M  V30 24 H 1.287054 -2.041882 -0.890972 0
M  V30 25 H -1.610940 -0.807646 -1.155117 0
M  V30 26 H -2.570723 1.474677 -1.410815 0
M  V30 27 H -1.932594 4.245111 -0.989990 0
M  V30 28 H 0.160333 5.509501 -0.067332 0
M  V30 29 H 1.992829 3.648244 0.566871 0
M  V30 30 H 2.007201 0.806021 0.406455 0
M  V30 END ATOM
M  V30 BEGIN BOND
M  V30 1 1 1 2
M  V30 2 2 2 3
M  V30 3 1 3 4
M  V30 4 2 4 5
M  V30 5 1 5 6
M  V30 6 2 6 7
M  V30 7 1 7 8
M  V30 8 2 8 9
M  V30 9 1 8 10
M  V30 10 1 10 11
M  V30 11 2 11 12
M  V30 12 1 12 13
M  V30 13 2 13 14
M  V30 14 1 14 15
M  V30 15 1 15 16
M  V30 16 2 16 17
M  V30 17 1 17 18
M  V30 18 2 18 19
M  V30 19 1 7 2
M  V30 20 1 19 11
M  V30 21 1 18 14
M  V30 22 1 1 20
M  V30 23 1 1 21
M  V30 24 1 4 22
M  V30 25 1 5 23
M  V30 26 1 10 24
M  V30 27 1 12 25
M  V30 28 1 13 26
M  V30 29 1 15 27
M  V30 30 1 16 28
M  V30 31 1 17 29
M  V30 32 1 19 30
M  V30 END BOND
M  V30 END CTAB
M  END
>  <Dataset>  (564) 
ChEMBL_Kinases

>  <Ligand_Instance>  (564) 
nan

>  <PDB_ID>  (564) 
nan

>  <Standardized_SMILES>  (564) 
Nc1nccnc1C(=O)Nc1ccc2[nH]ccc2c1

>  <Name>  (564) 
nan

>  <Pocket>  (564) 
nan

>  <ATP_Site>  (564) 
nan

>  <Peripheral>  (564) 
nan

>  <Num_H_Atoms_ProtBoundConf>  (564) 
nan

>  <Num_Resolved_Atoms>  (564) 
nan

>  <Num_Not_Resolved_Atoms>  (564) 
nan

$$$$
CHEMBL461562
     RDKit          3D

  0  0  0  0  0  0  0  0  0  0999 V3000
M  V30 BEGIN CTAB
M  V30 COUNTS 57 58 0 0 0
M  V30 BEGIN ATOM
M  V30 1 C -0.320843 -3.872469 2.019813 0
M  V30 2 C -1.362082 -2.868512 2.386584 0
M  V30 3 C -0.892323 -1.422046 2.176148 0
M  V30 4 C -2.067263 -0.569793 2.599116 0
M  V30 5 C -1.868542 0.892713 2.490033 0
M  V30 6 C -3.121173 1.653943 2.943723 0
M  V30 7 C -2.814371 3.139129 2.794210 0
M  V30 8 C -1.391397 1.415723 1.223547 0
M  V30 9 O -0.316625 2.068792 1.079572 0
M  V30 10 O -2.036914 1.277588 0.001742 0
M  V30 11 C -1.361764 1.883365 -1.080858 0
M  V30 12 C -2.042915 1.737365 -2.393186 0
M  V30 13 C -3.264819 2.550123 -2.579309 0
M  V30 14 O -3.638893 2.471251 -3.933937 0
M  V30 15 C -1.008729 2.181778 -3.443812 0
M  V30 16 C 0.016313 1.111947 -3.141948 0
M  V30 17 C 1.319270 1.007489 -2.959873 0
M  V30 18 C 2.073520 -0.201005 -2.666271 0
M  V30 19 C 1.824773 -1.219264 -1.773139 0
M  V30 20 C 2.705044 -2.274878 -1.712210 0
M  V30 21 C 3.831683 -2.372890 -2.499868 0
M  V30 22 C 4.777213 -3.515763 -2.425981 0
M  V30 23 F 4.581773 -4.426148 -3.443369 0
M  V30 24 F 4.683261 -4.090147 -1.175424 0
M  V30 25 F 6.081755 -3.008842 -2.512727 0
M  V30 26 C 4.083118 -1.342768 -3.402198 0
M  V30 27 C 3.212201 -0.275594 -3.478322 0
M  V30 28 C -0.902228 -0.051910 -3.109686 0
M  V30 29 O -0.509806 -1.236510 -3.418118 0
M  V30 30 O -2.168515 0.366642 -2.712083 0
M  V30 31 H -0.535218 -4.788192 2.648041 0
M  V30 32 H -0.379967 -4.177522 0.958470 0
M  V30 33 H 0.677266 -3.490311 2.292426 0
M  V30 34 H -2.306184 -2.958258 1.794548 0
M  V30 35 H -1.655119 -2.921815 3.462328 0
M  V30 36 H -0.541715 -1.251818 1.159791 0
M  V30 37 H -0.029049 -1.294363 2.860365 0
M  V30 38 H -2.994712 -0.842797 2.058367 0
M  V30 39 H -2.270167 -0.854863 3.659395 0
M  V30 40 H -1.098683 1.177416 3.267329 0
M  V30 41 H -3.229011 1.489570 4.035484 0
M  V30 42 H -4.000233 1.396711 2.353425 0
M  V30 43 H -3.070706 3.388389 1.741551 0
M  V30 44 H -3.365906 3.758150 3.522069 0
M  V30 45 H -1.723625 3.309746 3.010547 0
M  V30 46 H -1.180840 2.940420 -0.810849 0
M  V30 47 H -0.370664 1.386977 -1.164330 0
M  V30 48 H -4.128467 2.181539 -2.002691 0
M  V30 49 H -3.012459 3.594732 -2.379686 0
M  V30 50 H -4.572308 2.224832 -4.049968 0
M  V30 51 H -1.393388 2.021549 -4.474860 0
M  V30 52 H -0.631068 3.186116 -3.266280 0
M  V30 53 H 1.790847 1.979501 -3.059574 0
M  V30 54 H 0.952919 -1.084778 -1.185337 0
M  V30 55 H 2.496970 -3.069157 -1.004964 0
M  V30 56 H 4.981689 -1.437759 -4.019813 0
M  V30 57 H 3.528794 0.457644 -4.224391 0
M  V30 END ATOM
M  V30 BEGIN BOND
M  V30 1 1 1 2
M  V30 2 1 2 3
M  V30 3 1 3 4
M  V30 4 1 4 5
M  V30 5 1 5 6
M  V30 6 1 6 7
M  V30 7 1 5 8
M  V30 8 2 8 9
M  V30 9 1 8 10
M  V30 10 1 10 11
M  V30 11 1 11 12
M  V30 12 1 12 13
M  V30 13 1 13 14
M  V30 14 1 12 15
M  V30 15 1 15 16
M  V30 16 2 16 17
M  V30 17 1 17 18
M  V30 18 2 18 19
M  V30 19 1 19 20
M  V30 20 2 20 21
M  V30 21 1 21 22
M  V30 22 1 22 23
M  V30 23 1 22 24
M  V30 24 1 22 25
M  V30 25 1 21 26
M  V30 26 2 26 27
M  V30 27 1 16 28
M  V30 28 2 28 29
M  V30 29 1 28 30
M  V30 30 1 30 12
M  V30 31 1 27 18
M  V30 32 1 1 31
M  V30 33 1 1 32
M  V30 34 1 1 33
M  V30 35 1 2 34
M  V30 36 1 2 35
M  V30 37 1 3 36
M  V30 38 1 3 37
M  V30 39 1 4 38
M  V30 40 1 4 39
M  V30 41 1 5 40
M  V30 42 1 6 41
M  V30 43 1 6 42
M  V30 44 1 7 43
M  V30 45 1 7 44
M  V30 46 1 7 45
M  V30 47 1 11 46
M  V30 48 1 11 47
M  V30 49 1 13 48
M  V30 50 1 13 49
M  V30 51 1 14 50
M  V30 52 1 15 51
M  V30 53 1 15 52
M  V30 54 1 17 53
M  V30 55 1 19 54
M  V30 56 1 20 55
M  V30 57 1 26 56
M  V30 58 1 27 57
M  V30 END BOND
M  V30 END CTAB
M  END
>  <Dataset>  (565) 
ChEMBL_Kinases

>  <Ligand_Instance>  (565) 
nan

>  <PDB_ID>  (565) 
nan

>  <Standardized_SMILES>  (565) 
CCCCC(CC)C(=O)OCC1(CO)C/C(=C/c2ccc(C(F)(F)F)cc2)C(=O)O1

>  <Name>  (565) 
nan

>  <Pocket>  (565) 
nan

>  <ATP_Site>  (565) 
nan

>  <Peripheral>  (565) 
nan

>  <Num_H_Atoms_ProtBoundConf>  (565) 
nan

>  <Num_Resolved_Atoms>  (565) 
nan

>  <Num_Not_Resolved_Atoms>  (565) 
nan

$$$$
CHEMBL4584789
     RDKit          3D

  0  0  0  0  0  0  0  0  0  0999 V3000
M  V30 BEGIN CTAB
M  V30 COUNTS 45 48 0 0 0
M  V30 BEGIN ATOM
M  V30 1 C 2.561751 -5.664594 2.010974 0
M  V30 2 C 2.530972 -4.159641 2.212015 0
M  V30 3 C 3.456024 -3.329475 2.912962 0
M  V30 4 C 3.142325 -1.998532 2.907334 0
M  V30 5 C 2.041279 -1.554724 2.279178 0
M  V30 6 C 1.607473 -0.184531 2.203748 0
M  V30 7 C 2.311676 0.832083 2.805719 0
M  V30 8 C 1.814045 2.106031 2.680799 0
M  V30 9 N 2.486266 3.111607 3.260779 0
M  V30 10 C 1.999840 4.355772 3.138540 0
M  V30 11 C 0.848204 4.641909 2.447963 0
M  V30 12 N 0.224502 3.608356 1.894673 0
M  V30 13 C 0.662273 2.361484 1.985507 0
M  V30 14 C -0.046952 1.317342 1.376013 0
M  V30 15 N -1.252643 1.598898 0.683053 0
M  V30 16 C -2.212930 0.830125 -0.051467 0
M  V30 17 C -1.822586 0.378497 -1.409154 0 CFG=1
M  V30 18 C -0.634381 -0.502253 -1.535458 0
M  V30 19 C -0.853907 -1.863203 -0.882606 0
M  V30 20 C -2.058688 -2.501211 -1.552296 0
M  V30 21 N -2.690336 -1.645563 -2.511518 0
M  V30 22 C -3.018734 -0.350556 -2.001546 0
M  V30 23 N 0.487292 0.114621 1.534859 0
M  V30 24 S 1.298607 -3.023568 1.600996 0
M  V30 25 H 1.880571 -6.183001 2.687827 0
M  V30 26 H 3.623458 -5.961542 2.137406 0
M  V30 27 H 2.225131 -5.892873 0.964106 0
M  V30 28 H 4.284216 -3.859554 3.357255 0
M  V30 29 H 3.845581 -1.338196 3.444365 0
M  V30 30 H 3.216546 0.595868 3.346714 0
M  V30 31 H 2.549503 5.160057 3.610076 0
M  V30 32 H 0.436854 5.653797 2.338513 0
M  V30 33 H -1.527285 2.611716 0.694102 0
M  V30 34 H -3.168424 1.391328 -0.153835 0
M  V30 35 H -2.517553 -0.085280 0.534126 0
M  V30 36 H -1.618824 1.280504 -2.048274 0
M  V30 37 H 0.318062 -0.105667 -1.184915 0
M  V30 38 H -0.568157 -0.757969 -2.643193 0
M  V30 39 H -1.057105 -1.769678 0.183325 0
M  V30 40 H 0.056203 -2.441961 -1.053982 0
M  V30 41 H -2.797423 -2.872002 -0.807147 0
M  V30 42 H -1.701371 -3.393261 -2.091777 0
M  V30 43 H -2.252759 -1.640838 -3.440091 0
M  V30 44 H -3.437427 0.228397 -2.866862 0
M  V30 45 H -3.842336 -0.471724 -1.278657 0
M  V30 END ATOM
M  V30 BEGIN BOND
M  V30 1 1 1 2
M  V30 2 2 2 3
M  V30 3 1 3 4
M  V30 4 2 4 5
M  V30 5 1 5 6
M  V30 6 2 6 7
M  V30 7 1 7 8
M  V30 8 2 8 9
M  V30 9 1 9 10
M  V30 10 2 10 11
M  V30 11 1 11 12
M  V30 12 2 12 13
M  V30 13 1 13 14
M  V30 14 1 14 15
M  V30 15 1 15 16
M  V30 16 1 16 17
M  V30 17 1 17 18
M  V30 18 1 18 19
M  V30 19 1 19 20
M  V30 20 1 20 21
M  V30 21 1 21 22
M  V30 22 2 14 23
M  V30 23 1 5 24
M  V30 24 1 24 2
M  V30 25 1 23 6
M  V30 26 1 13 8
M  V30 27 1 22 17
M  V30 28 1 1 25
M  V30 29 1 1 26
M  V30 30 1 1 27
M  V30 31 1 3 28
M  V30 32 1 4 29
M  V30 33 1 7 30
M  V30 34 1 10 31
M  V30 35 1 11 32
M  V30 36 1 15 33
M  V30 37 1 16 34
M  V30 38 1 16 35
M  V30 39 1 17 36 CFG=3
M  V30 40 1 18 37
M  V30 41 1 18 38
M  V30 42 1 19 39
M  V30 43 1 19 40
M  V30 44 1 20 41
M  V30 45 1 20 42
M  V30 46 1 21 43
M  V30 47 1 22 44
M  V30 48 1 22 45
M  V30 END BOND
M  V30 END CTAB
M  END
>  <Dataset>  (566) 
ChEMBL_Kinases

>  <Ligand_Instance>  (566) 
nan

>  <PDB_ID>  (566) 
nan

>  <Standardized_SMILES>  (566) 
Cc1ccc(-c2cc3nccnc3c(NC[C@H]3CCCNC3)n2)s1

>  <Name>  (566) 
nan

>  <Pocket>  (566) 
nan

>  <ATP_Site>  (566) 
nan

>  <Peripheral>  (566) 
nan

>  <Num_H_Atoms_ProtBoundConf>  (566) 
nan

>  <Num_Resolved_Atoms>  (566) 
nan

>  <Num_Not_Resolved_Atoms>  (566) 
nan

$$$$
CHEMBL4584784
     RDKit          3D

  0  0  0  0  0  0  0  0  0  0999 V3000
M  V30 BEGIN CTAB
M  V30 COUNTS 52 56 0 0 0
M  V30 BEGIN ATOM
M  V30 1 C 1.002428 -2.030812 3.674208 0
M  V30 2 C 2.158453 -2.654861 3.025336 0
M  V30 3 O 2.631815 -3.677098 3.591310 0
M  V30 4 C 2.797698 -2.199551 1.798235 0
M  V30 5 C 3.868395 -2.893915 1.321146 0
M  V30 6 C 4.542808 -2.526906 0.149157 0
M  V30 7 C 4.091647 -1.401366 -0.552006 0
M  V30 8 C 4.675781 -0.941592 -1.721507 0
M  V30 9 N 4.180686 0.150403 -2.336857 0
M  V30 10 C 3.116489 0.823197 -1.843821 0
M  V30 11 C 2.523298 0.372914 -0.674175 0
M  V30 12 N 1.407069 1.208604 -0.296850 0
M  V30 13 C 1.166182 1.999883 0.894309 0
M  V30 14 C -0.181158 1.820273 1.508178 0
M  V30 15 N -1.110500 1.169329 0.624345 0
M  V30 16 C -2.036442 0.164365 0.998335 0
M  V30 17 C -2.205041 -0.237580 2.301061 0
M  V30 18 C -3.095415 -1.214625 2.688683 0
M  V30 19 C -3.883074 -1.853586 1.754852 0
M  V30 20 C -4.838816 -2.843994 1.841340 0
M  V30 21 N -5.262608 -3.050724 0.562699 0
M  V30 22 N -4.613597 -2.243445 -0.259338 0
M  V30 23 C -4.804990 -2.185817 -1.692024 0
M  V30 24 C -3.737172 -1.471599 0.433907 0
M  V30 25 C -2.833494 -0.488603 0.088780 0
M  V30 26 C -0.958864 1.700883 -0.711107 0
M  V30 27 C 0.350522 1.246344 -1.317682 0
M  V30 28 C 3.005501 -0.738946 -0.022601 0
M  V30 29 C 2.334903 -1.082027 1.119041 0
M  V30 30 H 1.386509 -1.471483 4.575140 0
M  V30 31 H 0.389020 -1.398264 3.032183 0
M  V30 32 H 0.309894 -2.809380 4.110682 0
M  V30 33 H 4.288412 -3.777558 1.795854 0
M  V30 34 H 5.397695 -3.064230 -0.250343 0
M  V30 35 H 5.523826 -1.512420 -2.076971 0
M  V30 36 H 2.826276 1.682780 -2.442648 0
M  V30 37 H 2.002450 1.839107 1.607889 0
M  V30 38 H 1.290607 3.073189 0.568606 0
M  V30 39 H -0.122662 1.321132 2.507082 0
M  V30 40 H -0.616405 2.835401 1.745728 0
M  V30 41 H -1.657862 0.179449 3.111684 0
M  V30 42 H -3.230866 -1.532553 3.705842 0
M  V30 43 H -5.176855 -3.349492 2.750616 0
M  V30 44 H -4.589784 -1.180834 -2.108505 0
M  V30 45 H -5.834030 -2.443604 -2.012865 0
M  V30 46 H -4.069583 -2.881613 -2.187373 0
M  V30 47 H -2.807483 -0.278933 -0.959526 0
M  V30 48 H -0.912472 2.830262 -0.687684 0
M  V30 49 H -1.785483 1.398381 -1.374655 0
M  V30 50 H 0.265251 0.265519 -1.805669 0
M  V30 51 H 0.700650 1.993807 -2.058244 0
M  V30 52 H 1.494730 -0.534348 1.489914 0
M  V30 END ATOM
M  V30 BEGIN BOND
M  V30 1 1 1 2
M  V30 2 2 2 3
M  V30 3 1 2 4
M  V30 4 2 4 5
M  V30 5 1 5 6
M  V30 6 2 6 7
M  V30 7 1 7 8
M  V30 8 2 8 9
M  V30 9 1 9 10
M  V30 10 2 10 11
M  V30 11 1 11 12
M  V30 12 1 12 13
M  V30 13 1 13 14
M  V30 14 1 14 15
M  V30 15 1 15 16
M  V30 16 2 16 17
M  V30 17 1 17 18
M  V30 18 2 18 19
M  V30 19 1 19 20
M  V30 20 2 20 21
M  V30 21 1 21 22
M  V30 22 1 22 23
M  V30 23 1 22 24
M  V30 24 2 24 25
M  V30 25 1 15 26
M  V30 26 1 26 27
M  V30 27 1 11 28
M  V30 28 2 28 29
M  V30 29 1 29 4
M  V30 30 1 28 7
M  V30 31 1 27 12
M  V30 32 1 25 16
M  V30 33 1 24 19
M  V30 34 1 1 30
M  V30 35 1 1 31
M  V30 36 1 1 32
M  V30 37 1 5 33
M  V30 38 1 6 34
M  V30 39 1 8 35
M  V30 40 1 10 36
M  V30 41 1 13 37
M  V30 42 1 13 38
M  V30 43 1 14 39
M  V30 44 1 14 40
M  V30 45 1 17 41
M  V30 46 1 18 42
M  V30 47 1 20 43
M  V30 48 1 23 44
M  V30 49 1 23 45
M  V30 50 1 23 46
M  V30 51 1 25 47
M  V30 52 1 26 48
M  V30 53 1 26 49
M  V30 54 1 27 50
M  V30 55 1 27 51
M  V30 56 1 29 52
M  V30 END BOND
M  V30 END CTAB
M  END
>  <Dataset>  (567) 
ChEMBL_Kinases

>  <Ligand_Instance>  (567) 
nan

>  <PDB_ID>  (567) 
nan

>  <Standardized_SMILES>  (567) 
CC(=O)c1ccc2cncc(N3CCN(c4ccc5cnn(C)c5c4)CC3)c2c1

>  <Name>  (567) 
nan

>  <Pocket>  (567) 
nan

>  <ATP_Site>  (567) 
nan

>  <Peripheral>  (567) 
nan

>  <Num_H_Atoms_ProtBoundConf>  (567) 
nan

>  <Num_Resolved_Atoms>  (567) 
nan

>  <Num_Not_Resolved_Atoms>  (567) 
nan

$$$$
CHEMBL4584574
     RDKit          3D

  0  0  0  0  0  0  0  0  0  0999 V3000
M  V30 BEGIN CTAB
M  V30 COUNTS 44 48 0 0 0
M  V30 BEGIN ATOM
M  V30 1 O 0.108933 2.131603 -0.923493 0
M  V30 2 S 1.438556 1.755773 -1.586593 0
M  V30 3 O 2.086680 3.094762 -1.879568 0
M  V30 4 C 1.106052 0.930281 -3.005959 0
M  V30 5 C 1.590258 1.421672 -4.307318 0
M  V30 6 C 1.438584 0.892574 -5.535828 0
M  V30 7 C 0.636797 -0.385461 -5.398149 0
M  V30 8 S 0.283178 -0.535130 -3.516416 0
M  V30 9 N 2.468105 0.959279 -0.488935 0
M  V30 10 C 2.016999 -0.296921 0.024213 0
M  V30 11 C 1.988562 -0.352247 1.535647 0
M  V30 12 C 1.177683 0.810889 2.030576 0
M  V30 13 C 1.682248 1.956801 1.474798 0
M  V30 14 S 0.676722 3.235724 2.054901 0
M  V30 15 C -0.430139 2.179781 3.060615 0
M  V30 16 N -1.513714 2.363577 3.874877 0
M  V30 17 C -2.114384 1.370575 4.499730 0
M  V30 18 N -1.605393 0.135375 4.298023 0
M  V30 19 C -0.559717 -0.111505 3.519544 0
M  V30 20 N -0.259066 -1.488775 3.525678 0
M  V30 21 C -0.825381 -2.704190 3.030088 0
M  V30 22 C -1.984682 -2.630263 2.348561 0
M  V30 23 C -2.598905 -3.736912 1.860572 0
M  V30 24 C -1.985315 -4.964781 2.089371 0
M  V30 25 F -2.548671 -6.111371 1.628373 0
M  V30 26 C -0.819342 -4.952140 2.782843 0
M  V30 27 C -0.108335 -3.867896 3.326115 0
M  V30 28 F 1.044072 -3.960373 4.000050 0
M  V30 29 C 0.095195 0.888867 2.851253 0
M  V30 30 C 2.891575 1.858557 0.582139 0
M  V30 31 H 2.179130 2.298967 -4.615989 0
M  V30 32 H 1.366996 0.547600 -6.533921 0
M  V30 33 H 0.038783 -1.403344 -5.596492 0
M  V30 34 H 1.039113 -0.536325 -0.415330 0
M  V30 35 H 2.737616 -1.072924 -0.313281 0
M  V30 36 H 3.008858 -0.308857 1.971557 0
M  V30 37 H 1.555083 -1.328989 1.826308 0
M  V30 38 H -2.940480 1.743241 5.082428 0
M  V30 39 H 0.655441 -1.454329 4.070479 0
M  V30 40 H -2.496062 -1.694101 2.143741 0
M  V30 41 H -3.521327 -3.727048 1.314277 0
M  V30 42 H -0.384011 -5.953243 2.927716 0
M  V30 43 H 3.033721 2.853054 0.129237 0
M  V30 44 H 3.747871 1.477352 1.131151 0
M  V30 END ATOM
M  V30 BEGIN BOND
M  V30 1 2 1 2
M  V30 2 2 2 3
M  V30 3 1 2 4
M  V30 4 2 4 5
M  V30 5 1 5 6
M  V30 6 2 6 7
M  V30 7 1 7 8
M  V30 8 1 2 9
M  V30 9 1 9 10
M  V30 10 1 10 11
M  V30 11 1 11 12
M  V30 12 2 12 13
M  V30 13 1 13 14
M  V30 14 1 14 15
M  V30 15 2 15 16
M  V30 16 1 16 17
M  V30 17 2 17 18
M  V30 18 1 18 19
M  V30 19 1 19 20
M  V30 20 1 20 21
M  V30 21 2 21 22
M  V30 22 1 22 23
M  V30 23 2 23 24
M  V30 24 1 24 25
M  V30 25 1 24 26
M  V30 26 2 26 27
M  V30 27 1 27 28
M  V30 28 2 19 29
M  V30 29 1 13 30
M  V30 30 1 8 4
M  V30 31 1 30 9
M  V30 32 1 29 12
M  V30 33 1 29 15
M  V30 34 1 27 21
M  V30 35 1 5 31
M  V30 36 1 6 32
M  V30 37 1 7 33
M  V30 38 1 10 34
M  V30 39 1 10 35
M  V30 40 1 11 36
M  V30 41 1 11 37
M  V30 42 1 17 38
M  V30 43 1 20 39
M  V30 44 1 22 40
M  V30 45 1 23 41
M  V30 46 1 26 42
M  V30 47 1 30 43
M  V30 48 1 30 44
M  V30 END BOND
M  V30 END CTAB
M  END
>  <Dataset>  (568) 
ChEMBL_Kinases

>  <Ligand_Instance>  (568) 
nan

>  <PDB_ID>  (568) 
nan

>  <Standardized_SMILES>  (568) 
O=S(=O)(c1cccs1)N1CCc2c(sc3ncnc(Nc4ccc(F)cc4F)c23)C1

>  <Name>  (568) 
nan

>  <Pocket>  (568) 
nan

>  <ATP_Site>  (568) 
nan

>  <Peripheral>  (568) 
nan

>  <Num_H_Atoms_ProtBoundConf>  (568) 
nan

>  <Num_Resolved_Atoms>  (568) 
nan

>  <Num_Not_Resolved_Atoms>  (568) 
nan

$$$$
CHEMBL4584495
     RDKit          3D

  0  0  0  0  0  0  0  0  0  0999 V3000
M  V30 BEGIN CTAB
M  V30 COUNTS 38 41 0 0 0
M  V30 BEGIN ATOM
M  V30 1 N 0.340402 -3.692058 4.671305 0
M  V30 2 C 1.160842 -3.109653 4.079672 0
M  V30 3 C 2.188202 -2.377514 3.365275 0
M  V30 4 C 3.514295 -2.233234 3.743247 0
M  V30 5 N 4.108650 -1.479148 2.791279 0
M  V30 6 C 3.196130 -1.163256 1.856189 0
M  V30 7 C 3.153944 -0.449939 0.676620 0
M  V30 8 C 2.011477 -0.301726 -0.091893 0
M  V30 9 C 0.837999 -0.893175 0.327524 0
M  V30 10 C -0.472569 -0.870427 -0.305771 0
M  V30 11 C -1.199975 0.321518 -0.414254 0
M  V30 12 C -0.954834 1.702088 -0.020563 0
M  V30 13 C -0.019106 2.526568 -0.611304 0
M  V30 14 C 0.242479 3.832245 -0.257698 0
M  V30 15 C -0.485075 4.379610 0.776461 0
M  V30 16 F -0.208919 5.666028 1.100498 0
M  V30 17 C -1.431195 3.586177 1.394297 0
M  V30 18 C -1.683632 2.281939 1.031142 0
M  V30 19 N -2.366109 0.038330 -1.039379 0
M  V30 20 C -2.395960 -1.291534 -1.327745 0
M  V30 21 N -1.244768 -1.814508 -0.875822 0
M  V30 22 C -0.839623 -3.201817 -0.959793 0
M  V30 23 C -1.291187 -4.012164 0.227565 0
M  V30 24 F -2.676996 -3.974576 0.307506 0
M  V30 25 F -0.945697 -5.344760 0.012007 0
M  V30 26 N 0.909026 -1.589954 1.494085 0
M  V30 27 N 2.017520 -1.714280 2.207854 0
M  V30 28 H 3.989035 -2.645700 4.635589 0
M  V30 29 H 4.067180 0.021327 0.333819 0
M  V30 30 H 1.941043 0.234847 -1.002029 0
M  V30 31 H 0.572114 2.135295 -1.432303 0
M  V30 32 H 0.995652 4.413705 -0.774283 0
M  V30 33 H -1.970603 4.078838 2.204965 0
M  V30 34 H -2.447475 1.714900 1.564962 0
M  V30 35 H -3.154552 -1.899709 -1.822723 0
M  V30 36 H -1.383794 -3.637377 -1.845354 0
M  V30 37 H 0.253408 -3.328283 -1.123123 0
M  V30 38 H -0.852610 -3.729757 1.184357 0
M  V30 END ATOM
M  V30 BEGIN BOND
M  V30 1 3 1 2
M  V30 2 1 2 3
M  V30 3 2 3 4
M  V30 4 1 4 5
M  V30 5 2 5 6
M  V30 6 1 6 7
M  V30 7 2 7 8
M  V30 8 1 8 9
M  V30 9 1 9 10
M  V30 10 2 10 11
M  V30 11 1 11 12
M  V30 12 2 12 13
M  V30 13 1 13 14
M  V30 14 2 14 15
M  V30 15 1 15 16
M  V30 16 1 15 17
M  V30 17 2 17 18
M  V30 18 1 11 19
M  V30 19 2 19 20
M  V30 20 1 20 21
M  V30 21 1 21 22
M  V30 22 1 22 23
M  V30 23 1 23 24
M  V30 24 1 23 25
M  V30 25 2 9 26
M  V30 26 1 26 27
M  V30 27 1 27 3
M  V30 28 1 27 6
M  V30 29 1 21 10
M  V30 30 1 18 12
M  V30 31 1 4 28
M  V30 32 1 7 29
M  V30 33 1 8 30
M  V30 34 1 13 31
M  V30 35 1 14 32
M  V30 36 1 17 33
M  V30 37 1 18 34
M  V30 38 1 20 35
M  V30 39 1 22 36
M  V30 40 1 22 37
M  V30 41 1 23 38
M  V30 END BOND
M  V30 END CTAB
M  END
>  <Dataset>  (569) 
ChEMBL_Kinases

>  <Ligand_Instance>  (569) 
nan

>  <PDB_ID>  (569) 
nan

>  <Standardized_SMILES>  (569) 
N#Cc1cnc2ccc(-c3c(-c4ccc(F)cc4)ncn3CC(F)F)nn12

>  <Name>  (569) 
nan

>  <Pocket>  (569) 
nan

>  <ATP_Site>  (569) 
nan

>  <Peripheral>  (569) 
nan

>  <Num_H_Atoms_ProtBoundConf>  (569) 
nan

>  <Num_Resolved_Atoms>  (569) 
nan

>  <Num_Not_Resolved_Atoms>  (569) 
nan

$$$$
CHEMBL4584382
     RDKit          3D

  0  0  0  0  0  0  0  0  0  0999 V3000
M  V30 BEGIN CTAB
M  V30 COUNTS 35 36 0 0 0
M  V30 BEGIN ATOM
M  V30 1 C -2.017005 -4.071627 3.311189 0
M  V30 2 C -0.684217 -3.691495 3.120844 0
M  V30 3 C 0.585735 -4.013317 3.553605 0
M  V30 4 C 1.686459 -3.347522 3.122431 0
M  V30 5 C 1.549216 -2.306923 2.218912 0
M  V30 6 C 2.425524 -1.403871 1.595914 0
M  V30 7 O 3.605849 -1.408630 1.960760 0
M  V30 8 C 1.873144 -0.469418 0.509316 0
M  V30 9 S 0.242535 -0.456067 0.014033 0
M  V30 10 C 0.417236 0.811680 -1.181018 0
M  V30 11 N -0.634621 1.389538 -2.049268 0
M  V30 12 C -1.916638 1.665312 -1.446274 0
M  V30 13 C -2.496352 0.447382 -0.731608 0
M  V30 14 C -1.888411 2.803930 -0.455628 0
M  V30 15 C 1.707427 1.112677 -1.096076 0
M  V30 16 C 2.249128 2.180210 -1.961282 0
M  V30 17 N 2.685196 3.018773 -2.667447 0
M  V30 18 C 2.484689 0.468270 -0.233076 0
M  V30 19 N 3.901415 0.651300 -0.005420 0
M  V30 20 S -0.330265 -2.257139 1.937666 0
M  V30 21 H -2.479730 -3.429870 4.146986 0
M  V30 22 H -2.137361 -5.099579 3.654514 0
M  V30 23 H -2.652979 -3.864115 2.424796 0
M  V30 24 H 0.607196 -4.831371 4.250807 0
M  V30 25 H 2.693266 -3.577681 3.449511 0
M  V30 26 H -0.445259 1.579668 -3.040030 0
M  V30 27 H -2.666862 1.894908 -2.256072 0
M  V30 28 H -2.104724 0.426900 0.311534 0
M  V30 29 H -3.592855 0.545512 -0.725591 0
M  V30 30 H -2.246807 -0.502903 -1.249834 0
M  V30 31 H -1.749716 2.509466 0.585841 0
M  V30 32 H -2.874174 3.348760 -0.477040 0
M  V30 33 H -1.085019 3.543069 -0.760355 0
M  V30 34 H 4.477719 1.310713 0.599959 0
M  V30 35 H 4.705421 0.152009 -0.403306 0
M  V30 END ATOM
M  V30 BEGIN BOND
M  V30 1 1 1 2
M  V30 2 2 2 3
M  V30 3 1 3 4
M  V30 4 2 4 5
M  V30 5 1 5 6
M  V30 6 2 6 7
M  V30 7 1 6 8
M  V30 8 1 8 9
M  V30 9 1 9 10
M  V30 10 1 10 11
M  V30 11 1 11 12
M  V30 12 1 12 13
M  V30 13 1 12 14
M  V30 14 2 10 15
M  V30 15 1 15 16
M  V30 16 3 16 17
M  V30 17 1 15 18
M  V30 18 1 18 19
M  V30 19 1 5 20
M  V30 20 1 20 2
M  V30 21 2 18 8
M  V30 22 1 1 21
M  V30 23 1 1 22
M  V30 24 1 1 23
M  V30 25 1 3 24
M  V30 26 1 4 25
M  V30 27 1 11 26
M  V30 28 1 12 27
M  V30 29 1 13 28
M  V30 30 1 13 29
M  V30 31 1 13 30
M  V30 32 1 14 31
M  V30 33 1 14 32
M  V30 34 1 14 33
M  V30 35 1 19 34
M  V30 36 1 19 35
M  V30 END BOND
M  V30 END CTAB
M  END
>  <Dataset>  (570) 
ChEMBL_Kinases

>  <Ligand_Instance>  (570) 
nan

>  <PDB_ID>  (570) 
nan

>  <Standardized_SMILES>  (570) 
Cc1ccc(C(=O)c2sc(NC(C)C)c(C#N)c2N)s1

>  <Name>  (570) 
nan

>  <Pocket>  (570) 
nan

>  <ATP_Site>  (570) 
nan

>  <Peripheral>  (570) 
nan

>  <Num_H_Atoms_ProtBoundConf>  (570) 
nan

>  <Num_Resolved_Atoms>  (570) 
nan

>  <Num_Not_Resolved_Atoms>  (570) 
nan

$$$$
CHEMBL4569126
     RDKit          3D

  0  0  0  0  0  0  0  0  0  0999 V3000
M  V30 BEGIN CTAB
M  V30 COUNTS 41 44 0 0 0
M  V30 BEGIN ATOM
M  V30 1 C 2.919681 -4.266788 1.926956 0
M  V30 2 C 1.463377 -3.926171 1.843766 0
M  V30 3 O 1.022593 -3.597892 3.124093 0
M  V30 4 C 1.336937 -2.753482 0.938711 0
M  V30 5 C 1.231869 -1.788770 0.219467 0
M  V30 6 C 1.091342 -0.628831 -0.620731 0
M  V30 7 C 1.127037 -0.695385 -2.002398 0
M  V30 8 C 0.980815 0.490645 -2.730110 0
M  V30 9 C 0.805943 1.690538 -2.072232 0
M  V30 10 C 0.767094 1.781231 -0.696208 0
M  V30 11 N 0.589635 2.989316 0.038255 0
M  V30 12 C 1.126897 4.218930 -0.078392 0
M  V30 13 C 0.598213 5.036217 0.910391 0
M  V30 14 C -0.292551 4.276093 1.654993 0
M  V30 15 C -1.062998 4.620046 2.730753 0
M  V30 16 N -1.849431 3.663708 3.265176 0
M  V30 17 C -1.848788 2.416635 2.726761 0
M  V30 18 N -2.610735 1.297258 3.161412 0
M  V30 19 N -1.081367 2.121195 1.675557 0
M  V30 20 C -0.265596 3.014470 1.078630 0
M  V30 21 C 0.915216 0.585646 -0.000034 0
M  V30 22 C 0.636493 -4.983844 1.225926 0
M  V30 23 N 0.221627 -5.279875 -0.049417 0
M  V30 24 C -0.532323 -6.377307 -0.075279 0
M  V30 25 C -0.957422 -7.293278 1.127692 0
M  V30 26 S -0.031348 -6.252141 2.416458 0
M  V30 27 H 3.274973 -4.944044 1.137278 0
M  V30 28 H 3.052839 -4.832637 2.887387 0
M  V30 29 H 3.505219 -3.346936 2.053179 0
M  V30 30 H 0.045959 -3.419225 3.028932 0
M  V30 31 H 1.266811 -1.662290 -2.473472 0
M  V30 32 H 1.007320 0.450764 -3.822698 0
M  V30 33 H 0.689622 2.630550 -2.626637 0
M  V30 34 H 1.853513 4.445318 -0.855498 0
M  V30 35 H 0.863270 6.081054 1.041756 0
M  V30 36 H -1.064776 5.609632 3.159525 0
M  V30 37 H -2.181539 0.379913 3.467864 0
M  V30 38 H -3.613957 1.019105 3.307853 0
M  V30 39 H 0.886285 0.643735 1.090416 0
M  V30 40 H -0.752255 -6.434467 -1.160121 0
M  V30 41 H -1.582658 -8.074687 0.579125 0
M  V30 END ATOM
M  V30 BEGIN BOND
M  V30 1 1 1 2
M  V30 2 1 2 3
M  V30 3 1 2 4
M  V30 4 3 4 5
M  V30 5 1 5 6
M  V30 6 2 6 7
M  V30 7 1 7 8
M  V30 8 2 8 9
M  V30 9 1 9 10
M  V30 10 1 10 11
M  V30 11 1 11 12
M  V30 12 2 12 13
M  V30 13 1 13 14
M  V30 14 2 14 15
M  V30 15 1 15 16
M  V30 16 2 16 17
M  V30 17 1 17 18
M  V30 18 1 17 19
M  V30 19 2 19 20
M  V30 20 2 10 21
M  V30 21 1 2 22
M  V30 22 2 22 23
M  V30 23 1 23 24
M  V30 24 2 24 25
M  V30 25 1 25 26
M  V30 26 1 21 6
M  V30 27 1 26 22
M  V30 28 1 20 11
M  V30 29 1 20 14
M  V30 30 1 1 27
M  V30 31 1 1 28
M  V30 32 1 1 29
M  V30 33 1 3 30
M  V30 34 1 7 31
M  V30 35 1 8 32
M  V30 36 1 9 33
M  V30 37 1 12 34
M  V30 38 1 13 35
M  V30 39 1 15 36
M  V30 40 1 18 37
M  V30 41 1 18 38
M  V30 42 1 21 39
M  V30 43 1 24 40
M  V30 44 1 25 41
M  V30 END BOND
M  V30 END CTAB
M  END
>  <Dataset>  (571) 
ChEMBL_Kinases

>  <Ligand_Instance>  (571) 
nan

>  <PDB_ID>  (571) 
nan

>  <Standardized_SMILES>  (571) 
CC(O)(C#Cc1cccc(-n2ccc3cnc(N)nc32)c1)c1nccs1

>  <Name>  (571) 
nan

>  <Pocket>  (571) 
nan

>  <ATP_Site>  (571) 
nan

>  <Peripheral>  (571) 
nan

>  <Num_H_Atoms_ProtBoundConf>  (571) 
nan

>  <Num_Resolved_Atoms>  (571) 
nan

>  <Num_Not_Resolved_Atoms>  (571) 
nan

$$$$
CHEMBL461564
     RDKit          3D

  0  0  0  0  0  0  0  0  0  0999 V3000
M  V30 BEGIN CTAB
M  V30 COUNTS 57 58 0 0 0
M  V30 BEGIN ATOM
M  V30 1 C 2.076254 -3.787354 6.421098 0
M  V30 2 C 0.753138 -3.577112 5.742961 0
M  V30 3 C 1.018627 -2.906707 4.366630 0
M  V30 4 C 1.876967 -3.856730 3.630244 0
M  V30 5 C 2.281004 -3.552471 2.236578 0
M  V30 6 C 3.052793 -2.330344 1.934429 0
M  V30 7 C 2.415503 -1.028472 2.196945 0
M  V30 8 C 2.111966 -0.146586 1.212588 0
M  V30 9 C 1.477561 1.215884 1.197474 0
M  V30 10 C 0.726146 1.203255 -0.105125 0
M  V30 11 C 0.515054 2.556098 -0.713017 0
M  V30 12 O -0.151327 2.351016 -1.924466 0
M  V30 13 C -0.624071 0.568751 0.135937 0
M  V30 14 O -1.356233 0.453614 -1.093145 0
M  V30 15 C -2.631638 -0.116454 -1.038999 0
M  V30 16 O -2.812565 -0.403328 0.192459 0
M  V30 17 C -3.470955 -0.278629 -2.268507 0
M  V30 18 C -2.765002 -1.142233 -3.255559 0
M  V30 19 C -1.999621 -0.397807 -4.317103 0
M  V30 20 C -3.034434 0.490656 -5.018092 0
M  V30 21 C -3.339253 1.575203 -3.985293 0
M  V30 22 C -4.018322 1.004500 -2.790221 0
M  V30 23 O 1.508114 0.435179 -1.006674 0
M  V30 24 C 2.371670 -0.376797 -0.231977 0
M  V30 25 O 3.199953 -1.145033 -0.775118 0
M  V30 26 H 1.993310 -3.742623 7.539289 0
M  V30 27 H 2.511824 -4.789874 6.215160 0
M  V30 28 H 2.820550 -3.049647 6.057518 0
M  V30 29 H 0.126105 -2.918057 6.372161 0
M  V30 30 H 0.193922 -4.514488 5.547533 0
M  V30 31 H 0.111229 -2.558325 3.892475 0
M  V30 32 H 1.643153 -2.015336 4.676363 0
M  V30 33 H 2.813944 -4.035364 4.224412 0
M  V30 34 H 1.307608 -4.845767 3.564236 0
M  V30 35 H 1.342632 -3.636214 1.614040 0
M  V30 36 H 2.964577 -4.424201 1.947408 0
M  V30 37 H 3.934304 -2.363399 2.692133 0
M  V30 38 H 3.598653 -2.388322 0.979570 0
M  V30 39 H 2.095023 -0.515496 3.087353 0
M  V30 40 H 0.829681 1.392636 2.056116 0
M  V30 41 H 2.257014 2.024890 1.094866 0
M  V30 42 H -0.035876 3.248902 -0.047961 0
M  V30 43 H 1.514903 2.983404 -0.977854 0
M  V30 44 H -0.412561 3.200860 -2.361568 0
M  V30 45 H -1.262394 1.217782 0.768503 0
M  V30 46 H -0.544413 -0.407342 0.657474 0
M  V30 47 H -4.368602 -0.860835 -1.903822 0
M  V30 48 H -1.997072 -1.743330 -2.695151 0
M  V30 49 H -3.500390 -1.776758 -3.773430 0
M  V30 50 H -1.253863 0.290540 -3.905659 0
M  V30 51 H -1.613746 -1.121082 -5.036071 0
M  V30 52 H -2.667166 0.939719 -5.938796 0
M  V30 53 H -3.981684 -0.084190 -5.182129 0
M  V30 54 H -2.435942 2.162445 -3.776427 0
M  V30 55 H -4.070316 2.257487 -4.499646 0
M  V30 56 H -5.123048 0.976592 -2.970886 0
M  V30 57 H -3.910672 1.773539 -1.970164 0
M  V30 END ATOM
M  V30 BEGIN BOND
M  V30 1 1 1 2
M  V30 2 1 2 3
M  V30 3 1 3 4
M  V30 4 1 4 5
M  V30 5 1 5 6
M  V30 6 1 6 7
M  V30 7 2 7 8
M  V30 8 1 8 9
M  V30 9 1 9 10
M  V30 10 1 10 11
M  V30 11 1 11 12
M  V30 12 1 10 13
M  V30 13 1 13 14
M  V30 14 1 14 15
M  V30 15 2 15 16
M  V30 16 1 15 17
M  V30 17 1 17 18
M  V30 18 1 18 19
M  V30 19 1 19 20
M  V30 20 1 20 21
M  V30 21 1 21 22
M  V30 22 1 10 23
M  V30 23 1 23 24
M  V30 24 2 24 25
M  V30 25 1 24 8
M  V30 26 1 22 17
M  V30 27 1 1 26
M  V30 28 1 1 27
M  V30 29 1 1 28
M  V30 30 1 2 29
M  V30 31 1 2 30
M  V30 32 1 3 31
M  V30 33 1 3 32
M  V30 34 1 4 33
M  V30 35 1 4 34
M  V30 36 1 5 35
M  V30 37 1 5 36
M  V30 38 1 6 37
M  V30 39 1 6 38
M  V30 40 1 7 39
M  V30 41 1 9 40
M  V30 42 1 9 41
M  V30 43 1 11 42
M  V30 44 1 11 43
M  V30 45 1 12 44
M  V30 46 1 13 45
M  V30 47 1 13 46
M  V30 48 1 17 47
M  V30 49 1 18 48
M  V30 50 1 18 49
M  V30 51 1 19 50
M  V30 52 1 19 51
M  V30 53 1 20 52
M  V30 54 1 20 53
M  V30 55 1 21 54
M  V30 56 1 21 55
M  V30 57 1 22 56
M  V30 58 1 22 57
M  V30 END BOND
M  V30 END CTAB
M  END
>  <Dataset>  (572) 
ChEMBL_Kinases

>  <Ligand_Instance>  (572) 
nan

>  <PDB_ID>  (572) 
nan

>  <Standardized_SMILES>  (572) 
CCCCCC/C=C1/CC(CO)(COC(=O)C2CCCCC2)OC1=O

>  <Name>  (572) 
nan

>  <Pocket>  (572) 
nan

>  <ATP_Site>  (572) 
nan

>  <Peripheral>  (572) 
nan

>  <Num_H_Atoms_ProtBoundConf>  (572) 
nan

>  <Num_Resolved_Atoms>  (572) 
nan

>  <Num_Not_Resolved_Atoms>  (572) 
nan

$$$$
CHEMBL461751
     RDKit          3D

  0  0  0  0  0  0  0  0  0  0999 V3000
M  V30 BEGIN CTAB
M  V30 COUNTS 53 55 0 0 0
M  V30 BEGIN ATOM
M  V30 1 C 0.331770 -7.491775 1.951092 0
M  V30 2 O -0.375685 -6.579102 1.166474 0
M  V30 3 C 0.107107 -5.395826 0.644329 0
M  V30 4 C 1.378976 -4.903660 0.810694 0
M  V30 5 C 1.780555 -3.711754 0.252930 0
M  V30 6 C 0.930417 -2.937151 -0.507221 0
M  V30 7 C 1.115994 -1.666385 -1.154956 0
M  V30 8 C 1.658025 -0.614178 -0.569194 0
M  V30 9 C 1.852220 0.715601 -1.258575 0
M  V30 10 C 2.519306 1.530283 -0.189599 0
M  V30 11 C 3.606668 2.431071 -0.660376 0
M  V30 12 O 3.139663 3.393474 -1.574044 0
M  V30 13 C 1.421491 2.275570 0.548250 0
M  V30 14 O 0.433251 1.322977 0.972833 0
M  V30 15 C -0.673750 1.788981 1.660102 0
M  V30 16 O -0.472303 3.046333 1.717085 0
M  V30 17 C -1.596970 0.699029 2.032772 0
M  V30 18 C -2.125391 -0.095257 0.889466 0
M  V30 19 C -3.217189 0.545862 0.100030 0
M  V30 20 C -4.219954 1.299633 0.922153 0
M  V30 21 C -3.491407 2.212530 1.878256 0
M  V30 22 C -2.715076 1.314689 2.841782 0
M  V30 23 O 3.070520 0.585200 0.716494 0
M  V30 24 C 2.137947 -0.476631 0.801905 0
M  V30 25 O 1.673520 -1.246792 1.686969 0
M  V30 26 C -0.367120 -3.443204 -0.675033 0
M  V30 27 C -0.796857 -4.652584 -0.117553 0
M  V30 28 H 0.558018 -8.391875 1.304184 0
M  V30 29 H 1.306153 -7.144188 2.318649 0
M  V30 30 H -0.260387 -7.892830 2.819726 0
M  V30 31 H 2.075605 -5.480389 1.400316 0
M  V30 32 H 2.769355 -3.296166 0.348174 0
M  V30 33 H 0.788352 -1.562684 -2.205442 0
M  V30 34 H 0.864277 1.123370 -1.534885 0
M  V30 35 H 2.470945 0.621914 -2.156709 0
M  V30 36 H 4.457391 1.880109 -1.103219 0
M  V30 37 H 4.038773 2.994837 0.194772 0
M  V30 38 H 3.490196 4.302408 -1.362030 0
M  V30 39 H 1.850575 2.716624 1.463529 0
M  V30 40 H 0.899597 3.005596 -0.087445 0
M  V30 41 H -1.056910 -0.016928 2.707573 0
M  V30 42 H -2.502019 -1.066256 1.284571 0
M  V30 43 H -1.286690 -0.344498 0.182674 0
M  V30 44 H -3.787901 -0.292490 -0.398422 0
M  V30 45 H -2.828245 1.179492 -0.740168 0
M  V30 46 H -4.845156 0.615175 1.512916 0
M  V30 47 H -4.865530 1.859939 0.215124 0
M  V30 48 H -2.774035 2.849225 1.305084 0
M  V30 49 H -4.210234 2.858170 2.390956 0
M  V30 50 H -3.402723 0.513781 3.186479 0
M  V30 51 H -2.320357 1.951186 3.655834 0
M  V30 52 H -1.135971 -2.935545 -1.249568 0
M  V30 53 H -1.812742 -5.008893 -0.272136 0
M  V30 END ATOM
M  V30 BEGIN BOND
M  V30 1 1 1 2
M  V30 2 1 2 3
M  V30 3 2 3 4
M  V30 4 1 4 5
M  V30 5 2 5 6
M  V30 6 1 6 7
M  V30 7 2 7 8
M  V30 8 1 8 9
M  V30 9 1 9 10
M  V30 10 1 10 11
M  V30 11 1 11 12
M  V30 12 1 10 13
M  V30 13 1 13 14
M  V30 14 1 14 15
M  V30 15 2 15 16
M  V30 16 1 15 17
M  V30 17 1 17 18
M  V30 18 1 18 19
M  V30 19 1 19 20
M  V30 20 1 20 21
M  V30 21 1 21 22
M  V30 22 1 10 23
M  V30 23 1 23 24
M  V30 24 2 24 25
M  V30 25 1 6 26
M  V30 26 2 26 27
M  V30 27 1 27 3
M  V30 28 1 24 8
M  V30 29 1 22 17
M  V30 30 1 1 28
M  V30 31 1 1 29
M  V30 32 1 1 30
M  V30 33 1 4 31
M  V30 34 1 5 32
M  V30 35 1 7 33
M  V30 36 1 9 34
M  V30 37 1 9 35
M  V30 38 1 11 36
M  V30 39 1 11 37
M  V30 40 1 12 38
M  V30 41 1 13 39
M  V30 42 1 13 40
M  V30 43 1 17 41
M  V30 44 1 18 42
M  V30 45 1 18 43
M  V30 46 1 19 44
M  V30 47 1 19 45
M  V30 48 1 20 46
M  V30 49 1 20 47
M  V30 50 1 21 48
M  V30 51 1 21 49
M  V30 52 1 22 50
M  V30 53 1 22 51
M  V30 54 1 26 52
M  V30 55 1 27 53
M  V30 END BOND
M  V30 END CTAB
M  END
>  <Dataset>  (573) 
ChEMBL_Kinases

>  <Ligand_Instance>  (573) 
nan

>  <PDB_ID>  (573) 
nan

>  <Standardized_SMILES>  (573) 
COc1ccc(/C=C2/CC(CO)(COC(=O)C3CCCCC3)OC2=O)cc1

>  <Name>  (573) 
nan

>  <Pocket>  (573) 
nan

>  <ATP_Site>  (573) 
nan

>  <Peripheral>  (573) 
nan

>  <Num_H_Atoms_ProtBoundConf>  (573) 
nan

>  <Num_Resolved_Atoms>  (573) 
nan

>  <Num_Not_Resolved_Atoms>  (573) 
nan

$$$$
CHEMBL461755
     RDKit          3D

  0  0  0  0  0  0  0  0  0  0999 V3000
M  V30 BEGIN CTAB
M  V30 COUNTS 57 58 0 0 0
M  V30 BEGIN ATOM
M  V30 1 C -1.933584 -1.011365 -6.210950 0
M  V30 2 C -0.424518 -1.077373 -6.074027 0
M  V30 3 C 0.006904 -0.211551 -4.896738 0
M  V30 4 C -0.417231 1.215375 -5.141643 0
M  V30 5 C -0.022256 2.142683 -4.008322 0
M  V30 6 C -0.511859 3.519440 -4.415013 0
M  V30 7 C -0.204055 4.572769 -3.400673 0
M  V30 8 C -0.538747 1.785299 -2.705798 0
M  V30 9 O -1.273775 2.613083 -2.073440 0
M  V30 10 O -0.636103 0.869079 -1.683233 0
M  V30 11 C -1.400732 1.171593 -0.507368 0
M  V30 12 C -1.274964 -0.037784 0.359315 0
M  V30 13 C -1.893605 -1.224618 -0.341519 0
M  V30 14 O -1.306206 -1.493745 -1.564111 0
M  V30 15 C 0.174556 -0.267575 0.693174 0
M  V30 16 C 0.114471 -0.846094 2.040276 0
M  V30 17 C 0.956587 -1.467420 2.850068 0
M  V30 18 C 0.812952 -2.012826 4.189352 0
M  V30 19 C 0.649004 -3.398192 4.324988 0
M  V30 20 C 0.532380 -4.037839 5.514905 0
M  V30 21 C 0.578501 -3.273989 6.674254 0
M  V30 22 C 0.740138 -1.918437 6.533481 0
M  V30 23 C 0.859556 -1.256680 5.331974 0
M  V30 24 C 1.058281 0.208200 5.322506 0
M  V30 25 F 2.275354 0.422851 4.671485 0
M  V30 26 F 1.288698 0.646966 6.643006 0
M  V30 27 F 0.023948 0.915799 4.814584 0
M  V30 28 C -1.281469 -0.673978 2.499398 0
M  V30 29 O -1.832004 -1.139684 3.552829 0
M  V30 30 O -1.970931 0.109166 1.585764 0
M  V30 31 H -2.343557 -0.656300 -5.252383 0
M  V30 32 H -2.172743 -0.285638 -6.998052 0
M  V30 33 H -2.335788 -2.018541 -6.442828 0
M  V30 34 H 0.101731 -0.805037 -6.993934 0
M  V30 35 H -0.158089 -2.149366 -5.872914 0
M  V30 36 H -0.484122 -0.546796 -3.985852 0
M  V30 37 H 1.109922 -0.276982 -4.851920 0
M  V30 38 H 0.204510 1.557167 -6.019576 0
M  V30 39 H -1.495753 1.266830 -5.376919 0
M  V30 40 H 1.099626 2.219175 -4.043812 0
M  V30 41 H 0.011479 3.739794 -5.378198 0
M  V30 42 H -1.588810 3.478448 -4.649585 0
M  V30 43 H -1.159177 5.013988 -3.055030 0
M  V30 44 H 0.334956 5.418583 -3.912211 0
M  V30 45 H 0.473305 4.247044 -2.595719 0
M  V30 46 H -1.035054 2.101826 -0.011172 0
M  V30 47 H -2.462149 1.372124 -0.794874 0
M  V30 48 H -1.849512 -2.124892 0.335251 0
M  V30 49 H -2.975408 -1.052151 -0.511265 0
M  V30 50 H -1.958355 -1.741155 -2.266311 0
M  V30 51 H 0.802396 0.633673 0.605178 0
M  V30 52 H 0.533422 -1.043644 -0.041292 0
M  V30 53 H 1.961999 -1.591174 2.416986 0
M  V30 54 H 0.608538 -4.040449 3.437581 0
M  V30 55 H 0.405681 -5.109317 5.601859 0
M  V30 56 H 0.488091 -3.762022 7.634986 0
M  V30 57 H 0.773291 -1.357375 7.477043 0
M  V30 END ATOM
M  V30 BEGIN BOND
M  V30 1 1 1 2
M  V30 2 1 2 3
M  V30 3 1 3 4
M  V30 4 1 4 5
M  V30 5 1 5 6
M  V30 6 1 6 7
M  V30 7 1 5 8
M  V30 8 2 8 9
M  V30 9 1 8 10
M  V30 10 1 10 11
M  V30 11 1 11 12
M  V30 12 1 12 13
M  V30 13 1 13 14
M  V30 14 1 12 15
M  V30 15 1 15 16
M  V30 16 2 16 17
M  V30 17 1 17 18
M  V30 18 2 18 19
M  V30 19 1 19 20
M  V30 20 2 20 21
M  V30 21 1 21 22
M  V30 22 2 22 23
M  V30 23 1 23 24
M  V30 24 1 24 25
M  V30 25 1 24 26
M  V30 26 1 24 27
M  V30 27 1 16 28
M  V30 28 2 28 29
M  V30 29 1 28 30
M  V30 30 1 30 12
M  V30 31 1 23 18
M  V30 32 1 1 31
M  V30 33 1 1 32
M  V30 34 1 1 33
M  V30 35 1 2 34
M  V30 36 1 2 35
M  V30 37 1 3 36
M  V30 38 1 3 37
M  V30 39 1 4 38
M  V30 40 1 4 39
M  V30 41 1 5 40
M  V30 42 1 6 41
M  V30 43 1 6 42
M  V30 44 1 7 43
M  V30 45 1 7 44
M  V30 46 1 7 45
M  V30 47 1 11 46
M  V30 48 1 11 47
M  V30 49 1 13 48
M  V30 50 1 13 49
M  V30 51 1 14 50
M  V30 52 1 15 51
M  V30 53 1 15 52
M  V30 54 1 17 53
M  V30 55 1 19 54
M  V30 56 1 20 55
M  V30 57 1 21 56
M  V30 58 1 22 57
M  V30 END BOND
M  V30 END CTAB
M  END
>  <Dataset>  (574) 
ChEMBL_Kinases

>  <Ligand_Instance>  (574) 
nan

>  <PDB_ID>  (574) 
nan

>  <Standardized_SMILES>  (574) 
CCCCC(CC)C(=O)OCC1(CO)C/C(=C/c2ccccc2C(F)(F)F)C(=O)O1

>  <Name>  (574) 
nan

>  <Pocket>  (574) 
nan

>  <ATP_Site>  (574) 
nan

>  <Peripheral>  (574) 
nan

>  <Num_H_Atoms_ProtBoundConf>  (574) 
nan

>  <Num_Resolved_Atoms>  (574) 
nan

>  <Num_Not_Resolved_Atoms>  (574) 
nan

$$$$
CHEMBL4584344
     RDKit          3D

  0  0  0  0  0  0  0  0  0  0999 V3000
M  V30 BEGIN CTAB
M  V30 COUNTS 49 52 0 0 0
M  V30 BEGIN ATOM
M  V30 1 C 4.327697 -1.113509 4.611032 0
M  V30 2 O 5.388041 -1.968379 4.618108 0
M  V30 3 C 5.057769 -3.180351 4.056000 0
M  V30 4 C 4.635406 -3.029166 2.629475 0
M  V30 5 N 5.672232 -2.450278 1.820546 0
M  V30 6 S 5.193282 -2.272134 0.172459 0
M  V30 7 O 4.859769 -3.647001 -0.354837 0
M  V30 8 O 6.316962 -1.674366 -0.612233 0
M  V30 9 C 3.823798 -1.203585 0.059505 0
M  V30 10 C 4.044903 0.147126 -0.098561 0
M  V30 11 C 3.003640 1.022065 -0.191649 0
M  V30 12 C 1.674600 0.640735 -0.137083 0
M  V30 13 N 0.624686 1.583678 -0.237989 0
M  V30 14 C -0.771898 1.356219 -0.199963 0
M  V30 15 N -1.381538 0.173441 -0.057366 0
M  V30 16 C -2.706555 -0.027947 -0.022908 0
M  V30 17 C -3.506081 1.086503 -0.145817 0
M  V30 18 C -4.955597 0.929203 -0.115465 0
M  V30 19 C -5.810113 1.739104 0.613552 0
M  V30 20 N -7.069040 1.284901 0.389620 0
M  V30 21 C -7.019771 0.217842 -0.456343 0
M  V30 22 C -8.067233 -0.531420 -0.935245 0
M  V30 23 C -7.680421 -1.558828 -1.785882 0
M  V30 24 C -6.347073 -1.785292 -2.106162 0
M  V30 25 N -5.417513 -0.978621 -1.569486 0
M  V30 26 N -5.730553 0.025747 -0.744844 0
M  V30 27 C -2.932806 2.329964 -0.295169 0
M  V30 28 N -1.594867 2.410400 -0.315670 0
M  V30 29 C 1.516179 -0.717845 0.021403 0
M  V30 30 C 2.522255 -1.648751 0.121247 0
M  V30 31 H 3.951505 -0.866103 3.607973 0
M  V30 32 H 3.444969 -1.496863 5.187235 0
M  V30 33 H 4.618316 -0.166279 5.141298 0
M  V30 34 H 4.274325 -3.693766 4.672343 0
M  V30 35 H 5.963899 -3.829394 4.161899 0
M  V30 36 H 3.709258 -2.473313 2.509064 0
M  V30 37 H 4.509258 -4.083246 2.243289 0
M  V30 38 H 6.114905 -1.598201 2.215944 0
M  V30 39 H 5.067136 0.500348 -0.147451 0
M  V30 40 H 3.259710 2.068883 -0.314828 0
M  V30 41 H 0.952125 2.585568 -0.357170 0
M  V30 42 H -3.118372 -1.022170 0.096122 0
M  V30 43 H -5.492075 2.571588 1.235627 0
M  V30 44 H -9.101084 -0.348572 -0.681205 0
M  V30 45 H -8.454416 -2.203782 -2.211685 0
M  V30 46 H -6.109801 -2.597324 -2.771187 0
M  V30 47 H -3.536922 3.228019 -0.394551 0
M  V30 48 H 0.527295 -1.140941 0.078122 0
M  V30 49 H 2.342710 -2.701358 0.244485 0
M  V30 END ATOM
M  V30 BEGIN BOND
M  V30 1 1 1 2
M  V30 2 1 2 3
M  V30 3 1 3 4
M  V30 4 1 4 5
M  V30 5 1 5 6
M  V30 6 2 6 7
M  V30 7 2 6 8
M  V30 8 1 6 9
M  V30 9 2 9 10
M  V30 10 1 10 11
M  V30 11 2 11 12
M  V30 12 1 12 13
M  V30 13 1 13 14
M  V30 14 2 14 15
M  V30 15 1 15 16
M  V30 16 2 16 17
M  V30 17 1 17 18
M  V30 18 2 18 19
M  V30 19 1 19 20
M  V30 20 2 20 21
M  V30 21 1 21 22
M  V30 22 2 22 23
M  V30 23 1 23 24
M  V30 24 2 24 25
M  V30 25 1 25 26
M  V30 26 1 17 27
M  V30 27 2 27 28
M  V30 28 1 12 29
M  V30 29 2 29 30
M  V30 30 1 30 9
M  V30 31 1 28 14
M  V30 32 1 26 18
M  V30 33 1 26 21
M  V30 34 1 1 31
M  V30 35 1 1 32
M  V30 36 1 1 33
M  V30 37 1 3 34
M  V30 38 1 3 35
M  V30 39 1 4 36
M  V30 40 1 4 37
M  V30 41 1 5 38
M  V30 42 1 10 39
M  V30 43 1 11 40
M  V30 44 1 13 41
M  V30 45 1 16 42
M  V30 46 1 19 43
M  V30 47 1 22 44
M  V30 48 1 23 45
M  V30 49 1 24 46
M  V30 50 1 27 47
M  V30 51 1 29 48
M  V30 52 1 30 49
M  V30 END BOND
M  V30 END CTAB
M  END
>  <Dataset>  (575) 
ChEMBL_Kinases

>  <Ligand_Instance>  (575) 
nan

>  <PDB_ID>  (575) 
nan

>  <Standardized_SMILES>  (575) 
COCCNS(=O)(=O)c1ccc(Nc2ncc(-c3cnc4cccnn34)cn2)cc1

>  <Name>  (575) 
nan

>  <Pocket>  (575) 
nan

>  <ATP_Site>  (575) 
nan

>  <Peripheral>  (575) 
nan

>  <Num_H_Atoms_ProtBoundConf>  (575) 
nan

>  <Num_Resolved_Atoms>  (575) 
nan

>  <Num_Not_Resolved_Atoms>  (575) 
nan

$$$$
CHEMBL4584254
     RDKit          3D

  0  0  0  0  0  0  0  0  0  0999 V3000
M  V30 BEGIN CTAB
M  V30 COUNTS 55 58 0 0 0
M  V30 BEGIN ATOM
M  V30 1 C 2.342211 -5.239602 4.223808 0
M  V30 2 O 2.230062 -4.996632 2.857217 0
M  V30 3 C 2.169811 -3.779327 2.227120 0
M  V30 4 C 2.205006 -2.594192 2.948676 0
M  V30 5 C 2.149770 -1.332908 2.381005 0
M  V30 6 N 2.175732 -0.193386 3.121967 0
M  V30 7 C 2.106947 0.974390 2.471095 0
M  V30 8 N 2.016830 1.013247 1.152092 0
M  V30 9 C 1.982424 -0.034853 0.312585 0
M  V30 10 C 1.913508 0.104240 -1.146667 0
M  V30 11 C 2.271361 1.573777 -1.423341 0
M  V30 12 C 1.228663 2.509454 -0.862722 0
M  V30 13 N -0.048601 1.855323 -0.693710 0
M  V30 14 C -0.998953 1.945649 0.358505 0
M  V30 15 O -0.881340 2.659214 1.382171 0
M  V30 16 C -2.228221 1.185078 0.322822 0
M  V30 17 C -2.198868 -0.180876 0.382164 0
M  V30 18 C -3.297840 -1.004162 0.351034 0
M  V30 19 C -4.575888 -0.446643 0.251109 0
M  V30 20 C -4.640486 0.926380 0.189805 0
M  V30 21 O -5.893938 1.530310 0.091921 0
M  V30 22 C -6.545888 1.861786 1.322763 0
M  V30 23 F -7.764486 2.447450 1.033017 0
M  V30 24 F -6.851902 0.636108 1.919553 0
M  V30 25 F -5.765429 2.616820 2.155570 0
M  V30 26 C -3.491641 1.719737 0.224845 0
M  V30 27 C -0.354181 0.986192 -1.813136 0
M  V30 28 C 0.620227 -0.184172 -1.802757 0
M  V30 29 C 2.054032 -1.239317 1.001613 0
M  V30 30 C 2.017938 -2.419792 0.267887 0
M  V30 31 C 2.073348 -3.671244 0.854668 0
M  V30 32 O 2.039859 -4.863854 0.168685 0
M  V30 33 C 1.942919 -4.829670 -1.241523 0
M  V30 34 H 3.149548 -6.012402 4.354964 0
M  V30 35 H 1.419214 -5.677799 4.686779 0
M  V30 36 H 2.569221 -4.352718 4.842289 0
M  V30 37 H 2.277553 -2.551547 4.021781 0
M  V30 38 H 2.134441 1.836517 3.118195 0
M  V30 39 H 2.718438 -0.482696 -1.660705 0
M  V30 40 H 3.197439 1.744850 -0.804225 0
M  V30 41 H 2.548457 1.755188 -2.464551 0
M  V30 42 H 1.088853 3.304336 -1.635004 0
M  V30 43 H 1.552976 3.057839 0.044114 0
M  V30 44 H -1.297880 -0.757916 0.467339 0
M  V30 45 H -3.301668 -2.082316 0.396218 0
M  V30 46 H -5.486385 -0.994871 0.219237 0
M  V30 47 H -3.576528 2.816675 0.173321 0
M  V30 48 H -0.245114 1.588223 -2.736404 0
M  V30 49 H -1.402857 0.635471 -1.805045 0
M  V30 50 H 0.854087 -0.377071 -2.896081 0
M  V30 51 H 0.057403 -1.053708 -1.455337 0
M  V30 52 H 1.946981 -2.347705 -0.787543 0
M  V30 53 H 0.884920 -4.672278 -1.576401 0
M  V30 54 H 2.303824 -5.807693 -1.665932 0
M  V30 55 H 2.549169 -4.043836 -1.719607 0
M  V30 END ATOM
M  V30 BEGIN BOND
M  V30 1 1 1 2
M  V30 2 1 2 3
M  V30 3 2 3 4
M  V30 4 1 4 5
M  V30 5 2 5 6
M  V30 6 1 6 7
M  V30 7 2 7 8
M  V30 8 1 8 9
M  V30 9 1 9 10
M  V30 10 1 10 11
M  V30 11 1 11 12
M  V30 12 1 12 13
M  V30 13 1 13 14
M  V30 14 2 14 15
M  V30 15 1 14 16
M  V30 16 2 16 17
M  V30 17 1 17 18
M  V30 18 2 18 19
M  V30 19 1 19 20
M  V30 20 1 20 21
M  V30 21 1 21 22
M  V30 22 1 22 23
M  V30 23 1 22 24
M  V30 24 1 22 25
M  V30 25 2 20 26
M  V30 26 1 13 27
M  V30 27 1 27 28
M  V30 28 2 9 29
M  V30 29 1 29 30
M  V30 30 2 30 31
M  V30 31 1 31 32
M  V30 32 1 32 33
M  V30 33 1 31 3
M  V30 34 1 29 5
M  V30 35 1 28 10
M  V30 36 1 26 16
M  V30 37 1 1 34
M  V30 38 1 1 35
M  V30 39 1 1 36
M  V30 40 1 4 37
M  V30 41 1 7 38
M  V30 42 1 10 39
M  V30 43 1 11 40
M  V30 44 1 11 41
M  V30 45 1 12 42
M  V30 46 1 12 43
M  V30 47 1 17 44
M  V30 48 1 18 45
M  V30 49 1 19 46
M  V30 50 1 26 47
M  V30 51 1 27 48
M  V30 52 1 27 49
M  V30 53 1 28 50
M  V30 54 1 28 51
M  V30 55 1 30 52
M  V30 56 1 33 53
M  V30 57 1 33 54
M  V30 58 1 33 55
M  V30 END BOND
M  V30 END CTAB
M  END
>  <Dataset>  (576) 
ChEMBL_Kinases

>  <Ligand_Instance>  (576) 
nan

>  <PDB_ID>  (576) 
nan

>  <Standardized_SMILES>  (576) 
COc1cc2ncnc(C3CCN(C(=O)c4cccc(OC(F)(F)F)c4)CC3)c2cc1OC

>  <Name>  (576) 
nan

>  <Pocket>  (576) 
nan

>  <ATP_Site>  (576) 
nan

>  <Peripheral>  (576) 
nan

>  <Num_H_Atoms_ProtBoundConf>  (576) 
nan

>  <Num_Resolved_Atoms>  (576) 
nan

>  <Num_Not_Resolved_Atoms>  (576) 
nan

$$$$
CHEMBL4584243
     RDKit          3D

  0  0  0  0  0  0  0  0  0  0999 V3000
M  V30 BEGIN CTAB
M  V30 COUNTS 42 45 0 0 0
M  V30 BEGIN ATOM
M  V30 1 C -1.462622 -4.297325 1.456361 0
M  V30 2 C 0.023648 -4.250215 1.381871 0
M  V30 3 O 0.561646 -4.408106 2.666174 0
M  V30 4 C 0.459646 -2.993762 0.769834 0
M  V30 5 C 0.805980 -1.947662 0.277646 0
M  V30 6 C 1.207419 -0.688292 -0.290470 0
M  V30 7 C 1.701482 -0.563236 -1.573444 0
M  V30 8 C 2.071347 0.697359 -2.055807 0
M  V30 9 C 2.585128 0.839246 -3.385131 0
M  V30 10 N 3.007118 0.939224 -4.459354 0
M  V30 11 C 1.954541 1.830172 -1.276265 0
M  V30 12 C 1.462476 1.726196 0.009953 0
M  V30 13 N 1.284436 2.815150 0.936905 0
M  V30 14 C 2.114433 3.833232 1.235347 0
M  V30 15 C 1.504637 4.641698 2.195879 0
M  V30 16 C 0.270283 4.075507 2.470541 0
M  V30 17 C -0.784468 4.388660 3.309341 0
M  V30 18 N -1.886401 3.595796 3.336679 0
M  V30 19 C -1.996680 2.492207 2.563036 0
M  V30 20 N -3.136058 1.641455 2.567842 0
M  V30 21 N -0.977631 2.173687 1.740525 0
M  V30 22 C 0.150426 2.939946 1.678123 0
M  V30 23 C 1.096126 0.460818 0.480861 0
M  V30 24 C 0.477335 -5.353186 0.496647 0
M  V30 25 N 0.053174 -6.270836 -0.180037 0
M  V30 26 C 0.864828 -7.078086 -0.863714 0
M  V30 27 C 2.296034 -6.868092 -0.808409 0
M  V30 28 S 2.353214 -5.384217 0.332727 0
M  V30 29 H -1.813912 -4.085542 2.495300 0
M  V30 30 H -1.868226 -5.306876 1.206461 0
M  V30 31 H -1.973553 -3.574357 0.790337 0
M  V30 32 H 0.488547 -3.535263 3.156389 0
M  V30 33 H 1.792837 -1.451749 -2.184165 0
M  V30 34 H 2.222037 2.826106 -1.590606 0
M  V30 35 H 3.091428 3.981927 0.790974 0
M  V30 36 H 1.894508 5.542094 2.656090 0
M  V30 37 H -0.720187 5.273461 3.943359 0
M  V30 38 H -3.012346 0.618489 2.351936 0
M  V30 39 H -4.069961 2.094024 2.793833 0
M  V30 40 H 0.708339 0.352286 1.483600 0
M  V30 41 H 0.253608 -7.826868 -1.396098 0
M  V30 42 H 2.810275 -7.687614 -1.479359 0
M  V30 END ATOM
M  V30 BEGIN BOND
M  V30 1 1 1 2
M  V30 2 1 2 3
M  V30 3 1 2 4
M  V30 4 3 4 5
M  V30 5 1 5 6
M  V30 6 2 6 7
M  V30 7 1 7 8
M  V30 8 1 8 9
M  V30 9 3 9 10
M  V30 10 2 8 11
M  V30 11 1 11 12
M  V30 12 1 12 13
M  V30 13 1 13 14
M  V30 14 2 14 15
M  V30 15 1 15 16
M  V30 16 2 16 17
M  V30 17 1 17 18
M  V30 18 2 18 19
M  V30 19 1 19 20
M  V30 20 1 19 21
M  V30 21 2 21 22
M  V30 22 2 12 23
M  V30 23 1 2 24
M  V30 24 2 24 25
M  V30 25 1 25 26
M  V30 26 2 26 27
M  V30 27 1 27 28
M  V30 28 1 23 6
M  V30 29 1 28 24
M  V30 30 1 22 13
M  V30 31 1 22 16
M  V30 32 1 1 29
M  V30 33 1 1 30
M  V30 34 1 1 31
M  V30 35 1 3 32
M  V30 36 1 7 33
M  V30 37 1 11 34
M  V30 38 1 14 35
M  V30 39 1 15 36
M  V30 40 1 17 37
M  V30 41 1 20 38
M  V30 42 1 20 39
M  V30 43 1 23 40
M  V30 44 1 26 41
M  V30 45 1 27 42
M  V30 END BOND
M  V30 END CTAB
M  END
>  <Dataset>  (577) 
ChEMBL_Kinases

>  <Ligand_Instance>  (577) 
nan

>  <PDB_ID>  (577) 
nan

>  <Standardized_SMILES>  (577) 
CC(O)(C#Cc1cc(C#N)cc(-n2ccc3cnc(N)nc32)c1)c1nccs1

>  <Name>  (577) 
nan

>  <Pocket>  (577) 
nan

>  <ATP_Site>  (577) 
nan

>  <Peripheral>  (577) 
nan

>  <Num_H_Atoms_ProtBoundConf>  (577) 
nan

>  <Num_Resolved_Atoms>  (577) 
nan

>  <Num_Not_Resolved_Atoms>  (577) 
nan

$$$$
CHEMBL4584166
     RDKit          3D

  0  0  0  0  0  0  0  0  0  0999 V3000
M  V30 BEGIN CTAB
M  V30 COUNTS 42 45 0 0 0
M  V30 BEGIN ATOM
M  V30 1 N 0.263848 -4.384136 1.169489 0
M  V30 2 C -0.718241 -3.356968 1.514705 0
M  V30 3 C -0.034074 -2.160828 2.137226 0
M  V30 4 C 0.954487 -1.547531 1.221904 0
M  V30 5 C 2.288559 -1.963608 1.219861 0
M  V30 6 C 3.194449 -1.375736 0.355024 0
M  V30 7 C 2.745751 -0.382792 -0.490453 0
M  V30 8 C 1.413148 0.044196 -0.499671 0
M  V30 9 C 1.155287 1.103757 -1.471024 0
M  V30 10 C 1.680745 0.964383 -2.748701 0
M  V30 11 C 1.490801 1.914445 -3.739347 0
M  V30 12 N 0.766553 3.032981 -3.473997 0
M  V30 13 C 0.247796 3.192105 -2.247338 0
M  V30 14 N -0.496045 4.141503 -1.652314 0
M  V30 15 N -0.771612 3.845688 -0.386267 0
M  V30 16 C -0.202926 2.660713 -0.099779 0
M  V30 17 C 0.429536 2.257106 -1.257535 0
M  V30 18 C 0.523311 -0.552762 0.369167 0
M  V30 19 C -1.154422 -1.144046 2.388028 0
M  V30 20 C -1.630662 -1.491092 3.781891 0
M  V30 21 C -0.307711 -1.644485 4.503430 0
M  V30 22 C 0.481297 -2.479360 3.496808 0
M  V30 23 H 1.037913 -4.003380 0.619076 0
M  V30 24 H -0.210359 -5.149139 0.646114 0
M  V30 25 H -1.484711 -3.760070 2.204784 0
M  V30 26 H -1.240183 -3.096856 0.572191 0
M  V30 27 H 2.639091 -2.735746 1.877168 0
M  V30 28 H 4.239456 -1.701010 0.352770 0
M  V30 29 H 3.514735 0.032945 -1.141941 0
M  V30 30 H 2.264916 0.124631 -3.063505 0
M  V30 31 H 1.888297 1.830800 -4.741077 0
M  V30 32 H -0.836222 5.021422 -2.099966 0
M  V30 33 H -0.248220 2.154587 0.847620 0
M  V30 34 H -0.485313 -0.168848 0.301564 0
M  V30 35 H -0.697464 -0.115880 2.467020 0
M  V30 36 H -1.922052 -1.198757 1.616275 0
M  V30 37 H -2.157733 -2.480203 3.749048 0
M  V30 38 H -2.260738 -0.687517 4.199457 0
M  V30 39 H -0.413181 -2.151031 5.480865 0
M  V30 40 H 0.115258 -0.613085 4.601371 0
M  V30 41 H 0.256856 -3.540217 3.785450 0
M  V30 42 H 1.544669 -2.228722 3.666319 0
M  V30 END ATOM
M  V30 BEGIN BOND
M  V30 1 1 1 2
M  V30 2 1 2 3
M  V30 3 1 3 4
M  V30 4 2 4 5
M  V30 5 1 5 6
M  V30 6 2 6 7
M  V30 7 1 7 8
M  V30 8 1 8 9
M  V30 9 2 9 10
M  V30 10 1 10 11
M  V30 11 2 11 12
M  V30 12 1 12 13
M  V30 13 1 13 14
M  V30 14 1 14 15
M  V30 15 2 15 16
M  V30 16 1 16 17
M  V30 17 2 8 18
M  V30 18 1 3 19
M  V30 19 1 19 20
M  V30 20 1 20 21
M  V30 21 1 21 22
M  V30 22 1 22 3
M  V30 23 1 18 4
M  V30 24 1 17 9
M  V30 25 2 17 13
M  V30 26 1 1 23
M  V30 27 1 1 24
M  V30 28 1 2 25
M  V30 29 1 2 26
M  V30 30 1 5 27
M  V30 31 1 6 28
M  V30 32 1 7 29
M  V30 33 1 10 30
M  V30 34 1 11 31
M  V30 35 1 14 32
M  V30 36 1 16 33
M  V30 37 1 18 34
M  V30 38 1 19 35
M  V30 39 1 19 36
M  V30 40 1 20 37
M  V30 41 1 20 38
M  V30 42 1 21 39
M  V30 43 1 21 40
M  V30 44 1 22 41
M  V30 45 1 22 42
M  V30 END BOND
M  V30 END CTAB
M  END
>  <Dataset>  (578) 
ChEMBL_Kinases

>  <Ligand_Instance>  (578) 
nan

>  <PDB_ID>  (578) 
nan

>  <Standardized_SMILES>  (578) 
NCC1(c2cccc(-c3ccnc4[nH]ncc34)c2)CCCC1

>  <Name>  (578) 
nan

>  <Pocket>  (578) 
nan

>  <ATP_Site>  (578) 
nan

>  <Peripheral>  (578) 
nan

>  <Num_H_Atoms_ProtBoundConf>  (578) 
nan

>  <Num_Resolved_Atoms>  (578) 
nan

>  <Num_Not_Resolved_Atoms>  (578) 
nan

$$$$
CHEMBL4584161
     RDKit          3D

  0  0  0  0  0  0  0  0  0  0999 V3000
M  V30 BEGIN CTAB
M  V30 COUNTS 49 52 0 0 0
M  V30 BEGIN ATOM
M  V30 1 C 0.016918 -4.903686 1.218553 0
M  V30 2 C 1.288846 -4.319008 1.793372 0
M  V30 3 C 1.003369 -4.040563 3.273229 0
M  V30 4 C 2.405744 -5.312893 1.731301 0
M  V30 5 O 1.594148 -3.068534 1.213705 0
M  V30 6 C 1.823317 -2.849002 -0.127628 0
M  V30 7 O 1.749975 -3.868418 -0.889564 0
M  V30 8 N 2.105563 -1.462003 -0.379688 0
M  V30 9 C 2.174660 -0.360049 0.532303 0
M  V30 10 C 1.048756 0.595892 0.444050 0
M  V30 11 C 0.713228 0.885574 -0.982956 0
M  V30 12 C 1.359015 0.134348 -1.913419 0
M  V30 13 S 0.779647 0.678783 -3.492993 0
M  V30 14 C -0.348244 1.942985 -2.769288 0
M  V30 15 N -1.160802 2.793114 -3.434449 0
M  V30 16 C -1.905731 3.643963 -2.735312 0
M  V30 17 N -1.771212 3.569772 -1.405470 0
M  V30 18 C -0.962693 2.722776 -0.759766 0
M  V30 19 N -1.007752 2.855065 0.657430 0
M  V30 20 C -1.872039 2.257880 1.621583 0
M  V30 21 C -1.806377 2.455970 2.985625 0
M  V30 22 C -2.734879 1.788468 3.755639 0
M  V30 23 C -3.689394 0.957301 3.183634 0
M  V30 24 C -3.749183 0.764380 1.822425 0
M  V30 25 F -4.689019 -0.050781 1.291525 0
M  V30 26 C -2.819452 1.428839 1.014725 0
M  V30 27 C -0.165807 1.816714 -1.428701 0
M  V30 28 C 2.378761 -0.956666 -1.709121 0
M  V30 29 H -0.812590 -4.190683 1.371814 0
M  V30 30 H -0.218270 -5.813742 1.804966 0
M  V30 31 H 0.103309 -5.155798 0.160904 0
M  V30 32 H 1.881237 -3.480765 3.648980 0
M  V30 33 H 0.841205 -4.969725 3.853619 0
M  V30 34 H 0.130333 -3.338809 3.321423 0
M  V30 35 H 3.380654 -4.758250 1.655741 0
M  V30 36 H 2.295916 -6.050356 0.898893 0
M  V30 37 H 2.446606 -5.900163 2.671778 0
M  V30 38 H 2.188706 -0.781418 1.585612 0
M  V30 39 H 3.178058 0.104597 0.437840 0
M  V30 40 H 0.160839 0.307004 1.038087 0
M  V30 41 H 1.408135 1.562565 0.871597 0
M  V30 42 H -2.525958 4.287787 -3.329015 0
M  V30 43 H -0.292559 3.496250 1.079918 0
M  V30 44 H -1.029117 3.115939 3.301621 0
M  V30 45 H -2.666148 1.958286 4.828961 0
M  V30 46 H -4.401256 0.450012 3.819136 0
M  V30 47 H -2.913889 1.241790 -0.026063 0
M  V30 48 H 3.405728 -0.545582 -1.794747 0
M  V30 49 H 2.272599 -1.746614 -2.466212 0
M  V30 END ATOM
M  V30 BEGIN BOND
M  V30 1 1 1 2
M  V30 2 1 2 3
M  V30 3 1 2 4
M  V30 4 1 2 5
M  V30 5 1 5 6
M  V30 6 2 6 7
M  V30 7 1 6 8
M  V30 8 1 8 9
M  V30 9 1 9 10
M  V30 10 1 10 11
M  V30 11 2 11 12
M  V30 12 1 12 13
M  V30 13 1 13 14
M  V30 14 2 14 15
M  V30 15 1 15 16
M  V30 16 2 16 17
M  V30 17 1 17 18
M  V30 18 1 18 19
M  V30 19 1 19 20
M  V30 20 2 20 21
M  V30 21 1 21 22
M  V30 22 2 22 23
M  V30 23 1 23 24
M  V30 24 1 24 25
M  V30 25 2 24 26
M  V30 26 2 18 27
M  V30 27 1 12 28
M  V30 28 1 28 8
M  V30 29 1 27 11
M  V30 30 1 27 14
M  V30 31 1 26 20
M  V30 32 1 1 29
M  V30 33 1 1 30
M  V30 34 1 1 31
M  V30 35 1 3 32
M  V30 36 1 3 33
M  V30 37 1 3 34
M  V30 38 1 4 35
M  V30 39 1 4 36
M  V30 40 1 4 37
M  V30 41 1 9 38
M  V30 42 1 9 39
M  V30 43 1 10 40
M  V30 44 1 10 41
M  V30 45 1 16 42
M  V30 46 1 19 43
M  V30 47 1 21 44
M  V30 48 1 22 45
M  V30 49 1 23 46
M  V30 50 1 26 47
M  V30 51 1 28 48
M  V30 52 1 28 49
M  V30 END BOND
M  V30 END CTAB
M  END
>  <Dataset>  (579) 
ChEMBL_Kinases

>  <Ligand_Instance>  (579) 
nan

>  <PDB_ID>  (579) 
nan

>  <Standardized_SMILES>  (579) 
CC(C)(C)OC(=O)N1CCc2c(sc3ncnc(Nc4cccc(F)c4)c23)C1

>  <Name>  (579) 
nan

>  <Pocket>  (579) 
nan

>  <ATP_Site>  (579) 
nan

>  <Peripheral>  (579) 
nan

>  <Num_H_Atoms_ProtBoundConf>  (579) 
nan

>  <Num_Resolved_Atoms>  (579) 
nan

>  <Num_Not_Resolved_Atoms>  (579) 
nan

$$$$
CHEMBL4584067
     RDKit          3D

  0  0  0  0  0  0  0  0  0  0999 V3000
M  V30 BEGIN CTAB
M  V30 COUNTS 46 49 0 0 0
M  V30 BEGIN ATOM
M  V30 1 N 4.148021 -3.433757 -0.830662 0
M  V30 2 C 2.942136 -3.379998 -0.081025 0
M  V30 3 O 2.967941 -4.509281 0.468201 0
M  V30 4 C 2.084001 -2.201969 -0.118818 0
M  V30 5 C 2.461130 -1.129341 -0.899965 0
M  V30 6 C 1.571465 -0.077291 -0.853906 0
M  V30 7 C 1.919951 1.105223 -1.669950 0
M  V30 8 C 1.484924 2.319574 -1.158868 0
M  V30 9 C 1.730325 3.515763 -1.801465 0
M  V30 10 C 2.431813 3.486530 -2.988984 0
M  V30 11 C 2.869113 2.283879 -3.506253 0
M  V30 12 C 2.617643 1.087737 -2.853233 0
M  V30 13 C 0.415372 -0.086123 -0.104063 0
M  V30 14 C 0.097982 -1.192921 0.655704 0
M  V30 15 C -0.981251 -1.455944 1.484282 0
M  V30 16 C -2.092397 -0.505956 1.723172 0
M  V30 17 C -1.794833 0.405007 2.885863 0
M  V30 18 C -1.408308 -0.304601 4.144378 0
M  V30 19 C -2.503198 -1.176336 4.697830 0
M  V30 20 S -3.887772 -1.303393 3.601407 0
M  V30 21 O -4.881867 -0.197528 3.822469 0
M  V30 22 O -4.585252 -2.600555 3.899339 0
M  V30 23 C -3.404231 -1.237579 1.896611 0
M  V30 24 C -0.732152 -2.736599 1.966504 0
M  V30 25 N 0.422679 -3.214870 1.461333 0
M  V30 26 C 0.944547 -2.280461 0.655340 0
M  V30 27 H 5.140959 -3.122772 -0.876089 0
M  V30 28 H 4.817166 -2.846843 -0.253668 0
M  V30 29 H 3.373019 -1.142003 -1.481484 0
M  V30 30 H 0.925988 2.448263 -0.232339 0
M  V30 31 H 1.408942 4.482434 -1.436705 0
M  V30 32 H 2.666068 4.388171 -3.556630 0
M  V30 33 H 3.417847 2.245251 -4.432445 0
M  V30 34 H 2.924256 0.107835 -3.190309 0
M  V30 35 H -0.238422 0.777562 -0.115841 0
M  V30 36 H -2.201052 0.145598 0.831725 0
M  V30 37 H -2.638226 1.101595 2.991514 0
M  V30 38 H -0.926036 1.019872 2.572032 0
M  V30 39 H -1.190727 0.471789 4.897541 0
M  V30 40 H -0.455179 -0.828189 3.965601 0
M  V30 41 H -2.066557 -2.178215 4.890278 0
M  V30 42 H -2.884795 -0.808673 5.677563 0
M  V30 43 H -3.242566 -2.289056 1.565996 0
M  V30 44 H -4.212707 -0.816295 1.263263 0
M  V30 45 H -1.410907 -3.228567 2.651489 0
M  V30 46 H 0.843445 -4.153437 1.661175 0
M  V30 END ATOM
M  V30 BEGIN BOND
M  V30 1 1 1 2
M  V30 2 2 2 3
M  V30 3 1 2 4
M  V30 4 2 4 5
M  V30 5 1 5 6
M  V30 6 1 6 7
M  V30 7 2 7 8
M  V30 8 1 8 9
M  V30 9 2 9 10
M  V30 10 1 10 11
M  V30 11 2 11 12
M  V30 12 2 6 13
M  V30 13 1 13 14
M  V30 14 1 14 15
M  V30 15 1 15 16
M  V30 16 1 16 17
M  V30 17 1 17 18
M  V30 18 1 18 19
M  V30 19 1 19 20
M  V30 20 2 20 21
M  V30 21 2 20 22
M  V30 22 1 20 23
M  V30 23 2 15 24
M  V30 24 1 24 25
M  V30 25 1 25 26
M  V30 26 1 26 4
M  V30 27 1 12 7
M  V30 28 2 26 14
M  V30 29 1 23 16
M  V30 30 1 1 27
M  V30 31 1 1 28
M  V30 32 1 5 29
M  V30 33 1 8 30
M  V30 34 1 9 31
M  V30 35 1 10 32
M  V30 36 1 11 33
M  V30 37 1 12 34
M  V30 38 1 13 35
M  V30 39 1 16 36
M  V30 40 1 17 37
M  V30 41 1 17 38
M  V30 42 1 18 39
M  V30 43 1 18 40
M  V30 44 1 19 41
M  V30 45 1 19 42
M  V30 46 1 23 43
M  V30 47 1 23 44
M  V30 48 1 24 45
M  V30 49 1 25 46
M  V30 END BOND
M  V30 END CTAB
M  END
>  <Dataset>  (580) 
ChEMBL_Kinases

>  <Ligand_Instance>  (580) 
nan

>  <PDB_ID>  (580) 
nan

>  <Standardized_SMILES>  (580) 
NC(=O)c1cc(-c2ccccc2)cc2c(C3CCCS(=O)(=O)C3)c[nH]c12

>  <Name>  (580) 
nan

>  <Pocket>  (580) 
nan

>  <ATP_Site>  (580) 
nan

>  <Peripheral>  (580) 
nan

>  <Num_H_Atoms_ProtBoundConf>  (580) 
nan

>  <Num_Resolved_Atoms>  (580) 
nan

>  <Num_Not_Resolved_Atoms>  (580) 
nan

$$$$
CHEMBL461756
     RDKit          3D

  0  0  0  0  0  0  0  0  0  0999 V3000
M  V30 BEGIN CTAB
M  V30 COUNTS 60 61 0 0 0
M  V30 BEGIN ATOM
M  V30 1 C 5.057624 -0.311107 3.797360 0
M  V30 2 C 4.496566 0.454981 2.585119 0
M  V30 3 C 5.497137 0.335289 1.490214 0
M  V30 4 C 5.184105 1.014917 0.211058 0
M  V30 5 C 3.942865 0.605778 -0.492342 0
M  V30 6 C 3.868654 -0.851776 -0.866476 0
M  V30 7 C 5.029742 -1.140333 -1.780892 0
M  V30 8 C 2.690937 1.126731 0.094158 0
M  V30 9 O 2.034972 1.772994 0.936458 0
M  V30 10 O 1.546269 0.737391 -0.613470 0
M  V30 11 C 0.295985 1.205321 -0.106459 0
M  V30 12 C -0.776966 0.661872 -1.027904 0
M  V30 13 C -0.533493 1.088173 -2.462486 0
M  V30 14 O -0.651970 2.452081 -2.572273 0
M  V30 15 C -0.771399 -0.835708 -1.016867 0
M  V30 16 C -2.065707 -1.180423 -0.379421 0
M  V30 17 C -2.454114 -2.264239 0.316694 0
M  V30 18 C -3.789244 -2.419419 0.873753 0
M  V30 19 C -4.583761 -1.523759 1.557002 0
M  V30 20 C -5.840070 -1.887205 1.978428 0
M  V30 21 C -6.633104 -0.860765 2.709290 0
M  V30 22 F -7.918319 -1.352428 2.881646 0
M  V30 23 F -6.611382 0.327716 2.034280 0
M  V30 24 F -6.006980 -0.672104 3.932836 0
M  V30 25 C -6.343279 -3.147952 1.735132 0
M  V30 26 C -5.589815 -4.064247 1.062973 0
M  V30 27 C -6.148215 -5.416303 0.808575 0
M  V30 28 F -5.143016 -6.334881 1.068230 0
M  V30 29 F -7.176841 -5.692542 1.689253 0
M  V30 30 F -6.661526 -5.552039 -0.452096 0
M  V30 31 C -4.332402 -3.688233 0.645324 0
M  V30 32 C -2.906425 -0.036855 -0.705406 0
M  V30 33 O -4.158157 -0.226987 -0.954065 0
M  V30 34 O -2.055740 1.047811 -0.656557 0
M  V30 35 H 4.969298 0.304795 4.723126 0
M  V30 36 H 4.525298 -1.257681 3.967124 0
M  V30 37 H 6.150144 -0.466924 3.670997 0
M  V30 38 H 3.526708 -0.006874 2.300369 0
M  V30 39 H 4.419738 1.506420 2.900964 0
M  V30 40 H 5.806283 -0.715387 1.295089 0
M  V30 41 H 6.442475 0.817130 1.880373 0
M  V30 42 H 5.154410 2.121093 0.325069 0
M  V30 43 H 6.053786 0.822022 -0.477528 0
M  V30 44 H 3.999992 1.136401 -1.511220 0
M  V30 45 H 2.940434 -0.976452 -1.466925 0
M  V30 46 H 3.809137 -1.530158 -0.016979 0
M  V30 47 H 4.972106 -2.181181 -2.198655 0
M  V30 48 H 5.084573 -0.398936 -2.598938 0
M  V30 49 H 6.007650 -1.084587 -1.245931 0
M  V30 50 H 0.234039 2.295051 -0.085850 0
M  V30 51 H 0.071628 0.836681 0.905683 0
M  V30 52 H 0.439732 0.729178 -2.838591 0
M  V30 53 H -1.307479 0.585486 -3.078437 0
M  V30 54 H -0.256110 2.729980 -3.438803 0
M  V30 55 H -0.699000 -1.270959 -2.046277 0
M  V30 56 H 0.093170 -1.184689 -0.394043 0
M  V30 57 H -1.710488 -3.062885 0.461062 0
M  V30 58 H -4.118349 -0.568416 1.716316 0
M  V30 59 H -7.351448 -3.409912 2.084107 0
M  V30 60 H -3.793987 -4.485910 0.111701 0
M  V30 END ATOM
M  V30 BEGIN BOND
M  V30 1 1 1 2
M  V30 2 1 2 3
M  V30 3 1 3 4
M  V30 4 1 4 5
M  V30 5 1 5 6
M  V30 6 1 6 7
M  V30 7 1 5 8
M  V30 8 2 8 9
M  V30 9 1 8 10
M  V30 10 1 10 11
M  V30 11 1 11 12
M  V30 12 1 12 13
M  V30 13 1 13 14
M  V30 14 1 12 15
M  V30 15 1 15 16
M  V30 16 2 16 17
M  V30 17 1 17 18
M  V30 18 2 18 19
M  V30 19 1 19 20
M  V30 20 1 20 21
M  V30 21 1 21 22
M  V30 22 1 21 23
M  V30 23 1 21 24
M  V30 24 2 20 25
M  V30 25 1 25 26
M  V30 26 1 26 27
M  V30 27 1 27 28
M  V30 28 1 27 29
M  V30 29 1 27 30
M  V30 30 2 26 31
M  V30 31 1 16 32
M  V30 32 2 32 33
M  V30 33 1 32 34
M  V30 34 1 34 12
M  V30 35 1 31 18
M  V30 36 1 1 35
M  V30 37 1 1 36
M  V30 38 1 1 37
M  V30 39 1 2 38
M  V30 40 1 2 39
M  V30 41 1 3 40
M  V30 42 1 3 41
M  V30 43 1 4 42
M  V30 44 1 4 43
M  V30 45 1 5 44
M  V30 46 1 6 45
M  V30 47 1 6 46
M  V30 48 1 7 47
M  V30 49 1 7 48
M  V30 50 1 7 49
M  V30 51 1 11 50
M  V30 52 1 11 51
M  V30 53 1 13 52
M  V30 54 1 13 53
M  V30 55 1 14 54
M  V30 56 1 15 55
M  V30 57 1 15 56
M  V30 58 1 17 57
M  V30 59 1 19 58
M  V30 60 1 25 59
M  V30 61 1 31 60
M  V30 END BOND
M  V30 END CTAB
M  END
>  <Dataset>  (581) 
ChEMBL_Kinases

>  <Ligand_Instance>  (581) 
nan

>  <PDB_ID>  (581) 
nan

>  <Standardized_SMILES>  (581) 
CCCCC(CC)C(=O)OCC1(CO)C/C(=C/c2cc(C(F)(F)F)cc(C(F)(F)F)c2)C(=O)O1

>  <Name>  (581) 
nan

>  <Pocket>  (581) 
nan

>  <ATP_Site>  (581) 
nan

>  <Peripheral>  (581) 
nan

>  <Num_H_Atoms_ProtBoundConf>  (581) 
nan

>  <Num_Resolved_Atoms>  (581) 
nan

>  <Num_Not_Resolved_Atoms>  (581) 
nan

$$$$
CHEMBL4583911
     RDKit          3D

  0  0  0  0  0  0  0  0  0  0999 V3000
M  V30 BEGIN CTAB
M  V30 COUNTS 48 51 0 0 0
M  V30 BEGIN ATOM
M  V30 1 C 1.573951 -6.206372 -1.881073 0
M  V30 2 N 2.075366 -5.490260 -0.742524 0
M  V30 3 N 2.704003 -6.117521 0.250064 0
M  V30 4 C 3.018028 -5.215159 1.189469 0
M  V30 5 C 2.540982 -4.035921 0.691776 0
M  V30 6 Cl 2.815946 -2.629782 1.738914 0
M  V30 7 C 1.928787 -4.181606 -0.554175 0
M  V30 8 C 1.348843 -3.035482 -1.199878 0
M  V30 9 O 1.138218 -1.933361 -0.551269 0
M  V30 10 C 0.612642 -0.981616 -1.258113 0
M  V30 11 C 0.305730 0.333291 -0.684015 0
M  V30 12 O -0.202767 1.183401 -1.458666 0
M  V30 13 N 0.557323 0.662932 0.673948 0
M  V30 14 C 0.242707 1.965846 1.203965 0 CFG=2
M  V30 15 C 1.471246 2.682875 1.723593 0
M  V30 16 N 1.154529 3.506415 2.866891 0
M  V30 17 C -0.107371 4.214662 2.731636 0
M  V30 18 C -1.268467 3.277211 2.562806 0
M  V30 19 C -0.715141 1.884198 2.400133 0 CFG=1
M  V30 20 C -1.763761 0.872755 2.180651 0
M  V30 21 C -2.062714 -0.228572 2.957123 0
M  V30 22 C -3.095178 -1.054309 2.565449 0
M  V30 23 C -3.834512 -0.811732 1.424361 0
M  V30 24 Cl -5.126477 -1.923965 1.015724 0
M  V30 25 C -3.545146 0.293810 0.631987 0
M  V30 26 C -2.504945 1.128791 1.023442 0
M  V30 27 C 0.424732 -1.427936 -2.532532 0
M  V30 28 C 0.901887 -2.714922 -2.442234 0
M  V30 29 Br 0.922593 -3.780692 -3.989256 0
M  V30 30 H 0.524453 -5.899707 -2.042158 0
M  V30 31 H 2.184414 -6.139731 -2.780066 0
M  V30 32 H 1.482046 -7.307269 -1.588652 0
M  V30 33 H 3.532288 -5.536580 2.070021 0
M  V30 34 H 0.981220 -0.058912 1.302630 0
M  V30 35 H -0.197650 2.602749 0.403549 0
M  V30 36 H 2.055860 3.195651 0.948602 0
M  V30 37 H 2.147228 1.867321 2.113578 0
M  V30 38 H 1.888916 4.272913 2.862052 0
M  V30 39 H -0.253442 4.770017 3.672106 0
M  V30 40 H 0.000964 4.953381 1.912358 0
M  V30 41 H -2.031153 3.341699 3.360307 0
M  V30 42 H -1.753823 3.541895 1.584227 0
M  V30 43 H -0.146979 1.651826 3.324410 0
M  V30 44 H -1.439564 -0.345467 3.828523 0
M  V30 45 H -3.262424 -1.899731 3.236481 0
M  V30 46 H -4.131707 0.467960 -0.254427 0
M  V30 47 H -2.350846 1.968361 0.342604 0
M  V30 48 H 0.003187 -0.850567 -3.339613 0
M  V30 END ATOM
M  V30 BEGIN BOND
M  V30 1 1 1 2
M  V30 2 1 2 3
M  V30 3 2 3 4
M  V30 4 1 4 5
M  V30 5 1 5 6
M  V30 6 2 5 7
M  V30 7 1 7 8
M  V30 8 1 8 9
M  V30 9 1 9 10
M  V30 10 1 10 11
M  V30 11 2 11 12
M  V30 12 1 11 13
M  V30 13 1 13 14
M  V30 14 1 14 15
M  V30 15 1 15 16
M  V30 16 1 16 17
M  V30 17 1 17 18
M  V30 18 1 18 19
M  V30 19 1 19 20
M  V30 20 2 20 21
M  V30 21 1 21 22
M  V30 22 2 22 23
M  V30 23 1 23 24
M  V30 24 1 23 25
M  V30 25 2 25 26
M  V30 26 2 10 27
M  V30 27 1 27 28
M  V30 28 1 28 29
M  V30 29 1 7 2
M  V30 30 2 28 8
M  V30 31 1 19 14
M  V30 32 1 26 20
M  V30 33 1 1 30
M  V30 34 1 1 31
M  V30 35 1 1 32
M  V30 36 1 4 33
M  V30 37 1 13 34
M  V30 38 1 14 35 CFG=3
M  V30 39 1 15 36
M  V30 40 1 15 37
M  V30 41 1 16 38
M  V30 42 1 17 39
M  V30 43 1 17 40
M  V30 44 1 18 41
M  V30 45 1 18 42
M  V30 46 1 19 43 CFG=1
M  V30 47 1 21 44
M  V30 48 1 22 45
M  V30 49 1 25 46
M  V30 50 1 26 47
M  V30 51 1 27 48
M  V30 END BOND
M  V30 END CTAB
M  END
>  <Dataset>  (582) 
ChEMBL_Kinases

>  <Ligand_Instance>  (582) 
nan

>  <PDB_ID>  (582) 
nan

>  <Standardized_SMILES>  (582) 
Cn1ncc(Cl)c1-c1oc(C(=O)N[C@@H]2CNCC[C@H]2c2ccc(Cl)cc2)cc1Br

>  <Name>  (582) 
nan

>  <Pocket>  (582) 
nan

>  <ATP_Site>  (582) 
nan

>  <Peripheral>  (582) 
nan

>  <Num_H_Atoms_ProtBoundConf>  (582) 
nan

>  <Num_Resolved_Atoms>  (582) 
nan

>  <Num_Not_Resolved_Atoms>  (582) 
nan

$$$$
CHEMBL461563
     RDKit          3D

  0  0  0  0  0  0  0  0  0  0999 V3000
M  V30 BEGIN CTAB
M  V30 COUNTS 58 59 0 0 0
M  V30 BEGIN ATOM
M  V30 1 C 0.910879 0.011813 4.486795 0
M  V30 2 C 1.003325 -1.262229 3.679573 0
M  V30 3 C 1.407493 -0.883089 2.260820 0
M  V30 4 C 2.723761 -0.194330 2.305763 0
M  V30 5 C 3.247663 0.258155 0.951354 0
M  V30 6 C 3.431828 -0.905582 -0.000935 0
M  V30 7 C 3.960074 -0.404093 -1.338324 0
M  V30 8 C 2.420118 1.322063 0.390978 0
M  V30 9 O 2.688801 2.546210 0.147636 0
M  V30 10 O 1.092895 1.248528 -0.026467 0
M  V30 11 C 0.513947 2.434703 -0.525145 0
M  V30 12 C -0.924062 2.252721 -0.980786 0
M  V30 13 C -1.469745 3.618275 -1.442152 0
M  V30 14 O -1.416270 4.536357 -0.404520 0
M  V30 15 C -1.070114 1.252537 -2.077857 0
M  V30 16 C -1.379953 -0.001261 -1.374048 0
M  V30 17 C -1.330204 -1.271341 -1.736631 0
M  V30 18 C -1.653702 -2.459246 -0.970083 0
M  V30 19 C -2.526627 -3.281625 -1.700106 0
M  V30 20 C -2.964311 -4.486151 -1.174224 0
M  V30 21 C -2.549101 -4.893943 0.071476 0
M  V30 22 O -2.931305 -6.092709 0.701286 0
M  V30 23 C -4.100724 -6.074684 1.527123 0
M  V30 24 F -3.845622 -5.149306 2.534988 0
M  V30 25 F -5.191945 -5.678475 0.771681 0
M  V30 26 F -4.314681 -7.323132 2.060444 0
M  V30 27 C -1.690381 -4.109233 0.814252 0
M  V30 28 C -1.278660 -2.926779 0.263598 0
M  V30 29 C -1.856462 0.415697 -0.071571 0
M  V30 30 O -2.363209 -0.292239 0.834156 0
M  V30 31 O -1.687640 1.766938 0.085745 0
M  V30 32 H 0.497289 0.797044 3.835155 0
M  V30 33 H 0.325016 -0.125511 5.435238 0
M  V30 34 H 1.939364 0.367723 4.786379 0
M  V30 35 H 0.033590 -1.802936 3.705673 0
M  V30 36 H 1.770827 -1.900208 4.153981 0
M  V30 37 H 1.576109 -1.878478 1.749226 0
M  V30 38 H 0.631504 -0.328634 1.735739 0
M  V30 39 H 3.486665 -0.831478 2.813863 0
M  V30 40 H 2.636090 0.749021 2.909485 0
M  V30 41 H 4.252846 0.688296 1.137076 0
M  V30 42 H 2.450444 -1.403276 -0.149878 0
M  V30 43 H 4.131078 -1.642818 0.423294 0
M  V30 44 H 4.313418 0.630670 -1.198921 0
M  V30 45 H 4.872947 -0.975718 -1.662699 0
M  V30 46 H 3.187926 -0.402543 -2.133058 0
M  V30 47 H 0.480142 3.204679 0.300563 0
M  V30 48 H 1.092163 2.865804 -1.367090 0
M  V30 49 H -2.520550 3.468901 -1.762584 0
M  V30 50 H -0.878350 3.935876 -2.321641 0
M  V30 51 H -1.780999 4.103214 0.410585 0
M  V30 52 H -0.170965 1.171727 -2.725782 0
M  V30 53 H -1.973960 1.534577 -2.670998 0
M  V30 54 H -0.986472 -1.367621 -2.778191 0
M  V30 55 H -2.947525 -3.109897 -2.695284 0
M  V30 56 H -3.633194 -5.164399 -1.677283 0
M  V30 57 H -1.293219 -4.321892 1.804994 0
M  V30 58 H -0.603641 -2.274524 0.764609 0
M  V30 END ATOM
M  V30 BEGIN BOND
M  V30 1 1 1 2
M  V30 2 1 2 3
M  V30 3 1 3 4
M  V30 4 1 4 5
M  V30 5 1 5 6
M  V30 6 1 6 7
M  V30 7 1 5 8
M  V30 8 2 8 9
M  V30 9 1 8 10
M  V30 10 1 10 11
M  V30 11 1 11 12
M  V30 12 1 12 13
M  V30 13 1 13 14
M  V30 14 1 12 15
M  V30 15 1 15 16
M  V30 16 2 16 17
M  V30 17 1 17 18
M  V30 18 2 18 19
M  V30 19 1 19 20
M  V30 20 2 20 21
M  V30 21 1 21 22
M  V30 22 1 22 23
M  V30 23 1 23 24
M  V30 24 1 23 25
M  V30 25 1 23 26
M  V30 26 1 21 27
M  V30 27 2 27 28
M  V30 28 1 16 29
M  V30 29 2 29 30
M  V30 30 1 29 31
M  V30 31 1 31 12
M  V30 32 1 28 18
M  V30 33 1 1 32
M  V30 34 1 1 33
M  V30 35 1 1 34
M  V30 36 1 2 35
M  V30 37 1 2 36
M  V30 38 1 3 37
M  V30 39 1 3 38
M  V30 40 1 4 39
M  V30 41 1 4 40
M  V30 42 1 5 41
M  V30 43 1 6 42
M  V30 44 1 6 43
M  V30 45 1 7 44
M  V30 46 1 7 45
M  V30 47 1 7 46
M  V30 48 1 11 47
M  V30 49 1 11 48
M  V30 50 1 13 49
M  V30 51 1 13 50
M  V30 52 1 14 51
M  V30 53 1 15 52
M  V30 54 1 15 53
M  V30 55 1 17 54
M  V30 56 1 19 55
M  V30 57 1 20 56
M  V30 58 1 27 57
M  V30 59 1 28 58
M  V30 END BOND
M  V30 END CTAB
M  END
>  <Dataset>  (583) 
ChEMBL_Kinases

>  <Ligand_Instance>  (583) 
nan

>  <PDB_ID>  (583) 
nan

>  <Standardized_SMILES>  (583) 
CCCCC(CC)C(=O)OCC1(CO)C/C(=C/c2ccc(OC(F)(F)F)cc2)C(=O)O1

>  <Name>  (583) 
nan

>  <Pocket>  (583) 
nan

>  <ATP_Site>  (583) 
nan

>  <Peripheral>  (583) 
nan

>  <Num_H_Atoms_ProtBoundConf>  (583) 
nan

>  <Num_Resolved_Atoms>  (583) 
nan

>  <Num_Not_Resolved_Atoms>  (583) 
nan

$$$$
CHEMBL4587088
     RDKit          3D

  0  0  0  0  0  0  0  0  0  0999 V3000
M  V30 BEGIN CTAB
M  V30 COUNTS 50 53 0 0 0
M  V30 BEGIN ATOM
M  V30 1 C 4.801211 -3.299904 -2.802634 0
M  V30 2 N 5.635370 -2.809306 -1.718615 0
M  V30 3 N 6.902487 -3.138748 -1.524198 0
M  V30 4 C 7.390196 -2.515349 -0.435601 0
M  V30 5 C 6.380663 -1.737774 0.105574 0
M  V30 6 Br 6.507857 -0.642882 1.649338 0
M  V30 7 C 5.312814 -1.950885 -0.721425 0
M  V30 8 C 4.006537 -1.323210 -0.532586 0
M  V30 9 C 3.497224 -1.314656 0.753518 0
M  V30 10 C 2.263950 -0.741671 1.032452 0
M  V30 11 C 1.568122 -0.181645 -0.025572 0
M  V30 12 C 0.261312 0.460069 0.092450 0
M  V30 13 O -0.399190 0.980951 -0.856851 0
M  V30 14 N -0.428202 0.569620 1.330512 0
M  V30 15 C -1.712849 1.182289 1.539743 0 CFG=2
M  V30 16 C -1.547043 2.302192 2.544774 0
M  V30 17 N -1.819677 1.751356 3.859001 0
M  V30 18 C -3.242301 1.636707 4.047306 0
M  V30 19 C -3.797574 0.819816 2.912718 0
M  V30 20 C -2.687364 0.174323 2.103699 0 CFG=1
M  V30 21 C -3.341566 -0.608429 1.002905 0
M  V30 22 C -4.023817 0.079356 0.031773 0
M  V30 23 C -4.627250 -0.637404 -0.982971 0
M  V30 24 C -4.584558 -2.018522 -1.079528 0
M  V30 25 F -5.188890 -2.683737 -2.089599 0
M  V30 26 C -3.885436 -2.688407 -0.080275 0
M  V30 27 F -3.811903 -4.044254 -0.126308 0
M  V30 28 C -3.269985 -1.992588 0.950535 0
M  V30 29 C 2.083957 -0.192049 -1.319206 0
M  V30 30 N 3.302854 -0.767587 -1.547495 0
M  V30 31 H 4.956595 -4.374589 -3.001819 0
M  V30 32 H 5.047323 -2.685341 -3.697660 0
M  V30 33 H 3.760059 -3.104336 -2.500653 0
M  V30 34 H 8.412261 -2.635733 -0.082366 0
M  V30 35 H 4.008231 -1.737087 1.587792 0
M  V30 36 H 1.822260 -0.706043 2.002970 0
M  V30 37 H -0.002655 0.181702 2.210777 0
M  V30 38 H -2.086301 1.561503 0.568097 0
M  V30 39 H -2.199647 3.167139 2.312837 0
M  V30 40 H -0.475118 2.615312 2.565807 0
M  V30 41 H -1.327864 0.850520 3.956453 0
M  V30 42 H -3.468671 1.227624 5.036133 0
M  V30 43 H -3.677615 2.667970 4.027901 0
M  V30 44 H -4.342674 1.505138 2.212713 0
M  V30 45 H -4.441402 0.000655 3.267479 0
M  V30 46 H -2.196738 -0.565840 2.772927 0
M  V30 47 H -4.104873 1.151610 0.032857 0
M  V30 48 H -5.175011 -0.130382 -1.767982 0
M  V30 49 H -2.727011 -2.532818 1.724258 0
M  V30 50 H 1.573425 0.233889 -2.172692 0
M  V30 END ATOM
M  V30 BEGIN BOND
M  V30 1 1 1 2
M  V30 2 1 2 3
M  V30 3 2 3 4
M  V30 4 1 4 5
M  V30 5 1 5 6
M  V30 6 2 5 7
M  V30 7 1 7 8
M  V30 8 2 8 9
M  V30 9 1 9 10
M  V30 10 2 10 11
M  V30 11 1 11 12
M  V30 12 2 12 13
M  V30 13 1 12 14
M  V30 14 1 14 15
M  V30 15 1 15 16
M  V30 16 1 16 17
M  V30 17 1 17 18
M  V30 18 1 18 19
M  V30 19 1 19 20
M  V30 20 1 20 21
M  V30 21 2 21 22
M  V30 22 1 22 23
M  V30 23 2 23 24
M  V30 24 1 24 25
M  V30 25 1 24 26
M  V30 26 1 26 27
M  V30 27 2 26 28
M  V30 28 1 11 29
M  V30 29 2 29 30
M  V30 30 1 7 2
M  V30 31 1 30 8
M  V30 32 1 20 15
M  V30 33 1 28 21
M  V30 34 1 1 31
M  V30 35 1 1 32
M  V30 36 1 1 33
M  V30 37 1 4 34
M  V30 38 1 9 35
M  V30 39 1 10 36
M  V30 40 1 14 37
M  V30 41 1 15 38 CFG=3
M  V30 42 1 16 39
M  V30 43 1 16 40
M  V30 44 1 17 41
M  V30 45 1 18 42
M  V30 46 1 18 43
M  V30 47 1 19 44
M  V30 48 1 19 45
M  V30 49 1 20 46 CFG=1
M  V30 50 1 22 47
M  V30 51 1 23 48
M  V30 52 1 28 49
M  V30 53 1 29 50
M  V30 END BOND
M  V30 END CTAB
M  END
>  <Dataset>  (584) 
ChEMBL_Kinases

>  <Ligand_Instance>  (584) 
nan

>  <PDB_ID>  (584) 
nan

>  <Standardized_SMILES>  (584) 
Cn1ncc(Br)c1-c1ccc(C(=O)N[C@@H]2CNCC[C@H]2c2ccc(F)c(F)c2)cn1

>  <Name>  (584) 
nan

>  <Pocket>  (584) 
nan

>  <ATP_Site>  (584) 
nan

>  <Peripheral>  (584) 
nan

>  <Num_H_Atoms_ProtBoundConf>  (584) 
nan

>  <Num_Resolved_Atoms>  (584) 
nan

>  <Num_Not_Resolved_Atoms>  (584) 
nan

$$$$
CHEMBL461134
     RDKit          3D

  0  0  0  0  0  0  0  0  0  0999 V3000
M  V30 BEGIN CTAB
M  V30 COUNTS 58 63 0 0 0
M  V30 BEGIN ATOM
M  V30 1 O 2.825060 2.606849 2.352957 0
M  V30 2 C 1.669736 2.120822 2.410628 0
M  V30 3 N 0.476860 2.703699 2.973930 0
M  V30 4 C -0.582277 1.779172 2.804361 0
M  V30 5 O -1.676481 2.149404 3.244597 0
M  V30 6 C -0.127454 0.594264 2.142546 0
M  V30 7 C 1.208889 0.818267 1.918750 0
M  V30 8 C 1.983992 -0.135326 1.285321 0
M  V30 9 C 3.407941 0.059048 1.032039 0
M  V30 10 C 4.075515 0.609832 -0.041626 0
M  V30 11 Cl 2.986733 1.161631 -1.298623 0
M  V30 12 C 5.450175 0.671828 -0.027072 0
M  V30 13 C 6.184623 0.202915 1.022796 0
M  V30 14 C 5.544439 -0.354595 2.113332 0
M  V30 15 C 4.152943 -0.424160 2.112710 0
M  V30 16 Cl 3.507163 -1.159908 3.572614 0
M  V30 17 C 1.366664 -1.304289 0.893246 0
M  V30 18 C 0.004921 -1.565607 1.106062 0
M  V30 19 C -0.703813 -0.570508 1.742717 0
M  V30 20 C -1.990351 -1.001647 1.862923 0
M  V30 21 C -3.186211 -0.589144 2.367982 0
M  V30 22 C -4.365504 -1.297161 2.350160 0
M  V30 23 O -5.560934 -0.830461 2.880167 0
M  V30 24 C -4.361759 -2.567440 1.761369 0
M  V30 25 C -3.172211 -3.026007 1.236181 0
M  V30 26 C -2.006685 -2.250663 1.288310 0
M  V30 27 N -0.801861 -2.630539 0.812133 0
M  V30 28 C -0.255358 -3.752603 0.123841 0
M  V30 29 C -0.139008 -3.665278 -1.344637 0
M  V30 30 C -1.373412 -3.448948 -2.134832 0
M  V30 31 N -2.020706 -2.208086 -1.835929 0
M  V30 32 C -1.693826 -0.844784 -1.981659 0
M  V30 33 C -2.492179 0.212778 -1.549312 0
M  V30 34 C -2.125263 1.512984 -1.747061 0
M  V30 35 C -0.947427 1.828909 -2.383922 0
M  V30 36 C -0.138644 0.805126 -2.822108 0
M  V30 37 C -0.529550 -0.498677 -2.611597 0
M  V30 38 H 0.543674 3.664091 3.403588 0
M  V30 39 H 5.862492 1.125060 -0.924892 0
M  V30 40 H 7.267824 0.313974 0.905146 0
M  V30 41 H 6.180969 -0.702269 2.901342 0
M  V30 42 H 1.990000 -2.038321 0.398831 0
M  V30 43 H -3.289051 0.358548 2.833892 0
M  V30 44 H -5.603143 -0.094930 3.577417 0
M  V30 45 H -5.241375 -3.185482 1.706816 0
M  V30 46 H -3.181812 -4.005058 0.785637 0
M  V30 47 H -0.912414 -4.653862 0.365017 0
M  V30 48 H 0.754795 -4.028198 0.574424 0
M  V30 49 H 0.662047 -2.902782 -1.591829 0
M  V30 50 H 0.315867 -4.653733 -1.717799 0
M  V30 51 H -1.125120 -3.426885 -3.243200 0
M  V30 52 H -2.086265 -4.316074 -2.042095 0
M  V30 53 H -2.972714 -2.309552 -1.433711 0
M  V30 54 H -3.431017 -0.042766 -1.041680 0
M  V30 55 H -2.807757 2.250538 -1.377541 0
M  V30 56 H -0.751299 2.884212 -2.489419 0
M  V30 57 H 0.762613 1.163053 -3.309635 0
M  V30 58 H 0.211551 -1.149112 -3.026337 0
M  V30 END ATOM
M  V30 BEGIN BOND
M  V30 1 2 1 2
M  V30 2 1 2 3
M  V30 3 1 3 4
M  V30 4 2 4 5
M  V30 5 1 4 6
M  V30 6 2 6 7
M  V30 7 1 7 8
M  V30 8 1 8 9
M  V30 9 2 9 10
M  V30 10 1 10 11
M  V30 11 1 10 12
M  V30 12 2 12 13
M  V30 13 1 13 14
M  V30 14 2 14 15
M  V30 15 1 15 16
M  V30 16 2 8 17
M  V30 17 1 17 18
M  V30 18 2 18 19
M  V30 19 1 19 20
M  V30 20 2 20 21
M  V30 21 1 21 22
M  V30 22 1 22 23
M  V30 23 2 22 24
M  V30 24 1 24 25
M  V30 25 2 25 26
M  V30 26 1 26 27
M  V30 27 1 27 28
M  V30 28 1 28 29
M  V30 29 1 29 30
M  V30 30 1 30 31
M  V30 31 1 31 32
M  V30 32 2 32 33
M  V30 33 1 33 34
M  V30 34 2 34 35
M  V30 35 1 35 36
M  V30 36 2 36 37
M  V30 37 1 7 2
M  V30 38 1 15 9
M  V30 39 1 27 18
M  V30 40 1 37 32
M  V30 41 1 19 6
M  V30 42 1 26 20
M  V30 43 1 3 38
M  V30 44 1 12 39
M  V30 45 1 13 40
M  V30 46 1 14 41
M  V30 47 1 17 42
M  V30 48 1 21 43
M  V30 49 1 23 44
M  V30 50 1 24 45
M  V30 51 1 25 46
M  V30 52 1 28 47
M  V30 53 1 28 48
M  V30 54 1 29 49
M  V30 55 1 29 50
M  V30 56 1 30 51
M  V30 57 1 30 52
M  V30 58 1 31 53
M  V30 59 1 33 54
M  V30 60 1 34 55
M  V30 61 1 35 56
M  V30 62 1 36 57
M  V30 63 1 37 58
M  V30 END BOND
M  V30 END CTAB
M  END
>  <Dataset>  (585) 
ChEMBL_Kinases

>  <Ligand_Instance>  (585) 
nan

>  <PDB_ID>  (585) 
nan

>  <Standardized_SMILES>  (585) 
O=C1NC(=O)c2c1c(-c1c(Cl)cccc1Cl)cc1c2c2cc(O)ccc2n1CCCNc1ccccc1

>  <Name>  (585) 
nan

>  <Pocket>  (585) 
nan

>  <ATP_Site>  (585) 
nan

>  <Peripheral>  (585) 
nan

>  <Num_H_Atoms_ProtBoundConf>  (585) 
nan

>  <Num_Resolved_Atoms>  (585) 
nan

>  <Num_Not_Resolved_Atoms>  (585) 
nan

$$$$
CHEMBL4587030
     RDKit          3D

  0  0  0  0  0  0  0  0  0  0999 V3000
M  V30 BEGIN CTAB
M  V30 COUNTS 47 50 0 0 0
M  V30 BEGIN ATOM
M  V30 1 C -0.936880 -4.531688 4.685855 0
M  V30 2 N -1.757804 -4.119885 3.544488 0
M  V30 3 C -1.922983 -2.803942 3.052658 0
M  V30 4 C -2.967419 -2.090209 3.606759 0
M  V30 5 C -3.296368 -0.777416 3.257671 0
M  V30 6 C -2.506642 -0.180490 2.291619 0
M  V30 7 C -1.445690 -0.884026 1.718458 0
M  V30 8 C -0.625855 -0.228824 0.699642 0
M  V30 9 C -0.410983 1.148428 0.744848 0
M  V30 10 C 0.357097 1.810562 -0.197465 0
M  V30 11 C 0.941754 1.099938 -1.229450 0
M  V30 12 C 1.741714 1.407888 -2.309626 0
M  V30 13 N 2.164521 2.740669 -2.577131 0
M  V30 14 C 3.396978 2.981804 -1.909585 0
M  V30 15 O 3.871715 2.011288 -1.230423 0
M  V30 16 C 4.190038 4.236876 -1.916444 0
M  V30 17 C 4.982583 4.625832 -0.723639 0
M  V30 18 C 5.716028 4.091408 -1.897932 0
M  V30 19 N 1.998588 0.269227 -2.977161 0
M  V30 20 N 1.407633 -0.756147 -2.385901 0
M  V30 21 C 0.739273 -0.284012 -1.294390 0
M  V30 22 C -0.035036 -0.923802 -0.337267 0
M  V30 23 C -1.168351 -2.181811 2.104718 0
M  V30 24 S -2.629648 -5.354798 2.687724 0
M  V30 25 C -4.368201 -4.958531 2.845931 0
M  V30 26 O -2.219371 -5.354650 1.245079 0
M  V30 27 O -2.362837 -6.712778 3.268868 0
M  V30 28 H -0.364719 -5.454767 4.445830 0
M  V30 29 H -0.204801 -3.746580 4.961056 0
M  V30 30 H -1.615430 -4.808824 5.529411 0
M  V30 31 H -3.616867 -2.522030 4.372627 0
M  V30 32 H -4.126253 -0.267195 3.725374 0
M  V30 33 H -2.715134 0.848806 1.975342 0
M  V30 34 H -0.858680 1.751251 1.550151 0
M  V30 35 H 0.517846 2.885541 -0.151835 0
M  V30 36 H 1.791719 3.542047 -3.128098 0
M  V30 37 H 3.760781 5.055181 -2.507401 0
M  V30 38 H 5.142655 5.703716 -0.489010 0
M  V30 39 H 4.914403 4.015838 0.215600 0
M  V30 40 H 6.101353 3.038324 -1.852176 0
M  V30 41 H 6.244536 4.768410 -2.581910 0
M  V30 42 H 1.393740 -1.771115 -2.628542 0
M  V30 43 H -0.205023 -1.986500 -0.366196 0
M  V30 44 H -0.355227 -2.751419 1.680039 0
M  V30 45 H -4.935030 -5.789259 2.407042 0
M  V30 46 H -4.503706 -3.991760 2.299185 0
M  V30 47 H -4.629930 -4.744847 3.897204 0
M  V30 END ATOM
M  V30 BEGIN BOND
M  V30 1 1 1 2
M  V30 2 1 2 3
M  V30 3 2 3 4
M  V30 4 1 4 5
M  V30 5 2 5 6
M  V30 6 1 6 7
M  V30 7 1 7 8
M  V30 8 2 8 9
M  V30 9 1 9 10
M  V30 10 2 10 11
M  V30 11 1 11 12
M  V30 12 1 12 13
M  V30 13 1 13 14
M  V30 14 2 14 15
M  V30 15 1 14 16
M  V30 16 1 16 17
M  V30 17 1 17 18
M  V30 18 2 12 19
M  V30 19 1 19 20
M  V30 20 1 20 21
M  V30 21 2 21 22
M  V30 22 2 7 23
M  V30 23 1 2 24
M  V30 24 1 24 25
M  V30 25 2 24 26
M  V30 26 2 24 27
M  V30 27 1 23 3
M  V30 28 1 22 8
M  V30 29 1 21 11
M  V30 30 1 18 16
M  V30 31 1 1 28
M  V30 32 1 1 29
M  V30 33 1 1 30
M  V30 34 1 4 31
M  V30 35 1 5 32
M  V30 36 1 6 33
M  V30 37 1 9 34
M  V30 38 1 10 35
M  V30 39 1 13 36
M  V30 40 1 16 37
M  V30 41 1 17 38
M  V30 42 1 17 39
M  V30 43 1 18 40
M  V30 44 1 18 41
M  V30 45 1 20 42
M  V30 46 1 22 43
M  V30 47 1 23 44
M  V30 48 1 25 45
M  V30 49 1 25 46
M  V30 50 1 25 47
M  V30 END BOND
M  V30 END CTAB
M  END
>  <Dataset>  (586) 
ChEMBL_Kinases

>  <Ligand_Instance>  (586) 
nan

>  <PDB_ID>  (586) 
nan

>  <Standardized_SMILES>  (586) 
CN(c1cccc(-c2ccc3c(NC(=O)C4CC4)n[nH]c3c2)c1)S(C)(=O)=O

>  <Name>  (586) 
nan

>  <Pocket>  (586) 
nan

>  <ATP_Site>  (586) 
nan

>  <Peripheral>  (586) 
nan

>  <Num_H_Atoms_ProtBoundConf>  (586) 
nan

>  <Num_Resolved_Atoms>  (586) 
nan

>  <Num_Not_Resolved_Atoms>  (586) 
nan

$$$$
CHEMBL461139
     RDKit          3D

  0  0  0  0  0  0  0  0  0  0999 V3000
M  V30 BEGIN CTAB
M  V30 COUNTS 54 58 0 0 0
M  V30 BEGIN ATOM
M  V30 1 O 8.620684 2.384252 -2.727787 0
M  V30 2 C 7.945979 1.322258 -2.650119 0
M  V30 3 N 8.492246 0.227592 -3.207481 0
M  V30 4 C 7.871376 -0.965198 -3.190926 0
M  V30 5 N 6.657917 -1.095355 -2.601255 0
M  V30 6 C 6.062473 -0.021217 -2.023705 0
M  V30 7 N 4.904671 0.182616 -1.377627 0
M  V30 8 C 4.823570 1.480714 -1.007346 0
M  V30 9 C 3.707001 2.083137 -0.281723 0
M  V30 10 C 3.662955 3.413307 0.074230 0
M  V30 11 C 2.628721 4.014055 0.756427 0
M  V30 12 N 1.610530 3.208945 1.078099 0
M  V30 13 C 1.566962 1.902189 0.773216 0
M  V30 14 C 0.404118 1.111509 1.173610 0
M  V30 15 C 0.196977 -0.175149 0.961626 0
M  V30 16 C -0.957687 -0.959755 1.359835 0
M  V30 17 C -1.038598 -2.308131 1.077219 0
M  V30 18 C -2.133299 -3.056194 1.452049 0
M  V30 19 C -3.209201 -2.509582 2.128183 0
M  V30 20 C -4.323614 -3.426587 2.474019 0
M  V30 21 N -5.268349 -3.446828 1.398987 0
M  V30 22 C -5.864301 -2.189544 1.082173 0
M  V30 23 C -6.942639 -1.810248 2.064631 0
M  V30 24 O -7.935670 -2.781921 1.945853 0
M  V30 25 C -7.462616 -4.044473 2.276868 0
M  V30 26 C -6.249867 -4.476449 1.520883 0
M  V30 27 C -3.139449 -1.163620 2.415753 0
M  V30 28 C -2.036967 -0.427026 2.034222 0
M  V30 29 C 2.611485 1.317874 0.089788 0
M  V30 30 C 5.950491 2.167139 -1.411999 0
M  V30 31 C 6.705117 1.205313 -2.042931 0
M  V30 32 H 9.425776 0.211192 -3.690584 0
M  V30 33 H 8.253807 -1.881926 -3.618881 0
M  V30 34 H 4.219742 -0.587392 -1.221252 0
M  V30 35 H 4.528273 4.023729 -0.218063 0
M  V30 36 H 2.618623 5.062160 1.023728 0
M  V30 37 H -0.404188 1.602488 1.709625 0
M  V30 38 H 0.988377 -0.691954 0.427515 0
M  V30 39 H -0.204583 -2.750382 0.548648 0
M  V30 40 H -2.109688 -4.114171 1.186143 0
M  V30 41 H -4.780450 -3.162150 3.451023 0
M  V30 42 H -3.930239 -4.457529 2.575101 0
M  V30 43 H -5.140109 -1.382134 0.898527 0
M  V30 44 H -6.391011 -2.334562 0.095915 0
M  V30 45 H -7.397421 -0.852323 1.758421 0
M  V30 46 H -6.561805 -1.683030 3.091735 0
M  V30 47 H -8.274113 -4.765482 2.013071 0
M  V30 48 H -7.219597 -4.066168 3.360935 0
M  V30 49 H -5.820989 -5.347545 2.098388 0
M  V30 50 H -6.536131 -4.876291 0.508015 0
M  V30 51 H -3.995164 -0.742071 2.949653 0
M  V30 52 H -2.067591 0.618658 2.300320 0
M  V30 53 H 2.642540 0.274600 -0.187097 0
M  V30 54 H 6.185885 3.215205 -1.266960 0
M  V30 END ATOM
M  V30 BEGIN BOND
M  V30 1 2 1 2
M  V30 2 1 2 3
M  V30 3 1 3 4
M  V30 4 2 4 5
M  V30 5 1 5 6
M  V30 6 1 6 7
M  V30 7 1 7 8
M  V30 8 1 8 9
M  V30 9 2 9 10
M  V30 10 1 10 11
M  V30 11 2 11 12
M  V30 12 1 12 13
M  V30 13 1 13 14
M  V30 14 2 14 15
M  V30 15 1 15 16
M  V30 16 2 16 17
M  V30 17 1 17 18
M  V30 18 2 18 19
M  V30 19 1 19 20
M  V30 20 1 20 21
M  V30 21 1 21 22
M  V30 22 1 22 23
M  V30 23 1 23 24
M  V30 24 1 24 25
M  V30 25 1 25 26
M  V30 26 1 19 27
M  V30 27 2 27 28
M  V30 28 2 13 29
M  V30 29 2 8 30
M  V30 30 1 30 31
M  V30 31 1 31 2
M  V30 32 2 31 6
M  V30 33 1 29 9
M  V30 34 1 28 16
M  V30 35 1 26 21
M  V30 36 1 3 32
M  V30 37 1 4 33
M  V30 38 1 7 34
M  V30 39 1 10 35
M  V30 40 1 11 36
M  V30 41 1 14 37
M  V30 42 1 15 38
M  V30 43 1 17 39
M  V30 44 1 18 40
M  V30 45 1 20 41
M  V30 46 1 20 42
M  V30 47 1 22 43
M  V30 48 1 22 44
M  V30 49 1 23 45
M  V30 50 1 23 46
M  V30 51 1 25 47
M  V30 52 1 25 48
M  V30 53 1 26 49
M  V30 54 1 26 50
M  V30 55 1 27 51
M  V30 56 1 28 52
M  V30 57 1 29 53
M  V30 58 1 30 54
M  V30 END BOND
M  V30 END CTAB
M  END
>  <Dataset>  (587) 
ChEMBL_Kinases

>  <Ligand_Instance>  (587) 
nan

>  <PDB_ID>  (587) 
nan

>  <Standardized_SMILES>  (587) 
O=c1[nH]cnc2[nH]c(-c3ccnc(/C=C/c4ccc(CN5CCOCC5)cc4)c3)cc12

>  <Name>  (587) 
nan

>  <Pocket>  (587) 
nan

>  <ATP_Site>  (587) 
nan

>  <Peripheral>  (587) 
nan

>  <Num_H_Atoms_ProtBoundConf>  (587) 
nan

>  <Num_Resolved_Atoms>  (587) 
nan

>  <Num_Not_Resolved_Atoms>  (587) 
nan

$$$$
CHEMBL461140
     RDKit          3D

  0  0  0  0  0  0  0  0  0  0999 V3000
M  V30 BEGIN CTAB
M  V30 COUNTS 53 56 0 0 0
M  V30 BEGIN ATOM
M  V30 1 C 4.970857 0.623571 6.611047 0
M  V30 2 N 5.366590 1.420323 5.470594 0
M  V30 3 C 4.785292 2.741403 5.556368 0
M  V30 4 C 5.004121 0.747449 4.237765 0
M  V30 5 C 5.380196 1.507616 3.019546 0
M  V30 6 O 5.017127 0.833819 1.858147 0
M  V30 7 C 3.815298 0.462535 1.372325 0
M  V30 8 C 2.511002 0.595882 1.784257 0
M  V30 9 C 1.448392 0.100014 1.067350 0
M  V30 10 C 1.661479 -0.565652 -0.122180 0
M  V30 11 C 0.498461 -1.074408 -0.847974 0
M  V30 12 C 0.464023 -1.723631 -1.974106 0
M  V30 13 C -0.722340 -2.211571 -2.660464 0
M  V30 14 C -2.004674 -2.060143 -2.221020 0
M  V30 15 C -3.125497 -2.525097 -2.876012 0
M  V30 16 C -4.469813 -2.319972 -2.335084 0
M  V30 17 C -4.767302 -1.666046 -1.158134 0
M  V30 18 C -6.134386 -1.689631 -1.011590 0
M  V30 19 C -7.011230 -1.211429 -0.060435 0
M  V30 20 O -6.494730 -0.618447 0.898953 0
M  V30 21 N -8.350890 -1.396784 -0.198669 0
M  V30 22 C -8.848404 -2.055719 -1.275275 0
M  V30 23 N -7.990186 -2.530965 -2.218745 0
M  V30 24 C -6.657238 -2.364372 -2.112185 0
M  V30 25 N -5.607958 -2.725806 -2.884088 0
M  V30 26 C -2.960252 -3.197823 -4.068991 0
M  V30 27 C -1.665120 -3.349265 -4.510237 0
M  V30 28 N -0.619066 -2.873641 -3.826408 0
M  V30 29 C 2.944917 -0.734778 -0.594702 0
M  V30 30 C 4.009117 -0.217959 0.159062 0
M  V30 31 H 5.889965 0.117011 6.983642 0
M  V30 32 H 4.211426 -0.111530 6.292494 0
M  V30 33 H 4.472272 1.243505 7.391289 0
M  V30 34 H 3.715629 2.643301 5.275964 0
M  V30 35 H 4.879713 3.040601 6.623435 0
M  V30 36 H 5.241420 3.457647 4.866499 0
M  V30 37 H 3.950526 0.470188 4.268061 0
M  V30 38 H 5.606086 -0.212323 4.231344 0
M  V30 39 H 6.490492 1.669320 3.034178 0
M  V30 40 H 4.909747 2.515734 2.961756 0
M  V30 41 H 2.396556 1.122327 2.693370 0
M  V30 42 H 0.456692 0.269734 1.500438 0
M  V30 43 H -0.504503 -0.909910 -0.423156 0
M  V30 44 H 1.423793 -1.913492 -2.437123 0
M  V30 45 H -2.203749 -1.547492 -1.301887 0
M  V30 46 H -4.091943 -1.209225 -0.457082 0
M  V30 47 H -8.919389 -1.000232 0.568298 0
M  V30 48 H -9.921526 -2.182357 -1.348002 0
M  V30 49 H -5.760087 -3.257188 -3.786467 0
M  V30 50 H -3.771622 -3.593281 -4.645660 0
M  V30 51 H -1.390712 -3.856643 -5.430544 0
M  V30 52 H 3.088403 -1.259361 -1.529165 0
M  V30 53 H 4.969091 -0.429789 -0.343196 0
M  V30 END ATOM
M  V30 BEGIN BOND
M  V30 1 1 1 2
M  V30 2 1 2 3
M  V30 3 1 2 4
M  V30 4 1 4 5
M  V30 5 1 5 6
M  V30 6 1 6 7
M  V30 7 2 7 8
M  V30 8 1 8 9
M  V30 9 2 9 10
M  V30 10 1 10 11
M  V30 11 2 11 12
M  V30 12 1 12 13
M  V30 13 2 13 14
M  V30 14 1 14 15
M  V30 15 1 15 16
M  V30 16 2 16 17
M  V30 17 1 17 18
M  V30 18 1 18 19
M  V30 19 2 19 20
M  V30 20 1 19 21
M  V30 21 1 21 22
M  V30 22 2 22 23
M  V30 23 1 23 24
M  V30 24 1 24 25
M  V30 25 2 15 26
M  V30 26 1 26 27
M  V30 27 2 27 28
M  V30 28 1 10 29
M  V30 29 2 29 30
M  V30 30 1 30 7
M  V30 31 1 28 13
M  V30 32 1 25 16
M  V30 33 2 24 18
M  V30 34 1 1 31
M  V30 35 1 1 32
M  V30 36 1 1 33
M  V30 37 1 3 34
M  V30 38 1 3 35
M  V30 39 1 3 36
M  V30 40 1 4 37
M  V30 41 1 4 38
M  V30 42 1 5 39
M  V30 43 1 5 40
M  V30 44 1 8 41
M  V30 45 1 9 42
M  V30 46 1 11 43
M  V30 47 1 12 44
M  V30 48 1 14 45
M  V30 49 1 17 46
M  V30 50 1 21 47
M  V30 51 1 22 48
M  V30 52 1 25 49
M  V30 53 1 26 50
M  V30 54 1 27 51
M  V30 55 1 29 52
M  V30 56 1 30 53
M  V30 END BOND
M  V30 END CTAB
M  END
>  <Dataset>  (588) 
ChEMBL_Kinases

>  <Ligand_Instance>  (588) 
nan

>  <PDB_ID>  (588) 
nan

>  <Standardized_SMILES>  (588) 
CN(C)CCOc1ccc(/C=C/c2cc(-c3cc4c(=O)[nH]cnc4[nH]3)ccn2)cc1

>  <Name>  (588) 
nan

>  <Pocket>  (588) 
nan

>  <ATP_Site>  (588) 
nan

>  <Peripheral>  (588) 
nan

>  <Num_H_Atoms_ProtBoundConf>  (588) 
nan

>  <Num_Resolved_Atoms>  (588) 
nan

>  <Num_Not_Resolved_Atoms>  (588) 
nan

$$$$
CHEMBL4586627
     RDKit          3D

  0  0  0  0  0  0  0  0  0  0999 V3000
M  V30 BEGIN CTAB
M  V30 COUNTS 46 49 0 0 0
M  V30 BEGIN ATOM
M  V30 1 C 2.841040 -1.378439 3.476624 0
M  V30 2 O 2.708992 -0.842815 2.183680 0
M  V30 3 C 2.680251 -1.616494 1.034355 0
M  V30 4 C 2.772093 -2.996187 0.951146 0
M  V30 5 C 2.732084 -3.661109 -0.247364 0
M  V30 6 C 2.596667 -2.927095 -1.394380 0
M  V30 7 C 2.503045 -1.554297 -1.344615 0
M  V30 8 C 2.543904 -0.881579 -0.124724 0
M  V30 9 C 2.429655 0.562396 -0.300963 0
M  V30 10 N 3.269914 1.361533 -0.947647 0
M  V30 11 C 2.847109 2.642558 -0.909591 0
M  V30 12 C 3.495952 3.859664 -1.511864 0
M  V30 13 N 1.683856 2.665539 -0.206942 0
M  V30 14 C 1.430693 1.391836 0.164285 0
M  V30 15 C 0.252974 1.020814 0.943284 0
M  V30 16 C 0.192000 1.630771 2.202013 0
M  V30 17 C -0.848157 1.409813 3.094616 0
M  V30 18 N -1.820499 0.554545 2.672403 0
M  V30 19 C -1.762199 -0.031705 1.462804 0
M  V30 20 N -2.819948 -0.914123 1.095564 0
M  V30 21 C -3.915028 -1.179908 1.965904 0
M  V30 22 O -3.938461 -0.611717 3.091848 0
M  V30 23 C -4.996342 -2.102623 1.551216 0
M  V30 24 C -4.527862 -3.435644 0.923774 0
M  V30 25 C -5.312811 -2.388775 0.156061 0
M  V30 26 C -0.744982 0.165790 0.554198 0
M  V30 27 H 3.424822 -2.333051 3.473906 0
M  V30 28 H 3.371656 -0.657599 4.147432 0
M  V30 29 H 1.828421 -1.564466 3.873353 0
M  V30 30 H 2.876399 -3.499011 1.893849 0
M  V30 31 H 2.809481 -4.735789 -0.232629 0
M  V30 32 H 2.571499 -3.517698 -2.315084 0
M  V30 33 H 2.400375 -1.117354 -2.335257 0
M  V30 34 H 3.228799 4.738499 -0.922950 0
M  V30 35 H 3.132082 3.922606 -2.555750 0
M  V30 36 H 4.608698 3.680178 -1.512819 0
M  V30 37 H 1.141628 3.541869 -0.027381 0
M  V30 38 H 0.954084 2.313597 2.556059 0
M  V30 39 H -0.868346 1.895397 4.060331 0
M  V30 40 H -2.840061 -1.406537 0.170554 0
M  V30 41 H -5.808682 -2.245626 2.299269 0
M  V30 42 H -3.434524 -3.521383 0.724432 0
M  V30 43 H -5.019944 -4.363690 1.264396 0
M  V30 44 H -6.351036 -2.700043 -0.099653 0
M  V30 45 H -4.772944 -1.944935 -0.700670 0
M  V30 46 H -0.658048 -0.274184 -0.409170 0
M  V30 END ATOM
M  V30 BEGIN BOND
M  V30 1 1 1 2
M  V30 2 1 2 3
M  V30 3 2 3 4
M  V30 4 1 4 5
M  V30 5 2 5 6
M  V30 6 1 6 7
M  V30 7 2 7 8
M  V30 8 1 8 9
M  V30 9 1 9 10
M  V30 10 2 10 11
M  V30 11 1 11 12
M  V30 12 1 11 13
M  V30 13 1 13 14
M  V30 14 1 14 15
M  V30 15 2 15 16
M  V30 16 1 16 17
M  V30 17 2 17 18
M  V30 18 1 18 19
M  V30 19 1 19 20
M  V30 20 1 20 21
M  V30 21 2 21 22
M  V30 22 1 21 23
M  V30 23 1 23 24
M  V30 24 1 24 25
M  V30 25 2 19 26
M  V30 26 1 8 3
M  V30 27 2 14 9
M  V30 28 1 26 15
M  V30 29 1 25 23
M  V30 30 1 1 27
M  V30 31 1 1 28
M  V30 32 1 1 29
M  V30 33 1 4 30
M  V30 34 1 5 31
M  V30 35 1 6 32
M  V30 36 1 7 33
M  V30 37 1 12 34
M  V30 38 1 12 35
M  V30 39 1 12 36
M  V30 40 1 13 37
M  V30 41 1 16 38
M  V30 42 1 17 39
M  V30 43 1 20 40
M  V30 44 1 23 41
M  V30 45 1 24 42
M  V30 46 1 24 43
M  V30 47 1 25 44
M  V30 48 1 25 45
M  V30 49 1 26 46
M  V30 END BOND
M  V30 END CTAB
M  END
>  <Dataset>  (589) 
ChEMBL_Kinases

>  <Ligand_Instance>  (589) 
nan

>  <PDB_ID>  (589) 
nan

>  <Standardized_SMILES>  (589) 
COc1ccccc1-c1nc(C)[nH]c1-c1ccnc(NC(=O)C2CC2)c1

>  <Name>  (589) 
nan

>  <Pocket>  (589) 
nan

>  <ATP_Site>  (589) 
nan

>  <Peripheral>  (589) 
nan

>  <Num_H_Atoms_ProtBoundConf>  (589) 
nan

>  <Num_Resolved_Atoms>  (589) 
nan

>  <Num_Not_Resolved_Atoms>  (589) 
nan

$$$$
CHEMBL461261
     RDKit          3D

  0  0  0  0  0  0  0  0  0  0999 V3000
M  V30 BEGIN CTAB
M  V30 COUNTS 40 43 0 0 0
M  V30 BEGIN ATOM
M  V30 1 C 2.102144 -4.489504 1.712369 0
M  V30 2 N 2.117877 -4.623914 0.276004 0
M  V30 3 C 2.307272 -5.760049 -0.420498 0
M  V30 4 N 2.256954 -5.504331 -1.740262 0
M  V30 5 C 2.033330 -4.192557 -1.892194 0
M  V30 6 C 1.893761 -3.407101 -3.026799 0
M  V30 7 C 1.665115 -2.058661 -2.914470 0
M  V30 8 C 1.572087 -1.471530 -1.649639 0
M  V30 9 C 1.328786 -0.042119 -1.527266 0
M  V30 10 N 1.169606 0.830845 -2.534985 0
M  V30 11 N 0.965651 2.052688 -2.023260 0
M  V30 12 C 1.002686 1.913325 -0.685602 0
M  V30 13 S 0.744217 3.474484 0.137103 0
M  V30 14 C 0.809934 3.187263 1.921736 0
M  V30 15 C -0.358681 2.359755 2.295438 0
M  V30 16 C -0.461609 1.001728 2.393134 0
M  V30 17 C -1.613468 0.345040 2.746672 0
M  V30 18 C -2.757326 1.091861 3.026802 0
M  V30 19 C -2.692764 2.467377 2.939116 0
M  V30 20 C -3.971016 3.129967 3.261124 0
M  V30 21 F -4.011632 4.442181 2.897585 0
M  V30 22 F -4.180653 3.042899 4.627340 0
M  V30 23 F -5.047242 2.501551 2.646081 0
M  V30 24 C -1.517145 3.092281 2.580519 0
M  V30 25 O 1.219226 0.661677 -0.430231 0
M  V30 26 C 1.714967 -2.277786 -0.547629 0
M  V30 27 C 1.942520 -3.619237 -0.625022 0
M  V30 28 H 3.081085 -4.203822 2.131122 0
M  V30 29 H 1.373650 -3.698417 1.951051 0
M  V30 30 H 1.690430 -5.416574 2.190382 0
M  V30 31 H 2.481121 -6.772198 -0.050237 0
M  V30 32 H 1.956264 -3.806371 -4.025869 0
M  V30 33 H 1.556981 -1.449885 -3.806792 0
M  V30 34 H 0.797698 4.133010 2.493259 0
M  V30 35 H 1.766290 2.634049 2.119266 0
M  V30 36 H 0.447776 0.464652 2.172766 0
M  V30 37 H -1.582709 -0.741789 2.793150 0
M  V30 38 H -3.627309 0.513267 3.298002 0
M  V30 39 H -1.618235 4.187751 2.553035 0
M  V30 40 H 1.645839 -1.840250 0.443529 0
M  V30 END ATOM
M  V30 BEGIN BOND
M  V30 1 1 1 2
M  V30 2 1 2 3
M  V30 3 2 3 4
M  V30 4 1 4 5
M  V30 5 2 5 6
M  V30 6 1 6 7
M  V30 7 2 7 8
M  V30 8 1 8 9
M  V30 9 2 9 10
M  V30 10 1 10 11
M  V30 11 2 11 12
M  V30 12 1 12 13
M  V30 13 1 13 14
M  V30 14 1 14 15
M  V30 15 2 15 16
M  V30 16 1 16 17
M  V30 17 2 17 18
M  V30 18 1 18 19
M  V30 19 1 19 20
M  V30 20 1 20 21
M  V30 21 1 20 22
M  V30 22 1 20 23
M  V30 23 2 19 24
M  V30 24 1 12 25
M  V30 25 1 8 26
M  V30 26 2 26 27
M  V30 27 1 27 2
M  V30 28 1 27 5
M  V30 29 1 25 9
M  V30 30 1 24 15
M  V30 31 1 1 28
M  V30 32 1 1 29
M  V30 33 1 1 30
M  V30 34 1 3 31
M  V30 35 1 6 32
M  V30 36 1 7 33
M  V30 37 1 14 34
M  V30 38 1 14 35
M  V30 39 1 16 36
M  V30 40 1 17 37
M  V30 41 1 18 38
M  V30 42 1 24 39
M  V30 43 1 26 40
M  V30 END BOND
M  V30 END CTAB
M  END
>  <Dataset>  (590) 
ChEMBL_Kinases

>  <Ligand_Instance>  (590) 
nan

>  <PDB_ID>  (590) 
nan

>  <Standardized_SMILES>  (590) 
Cn1cnc2ccc(-c3nnc(SCc4cccc(C(F)(F)F)c4)o3)cc21

>  <Name>  (590) 
nan

>  <Pocket>  (590) 
nan

>  <ATP_Site>  (590) 
nan

>  <Peripheral>  (590) 
nan

>  <Num_H_Atoms_ProtBoundConf>  (590) 
nan

>  <Num_Resolved_Atoms>  (590) 
nan

>  <Num_Not_Resolved_Atoms>  (590) 
nan

$$$$
CHEMBL4586402
     RDKit          3D

  0  0  0  0  0  0  0  0  0  0999 V3000
M  V30 BEGIN CTAB
M  V30 COUNTS 74 79 0 0 0
M  V30 BEGIN ATOM
M  V30 1 C 4.580372 -2.818246 4.710581 0
M  V30 2 C 3.993958 -2.627542 3.377091 0
M  V30 3 C 4.518399 -3.288838 2.260996 0
M  V30 4 C 3.925918 -3.072115 1.017876 0
M  V30 5 C 2.845586 -2.232912 0.846460 0
M  V30 6 C 2.328184 -2.096669 -0.509276 0
M  V30 7 O 2.863394 -2.733205 -1.424072 0
M  V30 8 N 1.224639 -1.235403 -0.734683 0
M  V30 9 C 0.478195 -0.862359 -1.877902 0
M  V30 10 C 0.790372 0.179360 -2.723839 0
M  V30 11 C -0.032815 0.430442 -3.795899 0
M  V30 12 C -1.167368 -0.286448 -4.102048 0
M  V30 13 O -2.039593 -0.108727 -5.141448 0
M  V30 14 C -1.979121 0.830519 -6.167070 0
M  V30 15 C -1.943554 0.174129 -7.537157 0
M  V30 16 C -1.791461 1.252251 -8.562900 0
M  V30 17 N -2.917126 2.123750 -8.530516 0
M  V30 18 C -3.990833 1.743399 -9.397340 0
M  V30 19 C -3.278258 2.665420 -7.272417 0
M  V30 20 C -3.222352 1.686940 -6.130276 0
M  V30 21 C -1.477909 -1.340282 -3.240845 0
M  V30 22 C -2.696003 -2.191630 -3.480028 0
M  V30 23 F -2.761132 -3.145020 -2.494630 0
M  V30 24 F -3.801276 -1.381457 -3.410934 0
M  V30 25 F -2.598387 -2.814581 -4.723863 0
M  V30 26 C -0.656678 -1.601240 -2.160525 0
M  V30 27 C 2.365282 -1.606931 1.964912 0
M  V30 28 C 2.907992 -1.781106 3.219854 0
M  V30 29 N 2.369575 -1.107029 4.357764 0
M  V30 30 C 1.394072 -1.922102 4.921277 0
M  V30 31 O 1.347806 -2.984915 4.195046 0
M  V30 32 C 0.454259 -1.843125 6.100499 0
M  V30 33 C 0.463248 -0.631176 6.918297 0
M  V30 34 N 1.327729 0.331193 6.571725 0
M  V30 35 C 1.454346 1.475508 7.223201 0
M  V30 36 N 0.729489 1.796388 8.302522 0
M  V30 37 C -0.165968 0.870425 8.711028 0
M  V30 38 N -1.044439 0.848140 9.726899 0
M  V30 39 C -1.735732 -0.308384 9.729792 0
M  V30 40 C -1.239639 -1.010107 8.655936 0
M  V30 41 C -0.263698 -0.287756 8.016025 0
M  V30 42 C 0.042556 -3.183231 6.580271 0
M  V30 43 C -0.934075 -2.383764 5.752398 0
M  V30 44 H 5.625456 -3.187938 4.574724 0
M  V30 45 H 4.674903 -1.863464 5.264722 0
M  V30 46 H 4.074539 -3.616505 5.296204 0
M  V30 47 H 5.376669 -3.965337 2.346682 0
M  V30 48 H 4.381302 -3.616847 0.186801 0
M  V30 49 H 0.730177 -0.673557 -0.007566 0
M  V30 50 H 1.672387 0.765292 -2.517142 0
M  V30 51 H 0.196468 1.242528 -4.468992 0
M  V30 52 H -1.072242 1.446677 -6.045098 0
M  V30 53 H -2.880066 -0.387396 -7.726019 0
M  V30 54 H -1.046882 -0.483821 -7.630197 0
M  V30 55 H -1.782883 0.762265 -9.563885 0
M  V30 56 H -0.840337 1.799835 -8.417212 0
M  V30 57 H -3.536110 1.604278 -10.416456 0
M  V30 58 H -4.473753 0.796659 -9.097508 0
M  V30 59 H -4.720608 2.565702 -9.491712 0
M  V30 60 H -2.632277 3.560317 -7.063675 0
M  V30 61 H -4.312896 3.058542 -7.326250 0
M  V30 62 H -3.169452 2.297942 -5.203330 0
M  V30 63 H -4.117772 1.051174 -6.047581 0
M  V30 64 H -0.930618 -2.430070 -1.513973 0
M  V30 65 H 1.525701 -0.951356 1.847059 0
M  V30 66 H 2.541939 -0.199359 4.823657 0
M  V30 67 H 2.169566 2.264149 6.933948 0
M  V30 68 H -1.167308 1.641945 10.425795 0
M  V30 69 H -2.501514 -0.630445 10.403088 0
M  V30 70 H -1.598126 -1.979565 8.392255 0
M  V30 71 H -0.250733 -3.454318 7.571538 0
M  V30 72 H 0.534524 -4.071930 6.056898 0
M  V30 73 H -1.814005 -1.896673 6.145399 0
M  V30 74 H -1.087790 -2.785494 4.716512 0
M  V30 END ATOM
M  V30 BEGIN BOND
M  V30 1 1 1 2
M  V30 2 2 2 3
M  V30 3 1 3 4
M  V30 4 2 4 5
M  V30 5 1 5 6
M  V30 6 2 6 7
M  V30 7 1 6 8
M  V30 8 1 8 9
M  V30 9 2 9 10
M  V30 10 1 10 11
M  V30 11 2 11 12
M  V30 12 1 12 13
M  V30 13 1 13 14
M  V30 14 1 14 15
M  V30 15 1 15 16
M  V30 16 1 16 17
M  V30 17 1 17 18
M  V30 18 1 17 19
M  V30 19 1 19 20
M  V30 20 1 12 21
M  V30 21 1 21 22
M  V30 22 1 22 23
M  V30 23 1 22 24
M  V30 24 1 22 25
M  V30 25 2 21 26
M  V30 26 1 5 27
M  V30 27 2 27 28
M  V30 28 1 28 29
M  V30 29 1 29 30
M  V30 30 2 30 31
M  V30 31 1 30 32
M  V30 32 1 32 33
M  V30 33 2 33 34
M  V30 34 1 34 35
M  V30 35 2 35 36
M  V30 36 1 36 37
M  V30 37 1 37 38
M  V30 38 1 38 39
M  V30 39 2 39 40
M  V30 40 1 40 41
M  V30 41 1 32 42
M  V30 42 1 42 43
M  V30 43 1 28 2
M  V30 44 1 43 32
M  V30 45 1 26 9
M  V30 46 1 41 33
M  V30 47 1 20 14
M  V30 48 2 41 37
M  V30 49 1 1 44
M  V30 50 1 1 45
M  V30 51 1 1 46
M  V30 52 1 3 47
M  V30 53 1 4 48
M  V30 54 1 8 49
M  V30 55 1 10 50
M  V30 56 1 11 51
M  V30 57 1 14 52
M  V30 58 1 15 53
M  V30 59 1 15 54
M  V30 60 1 16 55
M  V30 61 1 16 56
M  V30 62 1 18 57
M  V30 63 1 18 58
M  V30 64 1 18 59
M  V30 65 1 19 60
M  V30 66 1 19 61
M  V30 67 1 20 62
M  V30 68 1 20 63
M  V30 69 1 26 64
M  V30 70 1 27 65
M  V30 71 1 29 66
M  V30 72 1 35 67
M  V30 73 1 38 68
M  V30 74 1 39 69
M  V30 75 1 40 70
M  V30 76 1 42 71
M  V30 77 1 42 72
M  V30 78 1 43 73
M  V30 79 1 43 74
M  V30 END BOND
M  V30 END CTAB
M  END
>  <Dataset>  (591) 
ChEMBL_Kinases

>  <Ligand_Instance>  (591) 
nan

>  <PDB_ID>  (591) 
nan

>  <Standardized_SMILES>  (591) 
Cc1ccc(C(=O)Nc2ccc(OC3CCN(C)CC3)c(C(F)(F)F)c2)cc1NC(=O)C1(c2ncnc3[nH]ccc23)CC1

>  <Name>  (591) 
nan

>  <Pocket>  (591) 
nan

>  <ATP_Site>  (591) 
nan

>  <Peripheral>  (591) 
nan

>  <Num_H_Atoms_ProtBoundConf>  (591) 
nan

>  <Num_Resolved_Atoms>  (591) 
nan

>  <Num_Not_Resolved_Atoms>  (591) 
nan

$$$$
CHEMBL4586256
     RDKit          3D

  0  0  0  0  0  0  0  0  0  0999 V3000
M  V30 BEGIN CTAB
M  V30 COUNTS 44 46 0 0 0
M  V30 BEGIN ATOM
M  V30 1 C 1.163608 -3.699763 -0.602611 0
M  V30 2 C 0.941775 -2.221393 -0.335185 0
M  V30 3 C 0.565355 -1.576960 -1.655166 0
M  V30 4 C 2.203397 -1.544149 0.114579 0
M  V30 5 S 2.932730 -2.133752 1.574057 0
M  V30 6 C 3.426330 -3.806932 1.583555 0
M  V30 7 O 4.135474 -1.269459 1.875676 0
M  V30 8 O 1.983685 -1.897962 2.737873 0
M  V30 9 N -0.164242 -2.085294 0.590926 0
M  V30 10 C -0.649316 -0.806878 0.984139 0
M  V30 11 N -0.144688 0.353169 0.535301 0
M  V30 12 C -0.553077 1.572836 0.856672 0
M  V30 13 C 0.080301 2.762512 0.298417 0
M  V30 14 C -0.362115 4.022881 0.647248 0
M  V30 15 C 0.244433 5.147478 0.112783 0
M  V30 16 N 1.280210 5.051355 -0.760177 0
M  V30 17 C 1.711770 3.804111 -1.100100 0
M  V30 18 C 1.132958 2.636969 -0.588197 0
M  V30 19 N -1.578246 1.716018 1.720028 0
M  V30 20 C -2.179084 0.623983 2.248834 0
M  V30 21 C -3.228258 0.749264 3.133033 0
M  V30 22 N -3.828096 -0.357977 3.661554 0
M  V30 23 C -3.380606 -1.599146 3.307613 0
M  V30 24 C -2.328544 -1.688790 2.420303 0
M  V30 25 C -1.692094 -0.605812 1.861260 0
M  V30 26 H 0.404251 -4.083064 -1.346136 0
M  V30 27 H 2.156667 -3.897168 -0.998481 0
M  V30 28 H 0.981258 -4.317758 0.298944 0
M  V30 29 H -0.472315 -1.803182 -1.952115 0
M  V30 30 H 1.293647 -1.977584 -2.406908 0
M  V30 31 H 0.776160 -0.501474 -1.553903 0
M  V30 32 H 2.915852 -1.657611 -0.757471 0
M  V30 33 H 2.021080 -0.457409 0.163631 0
M  V30 34 H 2.667010 -4.515653 1.984810 0
M  V30 35 H 4.271753 -3.895557 2.330508 0
M  V30 36 H 3.888251 -4.147793 0.634249 0
M  V30 37 H -0.587993 -2.960819 0.955882 0
M  V30 38 H -1.175106 4.184702 1.330736 0
M  V30 39 H -0.052607 6.164163 0.343615 0
M  V30 40 H 2.546499 3.752477 -1.804069 0
M  V30 41 H 1.527143 1.686420 -0.902315 0
M  V30 42 H -3.541897 1.758440 3.378301 0
M  V30 43 H -3.880699 -2.454360 3.746927 0
M  V30 44 H -2.054732 -2.693897 2.208969 0
M  V30 END ATOM
M  V30 BEGIN BOND
M  V30 1 1 1 2
M  V30 2 1 2 3
M  V30 3 1 2 4
M  V30 4 1 4 5
M  V30 5 1 5 6
M  V30 6 2 5 7
M  V30 7 2 5 8
M  V30 8 1 2 9
M  V30 9 1 9 10
M  V30 10 2 10 11
M  V30 11 1 11 12
M  V30 12 1 12 13
M  V30 13 2 13 14
M  V30 14 1 14 15
M  V30 15 2 15 16
M  V30 16 1 16 17
M  V30 17 2 17 18
M  V30 18 2 12 19
M  V30 19 1 19 20
M  V30 20 2 20 21
M  V30 21 1 21 22
M  V30 22 2 22 23
M  V30 23 1 23 24
M  V30 24 2 24 25
M  V30 25 1 25 10
M  V30 26 1 18 13
M  V30 27 1 25 20
M  V30 28 1 1 26
M  V30 29 1 1 27
M  V30 30 1 1 28
M  V30 31 1 3 29
M  V30 32 1 3 30
M  V30 33 1 3 31
M  V30 34 1 4 32
M  V30 35 1 4 33
M  V30 36 1 6 34
M  V30 37 1 6 35
M  V30 38 1 6 36
M  V30 39 1 9 37
M  V30 40 1 14 38
M  V30 41 1 15 39
M  V30 42 1 17 40
M  V30 43 1 18 41
M  V30 44 1 21 42
M  V30 45 1 23 43
M  V30 46 1 24 44
M  V30 END BOND
M  V30 END CTAB
M  END
>  <Dataset>  (592) 
ChEMBL_Kinases

>  <Ligand_Instance>  (592) 
nan

>  <PDB_ID>  (592) 
nan

>  <Standardized_SMILES>  (592) 
CC(C)(CS(C)(=O)=O)Nc1nc(-c2ccncc2)nc2cnccc12

>  <Name>  (592) 
nan

>  <Pocket>  (592) 
nan

>  <ATP_Site>  (592) 
nan

>  <Peripheral>  (592) 
nan

>  <Num_H_Atoms_ProtBoundConf>  (592) 
nan

>  <Num_Resolved_Atoms>  (592) 
nan

>  <Num_Not_Resolved_Atoms>  (592) 
nan

$$$$
CHEMBL461262
     RDKit          3D

  0  0  0  0  0  0  0  0  0  0999 V3000
M  V30 BEGIN CTAB
M  V30 COUNTS 48 51 0 0 0
M  V30 BEGIN ATOM
M  V30 1 O 5.434350 -4.288971 -3.392932 0
M  V30 2 N 4.652242 -3.500835 -3.963444 0 CHG=1 VAL=4
M  V30 3 O 4.292379 -3.744373 -5.263630 0 CHG=-1 VAL=1
M  V30 4 C 4.144176 -2.365899 -3.275900 0
M  V30 5 C 4.505195 -2.122176 -1.966665 0
M  V30 6 C 3.978023 -1.005899 -1.353276 0
M  V30 7 C 3.113351 -0.115172 -1.961205 0
M  V30 8 N 2.599460 1.016345 -1.276848 0
M  V30 9 C 3.021670 1.195562 0.100995 0
M  V30 10 C 2.389641 2.418282 0.720565 0
M  V30 11 N 0.952642 2.360605 0.734599 0
M  V30 12 C 0.291002 1.305277 1.415482 0
M  V30 13 N 0.997069 0.362450 2.059421 0
M  V30 14 C 0.419993 -0.654719 2.713482 0
M  V30 15 C -0.949319 -0.801270 2.768613 0
M  V30 16 C -1.669228 -1.859235 3.446336 0
M  V30 17 N -0.919328 -2.829157 4.003718 0
M  V30 18 C -1.676031 -3.762409 4.592874 0
M  V30 19 C -2.979885 -3.374537 4.406451 0
M  V30 20 N -2.914780 -2.244202 3.723757 0
M  V30 21 C -1.671507 0.162061 2.109228 0
M  V30 22 C -3.108730 0.295740 1.940592 0
M  V30 23 C -3.623759 -0.466398 0.882237 0
M  V30 24 C -4.966839 -0.449157 0.572559 0
M  V30 25 C -5.796040 0.356908 1.353547 0
M  V30 26 Cl -7.521188 0.468625 1.064944 0
M  V30 27 C -5.283809 1.101822 2.390868 0
M  V30 28 C -3.946869 1.102068 2.720385 0
M  V30 29 Cl -3.169049 1.993623 4.000045 0
M  V30 30 N -1.049714 1.186806 1.452205 0
M  V30 31 N 2.802031 -0.414043 -3.243140 0
M  V30 32 C 3.290039 -1.492453 -3.887524 0
M  V30 33 H 5.178289 -2.810624 -1.489610 0
M  V30 34 H 4.294589 -0.861044 -0.325609 0
M  V30 35 H 1.954103 1.654979 -1.791487 0
M  V30 36 H 4.118644 1.451991 0.018773 0
M  V30 37 H 2.964617 0.295621 0.715209 0
M  V30 38 H 2.719272 3.310504 0.150043 0
M  V30 39 H 2.768585 2.523492 1.735128 0
M  V30 40 H 0.381446 3.086290 0.250499 0
M  V30 41 H 1.022961 -1.405601 3.228038 0
M  V30 42 H -1.394184 -4.670585 5.130478 0
M  V30 43 H -3.870428 -3.880295 4.743077 0
M  V30 44 H -3.712614 -1.667630 3.412955 0
M  V30 45 H -3.006091 -1.099216 0.262103 0
M  V30 46 H -5.397129 -1.020319 -0.230119 0
M  V30 47 H -5.893480 1.728354 3.006306 0
M  V30 48 H 2.978255 -1.638399 -4.909398 0
M  V30 END ATOM
M  V30 BEGIN BOND
M  V30 1 2 1 2
M  V30 2 1 2 3
M  V30 3 1 2 4
M  V30 4 2 4 5
M  V30 5 1 5 6
M  V30 6 2 6 7
M  V30 7 1 7 8
M  V30 8 1 8 9
M  V30 9 1 9 10
M  V30 10 1 10 11
M  V30 11 1 11 12
M  V30 12 2 12 13
M  V30 13 1 13 14
M  V30 14 2 14 15
M  V30 15 1 15 16
M  V30 16 2 16 17
M  V30 17 1 17 18
M  V30 18 2 18 19
M  V30 19 1 19 20
M  V30 20 1 15 21
M  V30 21 1 21 22
M  V30 22 2 22 23
M  V30 23 1 23 24
M  V30 24 2 24 25
M  V30 25 1 25 26
M  V30 26 1 25 27
M  V30 27 2 27 28
M  V30 28 1 28 29
M  V30 29 2 21 30
M  V30 30 1 7 31
M  V30 31 2 31 32
M  V30 32 1 32 4
M  V30 33 1 30 12
M  V30 34 1 20 16
M  V30 35 1 28 22
M  V30 36 1 5 33
M  V30 37 1 6 34
M  V30 38 1 8 35
M  V30 39 1 9 36
M  V30 40 1 9 37
M  V30 41 1 10 38
M  V30 42 1 10 39
M  V30 43 1 11 40
M  V30 44 1 14 41
M  V30 45 1 18 42
M  V30 46 1 19 43
M  V30 47 1 20 44
M  V30 48 1 23 45
M  V30 49 1 24 46
M  V30 50 1 27 47
M  V30 51 1 32 48
M  V30 END BOND
M  V30 END CTAB
M  END
>  <Dataset>  (593) 
ChEMBL_Kinases

>  <Ligand_Instance>  (593) 
nan

>  <PDB_ID>  (593) 
nan

>  <Standardized_SMILES>  (593) 
O=[N+]([O-])c1ccc(NCCNc2ncc(-c3ncc[nH]3)c(-c3ccc(Cl)cc3Cl)n2)nc1

>  <Name>  (593) 
nan

>  <Pocket>  (593) 
nan

>  <ATP_Site>  (593) 
nan

>  <Peripheral>  (593) 
nan

>  <Num_H_Atoms_ProtBoundConf>  (593) 
nan

>  <Num_Resolved_Atoms>  (593) 
nan

>  <Num_Not_Resolved_Atoms>  (593) 
nan

$$$$
CHEMBL4586082
     RDKit          3D

  0  0  0  0  0  0  0  0  0  0999 V3000
M  V30 BEGIN CTAB
M  V30 COUNTS 73 78 0 0 0
M  V30 BEGIN ATOM
M  V30 1 C -0.375695 -4.102132 2.598749 0
M  V30 2 C 0.811098 -3.827166 1.748494 0
M  V30 3 C 1.082959 -2.542146 1.320944 0
M  V30 4 C 2.161868 -2.179363 0.527258 0
M  V30 5 C 2.281356 -0.747345 0.166753 0
M  V30 6 C 3.438450 -0.005108 0.234589 0
M  V30 7 N 3.033625 1.206182 -0.183935 0
M  V30 8 N 1.744524 1.182596 -0.475447 0
M  V30 9 C 0.996154 2.226257 -0.929264 0
M  V30 10 N 1.391142 3.534670 -1.208412 0
M  V30 11 C 1.005482 4.841586 -1.568096 0
M  V30 12 C 0.286397 5.671910 -0.551831 0
M  V30 13 C 1.100248 5.867680 0.717584 0
M  V30 14 C 0.666337 4.879777 1.786800 0
M  V30 15 O -0.674456 5.131609 2.050075 0
M  V30 16 C -1.426145 4.670609 0.984995 0
M  V30 17 C -1.149247 5.386184 -0.313039 0
M  V30 18 C -0.333368 1.950073 -1.163357 0
M  V30 19 C -0.935864 0.700951 -0.967156 0
M  V30 20 N -2.303928 0.402757 -1.198169 0
M  V30 21 C -2.848765 -0.935552 -0.963600 0 CFG=1
M  V30 22 C -2.704281 -1.379255 0.450140 0
M  V30 23 C -3.944692 -0.865347 1.121120 0
M  V30 24 C -4.997446 -0.813767 0.056329 0
M  V30 25 C -4.310318 -0.884269 -1.264321 0 CFG=1
M  V30 26 O -4.577658 0.267570 -2.027345 0
M  V30 27 N -0.097622 -0.272913 -0.511296 0
M  V30 28 C 1.197626 -0.022015 -0.278427 0
M  V30 29 C 3.032800 -3.178426 0.133454 0
M  V30 30 C 2.790602 -4.477983 0.543811 0
M  V30 31 C 1.698995 -4.795177 1.336880 0
M  V30 32 C 1.470783 -6.198115 1.749975 0
M  V30 33 O 1.239952 -6.668118 2.891023 0
M  V30 34 N 1.547627 -7.058800 0.594704 0
M  V30 35 C 1.373793 -8.481026 0.629970 0
M  V30 36 C 2.303744 -9.326859 -0.183377 0
M  V30 37 C 0.865672 -9.271449 -0.488729 0
M  V30 38 H -0.127447 -4.729381 3.475038 0
M  V30 39 H -0.804512 -3.155611 3.009261 0
M  V30 40 H -1.190926 -4.602282 2.043023 0
M  V30 41 H 0.390078 -1.772738 1.642228 0
M  V30 42 H 4.417973 -0.325433 0.547509 0
M  V30 43 H 2.456530 3.522145 -1.090184 0
M  V30 44 H 1.906615 5.434427 -1.904756 0
M  V30 45 H 0.358345 4.869378 -2.493296 0
M  V30 46 H 0.297372 6.728068 -1.014670 0
M  V30 47 H 2.171964 5.780941 0.459412 0
M  V30 48 H 0.865316 6.868256 1.132578 0
M  V30 49 H 1.311648 5.056613 2.669527 0
M  V30 50 H 0.801549 3.835008 1.485295 0
M  V30 51 H -2.497057 4.901881 1.259190 0
M  V30 52 H -1.345100 3.583670 0.930321 0
M  V30 53 H -1.756220 6.357119 -0.268651 0
M  V30 54 H -1.608747 4.842978 -1.140501 0
M  V30 55 H -1.061980 2.631482 -1.524751 0
M  V30 56 H -2.912244 1.201798 -1.549515 0
M  V30 57 H -2.322527 -1.669079 -1.651513 0
M  V30 58 H -1.779138 -1.042244 0.955886 0
M  V30 59 H -2.670941 -2.482320 0.461065 0
M  V30 60 H -3.718117 0.132286 1.546339 0
M  V30 61 H -4.250411 -1.603647 1.899219 0
M  V30 62 H -5.691706 -1.677473 0.116295 0
M  V30 63 H -5.552810 0.120027 0.168452 0
M  V30 64 H -4.656515 -1.728471 -1.897843 0
M  V30 65 H -5.403750 0.114765 -2.545901 0
M  V30 66 H 3.873121 -2.870584 -0.488719 0
M  V30 67 H 3.488971 -5.258936 0.224534 0
M  V30 68 H 1.737861 -6.740798 -0.401049 0
M  V30 69 H 1.138592 -8.868399 1.657620 0
M  V30 70 H 2.739501 -10.198902 0.316850 0
M  V30 71 H 3.050109 -8.750707 -0.777105 0
M  V30 72 H 0.272816 -10.194817 -0.297575 0
M  V30 73 H 0.470773 -8.702728 -1.358329 0
M  V30 END ATOM
M  V30 BEGIN BOND
M  V30 1 1 1 2
M  V30 2 2 2 3
M  V30 3 1 3 4
M  V30 4 1 4 5
M  V30 5 1 5 6
M  V30 6 2 6 7
M  V30 7 1 7 8
M  V30 8 1 8 9
M  V30 9 1 9 10
M  V30 10 1 10 11
M  V30 11 1 11 12
M  V30 12 1 12 13
M  V30 13 1 13 14
M  V30 14 1 14 15
M  V30 15 1 15 16
M  V30 16 1 16 17
M  V30 17 2 9 18
M  V30 18 1 18 19
M  V30 19 1 19 20
M  V30 20 1 20 21
M  V30 21 1 21 22
M  V30 22 1 22 23
M  V30 23 1 23 24
M  V30 24 1 24 25
M  V30 25 1 25 26
M  V30 26 2 19 27
M  V30 27 1 27 28
M  V30 28 2 4 29
M  V30 29 1 29 30
M  V30 30 2 30 31
M  V30 31 1 31 32
M  V30 32 2 32 33
M  V30 33 1 32 34
M  V30 34 1 34 35
M  V30 35 1 35 36
M  V30 36 1 36 37
M  V30 37 1 31 2
M  V30 38 1 37 35
M  V30 39 2 28 5
M  V30 40 1 28 8
M  V30 41 1 17 12
M  V30 42 1 25 21
M  V30 43 1 1 38
M  V30 44 1 1 39
M  V30 45 1 1 40
M  V30 46 1 3 41
M  V30 47 1 6 42
M  V30 48 1 10 43
M  V30 49 1 11 44
M  V30 50 1 11 45
M  V30 51 1 12 46
M  V30 52 1 13 47
M  V30 53 1 13 48
M  V30 54 1 14 49
M  V30 55 1 14 50
M  V30 56 1 16 51
M  V30 57 1 16 52
M  V30 58 1 17 53
M  V30 59 1 17 54
M  V30 60 1 18 55
M  V30 61 1 20 56
M  V30 62 1 21 57 CFG=3
M  V30 63 1 22 58
M  V30 64 1 22 59
M  V30 65 1 23 60
M  V30 66 1 23 61
M  V30 67 1 24 62
M  V30 68 1 24 63
M  V30 69 1 25 64 CFG=3
M  V30 70 1 26 65
M  V30 71 1 29 66
M  V30 72 1 30 67
M  V30 73 1 34 68
M  V30 74 1 35 69
M  V30 75 1 36 70
M  V30 76 1 36 71
M  V30 77 1 37 72
M  V30 78 1 37 73
M  V30 END BOND
M  V30 END CTAB
M  END
>  <Dataset>  (594) 
ChEMBL_Kinases

>  <Ligand_Instance>  (594) 
nan

>  <PDB_ID>  (594) 
nan

>  <Standardized_SMILES>  (594) 
Cc1cc(-c2cnn3c(NCC4CCOCC4)cc(N[C@H]4CCC[C@H]4O)nc23)ccc1C(=O)NC1CC1

>  <Name>  (594) 
nan

>  <Pocket>  (594) 
nan

>  <ATP_Site>  (594) 
nan

>  <Peripheral>  (594) 
nan

>  <Num_H_Atoms_ProtBoundConf>  (594) 
nan

>  <Num_Resolved_Atoms>  (594) 
nan

>  <Num_Not_Resolved_Atoms>  (594) 
nan

$$$$
CHEMBL4585120
     RDKit          3D

  0  0  0  0  0  0  0  0  0  0999 V3000
M  V30 BEGIN CTAB
M  V30 COUNTS 51 54 0 0 0
M  V30 BEGIN ATOM
M  V30 1 C 2.401125 -2.663082 3.479603 0
M  V30 2 N 3.649672 -3.065623 2.851579 0
M  V30 3 N 4.427827 -3.997903 3.408404 0
M  V30 4 C 5.520257 -4.234657 2.698056 0
M  V30 5 C 5.351632 -3.364675 1.647743 0
M  V30 6 Cl 6.641955 -3.405388 0.476262 0
M  V30 7 C 4.202286 -2.621751 1.707793 0
M  V30 8 C 3.701479 -1.636157 0.812569 0
M  V30 9 C 2.517802 -0.957058 0.994503 0
M  V30 10 C 2.242949 -0.046428 -0.011809 0
M  V30 11 C 1.151582 0.888956 -0.274719 0
M  V30 12 O 1.124433 1.633096 -1.285205 0
M  V30 13 N 0.080628 0.938035 0.677266 0
M  V30 14 C -1.053659 1.809260 0.544604 0 CFG=2
M  V30 15 C -1.219809 2.794628 1.671128 0
M  V30 16 N -2.553771 3.360318 1.537272 0
M  V30 17 C -3.030745 3.396454 0.186332 0
M  V30 18 C -3.311468 1.989891 -0.333867 0
M  V30 19 C -2.353972 1.053061 0.399696 0 CFG=1
M  V30 20 C -2.184964 -0.219771 -0.327039 0
M  V30 21 C -1.627800 -0.399231 -1.583601 0
M  V30 22 C -1.539323 -1.671664 -2.135973 0
M  V30 23 C -1.985370 -2.799336 -1.490610 0
M  V30 24 C -2.541949 -2.634495 -0.239456 0
M  V30 25 C -3.032939 -3.845376 0.479557 0
M  V30 26 F -3.833792 -4.527944 -0.441991 0
M  V30 27 F -1.973916 -4.669858 0.754053 0
M  V30 28 F -3.747758 -3.521904 1.601043 0
M  V30 29 C -2.624291 -1.383597 0.293529 0
M  V30 30 O 3.282777 -0.159935 -0.844353 0
M  V30 31 C 4.101573 -1.064578 -0.364582 0
M  V30 32 Cl 5.555654 -1.430708 -1.239994 0
M  V30 33 H 1.500695 -2.951715 2.902620 0
M  V30 34 H 2.298369 -3.279318 4.423698 0
M  V30 35 H 2.408149 -1.625212 3.858565 0
M  V30 36 H 6.232141 -4.961135 3.031535 0
M  V30 37 H 1.733883 -0.953464 1.736434 0
M  V30 38 H 0.019795 0.355731 1.546194 0
M  V30 39 H -0.927070 2.398890 -0.397016 0
M  V30 40 H -0.489084 3.599031 1.531614 0
M  V30 41 H -1.194786 2.293041 2.651219 0
M  V30 42 H -2.685780 4.238410 2.048033 0
M  V30 43 H -3.967051 3.969874 0.184876 0
M  V30 44 H -2.328572 3.913920 -0.493853 0
M  V30 45 H -4.367350 1.752159 -0.105425 0
M  V30 46 H -3.113075 2.018266 -1.430073 0
M  V30 47 H -2.839853 0.900391 1.407520 0
M  V30 48 H -1.284536 0.506331 -2.069553 0
M  V30 49 H -1.090306 -1.739270 -3.126799 0
M  V30 50 H -1.919911 -3.780750 -1.910622 0
M  V30 51 H -3.076061 -1.324467 1.287902 0
M  V30 END ATOM
M  V30 BEGIN BOND
M  V30 1 1 1 2
M  V30 2 1 2 3
M  V30 3 2 3 4
M  V30 4 1 4 5
M  V30 5 1 5 6
M  V30 6 2 5 7
M  V30 7 1 7 8
M  V30 8 1 8 9
M  V30 9 2 9 10
M  V30 10 1 10 11
M  V30 11 2 11 12
M  V30 12 1 11 13
M  V30 13 1 13 14
M  V30 14 1 14 15
M  V30 15 1 15 16
M  V30 16 1 16 17
M  V30 17 1 17 18
M  V30 18 1 18 19
M  V30 19 1 19 20
M  V30 20 2 20 21
M  V30 21 1 21 22
M  V30 22 2 22 23
M  V30 23 1 23 24
M  V30 24 1 24 25
M  V30 25 1 25 26
M  V30 26 1 25 27
M  V30 27 1 25 28
M  V30 28 2 24 29
M  V30 29 1 10 30
M  V30 30 1 30 31
M  V30 31 1 31 32
M  V30 32 1 7 2
M  V30 33 2 31 8
M  V30 34 1 19 14
M  V30 35 1 29 20
M  V30 36 1 1 33
M  V30 37 1 1 34
M  V30 38 1 1 35
M  V30 39 1 4 36
M  V30 40 1 9 37
M  V30 41 1 13 38
M  V30 42 1 14 39 CFG=3
M  V30 43 1 15 40
M  V30 44 1 15 41
M  V30 45 1 16 42
M  V30 46 1 17 43
M  V30 47 1 17 44
M  V30 48 1 18 45
M  V30 49 1 18 46
M  V30 50 1 19 47 CFG=1
M  V30 51 1 21 48
M  V30 52 1 22 49
M  V30 53 1 23 50
M  V30 54 1 29 51
M  V30 END BOND
M  V30 END CTAB
M  END
>  <Dataset>  (595) 
ChEMBL_Kinases

>  <Ligand_Instance>  (595) 
nan

>  <PDB_ID>  (595) 
nan

>  <Standardized_SMILES>  (595) 
Cn1ncc(Cl)c1-c1cc(C(=O)N[C@@H]2CNCC[C@H]2c2cccc(C(F)(F)F)c2)oc1Cl

>  <Name>  (595) 
nan

>  <Pocket>  (595) 
nan

>  <ATP_Site>  (595) 
nan

>  <Peripheral>  (595) 
nan

>  <Num_H_Atoms_ProtBoundConf>  (595) 
nan

>  <Num_Resolved_Atoms>  (595) 
nan

>  <Num_Not_Resolved_Atoms>  (595) 
nan

$$$$
CHEMBL4585874
     RDKit          3D

  0  0  0  0  0  0  0  0  0  0999 V3000
M  V30 BEGIN CTAB
M  V30 COUNTS 57 60 0 0 0
M  V30 BEGIN ATOM
M  V30 1 C 1.031486 -6.664119 0.049550 0
M  V30 2 C 0.205379 -5.492636 0.496963 0 CFG=2
M  V30 3 C 1.021640 -4.415465 1.191048 0
M  V30 4 N 0.069308 -3.403682 1.574039 0
M  V30 5 C 0.514747 -2.057493 1.364726 0
M  V30 6 C 1.864149 -1.897257 1.520612 0
M  V30 7 C 2.416620 -0.651621 1.332954 0
M  V30 8 C 1.451199 0.199712 1.019299 0
M  V30 9 O 1.702705 1.604553 0.698162 0
M  V30 10 C 2.979717 2.139626 0.678727 0
M  V30 11 C 2.838277 3.569732 0.283395 0
M  V30 12 C 2.600277 4.626690 1.149650 0
M  V30 13 C 2.424728 5.965032 0.963753 0
M  V30 14 C 2.503655 6.334084 -0.369309 0
M  V30 15 C 2.741556 5.397264 -1.367050 0
M  V30 16 C 2.904511 4.060530 -1.058274 0
M  V30 17 C 0.189724 0.651381 0.752958 0
M  V30 18 C -1.158196 0.907392 0.316188 0
M  V30 19 O -1.629046 1.923765 0.886286 0
M  V30 20 N -1.985676 0.212481 -0.623508 0
M  V30 21 C -3.216350 0.132272 -1.283909 0
M  V30 22 C -4.391459 -0.488559 -0.957447 0
M  V30 23 C -5.423494 -0.372674 -1.858397 0
M  V30 24 N -5.309844 0.310964 -3.005174 0
M  V30 25 N -4.134831 0.911285 -3.290543 0
M  V30 26 C -3.076271 0.855471 -2.481206 0
M  V30 27 C -0.188868 -0.836459 1.011773 0
M  V30 28 C -1.238796 -3.675088 2.136283 0
M  V30 29 C -1.811084 -4.834699 1.304243 0 CFG=2
M  V30 30 C -3.144714 -5.280318 1.802681 0
M  V30 31 O -0.835961 -5.840366 1.325496 0
M  V30 32 H 2.088824 -6.335570 0.055219 0
M  V30 33 H 0.965271 -7.495573 0.755841 0
M  V30 34 H 0.766010 -6.903716 -0.998568 0
M  V30 35 H -0.262097 -4.977736 -0.392720 0
M  V30 36 H 1.454645 -4.863381 2.135482 0
M  V30 37 H 1.845052 -4.042043 0.548833 0
M  V30 38 H 2.654249 -2.579173 1.772117 0
M  V30 39 H 3.385032 -0.150644 1.353221 0
M  V30 40 H 3.649606 1.637630 -0.069438 0
M  V30 41 H 3.490106 2.117196 1.647328 0
M  V30 42 H 2.564509 4.252372 2.196843 0
M  V30 43 H 2.242688 6.586991 1.839204 0
M  V30 44 H 2.348345 7.410991 -0.498165 0
M  V30 45 H 2.792763 5.753420 -2.389571 0
M  V30 46 H 3.086350 3.332119 -1.849733 0
M  V30 47 H -1.437489 -0.626440 -0.994464 0
M  V30 48 H -4.196151 -0.947284 0.011146 0
M  V30 49 H -6.288273 -0.917405 -1.453623 0
M  V30 50 H -2.250766 1.406022 -2.892089 0
M  V30 51 H -1.198703 -1.394385 0.989328 0
M  V30 52 H -1.089353 -4.151189 3.153710 0
M  V30 53 H -1.914546 -2.836604 2.183688 0
M  V30 54 H -1.924456 -4.538991 0.233522 0
M  V30 55 H -3.990785 -4.961716 1.130093 0
M  V30 56 H -3.405875 -4.795910 2.786259 0
M  V30 57 H -3.228030 -6.384532 1.873660 0
M  V30 END ATOM
M  V30 BEGIN BOND
M  V30 1 1 1 2
M  V30 2 1 2 3
M  V30 3 1 3 4
M  V30 4 1 4 5
M  V30 5 2 5 6
M  V30 6 1 6 7
M  V30 7 2 7 8
M  V30 8 1 8 9
M  V30 9 1 9 10
M  V30 10 1 10 11
M  V30 11 2 11 12
M  V30 12 1 12 13
M  V30 13 2 13 14
M  V30 14 1 14 15
M  V30 15 2 15 16
M  V30 16 1 8 17
M  V30 17 1 17 18
M  V30 18 2 18 19
M  V30 19 1 18 20
M  V30 20 1 20 21
M  V30 21 2 21 22
M  V30 22 1 22 23
M  V30 23 2 23 24
M  V30 24 1 24 25
M  V30 25 2 25 26
M  V30 26 2 17 27
M  V30 27 1 4 28
M  V30 28 1 28 29
M  V30 29 1 29 30
M  V30 30 1 29 31
M  V30 31 1 31 2
M  V30 32 1 27 5
M  V30 33 1 16 11
M  V30 34 1 26 21
M  V30 35 1 1 32
M  V30 36 1 1 33
M  V30 37 1 1 34
M  V30 38 1 2 35 CFG=3
M  V30 39 1 3 36
M  V30 40 1 3 37
M  V30 41 1 6 38
M  V30 42 1 7 39
M  V30 43 1 10 40
M  V30 44 1 10 41
M  V30 45 1 12 42
M  V30 46 1 13 43
M  V30 47 1 14 44
M  V30 48 1 15 45
M  V30 49 1 16 46
M  V30 50 1 20 47
M  V30 51 1 22 48
M  V30 52 1 23 49
M  V30 53 1 26 50
M  V30 54 1 27 51
M  V30 55 1 28 52
M  V30 56 1 28 53
M  V30 57 1 29 54 CFG=3
M  V30 58 1 30 55
M  V30 59 1 30 56
M  V30 60 1 30 57
M  V30 END BOND
M  V30 END CTAB
M  END
>  <Dataset>  (596) 
ChEMBL_Kinases

>  <Ligand_Instance>  (596) 
nan

>  <PDB_ID>  (596) 
nan

>  <Standardized_SMILES>  (596) 
C[C@@H]1CN(c2ccc(OCc3ccccc3)c(C(=O)Nc3ccnnc3)c2)C[C@H](C)O1

>  <Name>  (596) 
nan

>  <Pocket>  (596) 
nan

>  <ATP_Site>  (596) 
nan

>  <Peripheral>  (596) 
nan

>  <Num_H_Atoms_ProtBoundConf>  (596) 
nan

>  <Num_Resolved_Atoms>  (596) 
nan

>  <Num_Not_Resolved_Atoms>  (596) 
nan

$$$$
CHEMBL4585735
     RDKit          3D

  0  0  0  0  0  0  0  0  0  0999 V3000
M  V30 BEGIN CTAB
M  V30 COUNTS 51 54 0 0 0
M  V30 BEGIN ATOM
M  V30 1 C 7.016568 -2.405859 5.451149 0
M  V30 2 C 6.572014 -1.641343 4.238866 0
M  V30 3 O 7.043969 -1.955914 3.102205 0
M  V30 4 N 5.634387 -0.590730 4.421562 0
M  V30 5 C 5.299688 0.052743 3.177880 0
M  V30 6 C 6.068098 1.140878 2.771777 0
M  V30 7 C 5.769565 1.776750 1.583927 0
M  V30 8 C 4.716163 1.348513 0.788855 0
M  V30 9 Cl 4.288261 2.115504 -0.730145 0
M  V30 10 C 3.964299 0.267519 1.206925 0
M  V30 11 N 2.846486 -0.268992 0.467733 0
M  V30 12 C 1.634042 0.365650 0.857084 0
M  V30 13 O 1.903415 1.211790 1.736943 0
M  V30 14 C 0.383680 -0.070321 0.191115 0
M  V30 15 S 0.290271 -1.305133 -1.035604 0
M  V30 16 C -1.550537 -1.148831 -1.236439 0
M  V30 17 N -2.421341 -1.805579 -2.047576 0
M  V30 18 C -3.735716 -1.520924 -2.022783 0
M  V30 19 N -4.069298 -0.564318 -1.150974 0
M  V30 20 C -3.252952 0.110463 -0.332705 0
M  V30 21 O -3.758860 0.973888 0.414083 0
M  V30 22 C -1.899969 -0.150904 -0.326818 0
M  V30 23 C -0.888052 0.392023 0.399428 0
M  V30 24 C -1.108696 1.478268 1.425680 0
M  V30 25 C -5.450557 -0.095882 -0.958516 0
M  V30 26 C -6.455670 -0.990171 -1.587539 0
M  V30 27 C -6.153629 -2.407947 -1.191478 0
M  V30 28 C -5.593776 -3.129959 -2.406572 0
M  V30 29 C -4.421872 -2.388956 -3.000442 0
M  V30 30 C 4.250495 -0.378902 2.392494 0
M  V30 31 H 7.661834 -3.257249 5.168635 0
M  V30 32 H 6.122318 -2.831825 5.956089 0
M  V30 33 H 7.559914 -1.759944 6.171243 0
M  V30 34 H 5.247264 -0.335021 5.365113 0
M  V30 35 H 6.885132 1.458968 3.406321 0
M  V30 36 H 6.360867 2.633904 1.246206 0
M  V30 37 H 2.929018 -1.035873 -0.267298 0
M  V30 38 H -1.028879 2.483771 1.008300 0
M  V30 39 H -0.362274 1.355547 2.262122 0
M  V30 40 H -2.081004 1.391578 1.936791 0
M  V30 41 H -5.558771 0.005128 0.135682 0
M  V30 42 H -5.552554 0.931869 -1.369457 0
M  V30 43 H -7.448454 -0.708151 -1.205148 0
M  V30 44 H -6.401448 -0.858109 -2.694167 0
M  V30 45 H -5.429239 -2.504665 -0.381005 0
M  V30 46 H -7.105813 -2.918095 -0.917885 0
M  V30 47 H -5.186264 -4.087501 -2.020629 0
M  V30 48 H -6.363057 -3.377535 -3.153531 0
M  V30 49 H -4.840652 -1.763739 -3.813869 0
M  V30 50 H -3.757135 -3.120551 -3.469346 0
M  V30 51 H 3.676423 -1.242538 2.760380 0
M  V30 END ATOM
M  V30 BEGIN BOND
M  V30 1 1 1 2
M  V30 2 2 2 3
M  V30 3 1 2 4
M  V30 4 1 4 5
M  V30 5 2 5 6
M  V30 6 1 6 7
M  V30 7 2 7 8
M  V30 8 1 8 9
M  V30 9 1 8 10
M  V30 10 1 10 11
M  V30 11 1 11 12
M  V30 12 2 12 13
M  V30 13 1 12 14
M  V30 14 1 14 15
M  V30 15 1 15 16
M  V30 16 1 16 17
M  V30 17 2 17 18
M  V30 18 1 18 19
M  V30 19 1 19 20
M  V30 20 2 20 21
M  V30 21 1 20 22
M  V30 22 1 22 23
M  V30 23 1 23 24
M  V30 24 1 19 25
M  V30 25 1 25 26
M  V30 26 1 26 27
M  V30 27 1 27 28
M  V30 28 1 28 29
M  V30 29 2 10 30
M  V30 30 1 30 5
M  V30 31 2 23 14
M  V30 32 2 22 16
M  V30 33 1 29 18
M  V30 34 1 1 31
M  V30 35 1 1 32
M  V30 36 1 1 33
M  V30 37 1 4 34
M  V30 38 1 6 35
M  V30 39 1 7 36
M  V30 40 1 11 37
M  V30 41 1 24 38
M  V30 42 1 24 39
M  V30 43 1 24 40
M  V30 44 1 25 41
M  V30 45 1 25 42
M  V30 46 1 26 43
M  V30 47 1 26 44
M  V30 48 1 27 45
M  V30 49 1 27 46
M  V30 50 1 28 47
M  V30 51 1 28 48
M  V30 52 1 29 49
M  V30 53 1 29 50
M  V30 54 1 30 51
M  V30 END BOND
M  V30 END CTAB
M  END
>  <Dataset>  (597) 
ChEMBL_Kinases

>  <Ligand_Instance>  (597) 
nan

>  <PDB_ID>  (597) 
nan

>  <Standardized_SMILES>  (597) 
CC(=O)Nc1ccc(Cl)c(NC(=O)c2sc3nc4n(c(=O)c3c2C)CCCCC4)c1

>  <Name>  (597) 
nan

>  <Pocket>  (597) 
nan

>  <ATP_Site>  (597) 
nan

>  <Peripheral>  (597) 
nan

>  <Num_H_Atoms_ProtBoundConf>  (597) 
nan

>  <Num_Resolved_Atoms>  (597) 
nan

>  <Num_Not_Resolved_Atoms>  (597) 
nan

$$$$
CHEMBL461316
     RDKit          3D

  0  0  0  0  0  0  0  0  0  0999 V3000
M  V30 BEGIN CTAB
M  V30 COUNTS 55 58 0 0 0
M  V30 BEGIN ATOM
M  V30 1 C 3.611615 3.885229 5.484775 0
M  V30 2 C 2.973488 2.920108 4.527233 0
M  V30 3 N 3.860126 2.405336 3.589712 0
M  V30 4 C 4.862978 1.505918 3.933845 0
M  V30 5 C 5.972067 2.118146 4.742394 0
M  V30 6 C 3.665588 2.677582 2.210478 0
M  V30 7 C 2.420684 2.151562 1.649821 0
M  V30 8 C 1.170968 2.715968 1.520308 0
M  V30 9 C 0.141636 2.002107 0.948411 0
M  V30 10 C 0.278938 0.715825 0.478799 0
M  V30 11 C -0.808557 -0.046504 -0.126499 0
M  V30 12 C -2.048713 0.366209 -0.305698 0
M  V30 13 C -3.132255 -0.399448 -0.910483 0
M  V30 14 C -2.974649 -1.686812 -1.373555 0
M  V30 15 C -3.979945 -2.442788 -1.954200 0
M  V30 16 C -3.757149 -3.805946 -2.431460 0
M  V30 17 C -4.739312 -4.585256 -2.997552 0
M  V30 18 C -4.104228 -5.766181 -3.291138 0
M  V30 19 C -4.542366 -6.937886 -3.865383 0
M  V30 20 O -5.750459 -6.995764 -4.208924 0
M  V30 21 N -3.734445 -8.020456 -4.073833 0
M  V30 22 C -2.447523 -7.835127 -3.659823 0
M  V30 23 N -2.013999 -6.699175 -3.100673 0
M  V30 24 C -2.809761 -5.636782 -2.896684 0
M  V30 25 N -2.553963 -4.419557 -2.352174 0
M  V30 26 C -5.208218 -1.819820 -2.053732 0
M  V30 27 C -5.352933 -0.533195 -1.587219 0
M  V30 28 N -4.336791 0.146374 -1.033884 0
M  V30 29 C 1.528195 0.148593 0.606575 0
M  V30 30 C 2.584670 0.841856 1.178423 0
M  V30 31 H 2.750451 4.409365 5.989802 0
M  V30 32 H 4.167418 4.713187 4.998807 0
M  V30 33 H 4.204659 3.443340 6.278895 0
M  V30 34 H 2.043413 3.369998 4.066954 0
M  V30 35 H 2.511141 2.100491 5.182947 0
M  V30 36 H 5.276025 0.991608 3.017196 0
M  V30 37 H 4.458688 0.619294 4.529415 0
M  V30 38 H 5.915222 3.215451 4.646795 0
M  V30 39 H 6.980685 1.752092 4.381782 0
M  V30 40 H 5.831926 1.847783 5.797811 0
M  V30 41 H 4.543595 2.392873 1.596231 0
M  V30 42 H 3.597797 3.805106 2.107863 0
M  V30 43 H 1.121682 3.708915 1.895996 0
M  V30 44 H -0.797227 2.504556 0.883514 0
M  V30 45 H -0.601078 -1.047131 -0.468641 0
M  V30 46 H -2.251702 1.379429 0.040418 0
M  V30 47 H -2.027514 -2.183682 -1.302565 0
M  V30 48 H -5.768964 -4.301820 -3.160308 0
M  V30 49 H -4.133240 -8.866479 -4.509865 0
M  V30 50 H -1.823512 -8.717745 -3.839455 0
M  V30 51 H -1.653169 -4.065084 -1.974289 0
M  V30 52 H -6.046894 -2.355044 -2.500218 0
M  V30 53 H -6.308272 -0.008429 -1.649738 0
M  V30 54 H 1.657730 -0.880816 0.236900 0
M  V30 55 H 3.520536 0.261693 1.213142 0
M  V30 END ATOM
M  V30 BEGIN BOND
M  V30 1 1 1 2
M  V30 2 1 2 3
M  V30 3 1 3 4
M  V30 4 1 4 5
M  V30 5 1 3 6
M  V30 6 1 6 7
M  V30 7 2 7 8
M  V30 8 1 8 9
M  V30 9 2 9 10
M  V30 10 1 10 11
M  V30 11 2 11 12
M  V30 12 1 12 13
M  V30 13 2 13 14
M  V30 14 1 14 15
M  V30 15 1 15 16
M  V30 16 2 16 17
M  V30 17 1 17 18
M  V30 18 1 18 19
M  V30 19 2 19 20
M  V30 20 1 19 21
M  V30 21 1 21 22
M  V30 22 2 22 23
M  V30 23 1 23 24
M  V30 24 1 24 25
M  V30 25 2 15 26
M  V30 26 1 26 27
M  V30 27 2 27 28
M  V30 28 1 10 29
M  V30 29 2 29 30
M  V30 30 1 30 7
M  V30 31 1 28 13
M  V30 32 1 25 16
M  V30 33 2 24 18
M  V30 34 1 1 31
M  V30 35 1 1 32
M  V30 36 1 1 33
M  V30 37 1 2 34
M  V30 38 1 2 35
M  V30 39 1 4 36
M  V30 40 1 4 37
M  V30 41 1 5 38
M  V30 42 1 5 39
M  V30 43 1 5 40
M  V30 44 1 6 41
M  V30 45 1 6 42
M  V30 46 1 8 43
M  V30 47 1 9 44
M  V30 48 1 11 45
M  V30 49 1 12 46
M  V30 50 1 14 47
M  V30 51 1 17 48
M  V30 52 1 21 49
M  V30 53 1 22 50
M  V30 54 1 25 51
M  V30 55 1 26 52
M  V30 56 1 27 53
M  V30 57 1 29 54
M  V30 58 1 30 55
M  V30 END BOND
M  V30 END CTAB
M  END
>  <Dataset>  (598) 
ChEMBL_Kinases

>  <Ligand_Instance>  (598) 
nan

>  <PDB_ID>  (598) 
nan

>  <Standardized_SMILES>  (598) 
CCN(CC)Cc1ccc(/C=C/c2cc(-c3cc4c(=O)[nH]cnc4[nH]3)ccn2)cc1

>  <Name>  (598) 
nan

>  <Pocket>  (598) 
nan

>  <ATP_Site>  (598) 
nan

>  <Peripheral>  (598) 
nan

>  <Num_H_Atoms_ProtBoundConf>  (598) 
nan

>  <Num_Resolved_Atoms>  (598) 
nan

>  <Num_Not_Resolved_Atoms>  (598) 
nan

$$$$
CHEMBL4585607
     RDKit          3D

  0  0  0  0  0  0  0  0  0  0999 V3000
M  V30 BEGIN CTAB
M  V30 COUNTS 57 61 0 0 0
M  V30 BEGIN ATOM
M  V30 1 C 4.502803 -1.935426 3.396529 0
M  V30 2 N 4.685286 -3.205800 2.724542 0
M  V30 3 C 5.542544 -3.083145 1.561284 0
M  V30 4 C 4.992373 -2.051528 0.573342 0
M  V30 5 N 3.548999 -2.174453 0.643795 0
M  V30 6 C 2.687282 -1.058244 0.472426 0
M  V30 7 C 3.200069 0.161832 0.151541 0
M  V30 8 C 2.391068 1.261438 -0.016083 0
M  V30 9 C 1.006782 1.202949 0.129260 0
M  V30 10 N 0.206724 2.346769 -0.048736 0
M  V30 11 C -1.197734 2.473829 0.063306 0
M  V30 12 N -1.774614 3.668970 -0.147102 0
M  V30 13 C -3.089767 3.900883 -0.066811 0
M  V30 14 C -3.913959 2.870165 0.247743 0
M  V30 15 C -3.380982 1.620403 0.474846 0
M  V30 16 C -4.245089 0.539578 0.805682 0
M  V30 17 S -5.392363 0.178306 2.175476 0
M  V30 18 C -5.880294 -1.451489 1.481203 0
M  V30 19 N -6.833110 -2.297984 2.146571 0
M  V30 20 N -5.189702 -1.607544 0.333827 0
M  V30 21 C -4.397257 -0.590328 0.051637 0
M  V30 22 C -3.690641 -0.864444 -1.223006 0
M  V30 23 C -4.028092 0.068386 -2.195761 0
M  V30 24 C -3.452168 -0.048667 -3.444480 0
M  V30 25 C -2.557511 -1.063041 -3.742278 0
M  V30 26 F -1.985584 -1.187498 -4.966385 0
M  V30 27 C -2.255636 -1.960425 -2.748025 0
M  V30 28 C -2.803433 -1.888821 -1.482123 0
M  V30 29 N -2.052784 1.490363 0.370319 0
M  V30 30 C 0.552641 -0.055542 0.452973 0
M  V30 31 C 1.324571 -1.183190 0.630436 0
M  V30 32 C 3.115895 -3.533051 0.899326 0
M  V30 33 C 3.415561 -3.813358 2.370146 0
M  V30 34 H 3.487905 -1.514935 3.230870 0
M  V30 35 H 5.277133 -1.194502 3.115415 0
M  V30 36 H 4.608317 -2.096176 4.486256 0
M  V30 37 H 5.586588 -4.082345 1.082751 0
M  V30 38 H 6.543213 -2.768072 1.931548 0
M  V30 39 H 5.331736 -2.396024 -0.427273 0
M  V30 40 H 5.389336 -1.085573 0.878218 0
M  V30 41 H 4.263575 0.347470 0.007273 0
M  V30 42 H 2.838871 2.234677 -0.275608 0
M  V30 43 H 0.733311 3.230868 -0.301127 0
M  V30 44 H -3.456747 4.913608 -0.257390 0
M  V30 45 H -4.984538 2.995558 0.327459 0
M  V30 46 H -6.484733 -3.039971 2.758624 0
M  V30 47 H -7.871013 -2.266950 2.096070 0
M  V30 48 H -4.714425 0.897917 -2.068499 0
M  V30 49 H -3.690163 0.662912 -4.236304 0
M  V30 50 H -1.564495 -2.786854 -2.894103 0
M  V30 51 H -2.624711 -2.545284 -0.647165 0
M  V30 52 H -0.499489 -0.217897 0.589674 0
M  V30 53 H 0.883352 -2.136261 0.885499 0
M  V30 54 H 3.728741 -4.232441 0.263702 0
M  V30 55 H 2.080462 -3.747095 0.643707 0
M  V30 56 H 3.570336 -4.908313 2.432454 0
M  V30 57 H 2.577572 -3.507962 2.993619 0
M  V30 END ATOM
M  V30 BEGIN BOND
M  V30 1 1 1 2
M  V30 2 1 2 3
M  V30 3 1 3 4
M  V30 4 1 4 5
M  V30 5 1 5 6
M  V30 6 2 6 7
M  V30 7 1 7 8
M  V30 8 2 8 9
M  V30 9 1 9 10
M  V30 10 1 10 11
M  V30 11 2 11 12
M  V30 12 1 12 13
M  V30 13 2 13 14
M  V30 14 1 14 15
M  V30 15 1 15 16
M  V30 16 1 16 17
M  V30 17 1 17 18
M  V30 18 1 18 19
M  V30 19 2 18 20
M  V30 20 1 20 21
M  V30 21 1 21 22
M  V30 22 2 22 23
M  V30 23 1 23 24
M  V30 24 2 24 25
M  V30 25 1 25 26
M  V30 26 1 25 27
M  V30 27 2 27 28
M  V30 28 2 15 29
M  V30 29 1 9 30
M  V30 30 2 30 31
M  V30 31 1 5 32
M  V30 32 1 32 33
M  V30 33 1 33 2
M  V30 34 1 31 6
M  V30 35 1 29 11
M  V30 36 2 21 16
M  V30 37 1 28 22
M  V30 38 1 1 34
M  V30 39 1 1 35
M  V30 40 1 1 36
M  V30 41 1 3 37
M  V30 42 1 3 38
M  V30 43 1 4 39
M  V30 44 1 4 40
M  V30 45 1 7 41
M  V30 46 1 8 42
M  V30 47 1 10 43
M  V30 48 1 13 44
M  V30 49 1 14 45
M  V30 50 1 19 46
M  V30 51 1 19 47
M  V30 52 1 23 48
M  V30 53 1 24 49
M  V30 54 1 27 50
M  V30 55 1 28 51
M  V30 56 1 30 52
M  V30 57 1 31 53
M  V30 58 1 32 54
M  V30 59 1 32 55
M  V30 60 1 33 56
M  V30 61 1 33 57
M  V30 END BOND
M  V30 END CTAB
M  END
>  <Dataset>  (599) 
ChEMBL_Kinases

>  <Ligand_Instance>  (599) 
nan

>  <PDB_ID>  (599) 
nan

>  <Standardized_SMILES>  (599) 
CN1CCN(c2ccc(Nc3nccc(-c4sc(N)nc4-c4ccc(F)cc4)n3)cc2)CC1

>  <Name>  (599) 
nan

>  <Pocket>  (599) 
nan

>  <ATP_Site>  (599) 
nan

>  <Peripheral>  (599) 
nan

>  <Num_H_Atoms_ProtBoundConf>  (599) 
nan

>  <Num_Resolved_Atoms>  (599) 
nan

>  <Num_Not_Resolved_Atoms>  (599) 
nan

$$$$
CHEMBL461368
     RDKit          3D

  0  0  0  0  0  0  0  0  0  0999 V3000
M  V30 BEGIN CTAB
M  V30 COUNTS 60 62 0 0 0
M  V30 BEGIN ATOM
M  V30 1 C -0.912307 -3.956471 4.749489 0
M  V30 2 C 0.203182 -3.240944 4.070802 0
M  V30 3 C 0.534804 -1.956356 4.498316 0
M  V30 4 C 1.566569 -1.272674 3.882762 0
M  V30 5 C 1.822772 0.085720 4.426748 0
M  V30 6 C 2.277364 -1.866377 2.833435 0
M  V30 7 C 3.319185 -0.981695 2.326431 0
M  V30 8 O 4.525770 -0.836541 2.651689 0
M  V30 9 O 2.822692 -0.188105 1.306918 0
M  V30 10 C 3.615481 0.782540 0.610718 0
M  V30 11 C 2.679309 1.402075 -0.403933 0
M  V30 12 C 3.353303 2.461376 -1.228690 0
M  V30 13 O 3.886870 3.503045 -0.508853 0
M  V30 14 C 1.465982 1.889160 0.322243 0
M  V30 15 C 0.352760 1.250301 -0.388715 0
M  V30 16 C -0.900884 1.154649 0.042530 0
M  V30 17 C -1.938020 0.483225 -0.759506 0
M  V30 18 C -3.211845 0.959370 -0.996307 0
M  V30 19 C -4.090417 0.206346 -1.748189 0
M  V30 20 C -3.778076 -1.020824 -2.294280 0
M  V30 21 N -4.703335 -1.768665 -3.065141 0
M  V30 22 C -6.045410 -1.292015 -3.337785 0
M  V30 23 C -4.316564 -3.055410 -3.606795 0
M  V30 24 C -2.509326 -1.507863 -2.065077 0
M  V30 25 C -1.617522 -0.751428 -1.306080 0
M  V30 26 C 0.896359 0.770217 -1.680719 0
M  V30 27 O 0.156644 0.800015 -2.708711 0
M  V30 28 O 2.186762 0.409074 -1.274406 0
M  V30 29 C 1.943526 -3.139146 2.415054 0
M  V30 30 C 2.761024 -3.645549 1.312298 0
M  V30 31 C 0.912349 -3.813548 3.035478 0
M  V30 32 H -1.514134 -4.546472 4.013139 0
M  V30 33 H -0.502306 -4.673723 5.482567 0
M  V30 34 H -1.610756 -3.223958 5.222202 0
M  V30 35 H -0.054934 -1.541075 5.323674 0
M  V30 36 H 2.609238 0.615600 3.886758 0
M  V30 37 H 2.158676 -0.040659 5.480130 0
M  V30 38 H 0.847675 0.623253 4.477299 0
M  V30 39 H 4.415652 0.277171 0.019161 0
M  V30 40 H 4.081358 1.515324 1.267181 0
M  V30 41 H 4.165269 2.006409 -1.825934 0
M  V30 42 H 2.621695 2.856963 -1.962671 0
M  V30 43 H 3.344160 3.636873 0.300092 0
M  V30 44 H 1.365947 3.004822 0.284763 0
M  V30 45 H 1.490533 1.568156 1.401257 0
M  V30 46 H -1.249690 1.555036 0.996336 0
M  V30 47 H -3.448020 1.921373 -0.565164 0
M  V30 48 H -5.064778 0.643744 -1.889476 0
M  V30 49 H -6.736864 -1.453036 -2.499815 0
M  V30 50 H -6.411878 -1.713900 -4.297448 0
M  V30 51 H -5.965082 -0.192469 -3.516591 0
M  V30 52 H -4.111085 -3.815668 -2.846329 0
M  V30 53 H -5.030956 -3.390732 -4.388479 0
M  V30 54 H -3.359204 -2.882384 -4.174594 0
M  V30 55 H -2.282470 -2.462608 -2.495824 0
M  V30 56 H -0.657535 -1.277589 -1.204448 0
M  V30 57 H 2.676706 -3.020662 0.409671 0
M  V30 58 H 3.850247 -3.734658 1.556546 0
M  V30 59 H 2.388535 -4.657513 1.019159 0
M  V30 60 H 0.681676 -4.806087 2.679981 0
M  V30 END ATOM
M  V30 BEGIN BOND
M  V30 1 1 1 2
M  V30 2 2 2 3
M  V30 3 1 3 4
M  V30 4 1 4 5
M  V30 5 2 4 6
M  V30 6 1 6 7
M  V30 7 2 7 8
M  V30 8 1 7 9
M  V30 9 1 9 10
M  V30 10 1 10 11
M  V30 11 1 11 12
M  V30 12 1 12 13
M  V30 13 1 11 14
M  V30 14 1 14 15
M  V30 15 2 15 16
M  V30 16 1 16 17
M  V30 17 2 17 18
M  V30 18 1 18 19
M  V30 19 2 19 20
M  V30 20 1 20 21
M  V30 21 1 21 22
M  V30 22 1 21 23
M  V30 23 1 20 24
M  V30 24 2 24 25
M  V30 25 1 15 26
M  V30 26 2 26 27
M  V30 27 1 26 28
M  V30 28 1 6 29
M  V30 29 1 29 30
M  V30 30 2 29 31
M  V30 31 1 31 2
M  V30 32 1 28 11
M  V30 33 1 25 17
M  V30 34 1 1 32
M  V30 35 1 1 33
M  V30 36 1 1 34
M  V30 37 1 3 35
M  V30 38 1 5 36
M  V30 39 1 5 37
M  V30 40 1 5 38
M  V30 41 1 10 39
M  V30 42 1 10 40
M  V30 43 1 12 41
M  V30 44 1 12 42
M  V30 45 1 13 43
M  V30 46 1 14 44
M  V30 47 1 14 45
M  V30 48 1 16 46
M  V30 49 1 18 47
M  V30 50 1 19 48
M  V30 51 1 22 49
M  V30 52 1 22 50
M  V30 53 1 22 51
M  V30 54 1 23 52
M  V30 55 1 23 53
M  V30 56 1 23 54
M  V30 57 1 24 55
M  V30 58 1 25 56
M  V30 59 1 30 57
M  V30 60 1 30 58
M  V30 61 1 30 59
M  V30 62 1 31 60
M  V30 END BOND
M  V30 END CTAB
M  END
>  <Dataset>  (600) 
ChEMBL_Kinases

>  <Ligand_Instance>  (600) 
nan

>  <PDB_ID>  (600) 
nan

>  <Standardized_SMILES>  (600) 
Cc1cc(C)c(C(=O)OCC2(CO)C/C(=C/c3ccc(N(C)C)cc3)C(=O)O2)c(C)c1

>  <Name>  (600) 
nan

>  <Pocket>  (600) 
nan

>  <ATP_Site>  (600) 
nan

>  <Peripheral>  (600) 
nan

>  <Num_H_Atoms_ProtBoundConf>  (600) 
nan

>  <Num_Resolved_Atoms>  (600) 
nan

>  <Num_Not_Resolved_Atoms>  (600) 
nan

$$$$
CHEMBL4585524
     RDKit          3D

  0  0  0  0  0  0  0  0  0  0999 V3000
M  V30 BEGIN CTAB
M  V30 COUNTS 56 58 0 0 0
M  V30 BEGIN ATOM
M  V30 1 C 4.817747 1.501952 6.885793 0
M  V30 2 O 4.499909 1.801128 5.527079 0
M  V30 3 C 5.224298 1.204131 4.494058 0
M  V30 4 C 6.261991 0.314868 4.676161 0
M  V30 5 C 6.887283 -0.195299 3.532096 0
M  V30 6 C 6.448317 0.204882 2.281747 0
M  V30 7 C 5.398763 1.103851 2.112164 0
M  V30 8 O 5.152282 1.341728 0.777141 0
M  V30 9 C 4.161632 2.192580 0.258325 0
M  V30 10 C 2.838829 1.688480 0.714188 0
M  V30 11 O 2.423995 0.716052 1.427272 0
M  V30 12 N 1.681370 2.407853 0.300470 0
M  V30 13 C 0.465563 1.816331 0.809093 0
M  V30 14 C -0.076640 2.188848 2.023181 0
M  V30 15 C -1.246782 1.599972 2.484779 0
M  V30 16 C -1.869474 0.625263 1.705668 0
M  V30 17 C -1.329984 0.241679 0.477752 0
M  V30 18 N -2.050964 -0.760443 -0.227748 0
M  V30 19 C -3.096952 -0.609783 -1.174940 0
M  V30 20 O -3.542018 0.508297 -1.528391 0
M  V30 21 C -3.712681 -1.777431 -1.791659 0
M  V30 22 C -4.722188 -1.587815 -2.710002 0
M  V30 23 C -5.389234 -2.625193 -3.367127 0
M  V30 24 C -5.028418 -3.925647 -3.092056 0
M  V30 25 N -5.663492 -5.021194 -3.722404 0
M  V30 26 C -6.720987 -4.798290 -4.683529 0
M  V30 27 C -5.236770 -6.370378 -3.389092 0
M  V30 28 C -4.019502 -4.116280 -2.174362 0
M  V30 29 C -3.371540 -3.084956 -1.535072 0
M  V30 30 C -0.166256 0.853651 0.059363 0
M  V30 31 C 4.791678 1.598881 3.246775 0
M  V30 32 H 4.921717 0.396111 6.992405 0
M  V30 33 H 5.777033 1.951357 7.209408 0
M  V30 34 H 3.980160 1.803376 7.550027 0
M  V30 35 H 6.528320 0.066536 5.682121 0
M  V30 36 H 7.699953 -0.892329 3.689960 0
M  V30 37 H 7.023668 -0.269334 1.473798 0
M  V30 38 H 4.317525 3.253599 0.535653 0
M  V30 39 H 4.195461 2.130134 -0.843114 0
M  V30 40 H 1.670634 3.279486 -0.309312 0
M  V30 41 H 0.438942 2.954093 2.603827 0
M  V30 42 H -1.618178 1.937056 3.443102 0
M  V30 43 H -2.790548 0.189738 2.112550 0
M  V30 44 H -1.676510 -1.684942 0.069516 0
M  V30 45 H -5.078572 -0.595404 -2.994140 0
M  V30 46 H -6.178138 -2.430590 -4.082727 0
M  V30 47 H -6.853179 -5.719158 -5.300276 0
M  V30 48 H -7.685629 -4.633003 -4.159956 0
M  V30 49 H -6.483055 -3.980642 -5.404440 0
M  V30 50 H -5.925895 -7.100412 -3.826634 0
M  V30 51 H -5.181303 -6.458963 -2.268696 0
M  V30 52 H -4.224238 -6.480977 -3.849404 0
M  V30 53 H -3.678057 -5.116495 -1.904257 0
M  V30 54 H -2.587339 -3.271740 -0.823234 0
M  V30 55 H 0.229289 0.539155 -0.892387 0
M  V30 56 H 3.991671 2.289760 3.022333 0
M  V30 END ATOM
M  V30 BEGIN BOND
M  V30 1 1 1 2
M  V30 2 1 2 3
M  V30 3 2 3 4
M  V30 4 1 4 5
M  V30 5 2 5 6
M  V30 6 1 6 7
M  V30 7 1 7 8
M  V30 8 1 8 9
M  V30 9 1 9 10
M  V30 10 2 10 11
M  V30 11 1 10 12
M  V30 12 1 12 13
M  V30 13 2 13 14
M  V30 14 1 14 15
M  V30 15 2 15 16
M  V30 16 1 16 17
M  V30 17 1 17 18
M  V30 18 1 18 19
M  V30 19 2 19 20
M  V30 20 1 19 21
M  V30 21 2 21 22
M  V30 22 1 22 23
M  V30 23 2 23 24
M  V30 24 1 24 25
M  V30 25 1 25 26
M  V30 26 1 25 27
M  V30 27 1 24 28
M  V30 28 2 28 29
M  V30 29 2 17 30
M  V30 30 2 7 31
M  V30 31 1 31 3
M  V30 32 1 30 13
M  V30 33 1 29 21
M  V30 34 1 1 32
M  V30 35 1 1 33
M  V30 36 1 1 34
M  V30 37 1 4 35
M  V30 38 1 5 36
M  V30 39 1 6 37
M  V30 40 1 9 38
M  V30 41 1 9 39
M  V30 42 1 12 40
M  V30 43 1 14 41
M  V30 44 1 15 42
M  V30 45 1 16 43
M  V30 46 1 18 44
M  V30 47 1 22 45
M  V30 48 1 23 46
M  V30 49 1 26 47
M  V30 50 1 26 48
M  V30 51 1 26 49
M  V30 52 1 27 50
M  V30 53 1 27 51
M  V30 54 1 27 52
M  V30 55 1 28 53
M  V30 56 1 29 54
M  V30 57 1 30 55
M  V30 58 1 31 56
M  V30 END BOND
M  V30 END CTAB
M  END
>  <Dataset>  (601) 
ChEMBL_Kinases

>  <Ligand_Instance>  (601) 
nan

>  <PDB_ID>  (601) 
nan

>  <Standardized_SMILES>  (601) 
COc1cccc(OCC(=O)Nc2cccc(NC(=O)c3ccc(N(C)C)cc3)c2)c1

>  <Name>  (601) 
nan

>  <Pocket>  (601) 
nan

>  <ATP_Site>  (601) 
nan

>  <Peripheral>  (601) 
nan

>  <Num_H_Atoms_ProtBoundConf>  (601) 
nan

>  <Num_Resolved_Atoms>  (601) 
nan

>  <Num_Not_Resolved_Atoms>  (601) 
nan

$$$$
CHEMBL461372
     RDKit          3D

  0  0  0  0  0  0  0  0  0  0999 V3000
M  V30 BEGIN CTAB
M  V30 COUNTS 54 55 0 0 0
M  V30 BEGIN ATOM
M  V30 1 C 0.017900 -2.215049 3.835766 0
M  V30 2 C 1.375473 -1.962780 3.099289 0
M  V30 3 C 1.321356 -0.653835 2.405380 0
M  V30 4 C 2.435200 -0.165373 1.590563 0
M  V30 5 C 3.784252 0.099021 2.108758 0
M  V30 6 C 4.538469 -1.044158 2.691171 0
M  V30 7 C 4.655654 -2.149458 1.653626 0
M  V30 8 C 1.948136 1.070539 0.805166 0
M  V30 9 O 2.311338 2.271743 0.920169 0
M  V30 10 O 0.973083 0.812081 -0.163896 0
M  V30 11 C 0.477683 1.905053 -0.913921 0
M  V30 12 C -0.513306 1.331392 -1.924171 0
M  V30 13 C -1.134169 2.438101 -2.749729 0
M  V30 14 O -1.901133 3.272480 -1.936273 0
M  V30 15 C -1.612596 0.542289 -1.300534 0
M  V30 16 C -1.405706 -0.839451 -1.720311 0
M  V30 17 C -1.958242 -2.010589 -1.574368 0
M  V30 18 C -3.163213 -2.213531 -0.787176 0
M  V30 19 C -4.322926 -1.474621 -0.738963 0
M  V30 20 C -5.386211 -1.789866 0.070042 0
M  V30 21 C -5.362197 -2.887094 0.902200 0
M  V30 22 Cl -6.782909 -3.174623 1.875656 0
M  V30 23 C -4.226728 -3.670365 0.901404 0
M  V30 24 F -4.210013 -4.734487 1.709845 0
M  V30 25 C -3.190547 -3.305480 0.069045 0
M  V30 26 C -0.189633 -0.825572 -2.554380 0
M  V30 27 O 0.568131 -1.644220 -3.172037 0
M  V30 28 O 0.277802 0.461966 -2.722830 0
M  V30 29 H 0.091796 -1.897153 4.883796 0
M  V30 30 H -0.104925 -3.315880 3.805475 0
M  V30 31 H -0.803472 -1.737755 3.279287 0
M  V30 32 H 2.114158 -2.045669 3.911148 0
M  V30 33 H 1.517687 -2.765719 2.363483 0
M  V30 34 H 0.370942 -0.677066 1.761505 0
M  V30 35 H 1.112285 0.134747 3.222007 0
M  V30 36 H 2.569085 -0.965118 0.750159 0
M  V30 37 H 4.391218 0.474703 1.217684 0
M  V30 38 H 3.770973 0.980130 2.835941 0
M  V30 39 H 4.135208 -1.391727 3.633738 0
M  V30 40 H 5.621074 -0.659519 2.878833 0
M  V30 41 H 4.528206 -1.719219 0.616816 0
M  V30 42 H 5.621738 -2.691567 1.709097 0
M  V30 43 H 3.836676 -2.908345 1.769489 0
M  V30 44 H 1.368910 2.300738 -1.483720 0
M  V30 45 H 0.059266 2.708958 -0.311204 0
M  V30 46 H -1.767245 2.066048 -3.552162 0
M  V30 47 H -0.315298 3.054980 -3.164924 0
M  V30 48 H -2.879039 3.237917 -2.148034 0
M  V30 49 H -2.621845 0.934477 -1.532208 0
M  V30 50 H -1.489632 0.596719 -0.178669 0
M  V30 51 H -1.597566 -2.951532 -2.015208 0
M  V30 52 H -4.362069 -0.614301 -1.389304 0
M  V30 53 H -6.255235 -1.130075 0.026278 0
M  V30 54 H -2.346886 -3.986337 0.139905 0
M  V30 END ATOM
M  V30 BEGIN BOND
M  V30 1 1 1 2
M  V30 2 1 2 3
M  V30 3 1 3 4
M  V30 4 1 4 5
M  V30 5 1 5 6
M  V30 6 1 6 7
M  V30 7 1 4 8
M  V30 8 2 8 9
M  V30 9 1 8 10
M  V30 10 1 10 11
M  V30 11 1 11 12
M  V30 12 1 12 13
M  V30 13 1 13 14
M  V30 14 1 12 15
M  V30 15 1 15 16
M  V30 16 2 16 17
M  V30 17 1 17 18
M  V30 18 2 18 19
M  V30 19 1 19 20
M  V30 20 2 20 21
M  V30 21 1 21 22
M  V30 22 1 21 23
M  V30 23 1 23 24
M  V30 24 2 23 25
M  V30 25 1 16 26
M  V30 26 2 26 27
M  V30 27 1 26 28
M  V30 28 1 28 12
M  V30 29 1 25 18
M  V30 30 1 1 29
M  V30 31 1 1 30
M  V30 32 1 1 31
M  V30 33 1 2 32
M  V30 34 1 2 33
M  V30 35 1 3 34
M  V30 36 1 3 35
M  V30 37 1 4 36
M  V30 38 1 5 37
M  V30 39 1 5 38
M  V30 40 1 6 39
M  V30 41 1 6 40
M  V30 42 1 7 41
M  V30 43 1 7 42
M  V30 44 1 7 43
M  V30 45 1 11 44
M  V30 46 1 11 45
M  V30 47 1 13 46
M  V30 48 1 13 47
M  V30 49 1 14 48
M  V30 50 1 15 49
M  V30 51 1 15 50
M  V30 52 1 17 51
M  V30 53 1 19 52
M  V30 54 1 20 53
M  V30 55 1 25 54
M  V30 END BOND
M  V30 END CTAB
M  END
>  <Dataset>  (602) 
ChEMBL_Kinases

>  <Ligand_Instance>  (602) 
nan

>  <PDB_ID>  (602) 
nan

>  <Standardized_SMILES>  (602) 
CCCC(CCC)C(=O)OCC1(CO)C/C(=C\c2ccc(Cl)c(F)c2)C(=O)O1

>  <Name>  (602) 
nan

>  <Pocket>  (602) 
nan

>  <ATP_Site>  (602) 
nan

>  <Peripheral>  (602) 
nan

>  <Num_H_Atoms_ProtBoundConf>  (602) 
nan

>  <Num_Resolved_Atoms>  (602) 
nan

>  <Num_Not_Resolved_Atoms>  (602) 
nan

$$$$
CHEMBL4585479
     RDKit          3D

  0  0  0  0  0  0  0  0  0  0999 V3000
M  V30 BEGIN CTAB
M  V30 COUNTS 55 59 0 0 0
M  V30 BEGIN ATOM
M  V30 1 C 1.286057 -1.655249 -3.275280 0
M  V30 2 C 2.655127 -1.982490 -2.792059 0
M  V30 3 N 3.072695 -1.647472 -1.555919 0
M  V30 4 C 4.290140 -1.922318 -1.090922 0
M  V30 5 N 4.741762 -1.573916 0.206339 0
M  V30 6 C 3.943530 -0.894447 1.156125 0
M  V30 7 N 4.422406 -0.562470 2.388119 0
M  V30 8 C 3.691727 0.076209 3.295640 0
M  V30 9 C 2.395666 0.405168 2.949400 0
M  V30 10 C 1.888957 0.073618 1.694433 0
M  V30 11 C 0.503208 0.520122 1.542755 0
M  V30 12 S -0.109803 2.276945 1.480248 0
M  V30 13 C -1.881815 1.685194 1.279161 0
M  V30 14 C -3.041945 2.644389 1.146729 0
M  V30 15 C -3.944290 2.535831 2.376200 0
M  V30 16 C -4.485665 1.144835 2.545430 0
M  V30 17 N -4.672220 0.493996 1.266070 0
M  V30 18 C -5.064823 1.530505 0.314050 0
M  V30 19 C -3.771639 2.231950 -0.090726 0
M  V30 20 N -1.789912 0.526437 1.285207 0
M  V30 21 C -0.664544 -0.186355 1.409136 0
M  V30 22 C -0.738432 -1.651271 1.398186 0
M  V30 23 C -1.239307 -2.372308 0.335195 0
M  V30 24 C -1.303615 -3.765401 0.342378 0
M  V30 25 C -0.838640 -4.429767 1.475588 0
M  V30 26 F -0.892913 -5.783685 1.500763 0
M  V30 27 C -0.341052 -3.727864 2.532622 0
M  V30 28 C -0.276528 -2.341469 2.527171 0
M  V30 29 N 2.683059 -0.580359 0.805222 0
M  V30 30 C 5.089518 -2.575540 -1.971494 0
M  V30 31 C 4.752160 -2.952061 -3.235059 0
M  V30 32 C 3.493107 -2.656299 -3.687153 0
M  V30 33 F 3.025758 -2.976512 -4.931531 0
M  V30 34 H 0.608160 -1.680224 -2.400697 0
M  V30 35 H 0.965765 -2.315215 -4.093702 0
M  V30 36 H 1.239361 -0.609318 -3.653708 0
M  V30 37 H 5.707265 -1.825275 0.485084 0
M  V30 38 H 4.146053 0.311778 4.269131 0
M  V30 39 H 1.843728 0.929458 3.737675 0
M  V30 40 H -2.665220 3.690095 1.137581 0
M  V30 41 H -3.287007 2.722902 3.268738 0
M  V30 42 H -4.709864 3.303619 2.258919 0
M  V30 43 H -3.816115 0.502014 3.167315 0
M  V30 44 H -5.461952 1.151535 3.081384 0
M  V30 45 H -5.445809 -0.225499 1.335047 0
M  V30 46 H -5.726056 2.271099 0.772505 0
M  V30 47 H -5.504895 1.019470 -0.558113 0
M  V30 48 H -4.002514 3.090679 -0.756124 0
M  V30 49 H -3.202323 1.492622 -0.716519 0
M  V30 50 H -1.600493 -1.860722 -0.545136 0
M  V30 51 H -1.708778 -4.320585 -0.517326 0
M  V30 52 H 0.005945 -4.316842 3.387080 0
M  V30 53 H 0.134533 -1.857011 3.410305 0
M  V30 54 H 6.117753 -2.849657 -1.684062 0
M  V30 55 H 5.429808 -3.473803 -3.900152 0
M  V30 END ATOM
M  V30 BEGIN BOND
M  V30 1 1 1 2
M  V30 2 2 2 3
M  V30 3 1 3 4
M  V30 4 1 4 5
M  V30 5 1 5 6
M  V30 6 2 6 7
M  V30 7 1 7 8
M  V30 8 2 8 9
M  V30 9 1 9 10
M  V30 10 1 10 11
M  V30 11 1 11 12
M  V30 12 1 12 13
M  V30 13 1 13 14
M  V30 14 1 14 15
M  V30 15 1 15 16
M  V30 16 1 16 17
M  V30 17 1 17 18
M  V30 18 1 18 19
M  V30 19 2 13 20
M  V30 20 1 20 21
M  V30 21 1 21 22
M  V30 22 2 22 23
M  V30 23 1 23 24
M  V30 24 2 24 25
M  V30 25 1 25 26
M  V30 26 1 25 27
M  V30 27 2 27 28
M  V30 28 2 10 29
M  V30 29 2 4 30
M  V30 30 1 30 31
M  V30 31 2 31 32
M  V30 32 1 32 33
M  V30 33 1 32 2
M  V30 34 1 29 6
M  V30 35 2 21 11
M  V30 36 1 28 22
M  V30 37 1 19 14
M  V30 38 1 1 34
M  V30 39 1 1 35
M  V30 40 1 1 36
M  V30 41 1 5 37
M  V30 42 1 8 38
M  V30 43 1 9 39
M  V30 44 1 14 40
M  V30 45 1 15 41
M  V30 46 1 15 42
M  V30 47 1 16 43
M  V30 48 1 16 44
M  V30 49 1 17 45
M  V30 50 1 18 46
M  V30 51 1 18 47
M  V30 52 1 19 48
M  V30 53 1 19 49
M  V30 54 1 23 50
M  V30 55 1 24 51
M  V30 56 1 27 52
M  V30 57 1 28 53
M  V30 58 1 30 54
M  V30 59 1 31 55
M  V30 END BOND
M  V30 END CTAB
M  END
>  <Dataset>  (603) 
ChEMBL_Kinases

>  <Ligand_Instance>  (603) 
nan

>  <PDB_ID>  (603) 
nan

>  <Standardized_SMILES>  (603) 
Cc1nc(Nc2nccc(-c3sc(C4CCNCC4)nc3-c3ccc(F)cc3)n2)ccc1F

>  <Name>  (603) 
nan

>  <Pocket>  (603) 
nan

>  <ATP_Site>  (603) 
nan

>  <Peripheral>  (603) 
nan

>  <Num_H_Atoms_ProtBoundConf>  (603) 
nan

>  <Num_Resolved_Atoms>  (603) 
nan

>  <Num_Not_Resolved_Atoms>  (603) 
nan

$$$$
CHEMBL4585168
     RDKit          3D

  0  0  0  0  0  0  0  0  0  0999 V3000
M  V30 BEGIN CTAB
M  V30 COUNTS 36 38 0 0 0
M  V30 BEGIN ATOM
M  V30 1 C -0.808112 -1.651273 2.814233 0
M  V30 2 C 0.319731 -2.611554 2.613993 0
M  V30 3 N 0.629596 -3.673987 3.374082 0
M  V30 4 N 1.710646 -4.284188 2.865509 0
M  V30 5 C 2.145815 -3.647050 1.759780 0
M  V30 6 C 3.189512 -3.883966 0.909306 0
M  V30 7 C 3.368494 -3.011784 -0.168205 0
M  V30 8 N 2.508873 -1.988054 -0.313444 0
M  V30 9 C 1.478204 -1.750045 0.522280 0
M  V30 10 O 0.610743 -0.684011 0.342073 0
M  V30 11 C 0.664285 0.260708 -0.678191 0
M  V30 12 C -0.595788 0.092260 -1.531763 0
M  V30 13 C -1.736526 0.668474 -0.719791 0
M  V30 14 N -1.651435 2.100774 -0.780300 0
M  V30 15 C -2.308919 2.679587 0.370811 0
M  V30 16 C -0.289792 2.563573 -0.923246 0
M  V30 17 C 0.693058 1.685723 -0.182877 0
M  V30 18 C 1.255974 -2.579714 1.601664 0
M  V30 19 H -1.331764 -1.460940 1.861600 0
M  V30 20 H -1.513376 -2.102958 3.570035 0
M  V30 21 H -0.427581 -0.713774 3.227530 0
M  V30 22 H 2.148677 -5.138131 3.278670 0
M  V30 23 H 3.844277 -4.726759 1.084249 0
M  V30 24 H 4.195362 -3.199446 -0.842020 0
M  V30 25 H 1.520354 0.043360 -1.352288 0
M  V30 26 H -0.532622 0.662990 -2.470880 0
M  V30 27 H -0.848053 -0.977657 -1.687674 0
M  V30 28 H -1.648892 0.380688 0.340225 0
M  V30 29 H -2.723563 0.318872 -1.081339 0
M  V30 30 H -2.099771 2.089001 1.299319 0
M  V30 31 H -3.402450 2.606335 0.201717 0
M  V30 32 H -2.064001 3.741593 0.497143 0
M  V30 33 H -0.072566 2.602633 -2.015717 0
M  V30 34 H -0.203479 3.573323 -0.501727 0
M  V30 35 H 1.705005 2.096455 -0.378819 0
M  V30 36 H 0.483749 1.792069 0.889043 0
M  V30 END ATOM
M  V30 BEGIN BOND
M  V30 1 1 1 2
M  V30 2 2 2 3
M  V30 3 1 3 4
M  V30 4 1 4 5
M  V30 5 2 5 6
M  V30 6 1 6 7
M  V30 7 2 7 8
M  V30 8 1 8 9
M  V30 9 1 9 10
M  V30 10 1 10 11
M  V30 11 1 11 12
M  V30 12 1 12 13
M  V30 13 1 13 14
M  V30 14 1 14 15
M  V30 15 1 14 16
M  V30 16 1 16 17
M  V30 17 2 9 18
M  V30 18 1 18 2
M  V30 19 1 18 5
M  V30 20 1 17 11
M  V30 21 1 1 19
M  V30 22 1 1 20
M  V30 23 1 1 21
M  V30 24 1 4 22
M  V30 25 1 6 23
M  V30 26 1 7 24
M  V30 27 1 11 25
M  V30 28 1 12 26
M  V30 29 1 12 27
M  V30 30 1 13 28
M  V30 31 1 13 29
M  V30 32 1 15 30
M  V30 33 1 15 31
M  V30 34 1 15 32
M  V30 35 1 16 33
M  V30 36 1 16 34
M  V30 37 1 17 35
M  V30 38 1 17 36
M  V30 END BOND
M  V30 END CTAB
M  END
>  <Dataset>  (604) 
ChEMBL_Kinases

>  <Ligand_Instance>  (604) 
nan

>  <PDB_ID>  (604) 
nan

>  <Standardized_SMILES>  (604) 
Cc1n[nH]c2ccnc(OC3CCN(C)CC3)c12

>  <Name>  (604) 
nan

>  <Pocket>  (604) 
nan

>  <ATP_Site>  (604) 
nan

>  <Peripheral>  (604) 
nan

>  <Num_H_Atoms_ProtBoundConf>  (604) 
nan

>  <Num_Resolved_Atoms>  (604) 
nan

>  <Num_Not_Resolved_Atoms>  (604) 
nan

$$$$
CHEMBL461373
     RDKit          3D

  0  0  0  0  0  0  0  0  0  0999 V3000
M  V30 BEGIN CTAB
M  V30 COUNTS 47 49 0 0 0
M  V30 BEGIN ATOM
M  V30 1 C 5.485631 -5.508761 -1.086663 0
M  V30 2 O 5.393178 -4.510411 -2.093037 0
M  V30 3 C 4.563037 -3.395675 -1.932863 0
M  V30 4 C 3.830057 -3.305485 -0.757008 0
M  V30 5 C 2.986079 -2.205111 -0.551981 0
M  V30 6 C 2.894589 -1.212509 -1.538300 0
M  V30 7 C 2.013418 -0.069509 -1.367853 0
M  V30 8 C 0.749997 -0.078340 -1.022871 0
M  V30 9 C -0.255015 1.011486 -0.810137 0
M  V30 10 C -1.054548 0.421582 0.342160 0
M  V30 11 C -0.297124 0.495716 1.651429 0
M  V30 12 O -0.999988 -0.219000 2.638618 0
M  V30 13 C -2.368815 1.109789 0.517133 0
M  V30 14 O -3.127505 1.140566 -0.680063 0
M  V30 15 C -4.361191 1.726582 -0.755548 0
M  V30 16 O -4.757872 2.224353 0.303834 0
M  V30 17 C -5.186183 1.784841 -1.977098 0
M  V30 18 C -6.406164 2.416743 -1.904776 0
M  V30 19 C -7.246426 2.512934 -3.017403 0
M  V30 20 C -6.753146 1.927465 -4.178473 0
M  V30 21 C -5.533987 1.284394 -4.289885 0
M  V30 22 C -4.753849 1.224528 -3.155629 0
M  V30 23 O -1.187292 -0.945533 -0.074005 0
M  V30 24 C -0.028871 -1.287411 -0.801260 0
M  V30 25 O 0.312597 -2.451407 -1.214024 0
M  V30 26 C 3.645230 -1.347805 -2.693819 0
M  V30 27 C 4.489507 -2.433760 -2.915300 0
M  V30 28 H 5.609947 -5.057176 -0.069915 0
M  V30 29 H 4.583691 -6.152539 -1.043986 0
M  V30 30 H 6.345436 -6.174593 -1.302738 0
M  V30 31 H 3.853656 -4.034532 0.045781 0
M  V30 32 H 2.425595 -2.147337 0.394846 0
M  V30 33 H 2.450354 0.926155 -1.547270 0
M  V30 34 H 0.251216 1.945692 -0.475361 0
M  V30 35 H -0.878423 1.149565 -1.690065 0
M  V30 36 H -0.213201 1.539757 2.005413 0
M  V30 37 H 0.730367 0.075142 1.583236 0
M  V30 38 H -1.427195 -0.998299 2.168532 0
M  V30 39 H -2.912244 0.572083 1.327492 0
M  V30 40 H -2.184708 2.152062 0.812568 0
M  V30 41 H -6.776828 2.867606 -0.992344 0
M  V30 42 H -8.198008 2.994552 -3.004182 0
M  V30 43 H -7.407376 2.000124 -5.053208 0
M  V30 44 H -5.259138 0.868318 -5.241664 0
M  V30 45 H -3.777745 0.720810 -3.207728 0
M  V30 46 H 3.585907 -0.580035 -3.480663 0
M  V30 47 H 5.081517 -2.542283 -3.824512 0
M  V30 END ATOM
M  V30 BEGIN BOND
M  V30 1 1 1 2
M  V30 2 1 2 3
M  V30 3 2 3 4
M  V30 4 1 4 5
M  V30 5 2 5 6
M  V30 6 1 6 7
M  V30 7 2 7 8
M  V30 8 1 8 9
M  V30 9 1 9 10
M  V30 10 1 10 11
M  V30 11 1 11 12
M  V30 12 1 10 13
M  V30 13 1 13 14
M  V30 14 1 14 15
M  V30 15 2 15 16
M  V30 16 1 15 17
M  V30 17 2 17 18
M  V30 18 1 18 19
M  V30 19 2 19 20
M  V30 20 1 20 21
M  V30 21 2 21 22
M  V30 22 1 10 23
M  V30 23 1 23 24
M  V30 24 2 24 25
M  V30 25 1 6 26
M  V30 26 2 26 27
M  V30 27 1 27 3
M  V30 28 1 24 8
M  V30 29 1 22 17
M  V30 30 1 1 28
M  V30 31 1 1 29
M  V30 32 1 1 30
M  V30 33 1 4 31
M  V30 34 1 5 32
M  V30 35 1 7 33
M  V30 36 1 9 34
M  V30 37 1 9 35
M  V30 38 1 11 36
M  V30 39 1 11 37
M  V30 40 1 12 38
M  V30 41 1 13 39
M  V30 42 1 13 40
M  V30 43 1 18 41
M  V30 44 1 19 42
M  V30 45 1 20 43
M  V30 46 1 21 44
M  V30 47 1 22 45
M  V30 48 1 26 46
M  V30 49 1 27 47
M  V30 END BOND
M  V30 END CTAB
M  END
>  <Dataset>  (605) 
ChEMBL_Kinases

>  <Ligand_Instance>  (605) 
nan

>  <PDB_ID>  (605) 
nan

>  <Standardized_SMILES>  (605) 
COc1ccc(/C=C2/CC(CO)(COC(=O)c3ccccc3)OC2=O)cc1

>  <Name>  (605) 
nan

>  <Pocket>  (605) 
nan

>  <ATP_Site>  (605) 
nan

>  <Peripheral>  (605) 
nan

>  <Num_H_Atoms_ProtBoundConf>  (605) 
nan

>  <Num_Resolved_Atoms>  (605) 
nan

>  <Num_Not_Resolved_Atoms>  (605) 
nan

$$$$
CHEMBL461376
     RDKit          3D

  0  0  0  0  0  0  0  0  0  0999 V3000
M  V30 BEGIN CTAB
M  V30 COUNTS 67 69 0 0 0
M  V30 BEGIN ATOM
M  V30 1 C 1.253210 -1.202323 4.527742 0
M  V30 2 C 2.751057 -1.356521 4.605985 0
M  V30 3 C 3.334634 -1.653527 3.210017 0
M  V30 4 C 3.023169 -0.548085 2.262745 0
M  V30 5 C 3.538514 -0.621828 0.885253 0
M  V30 6 C 3.152606 -1.750771 0.022065 0
M  V30 7 C 3.581012 -3.097707 0.516888 0
M  V30 8 C 3.265570 0.704305 0.231311 0
M  V30 9 O 2.710638 1.370811 1.098923 0
M  V30 10 O 3.680070 0.758264 -1.012780 0
M  V30 11 C 3.605248 1.784659 -1.938788 0
M  V30 12 C 2.269865 2.224216 -2.403095 0
M  V30 13 C 2.479916 3.150709 -3.642424 0
M  V30 14 O 1.218326 3.538619 -4.087723 0
M  V30 15 C 1.469419 2.935609 -1.394082 0
M  V30 16 C 0.380317 1.993686 -0.995729 0
M  V30 17 C -0.391309 1.897893 0.068830 0
M  V30 18 C -1.412092 0.878929 0.267449 0
M  V30 19 C -1.183802 -0.483066 0.071395 0
M  V30 20 C -2.136928 -1.462172 0.224064 0
M  V30 21 C -3.414126 -1.056904 0.600616 0
M  V30 22 C -4.391662 -2.126831 0.744616 0
M  V30 23 C -4.353891 -3.267687 -0.021206 0
M  V30 24 C -5.192645 -4.356709 -0.010087 0
M  V30 25 C -6.207945 -4.225257 0.935552 0
M  V30 26 C -7.201965 -5.344561 1.050554 0
M  V30 27 F -7.230460 -6.076881 -0.143947 0
M  V30 28 F -6.875346 -6.239215 2.044911 0
M  V30 29 F -8.456062 -4.840071 1.266737 0
M  V30 30 C -6.378001 -3.126018 1.786646 0
M  V30 31 C -5.440429 -2.110368 1.644823 0
M  V30 32 C -3.707986 0.274932 0.811852 0
M  V30 33 C -2.699951 1.211970 0.640034 0
M  V30 34 C 0.288956 1.118617 -2.180530 0
M  V30 35 O -0.743347 0.449627 -2.491810 0
M  V30 36 O 1.494421 1.124188 -2.919389 0
M  V30 37 H 0.854889 -2.069817 3.977813 0
M  V30 38 H 1.023575 -0.229397 4.040965 0
M  V30 39 H 0.887573 -1.206674 5.582486 0
M  V30 40 H 3.225628 -0.439773 5.007386 0
M  V30 41 H 3.014605 -2.216502 5.233130 0
M  V30 42 H 4.406026 -1.771069 3.327993 0
M  V30 43 H 2.842237 -2.627368 2.953059 0
M  V30 44 H 3.347709 0.405047 2.756535 0
M  V30 45 H 1.891889 -0.490354 2.217727 0
M  V30 46 H 4.674528 -0.642410 0.958626 0
M  V30 47 H 3.599294 -1.571388 -0.989807 0
M  V30 48 H 2.027185 -1.768869 -0.060281 0
M  V30 49 H 3.980634 -3.669762 -0.368042 0
M  V30 50 H 2.767782 -3.717697 0.911171 0
M  V30 51 H 4.398990 -3.040736 1.283632 0
M  V30 52 H 4.114199 2.731890 -1.523032 0
M  V30 53 H 4.297977 1.538881 -2.791464 0
M  V30 54 H 3.057667 2.629868 -4.409669 0
M  V30 55 H 3.048928 4.020241 -3.279788 0
M  V30 56 H 0.808547 2.823293 -4.634178 0
M  V30 57 H 0.967107 3.857622 -1.835954 0
M  V30 58 H 1.968466 3.294078 -0.497866 0
M  V30 59 H -0.218989 2.662682 0.839250 0
M  V30 60 H -0.177181 -0.828675 -0.210501 0
M  V30 61 H -1.858925 -2.512339 0.047005 0
M  V30 62 H -3.537246 -3.327717 -0.754666 0
M  V30 63 H -5.090539 -5.212156 -0.645972 0
M  V30 64 H -7.181800 -3.093629 2.488924 0
M  V30 65 H -5.547688 -1.238864 2.296161 0
M  V30 66 H -4.721613 0.502039 1.100825 0
M  V30 67 H -2.939695 2.238807 0.805889 0
M  V30 END ATOM
M  V30 BEGIN BOND
M  V30 1 1 1 2
M  V30 2 1 2 3
M  V30 3 1 3 4
M  V30 4 1 4 5
M  V30 5 1 5 6
M  V30 6 1 6 7
M  V30 7 1 5 8
M  V30 8 2 8 9
M  V30 9 1 8 10
M  V30 10 1 10 11
M  V30 11 1 11 12
M  V30 12 1 12 13
M  V30 13 1 13 14
M  V30 14 1 12 15
M  V30 15 1 15 16
M  V30 16 2 16 17
M  V30 17 1 17 18
M  V30 18 2 18 19
M  V30 19 1 19 20
M  V30 20 2 20 21
M  V30 21 1 21 22
M  V30 22 2 22 23
M  V30 23 1 23 24
M  V30 24 2 24 25
M  V30 25 1 25 26
M  V30 26 1 26 27
M  V30 27 1 26 28
M  V30 28 1 26 29
M  V30 29 1 25 30
M  V30 30 2 30 31
M  V30 31 1 21 32
M  V30 32 2 32 33
M  V30 33 1 16 34
M  V30 34 2 34 35
M  V30 35 1 34 36
M  V30 36 1 36 12
M  V30 37 1 33 18
M  V30 38 1 31 22
M  V30 39 1 1 37
M  V30 40 1 1 38
M  V30 41 1 1 39
M  V30 42 1 2 40
M  V30 43 1 2 41
M  V30 44 1 3 42
M  V30 45 1 3 43
M  V30 46 1 4 44
M  V30 47 1 4 45
M  V30 48 1 5 46
M  V30 49 1 6 47
M  V30 50 1 6 48
M  V30 51 1 7 49
M  V30 52 1 7 50
M  V30 53 1 7 51
M  V30 54 1 11 52
M  V30 55 1 11 53
M  V30 56 1 13 54
M  V30 57 1 13 55
M  V30 58 1 14 56
M  V30 59 1 15 57
M  V30 60 1 15 58
M  V30 61 1 17 59
M  V30 62 1 19 60
M  V30 63 1 20 61
M  V30 64 1 23 62
M  V30 65 1 24 63
M  V30 66 1 30 64
M  V30 67 1 31 65
M  V30 68 1 32 66
M  V30 69 1 33 67
M  V30 END BOND
M  V30 END CTAB
M  END
>  <Dataset>  (606) 
ChEMBL_Kinases

>  <Ligand_Instance>  (606) 
nan

>  <PDB_ID>  (606) 
nan

>  <Standardized_SMILES>  (606) 
CCCCC(CC)C(=O)OCC1(CO)C/C(=C/c2ccc(-c3ccc(C(F)(F)F)cc3)cc2)C(=O)O1

>  <Name>  (606) 
nan

>  <Pocket>  (606) 
nan

>  <ATP_Site>  (606) 
nan

>  <Peripheral>  (606) 
nan

>  <Num_H_Atoms_ProtBoundConf>  (606) 
nan

>  <Num_Resolved_Atoms>  (606) 
nan

>  <Num_Not_Resolved_Atoms>  (606) 
nan

$$$$
CHEMBL4585148
     RDKit          3D

  0  0  0  0  0  0  0  0  0  0999 V3000
M  V30 BEGIN CTAB
M  V30 COUNTS 54 57 0 0 0
M  V30 BEGIN ATOM
M  V30 1 C -0.177925 3.964149 3.566632 0
M  V30 2 O 0.002006 2.696531 3.013634 0
M  V30 3 C 0.919466 2.377236 2.045409 0
M  V30 4 C 1.922112 2.797509 1.221562 0
M  V30 5 C 2.645297 2.066845 0.311545 0
M  V30 6 C 3.616050 2.924020 -0.344946 0
M  V30 7 O 4.645881 3.543263 -0.007075 0
M  V30 8 N 3.467191 3.215072 -1.743688 0
M  V30 9 C 4.518593 4.094691 -2.277773 0
M  V30 10 C 2.453544 2.784615 -2.718831 0
M  V30 11 C 2.357863 0.729080 0.177805 0
M  V30 12 C 1.360072 0.210277 0.968104 0
M  V30 13 C 0.639253 0.987752 1.888984 0
M  V30 14 N -0.325170 0.109140 2.526670 0
M  V30 15 C -0.527674 -1.306344 2.334042 0
M  V30 16 N -1.310243 -1.866631 1.362680 0
M  V30 17 C -1.398638 -3.240092 1.299334 0
M  V30 18 O -2.207007 -3.509520 0.284273 0
M  V30 19 C -2.729510 -4.542437 -0.418121 0
M  V30 20 C -2.729924 -4.296504 -1.938748 0
M  V30 21 C -3.676059 -3.119827 -2.036981 0
M  V30 22 C -4.720772 -3.368240 -0.979376 0
M  V30 23 C -4.256052 -4.551322 -0.180592 0
M  V30 24 C -0.667058 -3.904423 2.249367 0
M  V30 25 C -0.657979 -5.265431 2.311283 0
M  V30 26 C 0.161913 -5.607129 3.364888 0
M  V30 27 N 0.620937 -4.465019 3.904317 0
M  V30 28 C 0.127031 -3.383603 3.237807 0
M  V30 29 N 0.157307 -2.043177 3.228506 0
M  V30 30 H -1.281534 4.191381 3.445507 0
M  V30 31 H 0.410583 4.776333 3.110927 0
M  V30 32 H 0.089658 3.982949 4.663196 0
M  V30 33 H 1.973157 3.868216 1.504671 0
M  V30 34 H 4.165423 5.133926 -2.228337 0
M  V30 35 H 5.469192 3.989487 -1.677892 0
M  V30 36 H 4.742824 3.743340 -3.310255 0
M  V30 37 H 1.472266 2.586107 -2.224870 0
M  V30 38 H 2.741640 1.804154 -3.187186 0
M  V30 39 H 2.287297 3.575519 -3.463475 0
M  V30 40 H 2.982869 0.254944 -0.559912 0
M  V30 41 H 1.254553 -0.861117 0.739272 0
M  V30 42 H -1.044957 0.353226 3.239004 0
M  V30 43 H -2.321255 -5.548109 -0.189973 0
M  V30 44 H -1.712674 -4.071642 -2.311921 0
M  V30 45 H -3.181122 -5.189946 -2.392324 0
M  V30 46 H -3.101147 -2.186700 -1.791531 0
M  V30 47 H -4.120773 -3.020794 -3.066382 0
M  V30 48 H -5.672546 -3.627731 -1.528142 0
M  V30 49 H -4.932540 -2.459687 -0.352730 0
M  V30 50 H -4.497555 -4.528288 0.880867 0
M  V30 51 H -4.616992 -5.468430 -0.723344 0
M  V30 52 H -1.129012 -6.024163 1.743764 0
M  V30 53 H 0.427069 -6.582648 3.737632 0
M  V30 54 H 1.256030 -4.244262 4.701422 0
M  V30 END ATOM
M  V30 BEGIN BOND
M  V30 1 1 1 2
M  V30 2 1 2 3
M  V30 3 2 3 4
M  V30 4 1 4 5
M  V30 5 1 5 6
M  V30 6 2 6 7
M  V30 7 1 6 8
M  V30 8 1 8 9
M  V30 9 1 8 10
M  V30 10 2 5 11
M  V30 11 1 11 12
M  V30 12 2 12 13
M  V30 13 1 13 14
M  V30 14 1 14 15
M  V30 15 2 15 16
M  V30 16 1 16 17
M  V30 17 1 17 18
M  V30 18 1 18 19
M  V30 19 1 19 20
M  V30 20 1 20 21
M  V30 21 1 21 22
M  V30 22 1 22 23
M  V30 23 2 17 24
M  V30 24 1 24 25
M  V30 25 2 25 26
M  V30 26 1 26 27
M  V30 27 1 27 28
M  V30 28 2 28 29
M  V30 29 1 13 3
M  V30 30 1 29 15
M  V30 31 1 23 19
M  V30 32 1 28 24
M  V30 33 1 1 30
M  V30 34 1 1 31
M  V30 35 1 1 32
M  V30 36 1 4 33
M  V30 37 1 9 34
M  V30 38 1 9 35
M  V30 39 1 9 36
M  V30 40 1 10 37
M  V30 41 1 10 38
M  V30 42 1 10 39
M  V30 43 1 11 40
M  V30 44 1 12 41
M  V30 45 1 14 42
M  V30 46 1 19 43
M  V30 47 1 20 44
M  V30 48 1 20 45
M  V30 49 1 21 46
M  V30 50 1 21 47
M  V30 51 1 22 48
M  V30 52 1 22 49
M  V30 53 1 23 50
M  V30 54 1 23 51
M  V30 55 1 25 52
M  V30 56 1 26 53
M  V30 57 1 27 54
M  V30 END BOND
M  V30 END CTAB
M  END
>  <Dataset>  (607) 
ChEMBL_Kinases

>  <Ligand_Instance>  (607) 
nan

>  <PDB_ID>  (607) 
nan

>  <Standardized_SMILES>  (607) 
COc1cc(C(=O)N(C)C)ccc1Nc1nc(OC2CCCC2)c2cc[nH]c2n1

>  <Name>  (607) 
nan

>  <Pocket>  (607) 
nan

>  <ATP_Site>  (607) 
nan

>  <Peripheral>  (607) 
nan

>  <Num_H_Atoms_ProtBoundConf>  (607) 
nan

>  <Num_Resolved_Atoms>  (607) 
nan

>  <Num_Not_Resolved_Atoms>  (607) 
nan

$$$$
CHEMBL4585918
     RDKit          3D

  0  0  0  0  0  0  0  0  0  0999 V3000
M  V30 BEGIN CTAB
M  V30 COUNTS 77 82 0 0 0
M  V30 BEGIN ATOM
M  V30 1 N 3.688948 3.573023 -4.136423 0
M  V30 2 C 2.560863 3.385791 -3.914576 0
M  V30 3 C 1.187937 3.146482 -3.647354 0
M  V30 4 C 0.178367 3.139616 -4.569624 0
M  V30 5 N -1.093377 2.903233 -4.229555 0
M  V30 6 C -1.384337 2.666321 -2.949307 0
M  V30 7 N -2.725754 2.401560 -2.566045 0
M  V30 8 C -3.332412 1.058460 -2.578476 0
M  V30 9 C -3.383304 0.466800 -3.919462 0
M  V30 10 C -4.573202 0.460746 -4.636851 0
M  V30 11 C -4.749971 -0.031799 -5.897297 0
M  V30 12 C -3.666060 -0.581758 -6.548481 0
M  V30 13 C -2.462534 -0.604799 -5.889856 0
M  V30 14 C -2.341863 -0.090392 -4.609512 0
M  V30 15 O -1.070963 -0.201558 -4.104532 0
M  V30 16 C -0.660177 -1.365967 -3.445303 0
M  V30 17 F 0.662903 -1.243625 -3.026104 0
M  V30 18 F -0.657444 -2.379554 -4.417619 0
M  V30 19 F -1.414851 -1.746002 -2.383700 0
M  V30 20 N -0.415933 2.669289 -2.036209 0
M  V30 21 C 0.871163 2.897412 -2.305953 0
M  V30 22 N 1.720880 2.858662 -1.179945 0
M  V30 23 C 1.938649 2.687349 0.208050 0
M  V30 24 C 1.630285 1.321210 0.775421 0
M  V30 25 C 2.465336 0.311313 0.040140 0
M  V30 26 C 2.275650 -1.068187 0.644851 0
M  V30 27 C 2.878520 -0.989039 2.031660 0
M  V30 28 C 2.059857 -0.027769 2.811610 0
M  V30 29 C 2.188106 1.340650 2.243891 0
M  V30 30 C 0.581535 -0.440817 2.943770 0
M  V30 31 N 0.526207 -1.746440 3.462084 0
M  V30 32 C -0.613950 -2.244111 4.104206 0
M  V30 33 C -0.266380 -3.689061 4.539486 0
M  V30 34 C -0.238097 -4.518864 3.295334 0
M  V30 35 C -1.607362 -4.538557 2.683510 0
M  V30 36 C -2.130118 -3.165114 2.334765 0
M  V30 37 C -1.939379 -2.198481 3.460765 0
M  V30 38 C 0.043906 -0.390631 1.536735 0
M  V30 39 C 0.808167 -1.367583 0.686660 0
M  V30 40 C 0.200293 1.006823 0.935812 0
M  V30 41 H 0.570223 3.346141 -5.555734 0
M  V30 42 H -3.316589 3.228440 -2.254000 0
M  V30 43 H -4.393391 1.146196 -2.200912 0
M  V30 44 H -2.841166 0.388254 -1.884307 0
M  V30 45 H -5.480240 0.884252 -4.177137 0
M  V30 46 H -5.697599 -0.011171 -6.408567 0
M  V30 47 H -3.800386 -0.967610 -7.536255 0
M  V30 48 H -1.649428 -1.046187 -6.447002 0
M  V30 49 H 2.661953 3.057991 -1.608531 0
M  V30 50 H 1.371266 3.479271 0.803804 0
M  V30 51 H 3.024204 2.901232 0.445982 0
M  V30 52 H 3.522300 0.581637 0.174204 0
M  V30 53 H 2.139234 0.243083 -1.010470 0
M  V30 54 H 2.769539 -1.843545 0.060341 0
M  V30 55 H 3.051795 -1.973160 2.485157 0
M  V30 56 H 3.880037 -0.532134 1.897460 0
M  V30 57 H 2.441306 0.040454 3.875009 0
M  V30 58 H 1.530228 2.024726 2.779942 0
M  V30 59 H 3.244639 1.613448 2.215153 0
M  V30 60 H 0.134958 0.326187 3.603770 0
M  V30 61 H 1.352925 -1.949761 4.065455 0
M  V30 62 H -0.752169 -1.736496 5.124882 0
M  V30 63 H -0.963825 -4.041199 5.322767 0
M  V30 64 H 0.784481 -3.624010 4.915378 0
M  V30 65 H 0.483998 -4.056870 2.608391 0
M  V30 66 H 0.026327 -5.570905 3.547701 0
M  V30 67 H -1.668588 -5.161368 1.767888 0
M  V30 68 H -2.292243 -4.940986 3.480891 0
M  V30 69 H -3.242997 -3.280878 2.178679 0
M  V30 70 H -1.721019 -2.890051 1.371609 0
M  V30 71 H -2.675430 -2.565712 4.266157 0
M  V30 72 H -2.261140 -1.192253 3.251669 0
M  V30 73 H -1.012329 -0.628862 1.422626 0
M  V30 74 H 0.574859 -2.406507 0.909394 0
M  V30 75 H 0.433768 -1.193232 -0.364933 0
M  V30 76 H -0.211233 1.705805 1.716108 0
M  V30 77 H -0.452575 1.069454 0.074705 0
M  V30 END ATOM
M  V30 BEGIN BOND
M  V30 1 3 1 2
M  V30 2 1 2 3
M  V30 3 2 3 4
M  V30 4 1 4 5
M  V30 5 2 5 6
M  V30 6 1 6 7
M  V30 7 1 7 8
M  V30 8 1 8 9
M  V30 9 2 9 10
M  V30 10 1 10 11
M  V30 11 2 11 12
M  V30 12 1 12 13
M  V30 13 2 13 14
M  V30 14 1 14 15
M  V30 15 1 15 16
M  V30 16 1 16 17
M  V30 17 1 16 18
M  V30 18 1 16 19
M  V30 19 1 6 20
M  V30 20 2 20 21
M  V30 21 1 21 22
M  V30 22 1 22 23
M  V30 23 1 23 24
M  V30 24 1 24 25
M  V30 25 1 25 26
M  V30 26 1 26 27
M  V30 27 1 27 28
M  V30 28 1 28 29
M  V30 29 1 28 30
M  V30 30 1 30 31
M  V30 31 1 31 32
M  V30 32 1 32 33
M  V30 33 1 33 34
M  V30 34 1 34 35
M  V30 35 1 35 36
M  V30 36 1 36 37
M  V30 37 1 30 38
M  V30 38 1 38 39
M  V30 39 1 38 40
M  V30 40 1 21 3
M  V30 41 1 29 24
M  V30 42 1 37 32
M  V30 43 1 14 9
M  V30 44 1 40 24
M  V30 45 1 39 26
M  V30 46 1 4 41
M  V30 47 1 7 42
M  V30 48 1 8 43
M  V30 49 1 8 44
M  V30 50 1 10 45
M  V30 51 1 11 46
M  V30 52 1 12 47
M  V30 53 1 13 48
M  V30 54 1 22 49
M  V30 55 1 23 50
M  V30 56 1 23 51
M  V30 57 1 25 52
M  V30 58 1 25 53
M  V30 59 1 26 54
M  V30 60 1 27 55
M  V30 61 1 27 56
M  V30 62 1 28 57
M  V30 63 1 29 58
M  V30 64 1 29 59
M  V30 65 1 30 60
M  V30 66 1 31 61
M  V30 67 1 32 62
M  V30 68 1 33 63
M  V30 69 1 33 64
M  V30 70 1 34 65
M  V30 71 1 34 66
M  V30 72 1 35 67
M  V30 73 1 35 68
M  V30 74 1 36 69
M  V30 75 1 36 70
M  V30 76 1 37 71
M  V30 77 1 37 72
M  V30 78 1 38 73
M  V30 79 1 39 74
M  V30 80 1 39 75
M  V30 81 1 40 76
M  V30 82 1 40 77
M  V30 END BOND
M  V30 END CTAB
M  END
>  <Dataset>  (608) 
ChEMBL_Kinases

>  <Ligand_Instance>  (608) 
nan

>  <PDB_ID>  (608) 
nan

>  <Standardized_SMILES>  (608) 
N#Cc1cnc(NCc2ccccc2OC(F)(F)F)nc1NCC12CC3CC(C1)C(NC1CCCCC1)C(C3)C2

>  <Name>  (608) 
nan

>  <Pocket>  (608) 
nan

>  <ATP_Site>  (608) 
nan

>  <Peripheral>  (608) 
nan

>  <Num_H_Atoms_ProtBoundConf>  (608) 
nan

>  <Num_Resolved_Atoms>  (608) 
nan

>  <Num_Not_Resolved_Atoms>  (608) 
nan

$$$$
CHEMBL4581933
     RDKit          3D

  0  0  0  0  0  0  0  0  0  0999 V3000
M  V30 BEGIN CTAB
M  V30 COUNTS 57 60 0 0 0
M  V30 BEGIN ATOM
M  V30 1 C 5.173533 -3.794982 3.497238 0
M  V30 2 N 5.760990 -2.679133 2.731380 0
M  V30 3 C 7.202687 -2.587662 2.462181 0
M  V30 4 C 4.833456 -1.676426 2.266844 0
M  V30 5 C 5.337271 -0.639234 1.512814 0
M  V30 6 C 4.376957 0.299246 1.110430 0
M  V30 7 C 3.019713 0.172333 1.458547 0
M  V30 8 C 2.216042 1.244090 0.945566 0
M  V30 9 O 0.985611 1.104395 1.372241 0
M  V30 10 N 1.973778 2.396803 0.217953 0
M  V30 11 C 0.595468 2.691143 0.362205 0
M  V30 12 C 0.073754 3.455637 1.359496 0
M  V30 13 C -1.282492 3.626519 1.370595 0
M  V30 14 Br -2.053935 4.700642 2.770735 0
M  V30 15 C -2.068835 3.030297 0.387838 0
M  V30 16 C -1.523886 2.245409 -0.635249 0
M  V30 17 N -2.536447 1.742504 -1.489310 0
M  V30 18 C -3.300180 2.142566 -2.586140 0
M  V30 19 O -3.222562 3.266767 -3.134553 0
M  V30 20 C -4.316484 1.219760 -3.217047 0
M  V30 21 O -4.364487 0.055983 -2.631870 0
M  V30 22 C -4.391065 -1.082315 -2.066448 0
M  V30 23 C -3.170132 -1.755229 -2.162474 0
M  V30 24 C -2.971087 -3.026960 -1.608409 0
M  V30 25 C -4.009144 -3.614587 -0.960188 0
M  V30 26 C -3.818641 -4.863629 -0.416034 0
M  V30 27 O -2.714122 -5.453975 -0.512567 0
M  V30 28 C -4.923622 -5.410164 0.236251 0
M  V30 29 C -6.143816 -4.710842 0.319918 0
M  V30 30 O -6.192378 -3.543428 -0.234416 0
M  V30 31 C -5.211986 -2.955137 -0.864183 0
M  V30 32 C -5.459617 -1.703347 -1.389846 0
M  V30 33 C -0.160657 2.089971 -0.623725 0
M  V30 34 C 2.571703 -0.871090 2.204050 0
M  V30 35 C 3.509145 -1.791246 2.599775 0
M  V30 36 H 4.317375 -4.230479 2.917874 0
M  V30 37 H 4.819223 -3.438122 4.490790 0
M  V30 38 H 5.937341 -4.563889 3.674906 0
M  V30 39 H 7.600267 -1.603675 2.722996 0
M  V30 40 H 7.703217 -3.334252 3.142225 0
M  V30 41 H 7.390317 -2.854799 1.400402 0
M  V30 42 H 6.366950 -0.588875 1.275252 0
M  V30 43 H 4.784474 1.127076 0.508545 0
M  V30 44 H 2.968919 2.588765 -0.132467 0
M  V30 45 H 0.768662 3.860110 2.055178 0
M  V30 46 H -3.100402 3.241081 0.506321 0
M  V30 47 H -2.619835 0.816907 -1.038881 0
M  V30 48 H -5.275530 1.822314 -3.188469 0
M  V30 49 H -3.993666 1.230173 -4.309085 0
M  V30 50 H -2.277494 -1.377443 -2.659431 0
M  V30 51 H -2.014873 -3.554213 -1.682585 0
M  V30 52 H -4.704640 -6.410920 0.645676 0
M  V30 53 H -6.828665 -5.336998 0.863883 0
M  V30 54 H -6.358719 -1.142714 -1.348975 0
M  V30 55 H 0.164442 1.466587 -1.462907 0
M  V30 56 H 1.530425 -0.941249 2.454833 0
M  V30 57 H 3.089695 -2.613815 3.201410 0
M  V30 END ATOM
M  V30 BEGIN BOND
M  V30 1 1 1 2
M  V30 2 1 2 3
M  V30 3 1 2 4
M  V30 4 2 4 5
M  V30 5 1 5 6
M  V30 6 2 6 7
M  V30 7 1 7 8
M  V30 8 2 8 9
M  V30 9 1 8 10
M  V30 10 1 10 11
M  V30 11 2 11 12
M  V30 12 1 12 13
M  V30 13 1 13 14
M  V30 14 2 13 15
M  V30 15 1 15 16
M  V30 16 1 16 17
M  V30 17 1 17 18
M  V30 18 2 18 19
M  V30 19 1 18 20
M  V30 20 1 20 21
M  V30 21 1 21 22
M  V30 22 2 22 23
M  V30 23 1 23 24
M  V30 24 2 24 25
M  V30 25 1 25 26
M  V30 26 2 26 27
M  V30 27 1 26 28
M  V30 28 2 28 29
M  V30 29 1 29 30
M  V30 30 1 30 31
M  V30 31 2 31 32
M  V30 32 2 16 33
M  V30 33 1 7 34
M  V30 34 2 34 35
M  V30 35 1 35 4
M  V30 36 1 33 11
M  V30 37 1 32 22
M  V30 38 1 31 25
M  V30 39 1 1 36
M  V30 40 1 1 37
M  V30 41 1 1 38
M  V30 42 1 3 39
M  V30 43 1 3 40
M  V30 44 1 3 41
M  V30 45 1 5 42
M  V30 46 1 6 43
M  V30 47 1 10 44
M  V30 48 1 12 45
M  V30 49 1 15 46
M  V30 50 1 17 47
M  V30 51 1 20 48
M  V30 52 1 20 49
M  V30 53 1 23 50
M  V30 54 1 24 51
M  V30 55 1 28 52
M  V30 56 1 29 53
M  V30 57 1 32 54
M  V30 58 1 33 55
M  V30 59 1 34 56
M  V30 60 1 35 57
M  V30 END BOND
M  V30 END CTAB
M  END
>  <Dataset>  (609) 
ChEMBL_Kinases

>  <Ligand_Instance>  (609) 
nan

>  <PDB_ID>  (609) 
nan

>  <Standardized_SMILES>  (609) 
CN(C)c1ccc(C(=O)Nc2cc(Br)cc(NC(=O)COc3ccc4c(=O)ccoc4c3)c2)cc1

>  <Name>  (609) 
nan

>  <Pocket>  (609) 
nan

>  <ATP_Site>  (609) 
nan

>  <Peripheral>  (609) 
nan

>  <Num_H_Atoms_ProtBoundConf>  (609) 
nan

>  <Num_Resolved_Atoms>  (609) 
nan

>  <Num_Not_Resolved_Atoms>  (609) 
nan

$$$$
CHEMBL4581903
     RDKit          3D

  0  0  0  0  0  0  0  0  0  0999 V3000
M  V30 BEGIN CTAB
M  V30 COUNTS 54 58 0 0 0
M  V30 BEGIN ATOM
M  V30 1 C 0.362305 -3.886889 5.599606 0
M  V30 2 O 1.317566 -3.915913 4.559916 0
M  V30 3 C 1.855549 -2.793798 3.947657 0
M  V30 4 C 1.578990 -1.469447 4.217732 0
M  V30 5 C 2.198482 -0.454863 3.519792 0
M  V30 6 C 3.114587 -0.739239 2.529383 0
M  V30 7 S 3.953909 0.477869 1.593578 0
M  V30 8 O 4.092414 1.708454 2.478228 0
M  V30 9 O 5.303952 -0.047604 1.250865 0
M  V30 10 N 3.027598 0.834614 0.205044 0
M  V30 11 C 1.732281 1.368923 0.451212 0
M  V30 12 C 0.590753 0.492221 -0.054016 0
M  V30 13 C 0.777685 0.350981 -1.515712 0
M  V30 14 C 2.089358 -0.098761 -1.824739 0
M  V30 15 S 2.185975 -0.222728 -3.519570 0
M  V30 16 C 0.427658 0.339780 -3.851877 0
M  V30 17 N -0.319280 0.526708 -5.019116 0
M  V30 18 C -1.572215 0.949424 -4.918577 0
M  V30 19 N -2.023516 1.163989 -3.699527 0
M  V30 20 C -1.383776 1.011627 -2.549565 0
M  V30 21 N -2.102088 1.315733 -1.364809 0
M  V30 22 C -2.993469 0.394965 -0.700200 0
M  V30 23 C -3.592357 0.835109 0.482581 0
M  V30 24 C -4.456108 -0.017618 1.144425 0
M  V30 25 C -4.681386 -1.267380 0.596180 0
M  V30 26 C -4.083875 -1.688409 -0.571351 0
M  V30 27 C -4.346357 -3.032986 -1.134839 0
M  V30 28 C -3.220807 -0.851312 -1.242900 0
M  V30 29 C -0.085327 0.580001 -2.543227 0
M  V30 30 C 3.003473 -0.332208 -0.659981 0
M  V30 31 C 3.393146 -2.064154 2.257025 0
M  V30 32 C 2.779655 -3.107728 2.949156 0
M  V30 33 H 0.451609 -2.929418 6.153436 0
M  V30 34 H -0.675442 -3.985774 5.222553 0
M  V30 35 H 0.590642 -4.671388 6.377100 0
M  V30 36 H 0.855070 -1.297244 5.001402 0
M  V30 37 H 1.977184 0.573543 3.736382 0
M  V30 38 H 1.615888 1.572362 1.546998 0
M  V30 39 H 1.618578 2.363413 -0.055930 0
M  V30 40 H 0.629912 -0.489391 0.461921 0
M  V30 41 H -0.348200 0.975896 0.246412 0
M  V30 42 H -2.001195 1.041299 -5.887360 0
M  V30 43 H -1.935299 2.262298 -1.009817 0
M  V30 44 H -3.378309 1.831908 0.870383 0
M  V30 45 H -4.896615 0.361153 2.052550 0
M  V30 46 H -5.363051 -1.898790 1.147915 0
M  V30 47 H -4.642383 -3.779766 -0.357604 0
M  V30 48 H -3.433729 -3.430254 -1.644747 0
M  V30 49 H -5.134824 -3.003708 -1.922927 0
M  V30 50 H -2.747953 -1.177301 -2.161278 0
M  V30 51 H 3.970789 -0.572019 -1.095780 0
M  V30 52 H 2.650177 -1.183538 -0.043614 0
M  V30 53 H 4.108349 -2.319425 1.484062 0
M  V30 54 H 3.054986 -4.126671 2.674267 0
M  V30 END ATOM
M  V30 BEGIN BOND
M  V30 1 1 1 2
M  V30 2 1 2 3
M  V30 3 2 3 4
M  V30 4 1 4 5
M  V30 5 2 5 6
M  V30 6 1 6 7
M  V30 7 2 7 8
M  V30 8 2 7 9
M  V30 9 1 7 10
M  V30 10 1 10 11
M  V30 11 1 11 12
M  V30 12 1 12 13
M  V30 13 2 13 14
M  V30 14 1 14 15
M  V30 15 1 15 16
M  V30 16 2 16 17
M  V30 17 1 17 18
M  V30 18 2 18 19
M  V30 19 1 19 20
M  V30 20 1 20 21
M  V30 21 1 21 22
M  V30 22 2 22 23
M  V30 23 1 23 24
M  V30 24 2 24 25
M  V30 25 1 25 26
M  V30 26 1 26 27
M  V30 27 2 26 28
M  V30 28 2 20 29
M  V30 29 1 14 30
M  V30 30 1 6 31
M  V30 31 2 31 32
M  V30 32 1 32 3
M  V30 33 1 30 10
M  V30 34 1 29 13
M  V30 35 1 29 16
M  V30 36 1 28 22
M  V30 37 1 1 33
M  V30 38 1 1 34
M  V30 39 1 1 35
M  V30 40 1 4 36
M  V30 41 1 5 37
M  V30 42 1 11 38
M  V30 43 1 11 39
M  V30 44 1 12 40
M  V30 45 1 12 41
M  V30 46 1 18 42
M  V30 47 1 21 43
M  V30 48 1 23 44
M  V30 49 1 24 45
M  V30 50 1 25 46
M  V30 51 1 27 47
M  V30 52 1 27 48
M  V30 53 1 27 49
M  V30 54 1 28 50
M  V30 55 1 30 51
M  V30 56 1 30 52
M  V30 57 1 31 53
M  V30 58 1 32 54
M  V30 END BOND
M  V30 END CTAB
M  END
>  <Dataset>  (610) 
ChEMBL_Kinases

>  <Ligand_Instance>  (610) 
nan

>  <PDB_ID>  (610) 
nan

>  <Standardized_SMILES>  (610) 
COc1ccc(S(=O)(=O)N2CCc3c(sc4ncnc(Nc5cccc(C)c5)c34)C2)cc1

>  <Name>  (610) 
nan

>  <Pocket>  (610) 
nan

>  <ATP_Site>  (610) 
nan

>  <Peripheral>  (610) 
nan

>  <Num_H_Atoms_ProtBoundConf>  (610) 
nan

>  <Num_Resolved_Atoms>  (610) 
nan

>  <Num_Not_Resolved_Atoms>  (610) 
nan

$$$$
CHEMBL4581793
     RDKit          3D

  0  0  0  0  0  0  0  0  0  0999 V3000
M  V30 BEGIN CTAB
M  V30 COUNTS 54 58 0 0 0
M  V30 BEGIN ATOM
M  V30 1 N 7.558917 1.350837 4.853303 0
M  V30 2 C 7.680303 1.270604 3.684942 0
M  V30 3 C 7.841336 1.154368 2.249213 0
M  V30 4 C 9.089676 0.839969 1.776987 0
M  V30 5 C 9.285749 0.721885 0.421375 0
M  V30 6 C 8.204543 0.927667 -0.410402 0
M  V30 7 C 6.922535 1.248405 0.030928 0
M  V30 8 C 6.791477 1.351304 1.387787 0
M  V30 9 N 5.540790 1.663852 1.979030 0
M  V30 10 C 4.248241 1.938884 1.455003 0
M  V30 11 N 3.508033 3.000644 1.108308 0
M  V30 12 C 2.312341 2.550375 0.654018 0
M  V30 13 C 1.164563 3.152515 0.170699 0
M  V30 14 C 0.056255 2.403009 -0.232553 0
M  V30 15 C 0.150051 1.026175 -0.129978 0
M  V30 16 C -1.055046 0.337479 -0.571544 0
M  V30 17 C -2.303555 0.905289 -0.413275 0
M  V30 18 C -3.459003 0.279098 -0.826413 0
M  V30 19 C -3.387846 -0.976851 -1.430600 0
M  V30 20 N -4.594301 -1.599320 -1.840335 0
M  V30 21 C -5.071192 -2.418834 -0.787925 0
M  V30 22 O -4.769602 -2.770032 0.382542 0
M  V30 23 C -6.313493 -3.248122 -0.801875 0
M  V30 24 C -6.461162 -3.991537 0.471749 0
M  V30 25 C -5.843810 -5.233002 0.427859 0
M  V30 26 C -5.847331 -6.108405 1.496754 0
M  V30 27 C -6.512598 -5.686869 2.652543 0
M  V30 28 C -7.130210 -4.460597 2.715220 0
M  V30 29 C -7.107719 -3.597883 1.614962 0
M  V30 30 C -2.154480 -1.623319 -1.628690 0
M  V30 31 C -1.099119 -0.894016 -1.174564 0
M  V30 32 C 1.279463 0.404356 0.347154 0
M  V30 33 N 2.298337 1.207465 0.712819 0
M  V30 34 N 3.480829 0.864286 1.201141 0
M  V30 35 H 9.903166 0.690068 2.500834 0
M  V30 36 H 10.268905 0.474316 0.059668 0
M  V30 37 H 8.430406 0.818555 -1.463897 0
M  V30 38 H 6.113083 1.399109 -0.655578 0
M  V30 39 H 5.398398 1.740907 3.009214 0
M  V30 40 H 1.181715 4.227244 0.127168 0
M  V30 41 H -0.785086 2.959727 -0.592352 0
M  V30 42 H -2.435277 1.882306 0.048953 0
M  V30 43 H -4.443541 0.753728 -0.688661 0
M  V30 44 H -5.171175 -1.585891 -2.694148 0
M  V30 45 H -6.321131 -3.911045 -1.681255 0
M  V30 46 H -7.191642 -2.536846 -0.827950 0
M  V30 47 H -5.308038 -5.641363 -0.422321 0
M  V30 48 H -5.372479 -7.086730 1.490107 0
M  V30 49 H -6.548120 -6.329449 3.518099 0
M  V30 50 H -7.657167 -4.094935 3.590918 0
M  V30 51 H -7.563340 -2.610026 1.562751 0
M  V30 52 H -2.072689 -2.592609 -2.092212 0
M  V30 53 H -0.133052 -1.400064 -1.331493 0
M  V30 54 H 1.295049 -0.670133 0.404672 0
M  V30 END ATOM
M  V30 BEGIN BOND
M  V30 1 3 1 2
M  V30 2 1 2 3
M  V30 3 2 3 4
M  V30 4 1 4 5
M  V30 5 2 5 6
M  V30 6 1 6 7
M  V30 7 2 7 8
M  V30 8 1 8 9
M  V30 9 1 9 10
M  V30 10 1 10 11
M  V30 11 2 11 12
M  V30 12 1 12 13
M  V30 13 2 13 14
M  V30 14 1 14 15
M  V30 15 1 15 16
M  V30 16 2 16 17
M  V30 17 1 17 18
M  V30 18 2 18 19
M  V30 19 1 19 20
M  V30 20 1 20 21
M  V30 21 2 21 22
M  V30 22 1 21 23
M  V30 23 1 23 24
M  V30 24 2 24 25
M  V30 25 1 25 26
M  V30 26 2 26 27
M  V30 27 1 27 28
M  V30 28 2 28 29
M  V30 29 1 19 30
M  V30 30 2 30 31
M  V30 31 2 15 32
M  V30 32 1 32 33
M  V30 33 1 33 34
M  V30 34 1 8 3
M  V30 35 2 34 10
M  V30 36 1 33 12
M  V30 37 1 31 16
M  V30 38 1 29 24
M  V30 39 1 4 35
M  V30 40 1 5 36
M  V30 41 1 6 37
M  V30 42 1 7 38
M  V30 43 1 9 39
M  V30 44 1 13 40
M  V30 45 1 14 41
M  V30 46 1 17 42
M  V30 47 1 18 43
M  V30 48 1 20 44
M  V30 49 1 23 45
M  V30 50 1 23 46
M  V30 51 1 25 47
M  V30 52 1 26 48
M  V30 53 1 27 49
M  V30 54 1 28 50
M  V30 55 1 29 51
M  V30 56 1 30 52
M  V30 57 1 31 53
M  V30 58 1 32 54
M  V30 END BOND
M  V30 END CTAB
M  END
>  <Dataset>  (611) 
ChEMBL_Kinases

>  <Ligand_Instance>  (611) 
nan

>  <PDB_ID>  (611) 
nan

>  <Standardized_SMILES>  (611) 
N#Cc1ccccc1Nc1nc2ccc(-c3ccc(NC(=O)Cc4ccccc4)cc3)cn2n1

>  <Name>  (611) 
nan

>  <Pocket>  (611) 
nan

>  <ATP_Site>  (611) 
nan

>  <Peripheral>  (611) 
nan

>  <Num_H_Atoms_ProtBoundConf>  (611) 
nan

>  <Num_Resolved_Atoms>  (611) 
nan

>  <Num_Not_Resolved_Atoms>  (611) 
nan

$$$$
CHEMBL4581712
     RDKit          3D

  0  0  0  0  0  0  0  0  0  0999 V3000
M  V30 BEGIN CTAB
M  V30 COUNTS 28 30 0 0 0
M  V30 BEGIN ATOM
M  V30 1 C -1.613810 -1.169981 2.650624 0
M  V30 2 C -0.214333 -0.881425 3.086327 0
M  V30 3 N 0.221000 -0.895005 4.341284 0
M  V30 4 N 1.521340 -0.596778 4.420155 0
M  V30 5 C 1.970669 -0.374251 3.153173 0
M  V30 6 C 3.196585 -0.034570 2.593814 0
M  V30 7 C 3.298663 0.116357 1.218946 0
M  V30 8 N 2.222531 -0.063443 0.427930 0
M  V30 9 C 1.024354 -0.393126 0.949614 0
M  V30 10 O -0.090547 -0.580310 0.139931 0
M  V30 11 C 0.108344 -0.404931 -1.253299 0
M  V30 12 C -0.987562 0.298648 -1.987783 0
M  V30 13 C -1.727451 -1.045154 -2.032333 0
M  V30 14 C -0.362335 -1.695669 -1.939421 0
M  V30 15 C 0.891764 -0.550962 2.321612 0
M  V30 16 H -2.211527 -0.236934 2.849075 0
M  V30 17 H -2.008273 -1.931389 3.359397 0
M  V30 18 H -1.677382 -1.471597 1.606745 0
M  V30 19 H 2.110053 -0.538220 5.284060 0
M  V30 20 H 4.000547 0.088663 3.305038 0
M  V30 21 H 4.292119 0.379074 0.901612 0
M  V30 22 H 1.150082 -0.132582 -1.551465 0
M  V30 23 H -1.517926 1.101986 -1.443273 0
M  V30 24 H -0.656210 0.550063 -3.007974 0
M  V30 25 H -2.268684 -1.219684 -2.983034 0
M  V30 26 H -2.298012 -1.156772 -1.097215 0
M  V30 27 H 0.143145 -1.821938 -2.920547 0
M  V30 28 H -0.311540 -2.593057 -1.290384 0
M  V30 END ATOM
M  V30 BEGIN BOND
M  V30 1 1 1 2
M  V30 2 2 2 3
M  V30 3 1 3 4
M  V30 4 1 4 5
M  V30 5 2 5 6
M  V30 6 1 6 7
M  V30 7 2 7 8
M  V30 8 1 8 9
M  V30 9 1 9 10
M  V30 10 1 10 11
M  V30 11 1 11 12
M  V30 12 1 12 13
M  V30 13 1 13 14
M  V30 14 2 9 15
M  V30 15 1 15 2
M  V30 16 1 15 5
M  V30 17 1 14 11
M  V30 18 1 1 16
M  V30 19 1 1 17
M  V30 20 1 1 18
M  V30 21 1 4 19
M  V30 22 1 6 20
M  V30 23 1 7 21
M  V30 24 1 11 22
M  V30 25 1 12 23
M  V30 26 1 12 24
M  V30 27 1 13 25
M  V30 28 1 13 26
M  V30 29 1 14 27
M  V30 30 1 14 28
M  V30 END BOND
M  V30 END CTAB
M  END
>  <Dataset>  (612) 
ChEMBL_Kinases

>  <Ligand_Instance>  (612) 
nan

>  <PDB_ID>  (612) 
nan

>  <Standardized_SMILES>  (612) 
Cc1n[nH]c2ccnc(OC3CCC3)c12

>  <Name>  (612) 
nan

>  <Pocket>  (612) 
nan

>  <ATP_Site>  (612) 
nan

>  <Peripheral>  (612) 
nan

>  <Num_H_Atoms_ProtBoundConf>  (612) 
nan

>  <Num_Resolved_Atoms>  (612) 
nan

>  <Num_Not_Resolved_Atoms>  (612) 
nan

$$$$
CHEMBL4581578
     RDKit          3D

  0  0  0  0  0  0  0  0  0  0999 V3000
M  V30 BEGIN CTAB
M  V30 COUNTS 58 60 0 0 0
M  V30 BEGIN ATOM
M  V30 1 C 1.305009 -2.528698 3.650723 0
M  V30 2 C 0.342146 -1.635965 2.908162 0
M  V30 3 N 0.898614 -0.358888 2.584612 0
M  V30 4 C 0.525611 0.964577 2.955343 0
M  V30 5 O -0.442317 1.219382 3.692926 0
M  V30 6 C 1.327840 2.083632 2.437931 0
M  V30 7 C 2.433458 2.018169 1.611415 0
M  V30 8 N 2.804916 3.315139 1.426796 0
M  V30 9 N 1.994952 4.123160 2.085925 0
M  V30 10 C 2.220620 5.528961 2.017370 0
M  V30 11 C 2.287030 6.220495 0.818361 0
M  V30 12 C 2.506170 7.585508 0.752182 0
M  V30 13 C 2.669631 8.316786 1.920132 0
M  V30 14 C 2.606898 7.642350 3.142664 0
M  V30 15 C 2.385747 6.271288 3.181981 0
M  V30 16 C 1.053691 3.404605 2.734940 0
M  V30 17 N 0.035772 3.980921 3.532300 0
M  V30 18 C -0.104243 -2.329841 1.679996 0
M  V30 19 C -1.316764 -2.973977 1.589022 0
M  V30 20 C -1.796579 -3.639381 0.479241 0
M  V30 21 C -0.996610 -3.667157 -0.645002 0
M  V30 22 C -1.366341 -4.330219 -1.893374 0
M  V30 23 O -0.640361 -4.363496 -2.934789 0
M  V30 24 N -2.600771 -5.018376 -2.070673 0
M  V30 25 C -2.832596 -5.632088 -3.371255 0
M  V30 26 C -4.192975 -6.303052 -3.338056 0
M  V30 27 C -2.734288 -4.626364 -4.488243 0
M  V30 28 C -1.834549 -6.702532 -3.643980 0
M  V30 29 N -0.761281 -7.122437 -2.780634 0
M  V30 30 O -1.662041 -7.485727 -4.637299 0
M  V30 31 C 0.231522 -3.038994 -0.616324 0
M  V30 32 C 0.667473 -2.378615 0.537971 0
M  V30 33 H 2.212258 -2.756524 3.068300 0
M  V30 34 H 1.600798 -2.077182 4.615214 0
M  V30 35 H 0.789805 -3.480521 3.855553 0
M  V30 36 H -0.547909 -1.500103 3.579638 0
M  V30 37 H 1.726902 -0.479402 1.960329 0
M  V30 38 H 2.853127 1.093911 1.234223 0
M  V30 39 H 2.158335 5.644863 -0.101622 0
M  V30 40 H 2.552701 8.101200 -0.220129 0
M  V30 41 H 2.842655 9.379311 1.932510 0
M  V30 42 H 2.732110 8.196526 4.062821 0
M  V30 43 H 2.348974 5.813883 4.161991 0
M  V30 44 H -0.949785 3.667439 3.339852 0
M  V30 45 H 0.215857 4.686129 4.284519 0
M  V30 46 H -1.962356 -2.963212 2.465848 0
M  V30 47 H -2.750856 -4.130232 0.449743 0
M  V30 48 H -3.286890 -5.062436 -1.283965 0
M  V30 49 H -4.121994 -7.419398 -3.423921 0
M  V30 50 H -4.701639 -6.119902 -2.368269 0
M  V30 51 H -4.838984 -5.962216 -4.190037 0
M  V30 52 H -3.509196 -4.937382 -5.245888 0
M  V30 53 H -2.912276 -3.605169 -4.121764 0
M  V30 54 H -1.744990 -4.678427 -4.974107 0
M  V30 55 H -0.649258 -8.027037 -2.243219 0
M  V30 56 H 0.158591 -7.008588 -2.286863 0
M  V30 57 H 0.874571 -3.048449 -1.486350 0
M  V30 58 H 1.638670 -1.904093 0.502498 0
M  V30 END ATOM
M  V30 BEGIN BOND
M  V30 1 1 1 2
M  V30 2 1 2 3
M  V30 3 1 3 4
M  V30 4 2 4 5
M  V30 5 1 4 6
M  V30 6 1 6 7
M  V30 7 2 7 8
M  V30 8 1 8 9
M  V30 9 1 9 10
M  V30 10 2 10 11
M  V30 11 1 11 12
M  V30 12 2 12 13
M  V30 13 1 13 14
M  V30 14 2 14 15
M  V30 15 1 9 16
M  V30 16 1 16 17
M  V30 17 1 2 18
M  V30 18 2 18 19
M  V30 19 1 19 20
M  V30 20 2 20 21
M  V30 21 1 21 22
M  V30 22 2 22 23
M  V30 23 1 22 24
M  V30 24 1 24 25
M  V30 25 1 25 26
M  V30 26 1 25 27
M  V30 27 1 25 28
M  V30 28 1 28 29
M  V30 29 2 28 30
M  V30 30 1 21 31
M  V30 31 2 31 32
M  V30 32 2 16 6
M  V30 33 1 32 18
M  V30 34 1 15 10
M  V30 35 1 1 33
M  V30 36 1 1 34
M  V30 37 1 1 35
M  V30 38 1 2 36
M  V30 39 1 3 37
M  V30 40 1 7 38
M  V30 41 1 11 39
M  V30 42 1 12 40
M  V30 43 1 13 41
M  V30 44 1 14 42
M  V30 45 1 15 43
M  V30 46 1 17 44
M  V30 47 1 17 45
M  V30 48 1 19 46
M  V30 49 1 20 47
M  V30 50 1 24 48
M  V30 51 1 26 49
M  V30 52 1 26 50
M  V30 53 1 26 51
M  V30 54 1 27 52
M  V30 55 1 27 53
M  V30 56 1 27 54
M  V30 57 1 29 55
M  V30 58 1 29 56
M  V30 59 1 31 57
M  V30 60 1 32 58
M  V30 END BOND
M  V30 END CTAB
M  END
>  <Dataset>  (613) 
ChEMBL_Kinases

>  <Ligand_Instance>  (613) 
nan

>  <PDB_ID>  (613) 
nan

>  <Standardized_SMILES>  (613) 
CC(NC(=O)c1cnn(-c2ccccc2)c1N)c1ccc(C(=O)NC(C)(C)C(N)=O)cc1

>  <Name>  (613) 
nan

>  <Pocket>  (613) 
nan

>  <ATP_Site>  (613) 
nan

>  <Peripheral>  (613) 
nan

>  <Num_H_Atoms_ProtBoundConf>  (613) 
nan

>  <Num_Resolved_Atoms>  (613) 
nan

>  <Num_Not_Resolved_Atoms>  (613) 
nan

$$$$
CHEMBL4581507
     RDKit          3D

  0  0  0  0  0  0  0  0  0  0999 V3000
M  V30 BEGIN CTAB
M  V30 COUNTS 57 60 0 0 0
M  V30 BEGIN ATOM
M  V30 1 O 2.266166 -2.012615 0.124620 0
M  V30 2 C 1.902829 -0.823658 0.476959 0
M  V30 3 N 2.897033 0.030429 0.863780 0
M  V30 4 C 4.211607 -0.509236 0.827879 0
M  V30 5 C 4.557496 -1.099619 2.042850 0
M  V30 6 C 5.829881 -1.670447 2.135389 0
M  V30 7 N 6.639929 -1.622586 1.072495 0
M  V30 8 N 6.267331 -1.055921 -0.047525 0
M  V30 9 C 5.071564 -0.478688 -0.246320 0
M  V30 10 C 0.688551 -1.466904 0.136290 0
M  V30 11 C 0.074307 -0.139103 0.533380 0
M  V30 12 C -1.291928 0.284135 0.544979 0
M  V30 13 N -1.940964 1.502613 0.881332 0
M  V30 14 C -1.303729 2.803536 0.971247 0
M  V30 15 C -1.581223 3.468836 2.291212 0
M  V30 16 C -2.374398 2.669556 3.264947 0
M  V30 17 C -1.503857 1.903315 4.251868 0
M  V30 18 O -0.650683 1.007609 3.616835 0
M  V30 19 C -3.464606 1.839041 2.688565 0
M  V30 20 C -3.324192 1.651678 1.195745 0
M  V30 21 C -2.261068 -0.644950 0.130074 0
M  V30 22 C -1.794674 -1.872935 -0.246924 0
M  V30 23 C -0.476278 -2.083953 -0.190505 0
M  V30 24 O 0.341601 -3.191524 -0.492549 0
M  V30 25 C 0.029752 -4.428280 -0.970083 0
M  V30 26 C -0.582796 -4.467579 -2.325394 0
M  V30 27 C 0.414624 -4.409265 -3.321890 0
M  V30 28 C 0.109533 -4.442775 -4.666768 0
M  V30 29 C -1.186186 -4.534660 -5.120302 0
M  V30 30 C -2.156359 -4.591548 -4.144524 0
M  V30 31 C -1.869928 -4.559704 -2.802490 0
M  V30 32 H 2.271952 0.839452 1.061534 0
M  V30 33 H 3.952672 -1.165555 2.923653 0
M  V30 34 H 6.231462 -2.161410 3.017240 0
M  V30 35 H 4.692057 0.003983 -1.128659 0
M  V30 36 H 0.370975 0.881815 0.921881 0
M  V30 37 H -0.205479 2.776011 0.832641 0
M  V30 38 H -1.774778 3.469553 0.188845 0
M  V30 39 H -0.593672 3.686971 2.789190 0
M  V30 40 H -2.067879 4.467977 2.154177 0
M  V30 41 H -2.904573 3.441680 3.920753 0
M  V30 42 H -2.143574 1.314018 4.943938 0
M  V30 43 H -0.946260 2.604640 4.917869 0
M  V30 44 H -0.604620 0.126857 4.111256 0
M  V30 45 H -4.485267 2.211784 2.924808 0
M  V30 46 H -3.407416 0.805444 3.125121 0
M  V30 47 H -3.745855 2.516200 0.608128 0
M  V30 48 H -3.984010 0.807409 0.892090 0
M  V30 49 H -3.318100 -0.742717 -0.013143 0
M  V30 50 H -2.221996 -2.791203 -0.594396 0
M  V30 51 H -0.656291 -5.016794 -0.299057 0
M  V30 52 H 0.960213 -5.070913 -0.981601 0
M  V30 53 H 1.490268 -4.337174 -3.133057 0
M  V30 54 H 0.869956 -4.398210 -5.440029 0
M  V30 55 H -1.468227 -4.564205 -6.160493 0
M  V30 56 H -3.211985 -4.663598 -4.372053 0
M  V30 57 H -2.576893 -4.610563 -1.994712 0
M  V30 END ATOM
M  V30 BEGIN BOND
M  V30 1 2 1 2
M  V30 2 1 2 3
M  V30 3 1 3 4
M  V30 4 2 4 5
M  V30 5 1 5 6
M  V30 6 2 6 7
M  V30 7 1 7 8
M  V30 8 2 8 9
M  V30 9 1 2 10
M  V30 10 2 10 11
M  V30 11 1 11 12
M  V30 12 1 12 13
M  V30 13 1 13 14
M  V30 14 1 14 15
M  V30 15 1 15 16
M  V30 16 1 16 17
M  V30 17 1 17 18
M  V30 18 1 16 19
M  V30 19 1 19 20
M  V30 20 2 12 21
M  V30 21 1 21 22
M  V30 22 2 22 23
M  V30 23 1 23 24
M  V30 24 1 24 25
M  V30 25 1 25 26
M  V30 26 2 26 27
M  V30 27 1 27 28
M  V30 28 2 28 29
M  V30 29 1 29 30
M  V30 30 2 30 31
M  V30 31 1 9 4
M  V30 32 1 23 10
M  V30 33 1 31 26
M  V30 34 1 20 13
M  V30 35 1 3 32
M  V30 36 1 5 33
M  V30 37 1 6 34
M  V30 38 1 9 35
M  V30 39 1 11 36
M  V30 40 1 14 37
M  V30 41 1 14 38
M  V30 42 1 15 39
M  V30 43 1 15 40
M  V30 44 1 16 41
M  V30 45 1 17 42
M  V30 46 1 17 43
M  V30 47 1 18 44
M  V30 48 1 19 45
M  V30 49 1 19 46
M  V30 50 1 20 47
M  V30 51 1 20 48
M  V30 52 1 21 49
M  V30 53 1 22 50
M  V30 54 1 25 51
M  V30 55 1 25 52
M  V30 56 1 27 53
M  V30 57 1 28 54
M  V30 58 1 29 55
M  V30 59 1 30 56
M  V30 60 1 31 57
M  V30 END BOND
M  V30 END CTAB
M  END
>  <Dataset>  (614) 
ChEMBL_Kinases

>  <Ligand_Instance>  (614) 
nan

>  <PDB_ID>  (614) 
nan

>  <Standardized_SMILES>  (614) 
O=C(Nc1ccnnc1)c1cc(N2CCC(CO)CC2)ccc1OCc1ccccc1

>  <Name>  (614) 
nan

>  <Pocket>  (614) 
nan

>  <ATP_Site>  (614) 
nan

>  <Peripheral>  (614) 
nan

>  <Num_H_Atoms_ProtBoundConf>  (614) 
nan

>  <Num_Resolved_Atoms>  (614) 
nan

>  <Num_Not_Resolved_Atoms>  (614) 
nan

$$$$
CHEMBL4581461
     RDKit          3D

  0  0  0  0  0  0  0  0  0  0999 V3000
M  V30 BEGIN CTAB
M  V30 COUNTS 27 29 0 0 0
M  V30 BEGIN ATOM
M  V30 1 C -2.308334 -2.400320 2.023744 0
M  V30 2 N -1.188241 -2.719302 2.907477 0
M  V30 3 C 0.069676 -2.107323 2.642255 0
M  V30 4 N 1.138633 -2.380164 3.444842 0
M  V30 5 C 2.337686 -1.791680 3.185373 0
M  V30 6 C 2.525990 -0.918829 2.132814 0
M  V30 7 C 1.413822 -0.661623 1.332352 0
M  V30 8 C 1.557859 0.256171 0.202922 0
M  V30 9 C 2.705179 0.921394 -0.177687 0
M  V30 10 N 2.382449 1.652365 -1.260932 0
M  V30 11 N 1.090823 1.450876 -1.542161 0
M  V30 12 N 0.393203 1.993573 -2.538774 0
M  V30 13 C -0.896736 1.726222 -2.733924 0
M  V30 14 C -1.487523 0.857848 -1.856198 0
M  V30 15 C -0.803245 0.260743 -0.794641 0
M  V30 16 C 0.543015 0.600183 -0.669301 0
M  V30 17 N 0.242560 -1.264367 1.621982 0
M  V30 18 H -1.980829 -2.724620 0.999707 0
M  V30 19 H -2.393806 -1.286332 1.961950 0
M  V30 20 H -3.231103 -2.887324 2.334020 0
M  V30 21 H -1.288987 -3.369176 3.707654 0
M  V30 22 H 3.193074 -2.000071 3.814723 0
M  V30 23 H 3.498294 -0.476669 1.967839 0
M  V30 24 H 3.653243 0.833907 0.333917 0
M  V30 25 H -1.529495 2.123593 -3.514873 0
M  V30 26 H -2.546096 0.589342 -1.952679 0
M  V30 27 H -1.245452 -0.422778 -0.094166 0
M  V30 END ATOM
M  V30 BEGIN BOND
M  V30 1 1 1 2
M  V30 2 1 2 3
M  V30 3 2 3 4
M  V30 4 1 4 5
M  V30 5 2 5 6
M  V30 6 1 6 7
M  V30 7 1 7 8
M  V30 8 1 8 9
M  V30 9 2 9 10
M  V30 10 1 10 11
M  V30 11 1 11 12
M  V30 12 2 12 13
M  V30 13 1 13 14
M  V30 14 2 14 15
M  V30 15 1 15 16
M  V30 16 2 7 17
M  V30 17 1 17 3
M  V30 18 2 16 8
M  V30 19 1 16 11
M  V30 20 1 1 18
M  V30 21 1 1 19
M  V30 22 1 1 20
M  V30 23 1 2 21
M  V30 24 1 5 22
M  V30 25 1 6 23
M  V30 26 1 9 24
M  V30 27 1 13 25
M  V30 28 1 14 26
M  V30 29 1 15 27
M  V30 END BOND
M  V30 END CTAB
M  END
>  <Dataset>  (615) 
ChEMBL_Kinases

>  <Ligand_Instance>  (615) 
nan

>  <PDB_ID>  (615) 
nan

>  <Standardized_SMILES>  (615) 
CNc1nccc(-c2cnn3ncccc23)n1

>  <Name>  (615) 
nan

>  <Pocket>  (615) 
nan

>  <ATP_Site>  (615) 
nan

>  <Peripheral>  (615) 
nan

>  <Num_H_Atoms_ProtBoundConf>  (615) 
nan

>  <Num_Resolved_Atoms>  (615) 
nan

>  <Num_Not_Resolved_Atoms>  (615) 
nan

$$$$
CHEMBL4581418
     RDKit          3D

  0  0  0  0  0  0  0  0  0  0999 V3000
M  V30 BEGIN CTAB
M  V30 COUNTS 33 35 0 0 0
M  V30 BEGIN ATOM
M  V30 1 O 0.765610 -2.810878 4.167296 0
M  V30 2 C -0.607177 -2.777710 4.213581 0
M  V30 3 C -1.214403 -2.969570 2.840796 0
M  V30 4 N -0.897084 -2.048833 1.848323 0
M  V30 5 C -0.577917 -1.122755 0.850091 0
M  V30 6 N 0.594446 -0.739873 0.323709 0
M  V30 7 C 0.764347 0.164323 -0.635577 0
M  V30 8 C 2.112216 0.471732 -1.096054 0
M  V30 9 C 3.203029 -0.150053 -0.534977 0
M  V30 10 C 4.457813 0.212201 -1.039638 0
M  V30 11 N 4.561025 1.119784 -2.018348 0
M  V30 12 C 3.466564 1.699150 -2.534136 0
M  V30 13 C 2.164066 1.410671 -2.103240 0
M  V30 14 N -0.357440 0.715091 -1.086204 0
M  V30 15 C -1.603874 0.452701 -0.677232 0
M  V30 16 C -2.633484 1.141470 -1.281385 0
M  V30 17 N -3.868393 0.847033 -0.839864 0
M  V30 18 C -4.095107 -0.056320 0.125018 0
M  V30 19 C -3.024505 -0.711466 0.689537 0
M  V30 20 C -1.706678 -0.495409 0.320949 0
M  V30 21 H 1.132191 -1.891155 4.063656 0
M  V30 22 H -1.041486 -3.582743 4.850817 0
M  V30 23 H -0.890131 -1.816902 4.682894 0
M  V30 24 H -1.047037 -4.027257 2.541332 0
M  V30 25 H -2.337941 -2.933969 2.992141 0
M  V30 26 H 0.117173 -2.345370 2.045393 0
M  V30 27 H 3.071472 -0.880066 0.257274 0
M  V30 28 H 5.284109 -0.312873 -0.557272 0
M  V30 29 H 3.585879 2.433368 -3.328297 0
M  V30 30 H 1.290989 1.871953 -2.514331 0
M  V30 31 H -2.405442 1.869274 -2.064456 0
M  V30 32 H -5.092021 -0.286448 0.472925 0
M  V30 33 H -3.229828 -1.431171 1.460387 0
M  V30 END ATOM
M  V30 BEGIN BOND
M  V30 1 1 1 2
M  V30 2 1 2 3
M  V30 3 1 3 4
M  V30 4 1 4 5
M  V30 5 2 5 6
M  V30 6 1 6 7
M  V30 7 1 7 8
M  V30 8 2 8 9
M  V30 9 1 9 10
M  V30 10 2 10 11
M  V30 11 1 11 12
M  V30 12 2 12 13
M  V30 13 2 7 14
M  V30 14 1 14 15
M  V30 15 2 15 16
M  V30 16 1 16 17
M  V30 17 2 17 18
M  V30 18 1 18 19
M  V30 19 2 19 20
M  V30 20 1 20 5
M  V30 21 1 13 8
M  V30 22 1 20 15
M  V30 23 1 1 21
M  V30 24 1 2 22
M  V30 25 1 2 23
M  V30 26 1 3 24
M  V30 27 1 3 25
M  V30 28 1 4 26
M  V30 29 1 9 27
M  V30 30 1 10 28
M  V30 31 1 12 29
M  V30 32 1 13 30
M  V30 33 1 16 31
M  V30 34 1 18 32
M  V30 35 1 19 33
M  V30 END BOND
M  V30 END CTAB
M  END
>  <Dataset>  (616) 
ChEMBL_Kinases

>  <Ligand_Instance>  (616) 
nan

>  <PDB_ID>  (616) 
nan

>  <Standardized_SMILES>  (616) 
OCCNc1nc(-c2ccncc2)nc2cnccc12

>  <Name>  (616) 
nan

>  <Pocket>  (616) 
nan

>  <ATP_Site>  (616) 
nan

>  <Peripheral>  (616) 
nan

>  <Num_H_Atoms_ProtBoundConf>  (616) 
nan

>  <Num_Resolved_Atoms>  (616) 
nan

>  <Num_Not_Resolved_Atoms>  (616) 
nan

$$$$
CHEMBL4581255
     RDKit          3D

  0  0  0  0  0  0  0  0  0  0999 V3000
M  V30 BEGIN CTAB
M  V30 COUNTS 36 39 0 0 0
M  V30 BEGIN ATOM
M  V30 1 C -1.308002 -2.613109 4.161928 0
M  V30 2 C -0.607462 -3.185449 3.130923 0
M  V30 3 C -0.224538 -2.303692 2.120057 0
M  V30 4 C 0.507076 -2.855871 1.011232 0
M  V30 5 N 0.897996 -4.147486 0.816622 0
M  V30 6 N 1.547240 -4.306422 -0.292677 0
M  V30 7 C 1.659049 -3.147908 -0.953627 0
M  V30 8 C 2.258146 -2.849604 -2.152319 0
M  V30 9 C 2.190304 -1.531128 -2.552561 0
M  V30 10 N 1.549286 -0.620323 -1.758301 0
M  V30 11 C 0.986698 -0.994120 -0.595843 0
M  V30 12 O 0.383788 0.030235 0.080612 0
M  V30 13 C 0.402647 1.367019 -0.436278 0
M  V30 14 C 1.011552 2.261927 0.585453 0
M  V30 15 C -0.002687 2.785676 1.552956 0
M  V30 16 O -1.182855 3.220781 1.004149 0
M  V30 17 C -1.794275 2.154430 0.351256 0
M  V30 18 C -0.949252 1.847765 -0.850527 0
M  V30 19 C 1.004290 -2.273241 -0.118639 0
M  V30 20 N -0.754841 -1.219835 2.657397 0
M  V30 21 N -1.371287 -1.323054 3.791600 0
M  V30 22 H -1.725830 -3.013524 5.054415 0
M  V30 23 H -0.433348 -4.273435 3.228371 0
M  V30 24 H 1.868438 -5.275070 -0.488758 0
M  V30 25 H 2.741568 -3.633297 -2.713530 0
M  V30 26 H 2.652176 -1.254942 -3.494369 0
M  V30 27 H 1.065441 1.315334 -1.368289 0
M  V30 28 H 1.743772 1.655904 1.196422 0
M  V30 29 H 1.551737 3.123091 0.107990 0
M  V30 30 H 0.458279 3.592824 2.191202 0
M  V30 31 H -0.251246 1.987912 2.281404 0
M  V30 32 H -2.833465 2.438641 0.033975 0
M  V30 33 H -1.891995 1.248567 0.958862 0
M  V30 34 H -1.456849 1.147951 -1.555547 0
M  V30 35 H -0.809033 2.845594 -1.371461 0
M  V30 36 H -0.668850 -0.329013 2.180884 0
M  V30 END ATOM
M  V30 BEGIN BOND
M  V30 1 1 1 2
M  V30 2 2 2 3
M  V30 3 1 3 4
M  V30 4 2 4 5
M  V30 5 1 5 6
M  V30 6 1 6 7
M  V30 7 2 7 8
M  V30 8 1 8 9
M  V30 9 2 9 10
M  V30 10 1 10 11
M  V30 11 1 11 12
M  V30 12 1 12 13
M  V30 13 1 13 14
M  V30 14 1 14 15
M  V30 15 1 15 16
M  V30 16 1 16 17
M  V30 17 1 17 18
M  V30 18 2 11 19
M  V30 19 1 3 20
M  V30 20 1 20 21
M  V30 21 2 21 1
M  V30 22 1 19 4
M  V30 23 1 19 7
M  V30 24 1 18 13
M  V30 25 1 1 22
M  V30 26 1 2 23
M  V30 27 1 6 24
M  V30 28 1 8 25
M  V30 29 1 9 26
M  V30 30 1 13 27
M  V30 31 1 14 28
M  V30 32 1 14 29
M  V30 33 1 15 30
M  V30 34 1 15 31
M  V30 35 1 17 32
M  V30 36 1 17 33
M  V30 37 1 18 34
M  V30 38 1 18 35
M  V30 39 1 20 36
M  V30 END BOND
M  V30 END CTAB
M  END
>  <Dataset>  (617) 
ChEMBL_Kinases

>  <Ligand_Instance>  (617) 
nan

>  <PDB_ID>  (617) 
nan

>  <Standardized_SMILES>  (617) 
c1cc(-c2n[nH]c3ccnc(OC4CCOCC4)c23)[nH]n1

>  <Name>  (617) 
nan

>  <Pocket>  (617) 
nan

>  <ATP_Site>  (617) 
nan

>  <Peripheral>  (617) 
nan

>  <Num_H_Atoms_ProtBoundConf>  (617) 
nan

>  <Num_Resolved_Atoms>  (617) 
nan

>  <Num_Not_Resolved_Atoms>  (617) 
nan

$$$$
CHEMBL4581198
     RDKit          3D

  0  0  0  0  0  0  0  0  0  0999 V3000
M  V30 BEGIN CTAB
M  V30 COUNTS 45 48 0 0 0
M  V30 BEGIN ATOM
M  V30 1 C -2.599079 -2.333800 2.596856 0
M  V30 2 C -1.627040 -1.558252 1.766465 0
M  V30 3 C -2.206518 -1.484956 0.368856 0
M  V30 4 N -1.363189 -0.219852 2.233380 0
M  V30 5 C -0.457790 0.615715 1.528953 0
M  V30 6 N 0.152475 0.152942 0.423412 0
M  V30 7 C 1.021423 0.891558 -0.291823 0
M  V30 8 C 1.672563 0.370535 -1.489341 0
M  V30 9 C 1.429405 -0.905644 -1.951067 0
M  V30 10 C 2.077290 -1.342025 -3.092465 0
M  V30 11 N 2.949435 -0.554006 -3.778723 0
M  V30 12 C 3.193586 0.683904 -3.342011 0
M  V30 13 C 2.564075 1.143530 -2.210938 0
M  V30 14 N 1.303490 2.148222 0.100964 0
M  V30 15 C 0.736102 2.701996 1.204721 0
M  V30 16 C 1.029633 3.990734 1.601685 0
M  V30 17 N 0.416452 4.449700 2.708739 0
M  V30 18 C -0.443944 3.734411 3.426773 0
M  V30 19 C -0.736477 2.446542 3.028983 0
M  V30 20 C -0.147695 1.905604 1.904442 0
M  V30 21 C -0.366173 -2.381830 1.698122 0
M  V30 22 C -0.238208 -3.294013 0.670747 0
M  V30 23 C 0.891067 -4.084368 0.544930 0
M  V30 24 C 1.873557 -3.910086 1.496979 0
M  V30 25 F 2.982388 -4.680996 1.379945 0
M  V30 26 C 1.806390 -3.010297 2.554700 0
M  V30 27 C 0.644393 -2.243357 2.627102 0
M  V30 28 H -3.613551 -1.879000 2.520206 0
M  V30 29 H -2.694854 -3.338212 2.135083 0
M  V30 30 H -2.266095 -2.485186 3.641882 0
M  V30 31 H -1.419783 -1.425847 -0.406276 0
M  V30 32 H -2.896452 -0.620553 0.263397 0
M  V30 33 H -2.843264 -2.375109 0.141456 0
M  V30 34 H -1.891319 0.017129 3.089071 0
M  V30 35 H 0.743928 -1.565154 -1.436859 0
M  V30 36 H 1.904017 -2.338468 -3.475164 0
M  V30 37 H 3.899549 1.313221 -3.902643 0
M  V30 38 H 2.744859 2.146665 -1.834173 0
M  V30 39 H 1.735801 4.529624 0.982845 0
M  V30 40 H -0.864262 4.227048 4.294920 0
M  V30 41 H -1.438337 1.887568 3.629746 0
M  V30 42 H -1.002504 -3.444329 -0.087923 0
M  V30 43 H 1.026517 -4.813985 -0.251969 0
M  V30 44 H 2.604663 -2.911834 3.275181 0
M  V30 45 H 0.542309 -1.528491 3.430979 0
M  V30 END ATOM
M  V30 BEGIN BOND
M  V30 1 1 1 2
M  V30 2 1 2 3
M  V30 3 1 2 4
M  V30 4 1 4 5
M  V30 5 2 5 6
M  V30 6 1 6 7
M  V30 7 1 7 8
M  V30 8 2 8 9
M  V30 9 1 9 10
M  V30 10 2 10 11
M  V30 11 1 11 12
M  V30 12 2 12 13
M  V30 13 2 7 14
M  V30 14 1 14 15
M  V30 15 2 15 16
M  V30 16 1 16 17
M  V30 17 2 17 18
M  V30 18 1 18 19
M  V30 19 2 19 20
M  V30 20 1 2 21
M  V30 21 2 21 22
M  V30 22 1 22 23
M  V30 23 2 23 24
M  V30 24 1 24 25
M  V30 25 1 24 26
M  V30 26 2 26 27
M  V30 27 1 20 5
M  V30 28 1 27 21
M  V30 29 1 13 8
M  V30 30 1 20 15
M  V30 31 1 1 28
M  V30 32 1 1 29
M  V30 33 1 1 30
M  V30 34 1 3 31
M  V30 35 1 3 32
M  V30 36 1 3 33
M  V30 37 1 4 34
M  V30 38 1 9 35
M  V30 39 1 10 36
M  V30 40 1 12 37
M  V30 41 1 13 38
M  V30 42 1 16 39
M  V30 43 1 18 40
M  V30 44 1 19 41
M  V30 45 1 22 42
M  V30 46 1 23 43
M  V30 47 1 26 44
M  V30 48 1 27 45
M  V30 END BOND
M  V30 END CTAB
M  END
>  <Dataset>  (618) 
ChEMBL_Kinases

>  <Ligand_Instance>  (618) 
nan

>  <PDB_ID>  (618) 
nan

>  <Standardized_SMILES>  (618) 
CC(C)(Nc1nc(-c2ccncc2)nc2cnccc12)c1ccc(F)cc1

>  <Name>  (618) 
nan

>  <Pocket>  (618) 
nan

>  <ATP_Site>  (618) 
nan

>  <Peripheral>  (618) 
nan

>  <Num_H_Atoms_ProtBoundConf>  (618) 
nan

>  <Num_Resolved_Atoms>  (618) 
nan

>  <Num_Not_Resolved_Atoms>  (618) 
nan

$$$$
CHEMBL4580787
     RDKit          3D

  0  0  0  0  0  0  0  0  0  0999 V3000
M  V30 BEGIN CTAB
M  V30 COUNTS 74 77 0 0 0
M  V30 BEGIN ATOM
M  V30 1 C 1.737581 -9.174139 -0.867138 0
M  V30 2 N 1.626118 -9.270556 -2.286587 0
M  V30 3 C 0.269212 -9.287768 -2.719228 0
M  V30 4 C 2.484918 -8.427604 -3.040659 0
M  V30 5 C 2.191797 -6.960371 -2.903125 0
M  V30 6 C 1.814466 -6.196966 -3.930178 0
M  V30 7 C 1.529368 -4.770978 -3.784288 0
M  V30 8 O 1.688069 -4.384571 -2.599072 0
M  V30 9 N 1.135120 -3.919364 -4.811419 0
M  V30 10 C 0.859265 -2.539479 -4.737816 0
M  V30 11 C 0.528332 -1.955442 -5.943208 0
M  V30 12 C 0.249518 -0.599272 -6.043054 0
M  V30 13 C 0.281929 0.237321 -4.959846 0
M  V30 14 C 0.605158 -0.270121 -3.739343 0
M  V30 15 S 0.824096 0.419871 -2.172684 0
M  V30 16 O 1.781787 -0.287804 -1.286998 0
M  V30 17 O 1.519581 1.813555 -2.429400 0
M  V30 18 N -0.607883 0.792356 -1.394115 0
M  V30 19 C -1.447680 1.797718 -1.997711 0
M  V30 20 C -2.325859 2.379882 -0.910592 0
M  V30 21 C -2.349860 1.460350 0.272388 0
M  V30 22 N -1.317957 1.565084 1.219235 0
M  V30 23 C -1.087245 2.174621 2.458465 0
M  V30 24 O -1.948056 2.859959 3.019847 0
M  V30 25 C 0.257486 1.954226 3.070224 0
M  V30 26 N 1.228589 1.090362 2.643584 0
M  V30 27 N 2.281754 1.112971 3.445584 0
M  V30 28 C 2.055416 1.990120 4.422992 0
M  V30 29 C 0.770476 2.551464 4.235084 0
M  V30 30 N 0.094992 3.501048 4.986438 0
M  V30 31 C -0.840840 3.612525 6.029316 0
M  V30 32 O -1.136981 2.411095 6.329569 0
M  V30 33 C -1.422716 4.738095 6.694658 0
M  V30 34 C -1.210734 6.084286 6.561536 0
M  V30 35 Cl -0.000657 6.546194 5.398875 0
M  V30 36 C -1.814813 7.082772 7.229030 0
M  V30 37 C -2.756420 6.711232 8.155470 0
M  V30 38 Cl -3.617714 7.910996 9.090419 0
M  V30 39 C -3.065818 5.386839 8.389698 0
M  V30 40 C -2.389204 4.412701 7.648650 0
M  V30 41 Cl -2.826058 2.760537 8.003416 0
M  V30 42 C -2.611644 0.080827 -0.228934 0
M  V30 43 C -1.404284 -0.377979 -1.035338 0
M  V30 44 C 0.885294 -1.665345 -3.684615 0
M  V30 45 H 2.028936 -10.149699 -0.406740 0
M  V30 46 H 2.477309 -8.390083 -0.523368 0
M  V30 47 H 0.759470 -8.914912 -0.427283 0
M  V30 48 H 0.058806 -10.041321 -3.517485 0
M  V30 49 H -0.006100 -8.273312 -3.087131 0
M  V30 50 H -0.473305 -9.507330 -1.898548 0
M  V30 51 H 3.547944 -8.574986 -2.687404 0
M  V30 52 H 2.515924 -8.717603 -4.121956 0
M  V30 53 H 2.306734 -6.554186 -1.917844 0
M  V30 54 H 1.746563 -6.709690 -4.871811 0
M  V30 55 H 1.057792 -4.483346 -5.701979 0
M  V30 56 H 0.454482 -2.519615 -6.876904 0
M  V30 57 H -0.015585 -0.166502 -6.988291 0
M  V30 58 H 0.072486 1.274197 -4.918189 0
M  V30 59 H -0.733640 2.671893 -2.235509 0
M  V30 60 H -1.978760 1.539980 -2.878767 0
M  V30 61 H -2.030517 3.422041 -0.621638 0
M  V30 62 H -3.366094 2.429299 -1.337919 0
M  V30 63 H -3.282530 1.809239 0.832272 0
M  V30 64 H -0.551648 0.996576 0.827345 0
M  V30 65 H 3.141101 0.516648 3.280287 0
M  V30 66 H 2.703868 2.255667 5.254993 0
M  V30 67 H 0.436256 4.410589 4.609726 0
M  V30 68 H -1.640155 8.111140 7.103853 0
M  V30 69 H -3.794297 5.007336 9.126038 0
M  V30 70 H -3.451306 0.178482 -0.952248 0
M  V30 71 H -2.954293 -0.667314 0.510202 0
M  V30 72 H -0.786741 -1.029581 -0.422148 0
M  V30 73 H -1.683866 -0.873587 -1.966080 0
M  V30 74 H 1.159478 -2.216477 -2.793141 0
M  V30 END ATOM
M  V30 BEGIN BOND
M  V30 1 1 1 2
M  V30 2 1 2 3
M  V30 3 1 2 4
M  V30 4 1 4 5
M  V30 5 2 5 6
M  V30 6 1 6 7
M  V30 7 2 7 8
M  V30 8 1 7 9
M  V30 9 1 9 10
M  V30 10 2 10 11
M  V30 11 1 11 12
M  V30 12 2 12 13
M  V30 13 1 13 14
M  V30 14 1 14 15
M  V30 15 2 15 16
M  V30 16 2 15 17
M  V30 17 1 15 18
M  V30 18 1 18 19
M  V30 19 1 19 20
M  V30 20 1 20 21
M  V30 21 1 21 22
M  V30 22 1 22 23
M  V30 23 2 23 24
M  V30 24 1 23 25
M  V30 25 2 25 26
M  V30 26 1 26 27
M  V30 27 1 27 28
M  V30 28 2 28 29
M  V30 29 1 29 30
M  V30 30 1 30 31
M  V30 31 2 31 32
M  V30 32 1 31 33
M  V30 33 2 33 34
M  V30 34 1 34 35
M  V30 35 1 34 36
M  V30 36 2 36 37
M  V30 37 1 37 38
M  V30 38 1 37 39
M  V30 39 2 39 40
M  V30 40 1 40 41
M  V30 41 1 21 42
M  V30 42 1 42 43
M  V30 43 2 14 44
M  V30 44 1 44 10
M  V30 45 1 43 18
M  V30 46 1 29 25
M  V30 47 1 40 33
M  V30 48 1 1 45
M  V30 49 1 1 46
M  V30 50 1 1 47
M  V30 51 1 3 48
M  V30 52 1 3 49
M  V30 53 1 3 50
M  V30 54 1 4 51
M  V30 55 1 4 52
M  V30 56 1 5 53
M  V30 57 1 6 54
M  V30 58 1 9 55
M  V30 59 1 11 56
M  V30 60 1 12 57
M  V30 61 1 13 58
M  V30 62 1 19 59
M  V30 63 1 19 60
M  V30 64 1 20 61
M  V30 65 1 20 62
M  V30 66 1 21 63
M  V30 67 1 22 64
M  V30 68 1 27 65
M  V30 69 1 28 66
M  V30 70 1 30 67
M  V30 71 1 36 68
M  V30 72 1 39 69
M  V30 73 1 42 70
M  V30 74 1 42 71
M  V30 75 1 43 72
M  V30 76 1 43 73
M  V30 77 1 44 74
M  V30 END BOND
M  V30 END CTAB
M  END
>  <Dataset>  (619) 
ChEMBL_Kinases

>  <Ligand_Instance>  (619) 
nan

>  <PDB_ID>  (619) 
nan

>  <Standardized_SMILES>  (619) 
CN(C)C/C=C/C(=O)Nc1cccc(S(=O)(=O)N2CCC(NC(=O)c3n[nH]cc3NC(=O)c3c(Cl)cc(Cl)cc3Cl)CC2)c1

>  <Name>  (619) 
nan

>  <Pocket>  (619) 
nan

>  <ATP_Site>  (619) 
nan

>  <Peripheral>  (619) 
nan

>  <Num_H_Atoms_ProtBoundConf>  (619) 
nan

>  <Num_Resolved_Atoms>  (619) 
nan

>  <Num_Not_Resolved_Atoms>  (619) 
nan

$$$$
CHEMBL4583779
     RDKit          3D

  0  0  0  0  0  0  0  0  0  0999 V3000
M  V30 BEGIN CTAB
M  V30 COUNTS 51 54 0 0 0
M  V30 BEGIN ATOM
M  V30 1 C 2.403462 -3.346468 6.799695 0
M  V30 2 N 1.551876 -3.526293 5.638942 0
M  V30 3 C 0.670103 -4.662306 5.560822 0
M  V30 4 C 1.587147 -2.587227 4.584751 0
M  V30 5 C 2.419094 -1.482830 4.619570 0
M  V30 6 C 2.453890 -0.556173 3.579366 0
M  V30 7 C 1.643190 -0.728833 2.476489 0
M  V30 8 C 1.586485 0.165377 1.327104 0
M  V30 9 C 2.354440 1.304351 1.217713 0
M  V30 10 C 2.316770 2.166179 0.137300 0
M  V30 11 N 3.092095 3.268490 0.083123 0
M  V30 12 C 3.058934 4.114600 -0.971473 0
M  V30 13 C 2.195044 3.817279 -2.012572 0
M  V30 14 N 1.412788 2.716677 -1.971590 0
M  V30 15 C 1.463707 1.891078 -0.912624 0
M  V30 16 C 0.704941 0.746758 -0.782094 0
M  V30 17 O -0.174488 0.409073 -1.800463 0
M  V30 18 C -0.995973 -0.750466 -1.753103 0
M  V30 19 C -1.815803 -0.791889 -3.025741 0 CFG=2
M  V30 20 C -2.652329 0.469296 -3.071141 0
M  V30 21 C -3.702836 0.399085 -2.013009 0
M  V30 22 C -4.434194 -0.899834 -1.943650 0
M  V30 23 N -4.101454 -1.662983 -3.127439 0
M  V30 24 C -2.679243 -2.000145 -3.126245 0
M  V30 25 N 0.767304 -0.070543 0.285451 0
M  V30 26 C 0.827188 -1.840795 2.476331 0
M  V30 27 N 0.802942 -2.739690 3.500700 0
M  V30 28 H 3.450553 -3.681016 6.634503 0
M  V30 29 H 2.368352 -2.274481 7.114949 0
M  V30 30 H 2.026750 -3.924192 7.683138 0
M  V30 31 H 1.206580 -5.592681 5.255570 0
M  V30 32 H -0.168573 -4.501353 4.846470 0
M  V30 33 H 0.208373 -4.842954 6.531767 0
M  V30 34 H 3.082048 -1.299252 5.471313 0
M  V30 35 H 3.101123 0.309234 3.599043 0
M  V30 36 H 3.041199 1.573673 2.006341 0
M  V30 37 H 3.701649 4.994866 -0.976727 0
M  V30 38 H 2.149273 4.472992 -2.862227 0
M  V30 39 H -0.286145 -1.607216 -1.687236 0
M  V30 40 H -1.642579 -0.758705 -0.842858 0
M  V30 41 H -1.067678 -0.799913 -3.863798 0
M  V30 42 H -3.061345 0.629175 -4.088730 0
M  V30 43 H -1.943124 1.296226 -2.802287 0
M  V30 44 H -3.246325 0.614524 -1.033982 0
M  V30 45 H -4.444741 1.202308 -2.231619 0
M  V30 46 H -4.188522 -1.515495 -1.070846 0
M  V30 47 H -5.541173 -0.762374 -1.974398 0
M  V30 48 H -4.382966 -1.166304 -4.000142 0
M  V30 49 H -2.506732 -2.568404 -4.069677 0
M  V30 50 H -2.533144 -2.732456 -2.312157 0
M  V30 51 H 0.169769 -2.014678 1.622036 0
M  V30 END ATOM
M  V30 BEGIN BOND
M  V30 1 1 1 2
M  V30 2 1 2 3
M  V30 3 1 2 4
M  V30 4 2 4 5
M  V30 5 1 5 6
M  V30 6 2 6 7
M  V30 7 1 7 8
M  V30 8 2 8 9
M  V30 9 1 9 10
M  V30 10 2 10 11
M  V30 11 1 11 12
M  V30 12 2 12 13
M  V30 13 1 13 14
M  V30 14 2 14 15
M  V30 15 1 15 16
M  V30 16 1 16 17
M  V30 17 1 17 18
M  V30 18 1 18 19
M  V30 19 1 19 20
M  V30 20 1 20 21
M  V30 21 1 21 22
M  V30 22 1 22 23
M  V30 23 1 23 24
M  V30 24 2 16 25
M  V30 25 1 7 26
M  V30 26 2 26 27
M  V30 27 1 27 4
M  V30 28 1 25 8
M  V30 29 1 15 10
M  V30 30 1 24 19
M  V30 31 1 1 28
M  V30 32 1 1 29
M  V30 33 1 1 30
M  V30 34 1 3 31
M  V30 35 1 3 32
M  V30 36 1 3 33
M  V30 37 1 5 34
M  V30 38 1 6 35
M  V30 39 1 9 36
M  V30 40 1 12 37
M  V30 41 1 13 38
M  V30 42 1 18 39
M  V30 43 1 18 40
M  V30 44 1 19 41 CFG=3
M  V30 45 1 20 42
M  V30 46 1 20 43
M  V30 47 1 21 44
M  V30 48 1 21 45
M  V30 49 1 22 46
M  V30 50 1 22 47
M  V30 51 1 23 48
M  V30 52 1 24 49
M  V30 53 1 24 50
M  V30 54 1 26 51
M  V30 END BOND
M  V30 END CTAB
M  END
>  <Dataset>  (620) 
ChEMBL_Kinases

>  <Ligand_Instance>  (620) 
nan

>  <PDB_ID>  (620) 
nan

>  <Standardized_SMILES>  (620) 
CN(C)c1ccc(-c2cc3nccnc3c(OC[C@@H]3CCCNC3)n2)cn1

>  <Name>  (620) 
nan

>  <Pocket>  (620) 
nan

>  <ATP_Site>  (620) 
nan

>  <Peripheral>  (620) 
nan

>  <Num_H_Atoms_ProtBoundConf>  (620) 
nan

>  <Num_Resolved_Atoms>  (620) 
nan

>  <Num_Not_Resolved_Atoms>  (620) 
nan

$$$$
CHEMBL4580707
     RDKit          3D

  0  0  0  0  0  0  0  0  0  0999 V3000
M  V30 BEGIN CTAB
M  V30 COUNTS 53 56 0 0 0
M  V30 BEGIN ATOM
M  V30 1 C 2.477041 -4.426331 2.796575 0
M  V30 2 O 3.418809 -3.742029 3.628978 0
M  V30 3 C 3.681537 -2.417396 3.292166 0
M  V30 4 C 4.587791 -1.713664 4.080663 0
M  V30 5 C 4.952460 -0.402976 3.879108 0
M  V30 6 C 4.330924 0.188569 2.799297 0
M  V30 7 C 3.421026 -0.442557 1.971741 0
M  V30 8 N 2.769387 0.163795 0.865229 0
M  V30 9 C 2.385386 1.432247 0.413615 0
M  V30 10 N 3.407722 2.114380 -0.087151 0
M  V30 11 C 3.341275 3.328512 -0.600903 0
M  V30 12 N 2.125689 3.892507 -0.601104 0
M  V30 13 C 1.058027 3.202342 -0.086634 0
M  V30 14 S -0.752326 3.671060 0.050513 0
M  V30 15 C -1.203948 2.176531 0.782365 0
M  V30 16 C -0.069336 1.377597 0.917177 0
M  V30 17 C 1.101728 1.921413 0.460126 0
M  V30 18 C -0.296315 0.077636 1.554686 0
M  V30 19 C -1.647251 -0.450887 1.340262 0
M  V30 20 N -2.581500 0.332814 0.594561 0
M  V30 21 C -3.368033 -0.138181 -0.527084 0
M  V30 22 O -4.181779 0.530897 -1.200869 0
M  V30 23 O -3.113697 -1.465066 -0.787639 0
M  V30 24 C -3.744629 -2.141864 -1.828236 0
M  V30 25 C -3.458685 -1.546159 -3.193295 0
M  V30 26 C -5.242202 -2.205976 -1.575606 0
M  V30 27 C -3.277016 -3.601577 -1.910650 0
M  V30 28 C -2.542786 1.669028 1.209137 0
M  V30 29 C 3.107586 -1.753256 2.235562 0
M  V30 30 H 1.523105 -3.847132 2.773877 0
M  V30 31 H 2.880904 -4.353150 1.767778 0
M  V30 32 H 2.309712 -5.461877 3.155676 0
M  V30 33 H 5.037750 -2.262692 4.920133 0
M  V30 34 H 5.655505 0.136395 4.493052 0
M  V30 35 H 4.569915 1.232502 2.573158 0
M  V30 36 H 2.444925 -0.453552 0.065532 0
M  V30 37 H 4.040339 4.012933 -1.036445 0
M  V30 38 H -0.102844 0.196279 2.672524 0
M  V30 39 H 0.436257 -0.705824 1.263094 0
M  V30 40 H -1.608539 -1.513483 0.937717 0
M  V30 41 H -2.142461 -0.612657 2.350395 0
M  V30 42 H -2.435279 -1.822539 -3.519599 0
M  V30 43 H -4.155898 -2.084232 -3.892132 0
M  V30 44 H -3.650845 -0.467973 -3.235594 0
M  V30 45 H -5.607264 -3.253038 -1.445972 0
M  V30 46 H -5.799280 -1.732832 -2.414256 0
M  V30 47 H -5.521608 -1.651397 -0.640103 0
M  V30 48 H -2.189940 -3.566270 -2.186891 0
M  V30 49 H -3.803271 -4.045240 -2.763011 0
M  V30 50 H -3.465463 -4.062423 -0.939852 0
M  V30 51 H -2.582542 1.639308 2.296569 0
M  V30 52 H -3.340672 2.310896 0.782830 0
M  V30 53 H 2.406679 -2.277391 1.616537 0
M  V30 END ATOM
M  V30 BEGIN BOND
M  V30 1 1 1 2
M  V30 2 1 2 3
M  V30 3 2 3 4
M  V30 4 1 4 5
M  V30 5 2 5 6
M  V30 6 1 6 7
M  V30 7 1 7 8
M  V30 8 1 8 9
M  V30 9 2 9 10
M  V30 10 1 10 11
M  V30 11 2 11 12
M  V30 12 1 12 13
M  V30 13 1 13 14
M  V30 14 1 14 15
M  V30 15 2 15 16
M  V30 16 1 16 17
M  V30 17 1 16 18
M  V30 18 1 18 19
M  V30 19 1 19 20
M  V30 20 1 20 21
M  V30 21 2 21 22
M  V30 22 1 21 23
M  V30 23 1 23 24
M  V30 24 1 24 25
M  V30 25 1 24 26
M  V30 26 1 24 27
M  V30 27 1 20 28
M  V30 28 2 7 29
M  V30 29 1 29 3
M  V30 30 1 17 9
M  V30 31 2 17 13
M  V30 32 1 28 15
M  V30 33 1 1 30
M  V30 34 1 1 31
M  V30 35 1 1 32
M  V30 36 1 4 33
M  V30 37 1 5 34
M  V30 38 1 6 35
M  V30 39 1 8 36
M  V30 40 1 11 37
M  V30 41 1 18 38
M  V30 42 1 18 39
M  V30 43 1 19 40
M  V30 44 1 19 41
M  V30 45 1 25 42
M  V30 46 1 25 43
M  V30 47 1 25 44
M  V30 48 1 26 45
M  V30 49 1 26 46
M  V30 50 1 26 47
M  V30 51 1 27 48
M  V30 52 1 27 49
M  V30 53 1 27 50
M  V30 54 1 28 51
M  V30 55 1 28 52
M  V30 56 1 29 53
M  V30 END BOND
M  V30 END CTAB
M  END
>  <Dataset>  (621) 
ChEMBL_Kinases

>  <Ligand_Instance>  (621) 
nan

>  <PDB_ID>  (621) 
nan

>  <Standardized_SMILES>  (621) 
COc1cccc(Nc2ncnc3sc4c(c23)CCN(C(=O)OC(C)(C)C)C4)c1

>  <Name>  (621) 
nan

>  <Pocket>  (621) 
nan

>  <ATP_Site>  (621) 
nan

>  <Peripheral>  (621) 
nan

>  <Num_H_Atoms_ProtBoundConf>  (621) 
nan

>  <Num_Resolved_Atoms>  (621) 
nan

>  <Num_Not_Resolved_Atoms>  (621) 
nan

$$$$
CHEMBL462127
     RDKit          3D

  0  0  0  0  0  0  0  0  0  0999 V3000
M  V30 BEGIN CTAB
M  V30 COUNTS 57 58 0 0 0
M  V30 BEGIN ATOM
M  V30 1 C 1.377218 -4.737475 2.653928 0
M  V30 2 C 0.788214 -4.758810 1.208732 0
M  V30 3 C 0.462187 -3.316502 0.919573 0
M  V30 4 C 1.691654 -2.462651 1.031205 0
M  V30 5 O 2.908885 -2.291856 1.267449 0
M  V30 6 O 1.330401 -1.178658 0.711271 0
M  V30 7 C 2.218389 -0.056998 0.699739 0
M  V30 8 C 1.395264 1.145977 0.279135 0
M  V30 9 C 0.840673 0.911865 -1.087929 0
M  V30 10 O 1.821852 0.685301 -2.038682 0
M  V30 11 C 2.181925 2.444032 0.344519 0
M  V30 12 C 1.020688 3.412538 0.262936 0
M  V30 13 C 0.664304 4.530513 -0.349358 0
M  V30 14 C -0.600497 5.237719 -0.195321 0
M  V30 15 C -1.837747 4.582025 -0.196629 0
M  V30 16 C -3.026207 5.285851 -0.028793 0
M  V30 17 C -3.009663 6.673505 0.145336 0
M  V30 18 Br -4.646891 7.623196 0.374590 0
M  V30 19 C -1.800265 7.334169 0.148197 0
M  V30 20 C -0.643752 6.602799 -0.020673 0
M  V30 21 C 0.128149 2.762087 1.255297 0
M  V30 22 O -0.665197 3.413748 2.033483 0
M  V30 23 O 0.320587 1.368273 1.171890 0
M  V30 24 C -0.365218 -5.676142 1.285259 0
M  V30 25 C -1.196971 -5.966865 0.114955 0
M  V30 26 C -1.926501 -4.812911 -0.509559 0
M  V30 27 C -2.289514 -6.960590 0.542521 0
M  V30 28 C -0.457436 -6.665538 -1.012010 0
M  V30 29 H 1.595646 -5.783883 2.911936 0
M  V30 30 H 2.271036 -4.115327 2.701043 0
M  V30 31 H 0.553291 -4.396373 3.318458 0
M  V30 32 H 1.625916 -5.097391 0.584912 0
M  V30 33 H 0.088819 -3.256434 -0.146706 0
M  V30 34 H -0.339495 -2.892652 1.543698 0
M  V30 35 H 3.077583 -0.196892 0.040292 0
M  V30 36 H 2.610956 0.168838 1.711877 0
M  V30 37 H 0.201638 1.746735 -1.423354 0
M  V30 38 H 0.170486 0.008748 -1.014970 0
M  V30 39 H 2.223403 -0.207725 -2.006305 0
M  V30 40 H 2.674410 2.520458 1.318707 0
M  V30 41 H 2.818470 2.627706 -0.519287 0
M  V30 42 H 1.491629 4.848940 -1.006527 0
M  V30 43 H -1.900359 3.512288 -0.341006 0
M  V30 44 H -3.964500 4.732612 -0.036752 0
M  V30 45 H -1.759691 8.414301 0.281666 0
M  V30 46 H 0.324581 7.105726 -0.021718 0
M  V30 47 H -1.069013 -5.230731 2.069716 0
M  V30 48 H -0.078242 -6.651260 1.804627 0
M  V30 49 H -2.955372 -5.123808 -0.857551 0
M  V30 50 H -1.462101 -4.408565 -1.426212 0
M  V30 51 H -2.072223 -4.000865 0.228006 0
M  V30 52 H -1.958495 -7.598025 1.387044 0
M  V30 53 H -3.140231 -6.360818 0.927633 0
M  V30 54 H -2.651624 -7.530811 -0.338744 0
M  V30 55 H 0.299388 -6.000925 -1.499658 0
M  V30 56 H -1.214159 -6.838718 -1.815043 0
M  V30 57 H -0.084262 -7.637504 -0.695753 0
M  V30 END ATOM
M  V30 BEGIN BOND
M  V30 1 1 1 2
M  V30 2 1 2 3
M  V30 3 1 3 4
M  V30 4 2 4 5
M  V30 5 1 4 6
M  V30 6 1 6 7
M  V30 7 1 7 8
M  V30 8 1 8 9
M  V30 9 1 9 10
M  V30 10 1 8 11
M  V30 11 1 11 12
M  V30 12 2 12 13
M  V30 13 1 13 14
M  V30 14 2 14 15
M  V30 15 1 15 16
M  V30 16 2 16 17
M  V30 17 1 17 18
M  V30 18 1 17 19
M  V30 19 2 19 20
M  V30 20 1 12 21
M  V30 21 2 21 22
M  V30 22 1 21 23
M  V30 23 1 2 24
M  V30 24 1 24 25
M  V30 25 1 25 26
M  V30 26 1 25 27
M  V30 27 1 25 28
M  V30 28 1 23 8
M  V30 29 1 20 14
M  V30 30 1 1 29
M  V30 31 1 1 30
M  V30 32 1 1 31
M  V30 33 1 2 32
M  V30 34 1 3 33
M  V30 35 1 3 34
M  V30 36 1 7 35
M  V30 37 1 7 36
M  V30 38 1 9 37
M  V30 39 1 9 38
M  V30 40 1 10 39
M  V30 41 1 11 40
M  V30 42 1 11 41
M  V30 43 1 13 42
M  V30 44 1 15 43
M  V30 45 1 16 44
M  V30 46 1 19 45
M  V30 47 1 20 46
M  V30 48 1 24 47
M  V30 49 1 24 48
M  V30 50 1 26 49
M  V30 51 1 26 50
M  V30 52 1 26 51
M  V30 53 1 27 52
M  V30 54 1 27 53
M  V30 55 1 27 54
M  V30 56 1 28 55
M  V30 57 1 28 56
M  V30 58 1 28 57
M  V30 END BOND
M  V30 END CTAB
M  END
>  <Dataset>  (622) 
ChEMBL_Kinases

>  <Ligand_Instance>  (622) 
nan

>  <PDB_ID>  (622) 
nan

>  <Standardized_SMILES>  (622) 
CC(CC(=O)OCC1(CO)C/C(=C/c2ccc(Br)cc2)C(=O)O1)CC(C)(C)C

>  <Name>  (622) 
nan

>  <Pocket>  (622) 
nan

>  <ATP_Site>  (622) 
nan

>  <Peripheral>  (622) 
nan

>  <Num_H_Atoms_ProtBoundConf>  (622) 
nan

>  <Num_Resolved_Atoms>  (622) 
nan

>  <Num_Not_Resolved_Atoms>  (622) 
nan

$$$$
CHEMBL462135
     RDKit          3D

  0  0  0  0  0  0  0  0  0  0999 V3000
M  V30 BEGIN CTAB
M  V30 COUNTS 58 59 0 0 0
M  V30 BEGIN ATOM
M  V30 1 C 0.094689 0.759485 3.058097 0
M  V30 2 C 1.217999 0.310718 3.922186 0
M  V30 3 C 2.310780 -0.436399 3.227997 0
M  V30 4 C 3.020764 0.321446 2.153400 0
M  V30 5 C 4.126917 -0.509861 1.519572 0
M  V30 6 C 3.696924 -1.777211 0.896854 0
M  V30 7 C 2.705634 -1.591316 -0.224016 0
M  V30 8 C 2.194532 0.996533 1.155997 0
M  V30 9 O 2.270604 2.245926 1.033236 0
M  V30 10 O 1.351133 1.160102 0.221829 0
M  V30 11 C 0.485667 1.330491 -0.737156 0
M  V30 12 C -0.779107 2.141331 -0.509830 0
M  V30 13 C -0.583600 3.612399 -0.454996 0
M  V30 14 O -0.061205 4.130310 0.694760 0
M  V30 15 C -1.656999 1.797151 -1.750204 0
M  V30 16 C -1.830821 0.337780 -1.446259 0
M  V30 17 C -1.800020 -0.807175 -2.104792 0
M  V30 18 C -2.000646 -2.145105 -1.577310 0
M  V30 19 C -2.862453 -2.962650 -2.318711 0
M  V30 20 C -3.115570 -4.258807 -1.937577 0
M  V30 21 C -2.513115 -4.788373 -0.795282 0
M  V30 22 O -2.675404 -6.074471 -0.293516 0
M  V30 23 C -3.713237 -6.312110 0.638298 0
M  V30 24 F -3.479118 -5.499320 1.740475 0
M  V30 25 F -3.713850 -7.644634 1.017070 0
M  V30 26 F -4.911038 -5.948591 0.067663 0
M  V30 27 C -1.651982 -3.982825 -0.047971 0
M  V30 28 C -1.422427 -2.700729 -0.454422 0
M  V30 29 C -2.142444 0.429641 -0.012266 0
M  V30 30 O -2.806069 -0.465382 0.628407 0
M  V30 31 O -1.610952 1.609880 0.493642 0
M  V30 32 H 0.172581 1.819874 2.715950 0
M  V30 33 H -0.145779 0.056191 2.221543 0
M  V30 34 H -0.848262 0.741210 3.683223 0
M  V30 35 H 0.797958 -0.272739 4.786645 0
M  V30 36 H 1.687691 1.221451 4.361298 0
M  V30 37 H 3.021614 -0.753638 4.048167 0
M  V30 38 H 1.873553 -1.379532 2.811201 0
M  V30 39 H 3.607645 1.126624 2.721121 0
M  V30 40 H 4.590713 0.128905 0.735028 0
M  V30 41 H 4.916237 -0.667029 2.281658 0
M  V30 42 H 4.603062 -2.258319 0.430908 0
M  V30 43 H 3.309044 -2.532832 1.610431 0
M  V30 44 H 2.840656 -2.441828 -0.962928 0
M  V30 45 H 1.669940 -1.540542 0.121437 0
M  V30 46 H 3.049185 -0.699885 -0.785650 0
M  V30 47 H 0.948623 1.826798 -1.678253 0
M  V30 48 H 0.176062 0.325433 -1.223111 0
M  V30 49 H 0.032919 3.925299 -1.329266 0
M  V30 50 H -1.565853 4.136262 -0.621740 0
M  V30 51 H -0.719243 4.265295 1.410698 0
M  V30 52 H -1.126078 1.991087 -2.680432 0
M  V30 53 H -2.651045 2.276811 -1.664189 0
M  V30 54 H -1.592912 -0.634747 -3.168450 0
M  V30 55 H -3.364709 -2.606245 -3.223588 0
M  V30 56 H -3.771474 -4.938857 -2.470291 0
M  V30 57 H -1.157770 -4.339417 0.845893 0
M  V30 58 H -0.755335 -2.091716 0.104791 0
M  V30 END ATOM
M  V30 BEGIN BOND
M  V30 1 1 1 2
M  V30 2 1 2 3
M  V30 3 1 3 4
M  V30 4 1 4 5
M  V30 5 1 5 6
M  V30 6 1 6 7
M  V30 7 1 4 8
M  V30 8 2 8 9
M  V30 9 1 8 10
M  V30 10 1 10 11
M  V30 11 1 11 12
M  V30 12 1 12 13
M  V30 13 1 13 14
M  V30 14 1 12 15
M  V30 15 1 15 16
M  V30 16 2 16 17
M  V30 17 1 17 18
M  V30 18 2 18 19
M  V30 19 1 19 20
M  V30 20 2 20 21
M  V30 21 1 21 22
M  V30 22 1 22 23
M  V30 23 1 23 24
M  V30 24 1 23 25
M  V30 25 1 23 26
M  V30 26 1 21 27
M  V30 27 2 27 28
M  V30 28 1 16 29
M  V30 29 2 29 30
M  V30 30 1 29 31
M  V30 31 1 31 12
M  V30 32 1 28 18
M  V30 33 1 1 32
M  V30 34 1 1 33
M  V30 35 1 1 34
M  V30 36 1 2 35
M  V30 37 1 2 36
M  V30 38 1 3 37
M  V30 39 1 3 38
M  V30 40 1 4 39
M  V30 41 1 5 40
M  V30 42 1 5 41
M  V30 43 1 6 42
M  V30 44 1 6 43
M  V30 45 1 7 44
M  V30 46 1 7 45
M  V30 47 1 7 46
M  V30 48 1 11 47
M  V30 49 1 11 48
M  V30 50 1 13 49
M  V30 51 1 13 50
M  V30 52 1 14 51
M  V30 53 1 15 52
M  V30 54 1 15 53
M  V30 55 1 17 54
M  V30 56 1 19 55
M  V30 57 1 20 56
M  V30 58 1 27 57
M  V30 59 1 28 58
M  V30 END BOND
M  V30 END CTAB
M  END
>  <Dataset>  (623) 
ChEMBL_Kinases

>  <Ligand_Instance>  (623) 
nan

>  <PDB_ID>  (623) 
nan

>  <Standardized_SMILES>  (623) 
CCCC(CCC)C(=O)OCC1(CO)C/C(=C/c2ccc(OC(F)(F)F)cc2)C(=O)O1

>  <Name>  (623) 
nan

>  <Pocket>  (623) 
nan

>  <ATP_Site>  (623) 
nan

>  <Peripheral>  (623) 
nan

>  <Num_H_Atoms_ProtBoundConf>  (623) 
nan

>  <Num_Resolved_Atoms>  (623) 
nan

>  <Num_Not_Resolved_Atoms>  (623) 
nan

$$$$
CHEMBL462136
     RDKit          3D

  0  0  0  0  0  0  0  0  0  0999 V3000
M  V30 BEGIN CTAB
M  V30 COUNTS 54 55 0 0 0
M  V30 BEGIN ATOM
M  V30 1 C 1.036662 -1.641980 4.844139 0
M  V30 2 C 1.986964 -0.646309 4.182708 0
M  V30 3 C 1.762490 -0.664502 2.708477 0
M  V30 4 C 2.645662 0.278937 1.941277 0
M  V30 5 C 4.087873 0.052208 2.069464 0
M  V30 6 C 4.714897 -1.204175 1.687189 0
M  V30 7 C 4.629091 -1.708053 0.306040 0
M  V30 8 C 2.113899 0.408393 0.565661 0
M  V30 9 O 1.895410 0.444359 -0.663993 0
M  V30 10 O 0.786528 0.818619 0.620336 0
M  V30 11 C -0.051899 1.043129 -0.489527 0
M  V30 12 C -1.441961 1.481625 -0.029184 0
M  V30 13 C -1.387005 2.719843 0.802552 0
M  V30 14 O -0.535046 2.465069 1.897260 0
M  V30 15 C -2.043013 0.299213 0.713572 0
M  V30 16 C -2.575254 -0.489366 -0.430325 0
M  V30 17 C -2.689547 -1.761026 -0.736419 0
M  V30 18 C -3.247288 -2.373176 -1.933158 0
M  V30 19 C -4.096762 -3.449016 -1.648660 0
M  V30 20 C -4.728685 -4.197060 -2.613534 0
M  V30 21 C -4.505023 -3.858249 -3.932458 0
M  V30 22 Cl -5.305923 -4.806471 -5.186088 0
M  V30 23 C -3.674751 -2.805808 -4.239481 0
M  V30 24 C -3.052405 -2.071356 -3.251425 0
M  V30 25 C -3.084095 0.562737 -1.340069 0
M  V30 26 O -4.068111 0.383839 -2.130996 0
M  V30 27 O -2.289385 1.709584 -1.136256 0
M  V30 28 H 1.509860 -2.206179 5.653489 0
M  V30 29 H 0.089362 -1.159253 5.159583 0
M  V30 30 H 0.761955 -2.378594 4.060743 0
M  V30 31 H 3.008202 -1.071878 4.415454 0
M  V30 32 H 1.847920 0.355950 4.628001 0
M  V30 33 H 1.721600 -1.685969 2.328209 0
M  V30 34 H 0.717717 -0.272499 2.556384 0
M  V30 35 H 2.467085 1.295530 2.416538 0
M  V30 36 H 4.588428 0.910300 1.525074 0
M  V30 37 H 4.365296 0.265664 3.141084 0
M  V30 38 H 5.817924 -1.117313 1.932071 0
M  V30 39 H 4.400172 -2.022246 2.404394 0
M  V30 40 H 3.710892 -1.534787 -0.250513 0
M  V30 41 H 4.909056 -2.807343 0.319375 0
M  V30 42 H 5.433574 -1.269429 -0.359009 0
M  V30 43 H 0.361879 1.868931 -1.088760 0
M  V30 44 H -0.129323 0.073639 -1.043742 0
M  V30 45 H -0.952375 3.562295 0.228068 0
M  V30 46 H -2.373919 3.067320 1.144111 0
M  V30 47 H -1.157704 2.221930 2.639166 0
M  V30 48 H -2.855553 0.673981 1.370611 0
M  V30 49 H -1.335433 -0.257897 1.321616 0
M  V30 50 H -2.291842 -2.414010 0.057706 0
M  V30 51 H -4.329145 -3.784546 -0.629915 0
M  V30 52 H -5.381880 -5.023176 -2.397760 0
M  V30 53 H -3.505474 -2.550154 -5.265490 0
M  V30 54 H -2.390640 -1.254729 -3.434890 0
M  V30 END ATOM
M  V30 BEGIN BOND
M  V30 1 1 1 2
M  V30 2 1 2 3
M  V30 3 1 3 4
M  V30 4 1 4 5
M  V30 5 1 5 6
M  V30 6 1 6 7
M  V30 7 1 4 8
M  V30 8 2 8 9
M  V30 9 1 8 10
M  V30 10 1 10 11
M  V30 11 1 11 12
M  V30 12 1 12 13
M  V30 13 1 13 14
M  V30 14 1 12 15
M  V30 15 1 15 16
M  V30 16 2 16 17
M  V30 17 1 17 18
M  V30 18 2 18 19
M  V30 19 1 19 20
M  V30 20 2 20 21
M  V30 21 1 21 22
M  V30 22 1 21 23
M  V30 23 2 23 24
M  V30 24 1 16 25
M  V30 25 2 25 26
M  V30 26 1 25 27
M  V30 27 1 27 12
M  V30 28 1 24 18
M  V30 29 1 1 28
M  V30 30 1 1 29
M  V30 31 1 1 30
M  V30 32 1 2 31
M  V30 33 1 2 32
M  V30 34 1 3 33
M  V30 35 1 3 34
M  V30 36 1 4 35
M  V30 37 1 5 36
M  V30 38 1 5 37
M  V30 39 1 6 38
M  V30 40 1 6 39
M  V30 41 1 7 40
M  V30 42 1 7 41
M  V30 43 1 7 42
M  V30 44 1 11 43
M  V30 45 1 11 44
M  V30 46 1 13 45
M  V30 47 1 13 46
M  V30 48 1 14 47
M  V30 49 1 15 48
M  V30 50 1 15 49
M  V30 51 1 17 50
M  V30 52 1 19 51
M  V30 53 1 20 52
M  V30 54 1 23 53
M  V30 55 1 24 54
M  V30 END BOND
M  V30 END CTAB
M  END
>  <Dataset>  (624) 
ChEMBL_Kinases

>  <Ligand_Instance>  (624) 
nan

>  <PDB_ID>  (624) 
nan

>  <Standardized_SMILES>  (624) 
CCCC(CCC)C(=O)OCC1(CO)C/C(=C/c2ccc(Cl)cc2)C(=O)O1

>  <Name>  (624) 
nan

>  <Pocket>  (624) 
nan

>  <ATP_Site>  (624) 
nan

>  <Peripheral>  (624) 
nan

>  <Num_H_Atoms_ProtBoundConf>  (624) 
nan

>  <Num_Resolved_Atoms>  (624) 
nan

>  <Num_Not_Resolved_Atoms>  (624) 
nan

$$$$
CHEMBL462170
     RDKit          3D

  0  0  0  0  0  0  0  0  0  0999 V3000
M  V30 BEGIN CTAB
M  V30 COUNTS 46 50 0 0 0
M  V30 BEGIN ATOM
M  V30 1 O 0.831555 -1.980437 3.130742 0
M  V30 2 C 0.831761 -0.937219 3.864374 0
M  V30 3 O -0.375232 -0.733820 4.519158 0
M  V30 4 C 2.064856 -0.138239 3.903522 0
M  V30 5 C 2.035962 0.869727 2.785803 0
M  V30 6 N 1.934533 0.186184 1.531120 0
M  V30 7 C 2.949961 -0.287782 0.754729 0
M  V30 8 C 4.314133 -0.200996 1.059740 0
M  V30 9 C 5.270080 -0.711450 0.209446 0
M  V30 10 C 4.833711 -1.321496 -0.972599 0
M  V30 11 O 5.790979 -1.838462 -1.834685 0
M  V30 12 C 3.479278 -1.371350 -1.207840 0
M  V30 13 C 2.498087 -0.882912 -0.401189 0
M  V30 14 C 1.139605 -0.779202 -0.350878 0
M  V30 15 C 0.196174 -1.198177 -1.238188 0
M  V30 16 C -1.134032 -0.976243 -0.975075 0
M  V30 17 C -1.527796 -0.330734 0.182204 0
M  V30 18 C -2.868164 0.017542 0.628773 0
M  V30 19 C -3.874875 0.682356 -0.038715 0
M  V30 20 C -5.097255 0.906077 0.557690 0
M  V30 21 C -5.364739 0.482579 1.828786 0
M  V30 22 C -4.390325 -0.187083 2.539399 0
M  V30 23 C -3.178195 -0.398974 1.923196 0
M  V30 24 C -0.530929 0.079958 1.061779 0
M  V30 25 C 0.812147 -0.132412 0.819232 0
M  V30 26 C -2.011776 -1.489788 -2.015792 0
M  V30 27 O -3.266444 -1.457682 -2.090555 0
M  V30 28 N -1.110564 -2.058401 -2.965860 0
M  V30 29 C 0.214397 -1.885565 -2.503298 0
M  V30 30 O 1.111099 -2.323815 -3.213614 0
M  V30 31 H -0.831777 -1.479860 5.055136 0
M  V30 32 H 2.936653 -0.815452 3.746859 0
M  V30 33 H 2.157954 0.405706 4.875811 0
M  V30 34 H 2.888460 1.575398 2.837124 0
M  V30 35 H 1.129253 1.493844 2.961016 0
M  V30 36 H 4.684565 0.262784 1.962607 0
M  V30 37 H 6.316025 -0.640527 0.451151 0
M  V30 38 H 5.863428 -1.371934 -2.749571 0
M  V30 39 H 3.242213 -1.849423 -2.123931 0
M  V30 40 H -3.608522 1.003366 -1.035781 0
M  V30 41 H -5.821575 1.438366 -0.053927 0
M  V30 42 H -6.358391 0.702750 2.221760 0
M  V30 43 H -4.595957 -0.524504 3.545770 0
M  V30 44 H -2.449367 -0.937266 2.544703 0
M  V30 45 H -0.748796 0.602504 2.006023 0
M  V30 46 H -1.493864 -2.514404 -3.848254 0
M  V30 END ATOM
M  V30 BEGIN BOND
M  V30 1 2 1 2
M  V30 2 1 2 3
M  V30 3 1 2 4
M  V30 4 1 4 5
M  V30 5 1 5 6
M  V30 6 1 6 7
M  V30 7 2 7 8
M  V30 8 1 8 9
M  V30 9 2 9 10
M  V30 10 1 10 11
M  V30 11 1 10 12
M  V30 12 2 12 13
M  V30 13 1 13 14
M  V30 14 2 14 15
M  V30 15 1 15 16
M  V30 16 2 16 17
M  V30 17 1 17 18
M  V30 18 2 18 19
M  V30 19 1 19 20
M  V30 20 2 20 21
M  V30 21 1 21 22
M  V30 22 2 22 23
M  V30 23 1 17 24
M  V30 24 2 24 25
M  V30 25 1 16 26
M  V30 26 2 26 27
M  V30 27 1 26 28
M  V30 28 1 28 29
M  V30 29 2 29 30
M  V30 30 1 25 6
M  V30 31 1 13 7
M  V30 32 1 25 14
M  V30 33 1 29 15
M  V30 34 1 23 18
M  V30 35 1 3 31
M  V30 36 1 4 32
M  V30 37 1 4 33
M  V30 38 1 5 34
M  V30 39 1 5 35
M  V30 40 1 8 36
M  V30 41 1 9 37
M  V30 42 1 11 38
M  V30 43 1 12 39
M  V30 44 1 19 40
M  V30 45 1 20 41
M  V30 46 1 21 42
M  V30 47 1 22 43
M  V30 48 1 23 44
M  V30 49 1 24 45
M  V30 50 1 28 46
M  V30 END BOND
M  V30 END CTAB
M  END
>  <Dataset>  (625) 
ChEMBL_Kinases

>  <Ligand_Instance>  (625) 
nan

>  <PDB_ID>  (625) 
nan

>  <Standardized_SMILES>  (625) 
O=C(O)CCn1c2ccc(O)cc2c2c3c(c(-c4ccccc4)cc21)C(=O)NC3=O

>  <Name>  (625) 
nan

>  <Pocket>  (625) 
nan

>  <ATP_Site>  (625) 
nan

>  <Peripheral>  (625) 
nan

>  <Num_H_Atoms_ProtBoundConf>  (625) 
nan

>  <Num_Resolved_Atoms>  (625) 
nan

>  <Num_Not_Resolved_Atoms>  (625) 
nan

$$$$
CHEMBL4580516
     RDKit          3D

  0  0  0  0  0  0  0  0  0  0999 V3000
M  V30 BEGIN CTAB
M  V30 COUNTS 54 58 0 0 0
M  V30 BEGIN ATOM
M  V30 1 C -0.069420 -7.293263 -2.952268 0
M  V30 2 O 1.077376 -6.501631 -3.297431 0
M  V30 3 C 1.450191 -5.407888 -2.542571 0
M  V30 4 C 0.805537 -4.946009 -1.408592 0
M  V30 5 C 1.301633 -3.836101 -0.762177 0
M  V30 6 C 2.413797 -3.123775 -1.154055 0
M  V30 7 C 2.815409 -2.033763 -0.432592 0
M  V30 8 N 2.153746 -1.554699 0.736467 0
M  V30 9 C 2.720425 -0.387050 1.368950 0
M  V30 10 C 1.916564 0.007031 2.589223 0
M  V30 11 C 1.088567 0.852279 1.688593 0
M  V30 12 C 2.208881 0.876286 0.702330 0
M  V30 13 C -0.236334 0.380381 1.245364 0
M  V30 14 C -0.848897 1.424751 2.217025 0
M  V30 15 O -1.852450 2.069312 1.616628 0
M  V30 16 C -3.072570 2.528432 1.655023 0
M  V30 17 N -3.281305 3.121276 0.438058 0
M  V30 18 C -4.473182 3.713274 0.134143 0
M  V30 19 C -5.491759 3.721587 1.058301 0
M  V30 20 C -5.352359 3.147636 2.294641 0
M  V30 21 C -4.122786 2.580910 2.503484 0
M  V30 22 C -3.835554 1.937536 3.769938 0
M  V30 23 N -4.894510 1.937524 4.747271 0
M  V30 24 O -3.155638 1.321353 4.609187 0
M  V30 25 C 0.537763 2.120819 2.174887 0
M  V30 26 N 3.910405 -1.430610 -0.920496 0
M  V30 27 C 4.550727 -1.862758 -2.019255 0
M  V30 28 C 4.152576 -2.960104 -2.751886 0
M  V30 29 C 3.029520 -3.612751 -2.286746 0
M  V30 30 C 2.568533 -4.721730 -2.967854 0
M  V30 31 H -0.052914 -7.507264 -1.843152 0
M  V30 32 H -0.042867 -8.266246 -3.473194 0
M  V30 33 H -1.020035 -6.787888 -3.206780 0
M  V30 34 H -0.066503 -5.490847 -1.087112 0
M  V30 35 H 0.725226 -3.564116 0.105695 0
M  V30 36 H 1.304653 -1.990834 1.148646 0
M  V30 37 H 3.815091 -0.415306 1.522416 0
M  V30 38 H 1.373831 -0.832150 3.053140 0
M  V30 39 H 2.537447 0.593026 3.315314 0
M  V30 40 H 1.936040 0.725135 -0.366356 0
M  V30 41 H 2.896058 1.727350 0.897042 0
M  V30 42 H -0.606643 -0.602969 1.570770 0
M  V30 43 H -0.512738 0.548420 0.189176 0
M  V30 44 H -0.923663 1.013508 3.246711 0
M  V30 45 H -4.767284 4.211346 -0.778347 0
M  V30 46 H -6.479192 4.179463 0.883871 0
M  V30 47 H -6.116311 3.124815 3.056846 0
M  V30 48 H -5.657100 1.205899 4.880457 0
M  V30 49 H -5.088610 2.675245 5.491102 0
M  V30 50 H 0.881252 2.505794 3.133753 0
M  V30 51 H 0.487237 2.897912 1.365245 0
M  V30 52 H 5.428045 -1.252718 -2.278694 0
M  V30 53 H 4.712151 -3.256321 -3.627683 0
M  V30 54 H 3.112902 -5.032963 -3.843761 0
M  V30 END ATOM
M  V30 BEGIN BOND
M  V30 1 1 1 2
M  V30 2 1 2 3
M  V30 3 2 3 4
M  V30 4 1 4 5
M  V30 5 2 5 6
M  V30 6 1 6 7
M  V30 7 1 7 8
M  V30 8 1 8 9
M  V30 9 1 9 10
M  V30 10 1 10 11
M  V30 11 1 11 12
M  V30 12 1 11 13
M  V30 13 1 13 14
M  V30 14 1 14 15
M  V30 15 1 15 16
M  V30 16 2 16 17
M  V30 17 1 17 18
M  V30 18 2 18 19
M  V30 19 1 19 20
M  V30 20 2 20 21
M  V30 21 1 21 22
M  V30 22 1 22 23
M  V30 23 2 22 24
M  V30 24 1 14 25
M  V30 25 2 7 26
M  V30 26 1 26 27
M  V30 27 2 27 28
M  V30 28 1 28 29
M  V30 29 2 29 30
M  V30 30 1 30 3
M  V30 31 1 29 6
M  V30 32 1 12 9
M  V30 33 1 21 16
M  V30 34 1 25 11
M  V30 35 1 1 31
M  V30 36 1 1 32
M  V30 37 1 1 33
M  V30 38 1 4 34
M  V30 39 1 5 35
M  V30 40 1 8 36
M  V30 41 1 9 37
M  V30 42 1 10 38
M  V30 43 1 10 39
M  V30 44 1 12 40
M  V30 45 1 12 41
M  V30 46 1 13 42
M  V30 47 1 13 43
M  V30 48 1 14 44
M  V30 49 1 18 45
M  V30 50 1 19 46
M  V30 51 1 20 47
M  V30 52 1 23 48
M  V30 53 1 23 49
M  V30 54 1 25 50
M  V30 55 1 25 51
M  V30 56 1 27 52
M  V30 57 1 28 53
M  V30 58 1 30 54
M  V30 END BOND
M  V30 END CTAB
M  END
>  <Dataset>  (626) 
ChEMBL_Kinases

>  <Ligand_Instance>  (626) 
nan

>  <PDB_ID>  (626) 
nan

>  <Standardized_SMILES>  (626) 
COc1ccc2c(NC3CC4(C3)CC(Oc3ncccc3C(N)=O)C4)nccc2c1

>  <Name>  (626) 
nan

>  <Pocket>  (626) 
nan

>  <ATP_Site>  (626) 
nan

>  <Peripheral>  (626) 
nan

>  <Num_H_Atoms_ProtBoundConf>  (626) 
nan

>  <Num_Resolved_Atoms>  (626) 
nan

>  <Num_Not_Resolved_Atoms>  (626) 
nan

$$$$
CHEMBL4580434
     RDKit          3D

  0  0  0  0  0  0  0  0  0  0999 V3000
M  V30 BEGIN CTAB
M  V30 COUNTS 40 42 0 0 0
M  V30 BEGIN ATOM
M  V30 1 C -0.568430 -4.210259 1.812390 0
M  V30 2 C 0.036303 -2.852251 1.415847 0
M  V30 3 C 0.995114 -3.192932 0.283498 0
M  V30 4 O 1.618550 -2.116846 -0.278638 0
M  V30 5 C 0.879581 -2.326505 2.556176 0
M  V30 6 O 1.888110 -3.243070 2.858503 0
M  V30 7 N -1.034299 -1.992230 1.024323 0
M  V30 8 C -0.864874 -0.622686 0.639513 0
M  V30 9 N 0.321897 -0.001201 0.611379 0
M  V30 10 C 0.534940 1.273054 0.263742 0
M  V30 11 C 1.880349 1.842371 0.271887 0
M  V30 12 C 2.062664 3.160635 -0.093214 0
M  V30 13 C 3.354751 3.652482 -0.069265 0
M  V30 14 N 4.428642 2.920179 0.287319 0
M  V30 15 C 4.193212 1.632697 0.636386 0
M  V30 16 C 2.943793 1.046945 0.645730 0
M  V30 17 N -0.521106 2.031726 -0.097704 0
M  V30 18 C -1.784819 1.512668 -0.109738 0
M  V30 19 C -2.874347 2.275969 -0.476161 0
M  V30 20 N -4.125640 1.763117 -0.487566 0
M  V30 21 C -4.296224 0.458206 -0.125199 0
M  V30 22 C -3.196485 -0.285121 0.236640 0
M  V30 23 C -1.908005 0.191874 0.263363 0
M  V30 24 H -0.977043 -4.151985 2.859371 0
M  V30 25 H 0.151839 -5.028180 1.763007 0
M  V30 26 H -1.419829 -4.459426 1.146225 0
M  V30 27 H 0.470637 -3.838138 -0.473194 0
M  V30 28 H 1.769684 -3.869049 0.714741 0
M  V30 29 H 2.539781 -2.304027 -0.553357 0
M  V30 30 H 1.361008 -1.390105 2.213783 0
M  V30 31 H 0.333216 -2.116737 3.472794 0
M  V30 32 H 2.796454 -2.843792 2.751193 0
M  V30 33 H -1.988039 -2.402178 1.024028 0
M  V30 34 H 1.208081 3.753986 -0.380101 0
M  V30 35 H 3.507717 4.697357 -0.357541 0
M  V30 36 H 5.075756 1.049806 0.923850 0
M  V30 37 H 2.859427 0.012939 0.939810 0
M  V30 38 H -2.686604 3.307446 -0.755713 0
M  V30 39 H -5.311484 0.093241 -0.149486 0
M  V30 40 H -3.450800 -1.278424 0.497208 0
M  V30 END ATOM
M  V30 BEGIN BOND
M  V30 1 1 1 2
M  V30 2 1 2 3
M  V30 3 1 3 4
M  V30 4 1 2 5
M  V30 5 1 5 6
M  V30 6 1 2 7
M  V30 7 1 7 8
M  V30 8 2 8 9
M  V30 9 1 9 10
M  V30 10 1 10 11
M  V30 11 2 11 12
M  V30 12 1 12 13
M  V30 13 2 13 14
M  V30 14 1 14 15
M  V30 15 2 15 16
M  V30 16 2 10 17
M  V30 17 1 17 18
M  V30 18 2 18 19
M  V30 19 1 19 20
M  V30 20 2 20 21
M  V30 21 1 21 22
M  V30 22 2 22 23
M  V30 23 1 23 8
M  V30 24 1 16 11
M  V30 25 1 23 18
M  V30 26 1 1 24
M  V30 27 1 1 25
M  V30 28 1 1 26
M  V30 29 1 3 27
M  V30 30 1 3 28
M  V30 31 1 4 29
M  V30 32 1 5 30
M  V30 33 1 5 31
M  V30 34 1 6 32
M  V30 35 1 7 33
M  V30 36 1 12 34
M  V30 37 1 13 35
M  V30 38 1 15 36
M  V30 39 1 16 37
M  V30 40 1 19 38
M  V30 41 1 21 39
M  V30 42 1 22 40
M  V30 END BOND
M  V30 END CTAB
M  END
>  <Dataset>  (627) 
ChEMBL_Kinases

>  <Ligand_Instance>  (627) 
nan

>  <PDB_ID>  (627) 
nan

>  <Standardized_SMILES>  (627) 
CC(CO)(CO)Nc1nc(-c2ccncc2)nc2cnccc12

>  <Name>  (627) 
nan

>  <Pocket>  (627) 
nan

>  <ATP_Site>  (627) 
nan

>  <Peripheral>  (627) 
nan

>  <Num_H_Atoms_ProtBoundConf>  (627) 
nan

>  <Num_Resolved_Atoms>  (627) 
nan

>  <Num_Not_Resolved_Atoms>  (627) 
nan

$$$$
CHEMBL4580240
     RDKit          3D

  0  0  0  0  0  0  0  0  0  0999 V3000
M  V30 BEGIN CTAB
M  V30 COUNTS 39 42 0 0 0
M  V30 BEGIN ATOM
M  V30 1 C 3.095053 -5.061007 -0.393322 0
M  V30 2 C 2.604632 -3.686204 -0.276974 0
M  V30 3 N 3.063845 -2.787263 0.612753 0
M  V30 4 C 2.571620 -1.542364 0.667933 0
M  V30 5 S 3.050812 -0.235232 1.758340 0
M  V30 6 C 1.938617 0.962654 1.143201 0
M  V30 7 C 1.240085 0.282265 0.108632 0
M  V30 8 C 1.587466 -1.007330 -0.114198 0
M  V30 9 C 1.077251 -1.890162 -1.049978 0
M  V30 10 C 0.004558 -1.524719 -2.006488 0
M  V30 11 C 1.609693 -3.162133 -1.075614 0
M  V30 12 Br 0.900751 -4.399300 -2.381853 0
M  V30 13 N 0.283462 1.152666 -0.487187 0
M  V30 14 C -0.377039 2.204341 0.304374 0
M  V30 15 C -1.069486 1.521555 1.413967 0
M  V30 16 C -0.902140 2.095909 2.678146 0
M  V30 17 C -1.525163 1.510274 3.778837 0
M  V30 18 C -2.305973 0.374081 3.653846 0
M  V30 19 O -2.910235 -0.180091 4.773355 0
M  V30 20 C -2.468538 -0.189429 2.404692 0
M  V30 21 O -3.232778 -1.321684 2.206875 0
M  V30 22 C -1.850280 0.393206 1.317701 0
M  V30 23 N 0.641920 3.122015 0.765689 0
M  V30 24 C 1.650139 2.388356 1.485048 0
M  V30 25 O 2.382532 2.822433 2.442671 0
M  V30 26 H 2.294898 -5.804358 -0.594245 0
M  V30 27 H 3.871135 -5.131690 -1.180048 0
M  V30 28 H 3.531145 -5.355309 0.597690 0
M  V30 29 H -0.343522 -2.459986 -2.523064 0
M  V30 30 H -0.910659 -1.133061 -1.518788 0
M  V30 31 H 0.385281 -0.892529 -2.834812 0
M  V30 32 H 0.030672 1.060848 -1.505053 0
M  V30 33 H -1.129297 2.706726 -0.312941 0
M  V30 34 H -0.324770 2.977894 2.927003 0
M  V30 35 H -1.418982 1.930899 4.791143 0
M  V30 36 H -3.164385 -1.159765 4.843263 0
M  V30 37 H -4.232033 -1.388222 2.295084 0
M  V30 38 H -1.913685 0.034963 0.301352 0
M  V30 39 H 0.850361 4.129951 0.729082 0
M  V30 END ATOM
M  V30 BEGIN BOND
M  V30 1 1 1 2
M  V30 2 2 2 3
M  V30 3 1 3 4
M  V30 4 1 4 5
M  V30 5 1 5 6
M  V30 6 2 6 7
M  V30 7 1 7 8
M  V30 8 1 8 9
M  V30 9 1 9 10
M  V30 10 2 9 11
M  V30 11 1 11 12
M  V30 12 1 7 13
M  V30 13 1 13 14
M  V30 14 1 14 15
M  V30 15 2 15 16
M  V30 16 1 16 17
M  V30 17 2 17 18
M  V30 18 1 18 19
M  V30 19 1 18 20
M  V30 20 1 20 21
M  V30 21 2 20 22
M  V30 22 1 14 23
M  V30 23 1 23 24
M  V30 24 2 24 25
M  V30 25 1 11 2
M  V30 26 1 22 15
M  V30 27 2 8 4
M  V30 28 1 24 6
M  V30 29 1 1 26
M  V30 30 1 1 27
M  V30 31 1 1 28
M  V30 32 1 10 29
M  V30 33 1 10 30
M  V30 34 1 10 31
M  V30 35 1 13 32
M  V30 36 1 14 33
M  V30 37 1 16 34
M  V30 38 1 17 35
M  V30 39 1 19 36
M  V30 40 1 21 37
M  V30 41 1 22 38
M  V30 42 1 23 39
M  V30 END BOND
M  V30 END CTAB
M  END
>  <Dataset>  (628) 
ChEMBL_Kinases

>  <Ligand_Instance>  (628) 
nan

>  <PDB_ID>  (628) 
nan

>  <Standardized_SMILES>  (628) 
Cc1nc2sc3c(c2c(C)c1Br)NC(c1ccc(O)c(O)c1)NC3=O

>  <Name>  (628) 
nan

>  <Pocket>  (628) 
nan

>  <ATP_Site>  (628) 
nan

>  <Peripheral>  (628) 
nan

>  <Num_H_Atoms_ProtBoundConf>  (628) 
nan

>  <Num_Resolved_Atoms>  (628) 
nan

>  <Num_Not_Resolved_Atoms>  (628) 
nan

$$$$
CHEMBL4580169
     RDKit          3D

  0  0  0  0  0  0  0  0  0  0999 V3000
M  V30 BEGIN CTAB
M  V30 COUNTS 52 55 0 0 0
M  V30 BEGIN ATOM
M  V30 1 C -2.615692 -3.739267 -0.160829 0
M  V30 2 N -1.530116 -4.343195 -0.888645 0
M  V30 3 C -0.164207 -3.897337 -0.765937 0
M  V30 4 N -0.005268 -2.863532 0.078008 0
M  V30 5 C 1.189944 -2.302378 0.321998 0
M  V30 6 N 1.054082 -1.237775 1.251754 0
M  V30 7 C 0.882079 0.107847 0.887832 0
M  V30 8 C 1.098633 0.563394 -0.397957 0
M  V30 9 N 0.928182 1.848508 -0.819446 0
M  V30 10 C 0.509552 2.794509 0.072004 0
M  V30 11 C 0.310212 4.137973 -0.324992 0
M  V30 12 N 0.132626 5.231066 -0.642207 0
M  V30 13 C 0.261270 2.433335 1.403554 0
M  V30 14 O -0.144308 3.187238 2.395725 0
M  V30 15 C -0.475353 4.423957 2.800415 0
M  V30 16 C 0.104547 4.855563 4.134878 0
M  V30 17 C -0.451550 4.079198 5.278918 0
M  V30 18 C -1.678931 3.306834 5.001993 0
M  V30 19 N -2.496412 3.712867 3.916964 0
M  V30 20 C -1.982777 4.630067 2.989955 0
M  V30 21 C 0.457210 1.096494 1.768677 0
M  V30 22 N 2.276716 -2.790438 -0.301110 0
M  V30 23 C 2.210258 -3.819422 -1.158120 0
M  V30 24 C 0.999928 -4.365127 -1.385690 0
M  V30 25 C 0.772561 -5.518235 -2.267742 0
M  V30 26 N 0.580312 -6.500552 -3.019444 0
M  V30 27 C 1.589717 -7.068254 -3.686936 0
M  V30 28 C 2.706063 -7.731445 -4.452294 0
M  V30 29 C 0.244233 -7.639565 -3.866496 0
M  V30 30 S -0.557089 -6.409305 -2.709168 0
M  V30 31 H -2.979656 -4.453855 0.638400 0
M  V30 32 H -3.411498 -3.302311 -0.754880 0
M  V30 33 H -2.199695 -2.896215 0.474938 0
M  V30 34 H -2.081042 -5.052879 -1.397593 0
M  V30 35 H 1.088730 -1.503395 2.281201 0
M  V30 36 H 1.435080 -0.182055 -1.133939 0
M  V30 37 H -0.195741 5.194094 2.054862 0
M  V30 38 H 1.209708 4.823994 4.163080 0
M  V30 39 H -0.163106 5.940108 4.233098 0
M  V30 40 H -0.662066 4.795284 6.106370 0
M  V30 41 H 0.368181 3.430786 5.700115 0
M  V30 42 H -2.342581 3.184559 5.882319 0
M  V30 43 H -1.359572 2.249660 4.751599 0
M  V30 44 H -3.130641 2.979061 3.543890 0
M  V30 45 H -2.516548 4.573012 2.040593 0
M  V30 46 H -2.077773 5.662870 3.375384 0
M  V30 47 H 0.295640 0.715291 2.775560 0
M  V30 48 H 3.080291 -4.199550 -1.647154 0
M  V30 49 H 3.626881 -7.645690 -3.856709 0
M  V30 50 H 2.864192 -7.091573 -5.370615 0
M  V30 51 H 2.447014 -8.728982 -4.794888 0
M  V30 52 H -0.137876 -8.571779 -4.537605 0
M  V30 END ATOM
M  V30 BEGIN BOND
M  V30 1 1 1 2
M  V30 2 1 2 3
M  V30 3 2 3 4
M  V30 4 1 4 5
M  V30 5 1 5 6
M  V30 6 1 6 7
M  V30 7 2 7 8
M  V30 8 1 8 9
M  V30 9 2 9 10
M  V30 10 1 10 11
M  V30 11 3 11 12
M  V30 12 1 10 13
M  V30 13 1 13 14
M  V30 14 1 14 15
M  V30 15 1 15 16
M  V30 16 1 16 17
M  V30 17 1 17 18
M  V30 18 1 18 19
M  V30 19 1 19 20
M  V30 20 2 13 21
M  V30 21 2 5 22
M  V30 22 1 22 23
M  V30 23 2 23 24
M  V30 24 1 24 25
M  V30 25 2 25 26
M  V30 26 1 26 27
M  V30 27 1 27 28
M  V30 28 2 27 29
M  V30 29 1 29 30
M  V30 30 1 24 3
M  V30 31 1 30 25
M  V30 32 1 21 7
M  V30 33 1 20 15
M  V30 34 1 1 31
M  V30 35 1 1 32
M  V30 36 1 1 33
M  V30 37 1 2 34
M  V30 38 1 6 35
M  V30 39 1 8 36
M  V30 40 1 15 37
M  V30 41 1 16 38
M  V30 42 1 16 39
M  V30 43 1 17 40
M  V30 44 1 17 41
M  V30 45 1 18 42
M  V30 46 1 18 43
M  V30 47 1 19 44
M  V30 48 1 20 45
M  V30 49 1 20 46
M  V30 50 1 21 47
M  V30 51 1 23 48
M  V30 52 1 28 49
M  V30 53 1 28 50
M  V30 54 1 28 51
M  V30 55 1 29 52
M  V30 END BOND
M  V30 END CTAB
M  END
>  <Dataset>  (629) 
ChEMBL_Kinases

>  <Ligand_Instance>  (629) 
nan

>  <PDB_ID>  (629) 
nan

>  <Standardized_SMILES>  (629) 
CNc1nc(Nc2cnc(C#N)c(OC3CCCNC3)c2)ncc1-c1nc(C)cs1

>  <Name>  (629) 
nan

>  <Pocket>  (629) 
nan

>  <ATP_Site>  (629) 
nan

>  <Peripheral>  (629) 
nan

>  <Num_H_Atoms_ProtBoundConf>  (629) 
nan

>  <Num_Resolved_Atoms>  (629) 
nan

>  <Num_Not_Resolved_Atoms>  (629) 
nan

$$$$
CHEMBL4580131
     RDKit          3D

  0  0  0  0  0  0  0  0  0  0999 V3000
M  V30 BEGIN CTAB
M  V30 COUNTS 46 49 0 0 0
M  V30 BEGIN ATOM
M  V30 1 N 3.372947 -1.013759 4.035850 0
M  V30 2 C 3.951516 -0.499092 2.844373 0
M  V30 3 N 5.263062 -0.254634 2.907147 0
M  V30 4 C 5.968045 0.243654 1.850411 0
M  V30 5 C 5.152755 0.458476 0.725890 0
M  V30 6 C 3.806170 0.229949 0.595531 0
M  V30 7 C 3.009258 0.460933 -0.584101 0
M  V30 8 C 2.170185 -0.466669 -1.128115 0
M  V30 9 C 1.408584 -0.198196 -2.250779 0
M  V30 10 C 1.498451 1.040916 -2.831865 0
M  V30 11 C 2.324318 2.051712 -2.345970 0
M  V30 12 C 3.035514 1.674925 -1.232702 0
M  V30 13 C 3.203604 -0.271622 1.721602 0
M  V30 14 N 1.789372 -0.544049 1.671874 0
M  V30 15 C 0.956026 -0.087831 2.477885 0
M  V30 16 C -0.445595 0.048534 2.978241 0
M  V30 17 C -1.129795 0.641143 3.981133 0
M  V30 18 C -2.484550 0.518120 3.904605 0
M  V30 19 N -3.202684 -0.111333 2.967266 0
M  V30 20 C -2.553009 -0.730403 1.926221 0
M  V30 21 N -3.429580 -1.326930 0.992707 0
M  V30 22 C -3.090178 -1.997814 -0.232619 0
M  V30 23 O -1.878869 -2.098319 -0.546270 0
M  V30 24 C -4.057344 -2.582919 -1.169176 0
M  V30 25 C -4.986636 -3.648586 -0.561667 0
M  V30 26 C -5.496469 -2.358660 -1.067717 0
M  V30 27 C -1.177621 -0.628375 1.969347 0
M  V30 28 H 3.091244 -0.283587 4.727840 0
M  V30 29 H 3.013675 -1.689066 4.738000 0
M  V30 30 H 7.020293 0.471605 1.801799 0
M  V30 31 H 5.629573 0.856200 -0.172783 0
M  V30 32 H 2.133326 -1.438116 -0.634695 0
M  V30 33 H 0.783478 -1.013436 -2.590960 0
M  V30 34 H 0.899091 1.250672 -3.709356 0
M  V30 35 H 2.381106 3.017947 -2.806190 0
M  V30 36 H 3.703885 2.434830 -0.805986 0
M  V30 37 H 1.435876 0.559623 3.232502 0
M  V30 38 H -0.414570 1.077609 4.623158 0
M  V30 39 H -2.956494 1.017610 4.742754 0
M  V30 40 H -4.446328 -1.334082 1.116833 0
M  V30 41 H -3.556767 -2.981352 -2.105749 0
M  V30 42 H -5.127236 -4.593903 -1.131286 0
M  V30 43 H -4.989209 -3.797233 0.515688 0
M  V30 44 H -6.056300 -2.391481 -2.021064 0
M  V30 45 H -5.860676 -1.605895 -0.341851 0
M  V30 46 H -0.773146 -1.153586 1.110142 0
M  V30 END ATOM
M  V30 BEGIN BOND
M  V30 1 1 1 2
M  V30 2 2 2 3
M  V30 3 1 3 4
M  V30 4 2 4 5
M  V30 5 1 5 6
M  V30 6 1 6 7
M  V30 7 2 7 8
M  V30 8 1 8 9
M  V30 9 2 9 10
M  V30 10 1 10 11
M  V30 11 2 11 12
M  V30 12 2 6 13
M  V30 13 1 13 14
M  V30 14 2 14 15
M  V30 15 1 15 16
M  V30 16 2 16 17
M  V30 17 1 17 18
M  V30 18 2 18 19
M  V30 19 1 19 20
M  V30 20 1 20 21
M  V30 21 1 21 22
M  V30 22 2 22 23
M  V30 23 1 22 24
M  V30 24 1 24 25
M  V30 25 1 25 26
M  V30 26 2 20 27
M  V30 27 1 13 2
M  V30 28 1 27 16
M  V30 29 1 12 7
M  V30 30 1 26 24
M  V30 31 1 1 28
M  V30 32 1 1 29
M  V30 33 1 4 30
M  V30 34 1 5 31
M  V30 35 1 8 32
M  V30 36 1 9 33
M  V30 37 1 10 34
M  V30 38 1 11 35
M  V30 39 1 12 36
M  V30 40 1 15 37
M  V30 41 1 17 38
M  V30 42 1 18 39
M  V30 43 1 21 40
M  V30 44 1 24 41
M  V30 45 1 25 42
M  V30 46 1 25 43
M  V30 47 1 26 44
M  V30 48 1 26 45
M  V30 49 1 27 46
M  V30 END BOND
M  V30 END CTAB
M  END
>  <Dataset>  (630) 
ChEMBL_Kinases

>  <Ligand_Instance>  (630) 
nan

>  <PDB_ID>  (630) 
nan

>  <Standardized_SMILES>  (630) 
Nc1nccc(-c2ccccc2)c1/N=C/c1ccnc(NC(=O)C2CC2)c1

>  <Name>  (630) 
nan

>  <Pocket>  (630) 
nan

>  <ATP_Site>  (630) 
nan

>  <Peripheral>  (630) 
nan

>  <Num_H_Atoms_ProtBoundConf>  (630) 
nan

>  <Num_Resolved_Atoms>  (630) 
nan

>  <Num_Not_Resolved_Atoms>  (630) 
nan

$$$$
CHEMBL462198
     RDKit          3D

  0  0  0  0  0  0  0  0  0  0999 V3000
M  V30 BEGIN CTAB
M  V30 COUNTS 48 49 0 0 0
M  V30 BEGIN ATOM
M  V30 1 C 1.179394 -3.683576 2.367030 0
M  V30 2 C 1.957181 -3.685336 1.044725 0
M  V30 3 C 2.481383 -5.074701 0.833185 0
M  V30 4 C 1.064414 -3.335687 -0.108238 0
M  V30 5 C 3.034182 -2.655234 1.201950 0
M  V30 6 C 2.357964 -1.361436 1.462195 0
M  V30 7 O 1.777567 -0.786918 2.411179 0
M  V30 8 O 2.140644 -0.270716 0.629711 0
M  V30 9 C 1.457422 0.884440 1.077192 0
M  V30 10 C 1.363297 1.865905 -0.040323 0
M  V30 11 C 2.617445 2.514982 -0.470060 0
M  V30 12 O 3.517851 1.682544 -1.086547 0
M  V30 13 C 0.339060 2.941121 0.386752 0
M  V30 14 C -0.900917 2.078428 0.268182 0
M  V30 15 C -2.057352 2.115176 0.915129 0
M  V30 16 C -3.225149 1.260105 0.761606 0
M  V30 17 C -3.589377 0.782036 2.028264 0
M  V30 18 C -4.685120 -0.053867 2.234825 0
M  V30 19 C -5.438919 -0.421710 1.137534 0
M  V30 20 F -6.512188 -1.232054 1.287884 0
M  V30 21 C -5.057263 0.063645 -0.094923 0
M  V30 22 Br -6.086808 -0.439328 -1.609065 0
M  V30 23 C -3.985128 0.883492 -0.303810 0
M  V30 24 C -0.638783 1.025175 -0.742043 0
M  V30 25 O -1.340869 0.086526 -1.167688 0
M  V30 26 O 0.685492 1.303393 -1.175709 0
M  V30 27 H 0.510217 -4.570370 2.446563 0
M  V30 28 H 1.879129 -3.636209 3.226314 0
M  V30 29 H 0.540043 -2.758080 2.322159 0
M  V30 30 H 1.609356 -5.679943 0.497830 0
M  V30 31 H 3.233237 -5.115233 0.029712 0
M  V30 32 H 2.821515 -5.550224 1.772864 0
M  V30 33 H 1.587388 -2.881923 -0.964301 0
M  V30 34 H 0.251872 -2.681664 0.285978 0
M  V30 35 H 0.549364 -4.253287 -0.520450 0
M  V30 36 H 3.705032 -2.538314 0.334825 0
M  V30 37 H 3.651495 -2.897909 2.102070 0
M  V30 38 H 1.938163 1.309256 1.954882 0
M  V30 39 H 0.397218 0.601943 1.343996 0
M  V30 40 H 2.383613 3.366231 -1.150243 0
M  V30 41 H 3.102785 2.944853 0.441122 0
M  V30 42 H 3.130434 0.882928 -1.507353 0
M  V30 43 H 0.315563 3.733605 -0.361161 0
M  V30 44 H 0.506674 3.308280 1.395624 0
M  V30 45 H -2.055795 2.929665 1.649474 0
M  V30 46 H -3.097004 0.982262 2.989916 0
M  V30 47 H -5.001909 -0.444874 3.183242 0
M  V30 48 H -3.669790 1.295392 -1.227271 0
M  V30 END ATOM
M  V30 BEGIN BOND
M  V30 1 1 1 2
M  V30 2 1 2 3
M  V30 3 1 2 4
M  V30 4 1 2 5
M  V30 5 1 5 6
M  V30 6 2 6 7
M  V30 7 1 6 8
M  V30 8 1 8 9
M  V30 9 1 9 10
M  V30 10 1 10 11
M  V30 11 1 11 12
M  V30 12 1 10 13
M  V30 13 1 13 14
M  V30 14 2 14 15
M  V30 15 1 15 16
M  V30 16 2 16 17
M  V30 17 1 17 18
M  V30 18 2 18 19
M  V30 19 1 19 20
M  V30 20 1 19 21
M  V30 21 1 21 22
M  V30 22 2 21 23
M  V30 23 1 14 24
M  V30 24 2 24 25
M  V30 25 1 24 26
M  V30 26 1 26 10
M  V30 27 1 23 16
M  V30 28 1 1 27
M  V30 29 1 1 28
M  V30 30 1 1 29
M  V30 31 1 3 30
M  V30 32 1 3 31
M  V30 33 1 3 32
M  V30 34 1 4 33
M  V30 35 1 4 34
M  V30 36 1 4 35
M  V30 37 1 5 36
M  V30 38 1 5 37
M  V30 39 1 9 38
M  V30 40 1 9 39
M  V30 41 1 11 40
M  V30 42 1 11 41
M  V30 43 1 12 42
M  V30 44 1 13 43
M  V30 45 1 13 44
M  V30 46 1 15 45
M  V30 47 1 17 46
M  V30 48 1 18 47
M  V30 49 1 23 48
M  V30 END BOND
M  V30 END CTAB
M  END
>  <Dataset>  (631) 
ChEMBL_Kinases

>  <Ligand_Instance>  (631) 
nan

>  <PDB_ID>  (631) 
nan

>  <Standardized_SMILES>  (631) 
CC(C)(C)CC(=O)OCC1(CO)C/C(=C/c2ccc(F)c(Br)c2)C(=O)O1

>  <Name>  (631) 
nan

>  <Pocket>  (631) 
nan

>  <ATP_Site>  (631) 
nan

>  <Peripheral>  (631) 
nan

>  <Num_H_Atoms_ProtBoundConf>  (631) 
nan

>  <Num_Resolved_Atoms>  (631) 
nan

>  <Num_Not_Resolved_Atoms>  (631) 
nan

$$$$
CHEMBL4579877
     RDKit          3D

  0  0  0  0  0  0  0  0  0  0999 V3000
M  V30 BEGIN CTAB
M  V30 COUNTS 53 57 0 0 0
M  V30 BEGIN ATOM
M  V30 1 C 2.762640 -1.650615 -3.575891 0
M  V30 2 O 3.990393 -2.032021 -2.981926 0
M  V30 3 C 4.388979 -1.610676 -1.736646 0
M  V30 4 C 5.626352 -2.061051 -1.265384 0
M  V30 5 C 6.074447 -1.670737 -0.026365 0
M  V30 6 C 5.296063 -0.829470 0.754313 0
M  V30 7 N 5.699328 -0.416050 1.989376 0
M  V30 8 C 4.917100 0.404044 2.725020 0
M  V30 9 N 3.717452 0.835700 2.258495 0
M  V30 10 C 3.256827 0.471902 1.057077 0
M  V30 11 N 1.998565 0.953422 0.623305 0
M  V30 12 C 1.290066 1.830544 1.548938 0
M  V30 13 C -0.050443 2.317141 1.035805 0
M  V30 14 C -0.651676 1.111836 1.639181 0
M  V30 15 C 0.517331 0.988126 2.548209 0
M  V30 16 C -0.993795 -0.056803 0.785251 0
M  V30 17 C -2.457236 0.250905 1.116271 0
M  V30 18 O -3.080354 -0.938279 1.533967 0
M  V30 19 C -4.246401 -1.287287 0.849284 0
M  V30 20 N -4.765905 -0.539528 -0.161634 0
M  V30 21 C -5.891744 -0.922681 -0.786617 0
M  V30 22 C -6.595055 -2.059956 -0.475335 0
M  V30 23 C -6.104435 -2.862473 0.554658 0
M  V30 24 C -4.946497 -2.417586 1.157754 0
M  V30 25 C -4.432028 -3.254887 2.234509 0
M  V30 26 N -5.042763 -4.461683 2.676138 0
M  V30 27 O -3.395294 -3.032661 2.912086 0
M  V30 28 C -2.020660 1.200708 2.213175 0
M  V30 29 C 4.080503 -0.362513 0.338697 0
M  V30 30 C 3.669464 -0.777000 -0.906840 0
M  V30 31 H 2.451978 -2.353653 -4.363706 0
M  V30 32 H 1.973808 -1.682912 -2.773139 0
M  V30 33 H 2.835705 -0.628629 -3.999603 0
M  V30 34 H 6.252718 -2.717188 -1.853379 0
M  V30 35 H 7.020378 -1.997619 0.367510 0
M  V30 36 H 5.238779 0.729122 3.701134 0
M  V30 37 H 1.515235 0.758349 -0.276991 0
M  V30 38 H 1.922795 2.615422 2.003104 0
M  V30 39 H -0.095831 2.343691 -0.070118 0
M  V30 40 H -0.297082 3.267582 1.549488 0
M  V30 41 H 0.924629 -0.027236 2.704347 0
M  V30 42 H 0.392168 1.605245 3.474977 0
M  V30 43 H -0.805379 0.146174 -0.284223 0
M  V30 44 H -0.621743 -1.029008 1.154288 0
M  V30 45 H -3.000609 0.744464 0.284365 0
M  V30 46 H -6.207688 -0.243438 -1.576849 0
M  V30 47 H -7.495958 -2.330864 -1.003342 0
M  V30 48 H -6.606944 -3.772605 0.853305 0
M  V30 49 H -5.683750 -4.771257 3.463549 0
M  V30 50 H -4.797063 -5.274123 2.059173 0
M  V30 51 H -2.496998 2.202169 2.125823 0
M  V30 52 H -2.172911 0.745944 3.215029 0
M  V30 53 H 2.728605 -0.463983 -1.322010 0
M  V30 END ATOM
M  V30 BEGIN BOND
M  V30 1 1 1 2
M  V30 2 1 2 3
M  V30 3 2 3 4
M  V30 4 1 4 5
M  V30 5 2 5 6
M  V30 6 1 6 7
M  V30 7 2 7 8
M  V30 8 1 8 9
M  V30 9 2 9 10
M  V30 10 1 10 11
M  V30 11 1 11 12
M  V30 12 1 12 13
M  V30 13 1 13 14
M  V30 14 1 14 15
M  V30 15 1 14 16
M  V30 16 1 16 17
M  V30 17 1 17 18
M  V30 18 1 18 19
M  V30 19 2 19 20
M  V30 20 1 20 21
M  V30 21 2 21 22
M  V30 22 1 22 23
M  V30 23 2 23 24
M  V30 24 1 24 25
M  V30 25 1 25 26
M  V30 26 2 25 27
M  V30 27 1 17 28
M  V30 28 1 10 29
M  V30 29 2 29 30
M  V30 30 1 30 3
M  V30 31 1 29 6
M  V30 32 1 15 12
M  V30 33 1 24 19
M  V30 34 1 28 14
M  V30 35 1 1 31
M  V30 36 1 1 32
M  V30 37 1 1 33
M  V30 38 1 4 34
M  V30 39 1 5 35
M  V30 40 1 8 36
M  V30 41 1 11 37
M  V30 42 1 12 38
M  V30 43 1 13 39
M  V30 44 1 13 40
M  V30 45 1 15 41
M  V30 46 1 15 42
M  V30 47 1 16 43
M  V30 48 1 16 44
M  V30 49 1 17 45
M  V30 50 1 21 46
M  V30 51 1 22 47
M  V30 52 1 23 48
M  V30 53 1 26 49
M  V30 54 1 26 50
M  V30 55 1 28 51
M  V30 56 1 28 52
M  V30 57 1 30 53
M  V30 END BOND
M  V30 END CTAB
M  END
>  <Dataset>  (632) 
ChEMBL_Kinases

>  <Ligand_Instance>  (632) 
nan

>  <PDB_ID>  (632) 
nan

>  <Standardized_SMILES>  (632) 
COc1ccc2ncnc(NC3CC4(C3)CC(Oc3ncccc3C(N)=O)C4)c2c1

>  <Name>  (632) 
nan

>  <Pocket>  (632) 
nan

>  <ATP_Site>  (632) 
nan

>  <Peripheral>  (632) 
nan

>  <Num_H_Atoms_ProtBoundConf>  (632) 
nan

>  <Num_Resolved_Atoms>  (632) 
nan

>  <Num_Not_Resolved_Atoms>  (632) 
nan

$$$$
CHEMBL4580751
     RDKit          3D

  0  0  0  0  0  0  0  0  0  0999 V3000
M  V30 BEGIN CTAB
M  V30 COUNTS 81 86 0 0 0
M  V30 BEGIN ATOM
M  V30 1 N -6.180371 -4.708279 3.028634 0
M  V30 2 C -5.704549 -3.673557 2.909473 0
M  V30 3 C -5.121296 -2.361578 2.776575 0
M  V30 4 C -5.895368 -1.230298 2.752925 0
M  V30 5 N -5.285400 -0.034237 2.626385 0
M  V30 6 C -3.937902 0.036991 2.525620 0
M  V30 7 N -3.648874 1.447784 2.407995 0
M  V30 8 C -3.685569 1.888057 1.024809 0
M  V30 9 C -3.477225 3.325343 0.854052 0
M  V30 10 C -4.568479 4.149418 0.580524 0
M  V30 11 C -4.426212 5.525635 0.425192 0
M  V30 12 C -3.143648 6.010959 0.558995 0
M  V30 13 C -2.068071 5.187305 0.829777 0
M  V30 14 C -2.219226 3.819701 0.982642 0
M  V30 15 O -1.037509 3.204402 1.240644 0
M  V30 16 C -0.092169 2.700729 0.362319 0
M  V30 17 F -0.494201 1.722104 -0.483940 0
M  V30 18 F 0.995847 2.296803 1.137474 0
M  V30 19 F 0.384757 3.751799 -0.420546 0
M  V30 20 N -3.149319 -1.048130 2.545013 0
M  V30 21 C -3.724816 -2.256954 2.670107 0
M  V30 22 N -2.850540 -3.380874 2.710103 0
M  V30 23 C -1.458578 -3.600032 2.625782 0
M  V30 24 C -0.775790 -3.417905 1.318442 0
M  V30 25 C -1.382215 -4.389444 0.295116 0
M  V30 26 C -0.591195 -4.310713 -0.979801 0
M  V30 27 C -0.541102 -2.912262 -1.510339 0
M  V30 28 C 0.116178 -2.005437 -0.491166 0
M  V30 29 C -0.777760 -2.048277 0.745857 0
M  V30 30 C 1.486829 -2.401323 -0.095360 0
M  V30 31 N 2.547220 -2.054719 -0.977165 0
M  V30 32 C 2.692307 -0.632720 -1.178615 0
M  V30 33 C 3.849671 -0.310770 -2.104706 0 CFG=1
M  V30 34 C 4.044213 1.148828 -2.348524 0
M  V30 35 C 5.345248 1.663789 -1.743379 0
M  V30 36 C 6.542909 0.936135 -2.277015 0 CFG=2
M  V30 37 O 6.965853 1.422598 -3.501238 0
M  V30 38 C 6.292905 -0.543436 -2.361986 0
M  V30 39 C 5.115065 -0.865823 -1.475954 0
M  V30 40 C 1.470015 -3.869204 0.267735 0
M  V30 41 C 0.836767 -4.750530 -0.755968 0
M  V30 42 C 0.647454 -3.971481 1.527937 0
M  V30 43 H -6.974255 -1.417411 2.843024 0
M  V30 44 H -3.427034 2.168732 3.132569 0
M  V30 45 H -4.696085 1.619933 0.638844 0
M  V30 46 H -2.933458 1.335515 0.434198 0
M  V30 47 H -5.561416 3.704744 0.485702 0
M  V30 48 H -5.320673 6.085977 0.216466 0
M  V30 49 H -3.075638 7.095258 0.429865 0
M  V30 50 H -1.143151 5.751769 0.899186 0
M  V30 51 H -3.420450 -4.279588 2.834360 0
M  V30 52 H -0.877144 -2.978211 3.364323 0
M  V30 53 H -1.224313 -4.648543 2.953494 0
M  V30 54 H -1.312337 -5.411257 0.697964 0
M  V30 55 H -2.432070 -4.153689 0.129939 0
M  V30 56 H -1.034736 -5.002649 -1.726837 0
M  V30 57 H -1.612487 -2.566469 -1.567888 0
M  V30 58 H -0.020056 -2.852041 -2.469762 0
M  V30 59 H 0.107630 -0.968633 -0.838284 0
M  V30 60 H -1.794606 -1.853244 0.334184 0
M  V30 61 H -0.399346 -1.308864 1.444696 0
M  V30 62 H 1.701808 -1.874898 0.881625 0
M  V30 63 H 2.458393 -2.519902 -1.916840 0
M  V30 64 H 1.775793 -0.161525 -1.607694 0
M  V30 65 H 2.832793 -0.134535 -0.195937 0
M  V30 66 H 3.711159 -0.832840 -3.059323 0
M  V30 67 H 4.128544 1.367717 -3.449490 0
M  V30 68 H 3.223585 1.765655 -1.988372 0
M  V30 69 H 5.407406 2.750827 -2.015732 0
M  V30 70 H 5.263061 1.615692 -0.650694 0
M  V30 71 H 7.369181 1.090024 -1.527793 0
M  V30 72 H 7.372278 2.319499 -3.431372 0
M  V30 73 H 6.075441 -0.878149 -3.415723 0
M  V30 74 H 7.203796 -1.092340 -2.061015 0
M  V30 75 H 5.307466 -0.460885 -0.475554 0
M  V30 76 H 4.995925 -1.970865 -1.435119 0
M  V30 77 H 2.493509 -4.173235 0.504647 0
M  V30 78 H 1.375566 -4.697013 -1.721592 0
M  V30 79 H 0.848893 -5.774683 -0.384972 0
M  V30 80 H 0.536404 -5.064250 1.742229 0
M  V30 81 H 1.135246 -3.482954 2.379425 0
M  V30 END ATOM
M  V30 BEGIN BOND
M  V30 1 3 1 2
M  V30 2 1 2 3
M  V30 3 2 3 4
M  V30 4 1 4 5
M  V30 5 2 5 6
M  V30 6 1 6 7
M  V30 7 1 7 8
M  V30 8 1 8 9
M  V30 9 2 9 10
M  V30 10 1 10 11
M  V30 11 2 11 12
M  V30 12 1 12 13
M  V30 13 2 13 14
M  V30 14 1 14 15
M  V30 15 1 15 16
M  V30 16 1 16 17
M  V30 17 1 16 18
M  V30 18 1 16 19
M  V30 19 1 6 20
M  V30 20 2 20 21
M  V30 21 1 21 22
M  V30 22 1 22 23
M  V30 23 1 23 24
M  V30 24 1 24 25
M  V30 25 1 25 26
M  V30 26 1 26 27
M  V30 27 1 27 28
M  V30 28 1 28 29
M  V30 29 1 28 30
M  V30 30 1 30 31
M  V30 31 1 31 32
M  V30 32 1 32 33
M  V30 33 1 33 34
M  V30 34 1 34 35
M  V30 35 1 35 36
M  V30 36 1 36 37
M  V30 37 1 36 38
M  V30 38 1 38 39
M  V30 39 1 30 40
M  V30 40 1 40 41
M  V30 41 1 40 42
M  V30 42 1 21 3
M  V30 43 1 29 24
M  V30 44 1 39 33
M  V30 45 1 14 9
M  V30 46 1 42 24
M  V30 47 1 41 26
M  V30 48 1 4 43
M  V30 49 1 7 44
M  V30 50 1 8 45
M  V30 51 1 8 46
M  V30 52 1 10 47
M  V30 53 1 11 48
M  V30 54 1 12 49
M  V30 55 1 13 50
M  V30 56 1 22 51
M  V30 57 1 23 52
M  V30 58 1 23 53
M  V30 59 1 25 54
M  V30 60 1 25 55
M  V30 61 1 26 56
M  V30 62 1 27 57
M  V30 63 1 27 58
M  V30 64 1 28 59
M  V30 65 1 29 60
M  V30 66 1 29 61
M  V30 67 1 30 62
M  V30 68 1 31 63
M  V30 69 1 32 64
M  V30 70 1 32 65
M  V30 71 1 33 66 CFG=3
M  V30 72 1 34 67
M  V30 73 1 34 68
M  V30 74 1 35 69
M  V30 75 1 35 70
M  V30 76 1 36 71 CFG=1
M  V30 77 1 37 72
M  V30 78 1 38 73
M  V30 79 1 38 74
M  V30 80 1 39 75
M  V30 81 1 39 76
M  V30 82 1 40 77
M  V30 83 1 41 78
M  V30 84 1 41 79
M  V30 85 1 42 80
M  V30 86 1 42 81
M  V30 END BOND
M  V30 END CTAB
M  END
>  <Dataset>  (633) 
ChEMBL_Kinases

>  <Ligand_Instance>  (633) 
nan

>  <PDB_ID>  (633) 
nan

>  <Standardized_SMILES>  (633) 
N#Cc1cnc(NCc2ccccc2OC(F)(F)F)nc1NCC12CC3CC(C1)C(NC[C@H]1CC[C@H](O)CC1)C(C3)C2

>  <Name>  (633) 
nan

>  <Pocket>  (633) 
nan

>  <ATP_Site>  (633) 
nan

>  <Peripheral>  (633) 
nan

>  <Num_H_Atoms_ProtBoundConf>  (633) 
nan

>  <Num_Resolved_Atoms>  (633) 
nan

>  <Num_Not_Resolved_Atoms>  (633) 
nan

$$$$
CHEMBL4583691
     RDKit          3D

  0  0  0  0  0  0  0  0  0  0999 V3000
M  V30 BEGIN CTAB
M  V30 COUNTS 61 64 0 0 0
M  V30 BEGIN ATOM
M  V30 1 C 0.159853 -3.029596 4.153594 0
M  V30 2 C 1.024616 -2.076907 3.408836 0
M  V30 3 C 1.995540 -1.396840 4.115042 0
M  V30 4 C 2.791599 -0.512613 3.414942 0
M  V30 5 C 2.610111 -0.327146 2.058720 0
M  V30 6 N 3.518774 0.626311 1.479017 0
M  V30 7 C 2.897631 1.918152 1.562282 0
M  V30 8 O 1.762609 1.838028 2.107530 0
M  V30 9 C 3.549086 3.147395 1.058751 0
M  V30 10 C 4.777654 3.269865 0.463400 0
M  V30 11 C 5.188199 4.531032 0.067670 0
M  V30 12 N 4.418336 5.624761 0.251968 0
M  V30 13 C 3.212352 5.520251 0.833830 0
M  V30 14 C 2.443986 6.785478 0.989961 0
M  V30 15 F 1.174921 6.482713 1.476760 0
M  V30 16 F 3.082753 7.479189 2.024187 0
M  V30 17 F 2.421445 7.558281 -0.129318 0
M  V30 18 C 2.759459 4.284001 1.245386 0
M  V30 19 C 1.629352 -1.022919 1.379427 0
M  V30 20 C 0.818681 -1.913732 2.054492 0
M  V30 21 C -0.199404 -2.622233 1.282242 0
M  V30 22 C -0.496760 -3.943366 1.318491 0
M  V30 23 C -1.482159 -4.525867 0.549284 0
M  V30 24 O -1.666962 -5.889538 0.699298 0
M  V30 25 C -2.644985 -6.543486 -0.047608 0
M  V30 26 C -2.463420 -6.451812 -1.531060 0
M  V30 27 O -3.479684 -7.129981 -2.209070 0
M  V30 28 N -2.165281 -3.709073 -0.270084 0
M  V30 29 C -1.905372 -2.395663 -0.339034 0
M  V30 30 N -2.702271 -1.648791 -1.246747 0
M  V30 31 C -3.729709 -2.226130 -2.055510 0
M  V30 32 C -4.886917 -1.275610 -2.274150 0
M  V30 33 O -4.489474 -0.058262 -2.815602 0
M  V30 34 C -3.102879 0.058703 -2.873168 0
M  V30 35 C -2.582895 -0.221756 -1.472396 0
M  V30 36 C -0.927124 -1.792229 0.418733 0
M  V30 37 H 0.642254 -4.039600 4.272514 0
M  V30 38 H -0.842910 -3.123684 3.683424 0
M  V30 39 H -0.046590 -2.674768 5.186680 0
M  V30 40 H 2.101880 -1.574669 5.180206 0
M  V30 41 H 3.549653 0.010727 3.996139 0
M  V30 42 H 4.484127 0.553269 1.037912 0
M  V30 43 H 5.297557 2.346082 0.368869 0
M  V30 44 H 6.158451 4.580888 -0.394831 0
M  V30 45 H 1.764376 4.279651 1.712182 0
M  V30 46 H 1.563526 -0.808517 0.311031 0
M  V30 47 H 0.090430 -4.546041 1.997414 0
M  V30 48 H -3.672844 -6.211394 0.220377 0
M  V30 49 H -2.593392 -7.623904 0.219911 0
M  V30 50 H -1.522205 -6.977808 -1.832942 0
M  V30 51 H -2.376051 -5.414627 -1.902168 0
M  V30 52 H -3.514182 -6.737532 -3.126353 0
M  V30 53 H -4.117608 -3.179587 -1.675017 0
M  V30 54 H -3.297009 -2.432092 -3.069649 0
M  V30 55 H -5.408042 -1.032613 -1.326761 0
M  V30 56 H -5.616627 -1.700549 -2.986150 0
M  V30 57 H -2.638580 -0.588215 -3.641771 0
M  V30 58 H -2.881263 1.141141 -3.106422 0
M  V30 59 H -1.515453 0.055764 -1.393990 0
M  V30 60 H -3.197360 0.357188 -0.776355 0
M  V30 61 H -0.751614 -0.730338 0.331082 0
M  V30 END ATOM
M  V30 BEGIN BOND
M  V30 1 1 1 2
M  V30 2 2 2 3
M  V30 3 1 3 4
M  V30 4 2 4 5
M  V30 5 1 5 6
M  V30 6 1 6 7
M  V30 7 2 7 8
M  V30 8 1 7 9
M  V30 9 2 9 10
M  V30 10 1 10 11
M  V30 11 2 11 12
M  V30 12 1 12 13
M  V30 13 1 13 14
M  V30 14 1 14 15
M  V30 15 1 14 16
M  V30 16 1 14 17
M  V30 17 2 13 18
M  V30 18 1 5 19
M  V30 19 2 19 20
M  V30 20 1 20 21
M  V30 21 2 21 22
M  V30 22 1 22 23
M  V30 23 1 23 24
M  V30 24 1 24 25
M  V30 25 1 25 26
M  V30 26 1 26 27
M  V30 27 2 23 28
M  V30 28 1 28 29
M  V30 29 1 29 30
M  V30 30 1 30 31
M  V30 31 1 31 32
M  V30 32 1 32 33
M  V30 33 1 33 34
M  V30 34 1 34 35
M  V30 35 2 29 36
M  V30 36 1 20 2
M  V30 37 1 36 21
M  V30 38 1 18 9
M  V30 39 1 35 30
M  V30 40 1 1 37
M  V30 41 1 1 38
M  V30 42 1 1 39
M  V30 43 1 3 40
M  V30 44 1 4 41
M  V30 45 1 6 42
M  V30 46 1 10 43
M  V30 47 1 11 44
M  V30 48 1 18 45
M  V30 49 1 19 46
M  V30 50 1 22 47
M  V30 51 1 25 48
M  V30 52 1 25 49
M  V30 53 1 26 50
M  V30 54 1 26 51
M  V30 55 1 27 52
M  V30 56 1 31 53
M  V30 57 1 31 54
M  V30 58 1 32 55
M  V30 59 1 32 56
M  V30 60 1 34 57
M  V30 61 1 34 58
M  V30 62 1 35 59
M  V30 63 1 35 60
M  V30 64 1 36 61
M  V30 END BOND
M  V30 END CTAB
M  END
>  <Dataset>  (634) 
ChEMBL_Kinases

>  <Ligand_Instance>  (634) 
nan

>  <PDB_ID>  (634) 
nan

>  <Standardized_SMILES>  (634) 
Cc1ccc(NC(=O)c2ccnc(C(F)(F)F)c2)cc1-c1cc(OCCO)nc(N2CCOCC2)c1

>  <Name>  (634) 
LXH254

>  <Pocket>  (634) 
nan

>  <ATP_Site>  (634) 
nan

>  <Peripheral>  (634) 
nan

>  <Num_H_Atoms_ProtBoundConf>  (634) 
nan

>  <Num_Resolved_Atoms>  (634) 
nan

>  <Num_Not_Resolved_Atoms>  (634) 
nan

$$$$
CHEMBL461757
     RDKit          3D

  0  0  0  0  0  0  0  0  0  0999 V3000
M  V30 BEGIN CTAB
M  V30 COUNTS 60 61 0 0 0
M  V30 BEGIN ATOM
M  V30 1 C 1.697165 -3.069895 2.026533 0
M  V30 2 C 2.310287 -3.148368 0.666568 0
M  V30 3 C 3.563945 -2.274772 0.615752 0
M  V30 4 C 3.253861 -0.849097 0.898962 0
M  V30 5 O 4.336423 -0.228211 0.906248 0
M  V30 6 O 1.998630 -0.385178 1.101053 0
M  V30 7 C 1.548703 0.889579 1.347417 0
M  V30 8 C 1.513410 1.890929 0.272193 0
M  V30 9 C 2.753095 2.340380 -0.382722 0
M  V30 10 O 3.257904 1.348312 -1.211495 0
M  V30 11 C 0.715485 3.147042 0.786143 0
M  V30 12 C -0.672231 2.730292 0.531422 0
M  V30 13 C -1.780633 3.420045 0.848629 0
M  V30 14 C -3.134016 2.973213 0.573994 0
M  V30 15 C -4.061792 3.066951 1.614093 0
M  V30 16 C -5.373361 2.677791 1.406021 0
M  V30 17 C -5.841738 2.190458 0.208902 0
M  V30 18 C -7.198828 1.751890 -0.129855 0
M  V30 19 F -7.810869 1.078652 0.924831 0
M  V30 20 F -7.178839 0.817358 -1.174253 0
M  V30 21 F -8.032335 2.785683 -0.496656 0
M  V30 22 C -4.905931 2.100688 -0.826140 0
M  V30 23 C -3.572929 2.488574 -0.639464 0
M  V30 24 C -0.660445 1.395985 -0.106822 0
M  V30 25 O -1.638048 0.589263 0.029030 0
M  V30 26 O 0.593103 1.432409 -0.752302 0
M  V30 27 C 2.607899 -4.517805 0.185263 0
M  V30 28 C 1.465377 -5.434613 0.028845 0
M  V30 29 C 2.071408 -6.761711 -0.525720 0
M  V30 30 C 0.444652 -4.901209 -0.960191 0
M  V30 31 C 0.720763 -5.808220 1.265243 0
M  V30 32 H 1.859456 -3.969427 2.626073 0
M  V30 33 H 0.599174 -2.847181 2.022453 0
M  V30 34 H 2.135568 -2.174085 2.571969 0
M  V30 35 H 1.570953 -2.650086 -0.042158 0
M  V30 36 H 3.999503 -2.330543 -0.399748 0
M  V30 37 H 4.324247 -2.708174 1.297724 0
M  V30 38 H 0.471216 0.770566 1.717885 0
M  V30 39 H 2.152617 1.259219 2.244634 0
M  V30 40 H 2.567161 3.284854 -0.945846 0
M  V30 41 H 3.532561 2.496215 0.406950 0
M  V30 42 H 2.578198 0.726678 -1.556257 0
M  V30 43 H 0.909742 3.176512 1.871233 0
M  V30 44 H 1.052900 4.029805 0.240869 0
M  V30 45 H -1.729819 4.398783 1.352879 0
M  V30 46 H -3.863462 3.430092 2.622663 0
M  V30 47 H -6.132123 2.735927 2.201695 0
M  V30 48 H -5.169466 1.728651 -1.810461 0
M  V30 49 H -2.898727 2.413863 -1.466688 0
M  V30 50 H 3.350118 -5.028847 0.890765 0
M  V30 51 H 3.186457 -4.491600 -0.794579 0
M  V30 52 H 2.462244 -7.290042 0.365550 0
M  V30 53 H 2.921657 -6.533201 -1.176367 0
M  V30 54 H 1.268346 -7.318603 -1.011572 0
M  V30 55 H -0.377178 -4.345017 -0.447564 0
M  V30 56 H -0.077179 -5.734636 -1.490226 0
M  V30 57 H 0.877088 -4.236314 -1.711326 0
M  V30 58 H 0.020208 -5.023732 1.587301 0
M  V30 59 H 1.322229 -6.150156 2.114081 0
M  V30 60 H 0.052867 -6.700896 0.951416 0
M  V30 END ATOM
M  V30 BEGIN BOND
M  V30 1 1 1 2
M  V30 2 1 2 3
M  V30 3 1 3 4
M  V30 4 2 4 5
M  V30 5 1 4 6
M  V30 6 1 6 7
M  V30 7 1 7 8
M  V30 8 1 8 9
M  V30 9 1 9 10
M  V30 10 1 8 11
M  V30 11 1 11 12
M  V30 12 2 12 13
M  V30 13 1 13 14
M  V30 14 2 14 15
M  V30 15 1 15 16
M  V30 16 2 16 17
M  V30 17 1 17 18
M  V30 18 1 18 19
M  V30 19 1 18 20
M  V30 20 1 18 21
M  V30 21 1 17 22
M  V30 22 2 22 23
M  V30 23 1 12 24
M  V30 24 2 24 25
M  V30 25 1 24 26
M  V30 26 1 2 27
M  V30 27 1 27 28
M  V30 28 1 28 29
M  V30 29 1 28 30
M  V30 30 1 28 31
M  V30 31 1 26 8
M  V30 32 1 23 14
M  V30 33 1 1 32
M  V30 34 1 1 33
M  V30 35 1 1 34
M  V30 36 1 2 35
M  V30 37 1 3 36
M  V30 38 1 3 37
M  V30 39 1 7 38
M  V30 40 1 7 39
M  V30 41 1 9 40
M  V30 42 1 9 41
M  V30 43 1 10 42
M  V30 44 1 11 43
M  V30 45 1 11 44
M  V30 46 1 13 45
M  V30 47 1 15 46
M  V30 48 1 16 47
M  V30 49 1 22 48
M  V30 50 1 23 49
M  V30 51 1 27 50
M  V30 52 1 27 51
M  V30 53 1 29 52
M  V30 54 1 29 53
M  V30 55 1 29 54
M  V30 56 1 30 55
M  V30 57 1 30 56
M  V30 58 1 30 57
M  V30 59 1 31 58
M  V30 60 1 31 59
M  V30 61 1 31 60
M  V30 END BOND
M  V30 END CTAB
M  END
>  <Dataset>  (635) 
ChEMBL_Kinases

>  <Ligand_Instance>  (635) 
nan

>  <PDB_ID>  (635) 
nan

>  <Standardized_SMILES>  (635) 
CC(CC(=O)OCC1(CO)C/C(=C/c2ccc(C(F)(F)F)cc2)C(=O)O1)CC(C)(C)C

>  <Name>  (635) 
nan

>  <Pocket>  (635) 
nan

>  <ATP_Site>  (635) 
nan

>  <Peripheral>  (635) 
nan

>  <Num_H_Atoms_ProtBoundConf>  (635) 
nan

>  <Num_Resolved_Atoms>  (635) 
nan

>  <Num_Not_Resolved_Atoms>  (635) 
nan

$$$$
CHEMBL461758
     RDKit          3D

  0  0  0  0  0  0  0  0  0  0999 V3000
M  V30 BEGIN CTAB
M  V30 COUNTS 70 72 0 0 0
M  V30 BEGIN ATOM
M  V30 1 C 3.850009 -1.435028 3.225328 0
M  V30 2 C 3.352923 -1.074086 1.873348 0
M  V30 3 C 4.467172 -0.549234 0.976830 0
M  V30 4 C 4.021968 -0.230328 -0.383504 0
M  V30 5 O 3.432835 -1.260968 -0.785517 0
M  V30 6 O 4.115947 0.859539 -1.218102 0
M  V30 7 C 3.644772 0.994575 -2.502148 0
M  V30 8 C 2.194740 0.827910 -2.766306 0
M  V30 9 C 2.019213 1.043247 -4.281742 0
M  V30 10 O 2.719097 0.044944 -4.944781 0
M  V30 11 C 1.288568 1.811593 -2.080194 0
M  V30 12 C 0.102456 0.982877 -1.689769 0
M  V30 13 C -1.007389 1.215113 -0.977167 0
M  V30 14 C -2.089776 0.283367 -0.675579 0
M  V30 15 C -3.436511 0.542156 -0.827711 0
M  V30 16 C -4.388433 -0.401950 -0.486191 0
M  V30 17 C -4.052020 -1.639840 0.020057 0
M  V30 18 C -5.026999 -2.670075 0.384541 0
M  V30 19 C -6.240053 -2.878862 -0.240642 0
M  V30 20 C -7.079247 -3.900991 0.220974 0
M  V30 21 C -6.694841 -4.684486 1.284810 0
M  V30 22 C -7.597771 -5.761508 1.758619 0
M  V30 23 F -7.049558 -6.456667 2.821991 0
M  V30 24 F -7.742398 -6.698456 0.730281 0
M  V30 25 F -8.872225 -5.289769 2.033673 0
M  V30 26 C -5.484305 -4.491849 1.924362 0
M  V30 27 C -4.643879 -3.470604 1.464188 0
M  V30 28 C -2.683687 -1.886536 0.168803 0
M  V30 29 C -1.713596 -0.958738 -0.165121 0
M  V30 30 C 0.281075 -0.338178 -2.314304 0
M  V30 31 O -0.608294 -1.184741 -2.658561 0
M  V30 32 O 1.671287 -0.453904 -2.448427 0
M  V30 33 C 2.155071 -0.177001 1.880037 0
M  V30 34 C 2.219897 1.131661 2.525675 0
M  V30 35 C 2.526391 1.132192 4.015516 0
M  V30 36 C 3.078548 2.195126 1.919491 0
M  V30 37 C 0.781394 1.691510 2.464971 0
M  V30 38 H 3.041437 -1.380418 3.977686 0
M  V30 39 H 4.117237 -2.541764 3.224650 0
M  V30 40 H 4.801800 -0.960615 3.525291 0
M  V30 41 H 3.008095 -2.005206 1.375882 0
M  V30 42 H 5.197872 -1.410979 0.900142 0
M  V30 43 H 5.076871 0.239877 1.462977 0
M  V30 44 H 4.168083 0.270244 -3.212846 0
M  V30 45 H 3.913883 2.044167 -2.844299 0
M  V30 46 H 2.491922 2.021517 -4.527920 0
M  V30 47 H 0.943656 1.087559 -4.546146 0
M  V30 48 H 2.209073 -0.363095 -5.673610 0
M  V30 49 H 0.880128 2.590890 -2.756791 0
M  V30 50 H 1.751116 2.217435 -1.184355 0
M  V30 51 H -1.069538 2.249034 -0.591586 0
M  V30 52 H -3.704828 1.495557 -1.219189 0
M  V30 53 H -5.444677 -0.163383 -0.622014 0
M  V30 54 H -6.484544 -2.231581 -1.068726 0
M  V30 55 H -8.043051 -4.052208 -0.290158 0
M  V30 56 H -5.220562 -5.138228 2.764400 0
M  V30 57 H -3.724776 -3.410581 2.038903 0
M  V30 58 H -2.436261 -2.865118 0.567477 0
M  V30 59 H -0.703399 -1.316779 0.026645 0
M  V30 60 H 1.808078 -0.061906 0.844686 0
M  V30 61 H 1.327372 -0.748533 2.386874 0
M  V30 62 H 2.356339 2.190841 4.391200 0
M  V30 63 H 3.562158 0.921725 4.267106 0
M  V30 64 H 1.750048 0.545647 4.513777 0
M  V30 65 H 4.114832 2.243452 2.312931 0
M  V30 66 H 2.639419 3.181410 2.269685 0
M  V30 67 H 3.021758 2.281803 0.821732 0
M  V30 68 H 0.542568 1.794694 1.379585 0
M  V30 69 H 0.082573 1.030297 2.989355 0
M  V30 70 H 0.794708 2.747911 2.867434 0
M  V30 END ATOM
M  V30 BEGIN BOND
M  V30 1 1 1 2
M  V30 2 1 2 3
M  V30 3 1 3 4
M  V30 4 2 4 5
M  V30 5 1 4 6
M  V30 6 1 6 7
M  V30 7 1 7 8
M  V30 8 1 8 9
M  V30 9 1 9 10
M  V30 10 1 8 11
M  V30 11 1 11 12
M  V30 12 2 12 13
M  V30 13 1 13 14
M  V30 14 2 14 15
M  V30 15 1 15 16
M  V30 16 2 16 17
M  V30 17 1 17 18
M  V30 18 2 18 19
M  V30 19 1 19 20
M  V30 20 2 20 21
M  V30 21 1 21 22
M  V30 22 1 22 23
M  V30 23 1 22 24
M  V30 24 1 22 25
M  V30 25 1 21 26
M  V30 26 2 26 27
M  V30 27 1 17 28
M  V30 28 2 28 29
M  V30 29 1 12 30
M  V30 30 2 30 31
M  V30 31 1 30 32
M  V30 32 1 2 33
M  V30 33 1 33 34
M  V30 34 1 34 35
M  V30 35 1 34 36
M  V30 36 1 34 37
M  V30 37 1 32 8
M  V30 38 1 29 14
M  V30 39 1 27 18
M  V30 40 1 1 38
M  V30 41 1 1 39
M  V30 42 1 1 40
M  V30 43 1 2 41
M  V30 44 1 3 42
M  V30 45 1 3 43
M  V30 46 1 7 44
M  V30 47 1 7 45
M  V30 48 1 9 46
M  V30 49 1 9 47
M  V30 50 1 10 48
M  V30 51 1 11 49
M  V30 52 1 11 50
M  V30 53 1 13 51
M  V30 54 1 15 52
M  V30 55 1 16 53
M  V30 56 1 19 54
M  V30 57 1 20 55
M  V30 58 1 26 56
M  V30 59 1 27 57
M  V30 60 1 28 58
M  V30 61 1 29 59
M  V30 62 1 33 60
M  V30 63 1 33 61
M  V30 64 1 35 62
M  V30 65 1 35 63
M  V30 66 1 35 64
M  V30 67 1 36 65
M  V30 68 1 36 66
M  V30 69 1 36 67
M  V30 70 1 37 68
M  V30 71 1 37 69
M  V30 72 1 37 70
M  V30 END BOND
M  V30 END CTAB
M  END
>  <Dataset>  (636) 
ChEMBL_Kinases

>  <Ligand_Instance>  (636) 
nan

>  <PDB_ID>  (636) 
nan

>  <Standardized_SMILES>  (636) 
CC(CC(=O)OCC1(CO)C/C(=C/c2ccc(-c3ccc(C(F)(F)F)cc3)cc2)C(=O)O1)CC(C)(C)C

>  <Name>  (636) 
nan

>  <Pocket>  (636) 
nan

>  <ATP_Site>  (636) 
nan

>  <Peripheral>  (636) 
nan

>  <Num_H_Atoms_ProtBoundConf>  (636) 
nan

>  <Num_Resolved_Atoms>  (636) 
nan

>  <Num_Not_Resolved_Atoms>  (636) 
nan

$$$$
CHEMBL4583637
     RDKit          3D

  0  0  0  0  0  0  0  0  0  0999 V3000
M  V30 BEGIN CTAB
M  V30 COUNTS 82 87 0 0 0
M  V30 BEGIN ATOM
M  V30 1 C 3.049833 -3.015065 5.241806 0
M  V30 2 S 1.872123 -2.327797 4.066494 0
M  V30 3 O 2.656768 -1.496169 3.134869 0
M  V30 4 O 1.274454 -3.539751 3.376211 0
M  V30 5 C 0.690160 -1.477431 5.005093 0
M  V30 6 N -0.379628 -2.205523 5.392489 0
M  V30 7 C -1.353236 -1.651171 6.137630 0
M  V30 8 C -1.282886 -0.325924 6.524826 0
M  V30 9 C -0.156352 0.369645 6.093822 0
M  V30 10 C 0.875659 -0.163208 5.321173 0
M  V30 11 C 1.995579 0.684205 4.930370 0
M  V30 12 N 1.922068 1.162857 3.563980 0
M  V30 13 C 0.818760 1.974948 3.102004 0
M  V30 14 N 0.954398 3.305530 3.219671 0
M  V30 15 C -0.059695 4.076087 2.791375 0
M  V30 16 C -1.207079 3.561738 2.248604 0
M  V30 17 C -2.321103 4.335845 1.773922 0
M  V30 18 N -3.211095 4.942629 1.391767 0
M  V30 19 C -1.331674 2.172130 2.133858 0
M  V30 20 N -2.438836 1.445198 1.628347 0
M  V30 21 C -2.928922 0.156527 1.350877 0
M  V30 22 C -2.396677 -0.597669 0.181017 0
M  V30 23 C -3.177150 -1.939173 0.212052 0
M  V30 24 C -2.753980 -2.844255 -0.893126 0
M  V30 25 C -1.268280 -3.095576 -0.913591 0
M  V30 26 C -0.556018 -1.749625 -0.995914 0
M  V30 27 C -0.967282 -0.990441 0.259354 0
M  V30 28 C -0.918497 -1.045432 -2.265261 0
M  V30 29 N -0.284981 0.214232 -2.408790 0
M  V30 30 C 1.158544 0.156008 -2.471802 0
M  V30 31 C 1.665802 -0.494634 -3.710639 0 CFG=1
M  V30 32 C 1.241615 0.201364 -4.986675 0
M  V30 33 C 1.280966 -0.904907 -6.042547 0
M  V30 34 C 2.671084 -1.494406 -6.058338 0 CFG=2
M  V30 35 O 2.679579 -2.871267 -5.795064 0
M  V30 36 C 3.638112 -0.760887 -5.169329 0
M  V30 37 C 3.182936 -0.551218 -3.766805 0
M  V30 38 C -2.415321 -0.852360 -2.268419 0
M  V30 39 C -3.132926 -2.200333 -2.208522 0
M  V30 40 C -2.808136 0.029199 -1.135235 0
M  V30 41 N -0.291251 1.454373 2.576148 0
M  V30 42 H 3.585403 -2.124067 5.674928 0
M  V30 43 H 3.740065 -3.633275 4.632207 0
M  V30 44 H 2.535318 -3.614374 6.030217 0
M  V30 45 H -2.212814 -2.213499 6.455126 0
M  V30 46 H -2.036506 0.146368 7.115667 0
M  V30 47 H -0.125370 1.417663 6.414624 0
M  V30 48 H 2.954659 0.103070 4.972709 0
M  V30 49 H 2.045336 1.558150 5.621645 0
M  V30 50 H 2.443363 1.148452 2.635123 0
M  V30 51 H -0.104932 5.167702 2.815892 0
M  V30 52 H -3.165335 2.184584 1.358310 0
M  V30 53 H -2.832440 -0.548546 2.232275 0
M  V30 54 H -4.050855 0.189795 1.211085 0
M  V30 55 H -4.233814 -1.630667 0.026020 0
M  V30 56 H -3.145199 -2.374884 1.225947 0
M  V30 57 H -3.291535 -3.801438 -0.758582 0
M  V30 58 H -1.056615 -3.698974 -1.815535 0
M  V30 59 H -0.977084 -3.561245 0.035761 0
M  V30 60 H 0.540029 -1.948350 -0.918149 0
M  V30 61 H -0.250454 -0.164811 0.456192 0
M  V30 62 H -0.853572 -1.707639 1.101283 0
M  V30 63 H -0.633187 -1.759265 -3.089100 0
M  V30 64 H -0.535072 0.962684 -1.768387 0
M  V30 65 H 1.548435 1.214250 -2.468270 0
M  V30 66 H 1.534697 -0.312114 -1.553807 0
M  V30 67 H 1.296355 -1.543413 -3.700285 0
M  V30 68 H 0.284978 0.714237 -4.936607 0
M  V30 69 H 2.030836 0.922373 -5.306244 0
M  V30 70 H 0.923902 -0.534257 -7.001290 0
M  V30 71 H 0.601802 -1.691671 -5.641085 0
M  V30 72 H 3.049606 -1.382702 -7.103745 0
M  V30 73 H 3.493625 -3.242085 -6.222959 0
M  V30 74 H 3.938716 0.175921 -5.706437 0
M  V30 75 H 4.583082 -1.379993 -5.188789 0
M  V30 76 H 3.527677 0.482454 -3.463821 0
M  V30 77 H 3.591220 -1.310772 -3.068914 0
M  V30 78 H -2.704596 -0.433640 -3.254316 0
M  V30 79 H -2.766776 -2.818712 -3.022803 0
M  V30 80 H -4.209062 -1.939414 -2.248568 0
M  V30 81 H -2.424596 1.034210 -1.270496 0
M  V30 82 H -3.933099 0.040440 -1.100801 0
M  V30 END ATOM
M  V30 BEGIN BOND
M  V30 1 1 1 2
M  V30 2 2 2 3
M  V30 3 2 2 4
M  V30 4 1 2 5
M  V30 5 2 5 6
M  V30 6 1 6 7
M  V30 7 2 7 8
M  V30 8 1 8 9
M  V30 9 2 9 10
M  V30 10 1 10 11
M  V30 11 1 11 12
M  V30 12 1 12 13
M  V30 13 2 13 14
M  V30 14 1 14 15
M  V30 15 2 15 16
M  V30 16 1 16 17
M  V30 17 3 17 18
M  V30 18 1 16 19
M  V30 19 1 19 20
M  V30 20 1 20 21
M  V30 21 1 21 22
M  V30 22 1 22 23
M  V30 23 1 23 24
M  V30 24 1 24 25
M  V30 25 1 25 26
M  V30 26 1 26 27
M  V30 27 1 26 28
M  V30 28 1 28 29
M  V30 29 1 29 30
M  V30 30 1 30 31
M  V30 31 1 31 32
M  V30 32 1 32 33
M  V30 33 1 33 34
M  V30 34 1 34 35
M  V30 35 1 34 36
M  V30 36 1 36 37
M  V30 37 1 28 38
M  V30 38 1 38 39
M  V30 39 1 38 40
M  V30 40 2 19 41
M  V30 41 1 10 5
M  V30 42 1 41 13
M  V30 43 1 27 22
M  V30 44 1 37 31
M  V30 45 1 40 22
M  V30 46 1 39 24
M  V30 47 1 1 42
M  V30 48 1 1 43
M  V30 49 1 1 44
M  V30 50 1 7 45
M  V30 51 1 8 46
M  V30 52 1 9 47
M  V30 53 1 11 48
M  V30 54 1 11 49
M  V30 55 1 12 50
M  V30 56 1 15 51
M  V30 57 1 20 52
M  V30 58 1 21 53
M  V30 59 1 21 54
M  V30 60 1 23 55
M  V30 61 1 23 56
M  V30 62 1 24 57
M  V30 63 1 25 58
M  V30 64 1 25 59
M  V30 65 1 26 60
M  V30 66 1 27 61
M  V30 67 1 27 62
M  V30 68 1 28 63
M  V30 69 1 29 64
M  V30 70 1 30 65
M  V30 71 1 30 66
M  V30 72 1 31 67 CFG=3
M  V30 73 1 32 68
M  V30 74 1 32 69
M  V30 75 1 33 70
M  V30 76 1 33 71
M  V30 77 1 34 72 CFG=3
M  V30 78 1 35 73
M  V30 79 1 36 74
M  V30 80 1 36 75
M  V30 81 1 37 76
M  V30 82 1 37 77
M  V30 83 1 38 78
M  V30 84 1 39 79
M  V30 85 1 39 80
M  V30 86 1 40 81
M  V30 87 1 40 82
M  V30 END BOND
M  V30 END CTAB
M  END
>  <Dataset>  (637) 
ChEMBL_Kinases

>  <Ligand_Instance>  (637) 
nan

>  <PDB_ID>  (637) 
nan

>  <Standardized_SMILES>  (637) 
CS(=O)(=O)c1ncccc1CNc1ncc(C#N)c(NCC23CC4CC(C2)C(NC[C@H]2CC[C@H](O)CC2)C(C4)C3)n1

>  <Name>  (637) 
nan

>  <Pocket>  (637) 
nan

>  <ATP_Site>  (637) 
nan

>  <Peripheral>  (637) 
nan

>  <Num_H_Atoms_ProtBoundConf>  (637) 
nan

>  <Num_Resolved_Atoms>  (637) 
nan

>  <Num_Not_Resolved_Atoms>  (637) 
nan

$$$$
CHEMBL4583540
     RDKit          3D

  0  0  0  0  0  0  0  0  0  0999 V3000
M  V30 BEGIN CTAB
M  V30 COUNTS 49 53 0 0 0
M  V30 BEGIN ATOM
M  V30 1 O 1.787178 -0.170233 3.871253 0
M  V30 2 N 2.197326 -0.370264 2.711831 0 CHG=1 VAL=4
M  V30 3 O 1.000018 -0.414580 3.325130 0 CHG=-1 VAL=1
M  V30 4 C 3.440144 -0.325324 2.070920 0
M  V30 5 C 4.480644 -0.587603 2.918463 0
M  V30 6 C 5.758147 -0.585216 2.390990 0
M  V30 7 C 5.878582 -0.318531 1.057299 0
M  V30 8 C 4.780296 -0.063563 0.270619 0
M  V30 9 C 3.456531 -0.052600 0.750902 0
M  V30 10 S 2.219298 0.300667 -0.408326 0
M  V30 11 O 2.830199 0.360584 -1.813255 0
M  V30 12 O 1.378553 -0.984494 -0.480778 0
M  V30 13 N 1.305858 1.661977 -0.209696 0
M  V30 14 C 0.461824 1.884481 0.889912 0
M  V30 15 C -0.821177 1.134989 0.894313 0
M  V30 16 C -1.310229 0.845089 -0.509857 0
M  V30 17 C -0.617862 1.432905 -1.516675 0
M  V30 18 S -1.467152 1.015583 -3.025291 0
M  V30 19 C -2.750884 0.025857 -2.116276 0
M  V30 20 N -3.814071 -0.661153 -2.632745 0
M  V30 21 C -4.646107 -1.335829 -1.859228 0
M  V30 22 N -4.345646 -1.275804 -0.567350 0
M  V30 23 C -3.316721 -0.616165 -0.022163 0
M  V30 24 N -3.150437 -0.724586 1.407830 0
M  V30 25 C -2.782532 -2.093168 1.578802 0
M  V30 26 C -3.771524 -3.066253 1.385784 0
M  V30 27 C -3.531203 -4.431076 1.510910 0
M  V30 28 C -2.265891 -4.884935 1.839864 0
M  V30 29 C -1.254546 -3.969355 2.040218 0
M  V30 30 Cl 0.396373 -4.433059 2.457435 0
M  V30 31 C -1.575789 -2.651227 1.899428 0
M  V30 32 C -2.420519 0.103962 -0.775637 0
M  V30 33 C 0.624764 2.223938 -1.346183 0
M  V30 34 H 4.371581 -0.800411 3.970484 0
M  V30 35 H 6.631753 -0.783892 2.987861 0
M  V30 36 H 6.880531 -0.321254 0.653106 0
M  V30 37 H 5.014231 0.132522 -0.793945 0
M  V30 38 H 0.145196 2.990536 0.777469 0
M  V30 39 H 0.905758 1.881240 1.887514 0
M  V30 40 H -1.637706 1.822182 1.296939 0
M  V30 41 H -0.889822 0.266370 1.551219 0
M  V30 42 H -5.414203 -1.805984 -2.433223 0
M  V30 43 H -3.247406 -0.027384 2.203338 0
M  V30 44 H -4.798309 -2.869448 1.128466 0
M  V30 45 H -4.259814 -5.205506 1.368769 0
M  V30 46 H -2.048032 -5.932960 1.941131 0
M  V30 47 H -0.767784 -1.960275 2.053304 0
M  V30 48 H 0.326932 3.248425 -1.081624 0
M  V30 49 H 1.226549 2.283371 -2.253654 0
M  V30 END ATOM
M  V30 BEGIN BOND
M  V30 1 2 1 2
M  V30 2 1 2 3
M  V30 3 1 2 4
M  V30 4 2 4 5
M  V30 5 1 5 6
M  V30 6 2 6 7
M  V30 7 1 7 8
M  V30 8 2 8 9
M  V30 9 1 9 10
M  V30 10 2 10 11
M  V30 11 2 10 12
M  V30 12 1 10 13
M  V30 13 1 13 14
M  V30 14 1 14 15
M  V30 15 1 15 16
M  V30 16 2 16 17
M  V30 17 1 17 18
M  V30 18 1 18 19
M  V30 19 2 19 20
M  V30 20 1 20 21
M  V30 21 2 21 22
M  V30 22 1 22 23
M  V30 23 1 23 24
M  V30 24 1 24 25
M  V30 25 2 25 26
M  V30 26 1 26 27
M  V30 27 2 27 28
M  V30 28 1 28 29
M  V30 29 1 29 30
M  V30 30 2 29 31
M  V30 31 2 23 32
M  V30 32 1 17 33
M  V30 33 1 9 4
M  V30 34 1 33 13
M  V30 35 1 32 16
M  V30 36 1 32 19
M  V30 37 1 31 25
M  V30 38 1 5 34
M  V30 39 1 6 35
M  V30 40 1 7 36
M  V30 41 1 8 37
M  V30 42 1 14 38
M  V30 43 1 14 39
M  V30 44 1 15 40
M  V30 45 1 15 41
M  V30 46 1 21 42
M  V30 47 1 24 43
M  V30 48 1 26 44
M  V30 49 1 27 45
M  V30 50 1 28 46
M  V30 51 1 31 47
M  V30 52 1 33 48
M  V30 53 1 33 49
M  V30 END BOND
M  V30 END CTAB
M  END
>  <Dataset>  (638) 
ChEMBL_Kinases

>  <Ligand_Instance>  (638) 
nan

>  <PDB_ID>  (638) 
nan

>  <Standardized_SMILES>  (638) 
O=[N+]([O-])c1ccccc1S(=O)(=O)N1CCc2c(sc3ncnc(Nc4cccc(Cl)c4)c23)C1

>  <Name>  (638) 
nan

>  <Pocket>  (638) 
nan

>  <ATP_Site>  (638) 
nan

>  <Peripheral>  (638) 
nan

>  <Num_H_Atoms_ProtBoundConf>  (638) 
nan

>  <Num_Resolved_Atoms>  (638) 
nan

>  <Num_Not_Resolved_Atoms>  (638) 
nan

$$$$
CHEMBL4583439
     RDKit          3D

  0  0  0  0  0  0  0  0  0  0999 V3000
M  V30 BEGIN CTAB
M  V30 COUNTS 38 39 0 0 0
M  V30 BEGIN ATOM
M  V30 1 N 3.093946 -2.623767 3.963906 0
M  V30 2 C 3.150105 -1.980459 2.705517 0
M  V30 3 O 4.367092 -1.676771 2.621228 0
M  V30 4 C 1.934556 -1.861547 1.947485 0
M  V30 5 S 0.327950 -2.488140 2.464977 0
M  V30 6 C -0.531010 -1.893499 0.948945 0
M  V30 7 C 0.523054 -1.268078 0.196985 0
M  V30 8 N 1.742162 -1.282493 0.748035 0 CHG=1 VAL=4
M  V30 9 O 2.858517 -0.735334 0.162973 0 CHG=-1 VAL=1
M  V30 10 C 0.140699 -0.668488 -1.114753 0
M  V30 11 S 0.534716 1.016803 -1.074641 0
M  V30 12 C -0.208563 2.211508 -0.089895 0
M  V30 13 C 0.099299 1.956881 1.373551 0 CFG=2
M  V30 14 N -0.524594 2.948533 2.232115 0
M  V30 15 C 1.580697 2.130534 1.619902 0
M  V30 16 O 1.814301 3.046441 2.443752 0
M  V30 17 O 2.976047 2.006319 1.597473 0
M  V30 18 C -1.172150 -1.131523 -1.482753 0
M  V30 19 C -1.421553 -0.825682 -2.912365 0
M  V30 20 F -0.436357 -1.477513 -3.669230 0
M  V30 21 F -2.590992 -1.399191 -3.376372 0
M  V30 22 F -1.514254 0.498870 -3.205781 0
M  V30 23 C -2.176898 -1.741292 -0.852587 0
M  V30 24 C -1.922364 -2.038492 0.598232 0
M  V30 25 N -2.412353 -3.394783 0.906071 0 CHG=1 VAL=4
M  V30 26 O -2.894661 -4.209883 0.087562 0
M  V30 27 O -2.854845 -4.645336 1.240571 0 CHG=-1 VAL=1
M  V30 28 H 3.065493 -3.146835 4.861895 0
M  V30 29 H 3.070524 -3.166038 4.851173 0
M  V30 30 H 0.881935 -1.133978 -1.832688 0
M  V30 31 H -1.294587 2.401943 -0.153253 0
M  V30 32 H 0.239367 3.200686 -0.330122 0
M  V30 33 H -0.162991 0.954902 1.711419 0
M  V30 34 H -0.092680 2.846412 3.173861 0
M  V30 35 H -0.430433 3.911916 1.857902 0
M  V30 36 H 3.386671 1.192747 2.036467 0
M  V30 37 H -3.101996 -1.998937 -1.352802 0
M  V30 38 H -2.569131 -1.357568 1.177424 0
M  V30 END ATOM
M  V30 BEGIN BOND
M  V30 1 1 1 2
M  V30 2 2 2 3
M  V30 3 1 2 4
M  V30 4 1 4 5
M  V30 5 1 5 6
M  V30 6 2 6 7
M  V30 7 1 7 8
M  V30 8 1 8 9
M  V30 9 1 7 10
M  V30 10 1 10 11
M  V30 11 1 11 12
M  V30 12 1 12 13
M  V30 13 1 13 14
M  V30 14 1 13 15
M  V30 15 2 15 16
M  V30 16 1 15 17
M  V30 17 1 10 18
M  V30 18 1 18 19
M  V30 19 1 19 20
M  V30 20 1 19 21
M  V30 21 1 19 22
M  V30 22 2 18 23
M  V30 23 1 23 24
M  V30 24 1 24 25
M  V30 25 2 25 26
M  V30 26 1 25 27
M  V30 27 2 8 4
M  V30 28 1 24 6
M  V30 29 1 1 28
M  V30 30 1 1 29
M  V30 31 1 10 30
M  V30 32 1 12 31
M  V30 33 1 12 32
M  V30 34 1 13 33 CFG=1
M  V30 35 1 14 34
M  V30 36 1 14 35
M  V30 37 1 17 36
M  V30 38 1 23 37
M  V30 39 1 24 38
M  V30 END BOND
M  V30 END CTAB
M  END
>  <Dataset>  (639) 
ChEMBL_Kinases

>  <Ligand_Instance>  (639) 
nan

>  <PDB_ID>  (639) 
nan

>  <Standardized_SMILES>  (639) 
NC(=O)c1sc2c([n+]1[O-])C(SC[C@H](N)C(=O)O)C(C(F)(F)F)=CC2[N+](=O)[O-]

>  <Name>  (639) 
nan

>  <Pocket>  (639) 
nan

>  <ATP_Site>  (639) 
nan

>  <Peripheral>  (639) 
nan

>  <Num_H_Atoms_ProtBoundConf>  (639) 
nan

>  <Num_Resolved_Atoms>  (639) 
nan

>  <Num_Not_Resolved_Atoms>  (639) 
nan

$$$$
CHEMBL4583241
     RDKit          3D

  0  0  0  0  0  0  0  0  0  0999 V3000
M  V30 BEGIN CTAB
M  V30 COUNTS 43 46 0 0 0
M  V30 BEGIN ATOM
M  V30 1 O 1.634207 -3.836332 1.624996 0
M  V30 2 C 1.939660 -2.973741 2.655485 0
M  V30 3 C 0.827866 -1.888639 2.692507 0
M  V30 4 N 0.733963 -1.153198 1.510421 0
M  V30 5 C 0.312187 -0.219908 0.528149 0
M  V30 6 N 0.841989 -0.058473 -0.696502 0
M  V30 7 C 0.470961 0.798830 -1.630675 0
M  V30 8 C 1.200428 0.789359 -2.889945 0
M  V30 9 C 2.246802 -0.077213 -3.117200 0
M  V30 10 C 2.852728 0.016575 -4.349872 0
M  V30 11 N 2.443870 0.906784 -5.280655 0
M  V30 12 C 1.425099 1.734604 -5.029674 0
M  V30 13 C 0.748236 1.711010 -3.803226 0
M  V30 14 N -0.547985 1.593172 -1.314997 0
M  V30 15 C -1.207344 1.586194 -0.148643 0
M  V30 16 C -2.253262 2.453375 0.081254 0
M  V30 17 N -2.885098 2.401505 1.283438 0
M  V30 18 C -2.494021 1.519244 2.227918 0
M  V30 19 C -1.441729 0.683077 1.929830 0
M  V30 20 C -0.733894 0.652020 0.747714 0
M  V30 21 C -0.412689 -2.694335 3.051286 0
M  V30 22 C -0.392576 -2.899025 4.533254 0
M  V30 23 C 0.518366 -1.853205 5.083450 0
M  V30 24 C 1.112607 -1.108639 3.933229 0
M  V30 25 H 0.927905 -3.512826 1.023390 0
M  V30 26 H 1.943658 -3.522666 3.602694 0
M  V30 27 H 2.883614 -2.465205 2.407853 0
M  V30 28 H 1.533302 -1.602465 1.018775 0
M  V30 29 H 2.555378 -0.783884 -2.350440 0
M  V30 30 H 3.682115 -0.645331 -4.575986 0
M  V30 31 H 1.129870 2.429875 -5.798989 0
M  V30 32 H -0.082684 2.382488 -3.591484 0
M  V30 33 H -2.503779 3.131460 -0.732312 0
M  V30 34 H -3.020659 1.514013 3.160366 0
M  V30 35 H -1.194457 0.016493 2.730296 0
M  V30 36 H -0.321646 -3.729681 2.592393 0
M  V30 37 H -1.339260 -2.304424 2.633676 0
M  V30 38 H -1.417207 -2.892777 4.910695 0
M  V30 39 H 0.043889 -3.890751 4.805573 0
M  V30 40 H -0.111770 -1.125006 5.640514 0
M  V30 41 H 1.269610 -2.278647 5.785950 0
M  V30 42 H 0.820123 -0.038768 3.903526 0
M  V30 43 H 2.236595 -1.144320 4.100759 0
M  V30 END ATOM
M  V30 BEGIN BOND
M  V30 1 1 1 2
M  V30 2 1 2 3
M  V30 3 1 3 4
M  V30 4 1 4 5
M  V30 5 2 5 6
M  V30 6 1 6 7
M  V30 7 1 7 8
M  V30 8 2 8 9
M  V30 9 1 9 10
M  V30 10 2 10 11
M  V30 11 1 11 12
M  V30 12 2 12 13
M  V30 13 2 7 14
M  V30 14 1 14 15
M  V30 15 2 15 16
M  V30 16 1 16 17
M  V30 17 2 17 18
M  V30 18 1 18 19
M  V30 19 2 19 20
M  V30 20 1 3 21
M  V30 21 1 21 22
M  V30 22 1 22 23
M  V30 23 1 23 24
M  V30 24 1 24 3
M  V30 25 1 20 5
M  V30 26 1 13 8
M  V30 27 1 20 15
M  V30 28 1 1 25
M  V30 29 1 2 26
M  V30 30 1 2 27
M  V30 31 1 4 28
M  V30 32 1 9 29
M  V30 33 1 10 30
M  V30 34 1 12 31
M  V30 35 1 13 32
M  V30 36 1 16 33
M  V30 37 1 18 34
M  V30 38 1 19 35
M  V30 39 1 21 36
M  V30 40 1 21 37
M  V30 41 1 22 38
M  V30 42 1 22 39
M  V30 43 1 23 40
M  V30 44 1 23 41
M  V30 45 1 24 42
M  V30 46 1 24 43
M  V30 END BOND
M  V30 END CTAB
M  END
>  <Dataset>  (640) 
ChEMBL_Kinases

>  <Ligand_Instance>  (640) 
nan

>  <PDB_ID>  (640) 
nan

>  <Standardized_SMILES>  (640) 
OCC1(Nc2nc(-c3ccncc3)nc3cnccc23)CCCC1

>  <Name>  (640) 
nan

>  <Pocket>  (640) 
nan

>  <ATP_Site>  (640) 
nan

>  <Peripheral>  (640) 
nan

>  <Num_H_Atoms_ProtBoundConf>  (640) 
nan

>  <Num_Resolved_Atoms>  (640) 
nan

>  <Num_Not_Resolved_Atoms>  (640) 
nan

$$$$
CHEMBL4583196
     RDKit          3D

  0  0  0  0  0  0  0  0  0  0999 V3000
M  V30 BEGIN CTAB
M  V30 COUNTS 56 59 0 0 0
M  V30 BEGIN ATOM
M  V30 1 C -2.057519 -2.582681 5.067770 0
M  V30 2 C -1.691952 -2.424718 3.635636 0
M  V30 3 N -0.447250 -2.224726 3.238759 0
M  V30 4 C -0.051008 -2.075484 1.947294 0
M  V30 5 N 1.343156 -1.871166 1.796633 0
M  V30 6 C 1.779139 -0.562101 1.453128 0
M  V30 7 N 1.332819 0.547123 1.178307 0
M  V30 8 C 2.128987 1.572592 0.898662 0
M  V30 9 C 3.511727 1.400625 0.913662 0
M  V30 10 C 4.634937 2.249531 0.677984 0
M  V30 11 O 5.783054 1.759393 0.793337 0
M  V30 12 N 4.283963 3.578392 0.331134 0
M  V30 13 C 4.980913 4.774791 0.009210 0
M  V30 14 C 5.313198 5.721054 0.969775 0
M  V30 15 C 5.993497 6.881646 0.661612 0
M  V30 16 C 6.355781 7.106835 -0.653591 0
M  V30 17 C 6.038641 6.179902 -1.639487 0
M  V30 18 C 5.359181 5.026690 -1.315000 0
M  V30 19 Cl 4.971911 3.875260 -2.560383 0
M  V30 20 S 3.618670 -0.280868 1.342544 0
M  V30 21 C -1.013218 -2.134602 0.962444 0
M  V30 22 C -2.314014 -2.341655 1.351842 0
M  V30 23 N -3.338347 -2.391646 0.366799 0
M  V30 24 C -4.640430 -2.906283 0.769557 0
M  V30 25 C -4.883910 -4.152608 -0.078715 0
M  V30 26 N -3.926198 -4.286787 -1.120652 0
M  V30 27 C -4.074379 -5.411529 -1.980579 0
M  V30 28 C -3.780232 -6.729832 -1.264128 0
M  V30 29 O -2.457274 -6.721287 -0.781907 0
M  V30 30 C -3.628656 -3.114676 -1.874257 0
M  V30 31 C -3.186161 -1.955938 -1.006176 0
M  V30 32 N -2.607961 -2.478275 2.653466 0
M  V30 33 H -3.143611 -2.651209 5.202403 0
M  V30 34 H -1.513665 -3.421642 5.549930 0
M  V30 35 H -1.714825 -1.659294 5.581548 0
M  V30 36 H 1.962759 -2.690179 1.946488 0
M  V30 37 H 1.697488 2.555417 0.656133 0
M  V30 38 H 3.314868 3.943148 0.244224 0
M  V30 39 H 5.043043 5.570717 2.004182 0
M  V30 40 H 6.251422 7.625863 1.425661 0
M  V30 41 H 6.896797 8.019181 -0.943291 0
M  V30 42 H 6.342796 6.396292 -2.660020 0
M  V30 43 H -0.659183 -2.012707 -0.047716 0
M  V30 44 H -5.419345 -2.156187 0.571813 0
M  V30 45 H -4.667759 -3.146949 1.851692 0
M  V30 46 H -4.785668 -5.018517 0.605405 0
M  V30 47 H -5.913384 -4.169981 -0.476894 0
M  V30 48 H -3.437817 -5.326687 -2.877932 0
M  V30 49 H -5.130442 -5.502391 -2.357441 0
M  V30 50 H -3.961423 -7.572240 -1.952274 0
M  V30 51 H -4.462688 -6.852355 -0.403829 0
M  V30 52 H -1.993953 -5.941345 -1.180177 0
M  V30 53 H -4.509347 -2.819174 -2.467094 0
M  V30 54 H -2.758693 -3.355590 -2.519362 0
M  V30 55 H -3.928188 -1.111302 -1.118250 0
M  V30 56 H -2.216740 -1.535710 -1.257036 0
M  V30 END ATOM
M  V30 BEGIN BOND
M  V30 1 1 1 2
M  V30 2 2 2 3
M  V30 3 1 3 4
M  V30 4 1 4 5
M  V30 5 1 5 6
M  V30 6 2 6 7
M  V30 7 1 7 8
M  V30 8 2 8 9
M  V30 9 1 9 10
M  V30 10 2 10 11
M  V30 11 1 10 12
M  V30 12 1 12 13
M  V30 13 2 13 14
M  V30 14 1 14 15
M  V30 15 2 15 16
M  V30 16 1 16 17
M  V30 17 2 17 18
M  V30 18 1 18 19
M  V30 19 1 9 20
M  V30 20 2 4 21
M  V30 21 1 21 22
M  V30 22 1 22 23
M  V30 23 1 23 24
M  V30 24 1 24 25
M  V30 25 1 25 26
M  V30 26 1 26 27
M  V30 27 1 27 28
M  V30 28 1 28 29
M  V30 29 1 26 30
M  V30 30 1 30 31
M  V30 31 2 22 32
M  V30 32 1 32 2
M  V30 33 1 20 6
M  V30 34 1 31 23
M  V30 35 1 18 13
M  V30 36 1 1 33
M  V30 37 1 1 34
M  V30 38 1 1 35
M  V30 39 1 5 36
M  V30 40 1 8 37
M  V30 41 1 12 38
M  V30 42 1 14 39
M  V30 43 1 15 40
M  V30 44 1 16 41
M  V30 45 1 17 42
M  V30 46 1 21 43
M  V30 47 1 24 44
M  V30 48 1 24 45
M  V30 49 1 25 46
M  V30 50 1 25 47
M  V30 51 1 27 48
M  V30 52 1 27 49
M  V30 53 1 28 50
M  V30 54 1 28 51
M  V30 55 1 29 52
M  V30 56 1 30 53
M  V30 57 1 30 54
M  V30 58 1 31 55
M  V30 59 1 31 56
M  V30 END BOND
M  V30 END CTAB
M  END
>  <Dataset>  (641) 
ChEMBL_Kinases

>  <Ligand_Instance>  (641) 
nan

>  <PDB_ID>  (641) 
nan

>  <Standardized_SMILES>  (641) 
Cc1nc(Nc2ncc(C(=O)Nc3ccccc3Cl)s2)cc(N2CCN(CCO)CC2)n1

>  <Name>  (641) 
nan

>  <Pocket>  (641) 
nan

>  <ATP_Site>  (641) 
nan

>  <Peripheral>  (641) 
nan

>  <Num_H_Atoms_ProtBoundConf>  (641) 
nan

>  <Num_Resolved_Atoms>  (641) 
nan

>  <Num_Not_Resolved_Atoms>  (641) 
nan

$$$$
CHEMBL461936
     RDKit          3D

  0  0  0  0  0  0  0  0  0  0999 V3000
M  V30 BEGIN CTAB
M  V30 COUNTS 57 58 0 0 0
M  V30 BEGIN ATOM
M  V30 1 C 1.969389 1.098052 5.795164 0
M  V30 2 C 3.077296 0.510796 4.953160 0
M  V30 3 C 2.762768 0.697081 3.476009 0
M  V30 4 C 2.624898 2.151413 3.163166 0
M  V30 5 C 2.326180 2.442864 1.718007 0
M  V30 6 C 3.451150 1.876092 0.878818 0
M  V30 7 C 3.255952 2.129779 -0.605458 0
M  V30 8 C 1.052543 1.823541 1.321888 0
M  V30 9 O 0.267598 1.205937 2.038231 0
M  V30 10 O 0.824624 2.019892 0.004879 0
M  V30 11 C -0.217841 1.618578 -0.764451 0
M  V30 12 C -0.513515 0.187279 -1.007472 0
M  V30 13 C 0.612973 -0.532095 -1.741730 0
M  V30 14 O 0.826812 0.087543 -2.948197 0
M  V30 15 C -1.003604 -0.613619 0.165656 0
M  V30 16 C -1.766536 -1.710988 -0.557387 0
M  V30 17 C -2.233402 -2.884025 -0.094271 0
M  V30 18 C -2.963591 -3.910900 -0.814649 0
M  V30 19 C -2.441712 -5.195071 -0.610312 0
M  V30 20 C -2.979370 -6.325106 -1.174108 0
M  V30 21 C -4.073519 -6.184785 -1.970460 0
M  V30 22 C -4.640139 -4.940945 -2.213990 0
M  V30 23 C -5.833226 -4.731646 -3.075476 0
M  V30 24 F -6.384598 -5.964824 -3.422098 0
M  V30 25 F -6.832342 -4.018125 -2.441938 0
M  V30 26 F -5.421030 -4.150041 -4.249279 0
M  V30 27 C -4.070241 -3.856548 -1.631567 0
M  V30 28 C -1.909161 -1.304833 -1.946663 0
M  V30 29 O -2.195818 -2.091892 -2.918808 0
M  V30 30 O -1.661866 0.057231 -1.890495 0
M  V30 31 H 1.022961 1.014405 5.195921 0
M  V30 32 H 1.799783 0.573934 6.746947 0
M  V30 33 H 2.124659 2.204049 5.939591 0
M  V30 34 H 3.056403 -0.595556 5.171750 0
M  V30 35 H 4.081848 0.849444 5.220548 0
M  V30 36 H 1.828991 0.177756 3.296820 0
M  V30 37 H 3.645736 0.264661 2.947878 0
M  V30 38 H 1.846281 2.600470 3.837342 0
M  V30 39 H 3.581271 2.646651 3.491843 0
M  V30 40 H 2.287980 3.570205 1.552553 0
M  V30 41 H 3.429928 0.767864 0.999591 0
M  V30 42 H 4.449106 2.210138 1.215903 0
M  V30 43 H 4.270822 2.221037 -1.069998 0
M  V30 44 H 2.788921 3.120406 -0.765727 0
M  V30 45 H 2.763863 1.304713 -1.128560 0
M  V30 46 H -0.042265 2.064630 -1.801208 0
M  V30 47 H -1.206382 2.101681 -0.493454 0
M  V30 48 H 0.259740 -1.575375 -2.007701 0
M  V30 49 H 1.496827 -0.706234 -1.117350 0
M  V30 50 H 1.759737 -0.009774 -3.261182 0
M  V30 51 H -1.736594 -0.036719 0.731116 0
M  V30 52 H -0.197517 -1.077609 0.769859 0
M  V30 53 H -2.030007 -3.079021 0.974863 0
M  V30 54 H -1.558616 -5.392178 0.019049 0
M  V30 55 H -2.562088 -7.313983 -1.006058 0
M  V30 56 H -4.547360 -7.046996 -2.447711 0
M  V30 57 H -4.462686 -2.862984 -1.757701 0
M  V30 END ATOM
M  V30 BEGIN BOND
M  V30 1 1 1 2
M  V30 2 1 2 3
M  V30 3 1 3 4
M  V30 4 1 4 5
M  V30 5 1 5 6
M  V30 6 1 6 7
M  V30 7 1 5 8
M  V30 8 2 8 9
M  V30 9 1 8 10
M  V30 10 1 10 11
M  V30 11 1 11 12
M  V30 12 1 12 13
M  V30 13 1 13 14
M  V30 14 1 12 15
M  V30 15 1 15 16
M  V30 16 2 16 17
M  V30 17 1 17 18
M  V30 18 2 18 19
M  V30 19 1 19 20
M  V30 20 2 20 21
M  V30 21 1 21 22
M  V30 22 1 22 23
M  V30 23 1 23 24
M  V30 24 1 23 25
M  V30 25 1 23 26
M  V30 26 2 22 27
M  V30 27 1 16 28
M  V30 28 2 28 29
M  V30 29 1 28 30
M  V30 30 1 30 12
M  V30 31 1 27 18
M  V30 32 1 1 31
M  V30 33 1 1 32
M  V30 34 1 1 33
M  V30 35 1 2 34
M  V30 36 1 2 35
M  V30 37 1 3 36
M  V30 38 1 3 37
M  V30 39 1 4 38
M  V30 40 1 4 39
M  V30 41 1 5 40
M  V30 42 1 6 41
M  V30 43 1 6 42
M  V30 44 1 7 43
M  V30 45 1 7 44
M  V30 46 1 7 45
M  V30 47 1 11 46
M  V30 48 1 11 47
M  V30 49 1 13 48
M  V30 50 1 13 49
M  V30 51 1 14 50
M  V30 52 1 15 51
M  V30 53 1 15 52
M  V30 54 1 17 53
M  V30 55 1 19 54
M  V30 56 1 20 55
M  V30 57 1 21 56
M  V30 58 1 27 57
M  V30 END BOND
M  V30 END CTAB
M  END
>  <Dataset>  (642) 
ChEMBL_Kinases

>  <Ligand_Instance>  (642) 
nan

>  <PDB_ID>  (642) 
nan

>  <Standardized_SMILES>  (642) 
CCCCC(CC)C(=O)OCC1(CO)C/C(=C/c2cccc(C(F)(F)F)c2)C(=O)O1

>  <Name>  (642) 
nan

>  <Pocket>  (642) 
nan

>  <ATP_Site>  (642) 
nan

>  <Peripheral>  (642) 
nan

>  <Num_H_Atoms_ProtBoundConf>  (642) 
nan

>  <Num_Resolved_Atoms>  (642) 
nan

>  <Num_Not_Resolved_Atoms>  (642) 
nan

$$$$
CHEMBL461937
     RDKit          3D

  0  0  0  0  0  0  0  0  0  0999 V3000
M  V30 BEGIN CTAB
M  V30 COUNTS 67 69 0 0 0
M  V30 BEGIN ATOM
M  V30 1 C 3.029794 -0.820303 5.366535 0
M  V30 2 C 4.027348 -1.623528 4.619099 0
M  V30 3 C 4.609946 -0.964455 3.417684 0
M  V30 4 C 3.617902 -0.583367 2.356394 0
M  V30 5 C 2.853145 -1.725981 1.800677 0
M  V30 6 C 3.623250 -2.807768 1.148583 0
M  V30 7 C 4.452221 -2.422857 -0.027645 0
M  V30 8 C 4.342474 0.208792 1.311200 0
M  V30 9 O 5.479666 0.667127 1.027157 0
M  V30 10 O 3.467007 0.562878 0.307610 0
M  V30 11 C 3.806092 1.310163 -0.845202 0
M  V30 12 C 2.498789 1.433986 -1.641181 0
M  V30 13 C 2.812544 2.290968 -2.848367 0
M  V30 14 O 3.752568 1.763111 -3.694196 0
M  V30 15 C 1.438901 2.172598 -0.864332 0
M  V30 16 C 0.311955 1.198685 -0.864361 0
M  V30 17 C -0.751341 1.539337 -0.166684 0
M  V30 18 C -1.897229 0.647641 -0.105789 0
M  V30 19 C -1.907220 -0.691933 0.222590 0
M  V30 20 C -3.054230 -1.457785 0.219826 0
M  V30 21 C -4.242755 -0.834248 -0.131980 0
M  V30 22 C -5.488093 -1.597706 -0.149556 0
M  V30 23 C -5.453959 -2.946804 -0.471942 0
M  V30 24 C -6.625654 -3.670106 -0.495808 0
M  V30 25 C -7.844450 -3.048549 -0.196751 0
M  V30 26 C -9.183242 -3.701102 -0.182765 0
M  V30 27 F -9.142043 -4.992053 -0.683263 0
M  V30 28 F -9.682775 -3.813306 1.103656 0
M  V30 29 F -10.112267 -2.913133 -0.863943 0
M  V30 30 C -7.887448 -1.712974 0.123346 0
M  V30 31 C -6.710533 -0.980960 0.148527 0
M  V30 32 C -4.315105 0.501221 -0.472817 0
M  V30 33 C -3.123581 1.236499 -0.454799 0
M  V30 34 C 0.628976 0.072536 -1.686497 0
M  V30 35 O -0.246982 -0.765028 -2.025490 0
M  V30 36 O 1.994598 0.160962 -1.965512 0
M  V30 37 H 2.243793 -1.517677 5.772376 0
M  V30 38 H 2.513435 -0.027953 4.822492 0
M  V30 39 H 3.447408 -0.328417 6.289144 0
M  V30 40 H 4.871826 -1.824588 5.315324 0
M  V30 41 H 3.644338 -2.649649 4.372948 0
M  V30 42 H 5.234149 -0.097512 3.645030 0
M  V30 43 H 5.285640 -1.728095 2.928849 0
M  V30 44 H 2.881734 0.123626 2.798594 0
M  V30 45 H 2.148067 -1.309718 1.037974 0
M  V30 46 H 2.250150 -2.162732 2.608424 0
M  V30 47 H 4.265344 -3.403489 1.824626 0
M  V30 48 H 2.867118 -3.552485 0.770025 0
M  V30 49 H 4.761454 -3.398265 -0.516066 0
M  V30 50 H 3.899638 -1.881802 -0.827485 0
M  V30 51 H 5.395383 -1.963429 0.279214 0
M  V30 52 H 4.091326 2.335537 -0.483759 0
M  V30 53 H 4.599740 0.869698 -1.451917 0
M  V30 54 H 1.896764 2.589064 -3.402035 0
M  V30 55 H 3.212046 3.249037 -2.423672 0
M  V30 56 H 4.616510 2.240393 -3.646464 0
M  V30 57 H 1.096008 3.092347 -1.364039 0
M  V30 58 H 1.756828 2.350923 0.185562 0
M  V30 59 H -0.893605 2.451077 0.403690 0
M  V30 60 H -0.965540 -1.137541 0.507423 0
M  V30 61 H -2.988470 -2.510673 0.488219 0
M  V30 62 H -4.533887 -3.474079 -0.711716 0
M  V30 63 H -6.724726 -4.712893 -0.727196 0
M  V30 64 H -8.789064 -1.166140 0.365280 0
M  V30 65 H -6.667727 0.079434 0.392076 0
M  V30 66 H -5.244341 0.980091 -0.747811 0
M  V30 67 H -3.238847 2.293137 -0.734338 0
M  V30 END ATOM
M  V30 BEGIN BOND
M  V30 1 1 1 2
M  V30 2 1 2 3
M  V30 3 1 3 4
M  V30 4 1 4 5
M  V30 5 1 5 6
M  V30 6 1 6 7
M  V30 7 1 4 8
M  V30 8 2 8 9
M  V30 9 1 8 10
M  V30 10 1 10 11
M  V30 11 1 11 12
M  V30 12 1 12 13
M  V30 13 1 13 14
M  V30 14 1 12 15
M  V30 15 1 15 16
M  V30 16 2 16 17
M  V30 17 1 17 18
M  V30 18 2 18 19
M  V30 19 1 19 20
M  V30 20 2 20 21
M  V30 21 1 21 22
M  V30 22 2 22 23
M  V30 23 1 23 24
M  V30 24 2 24 25
M  V30 25 1 25 26
M  V30 26 1 26 27
M  V30 27 1 26 28
M  V30 28 1 26 29
M  V30 29 1 25 30
M  V30 30 2 30 31
M  V30 31 1 21 32
M  V30 32 2 32 33
M  V30 33 1 16 34
M  V30 34 2 34 35
M  V30 35 1 34 36
M  V30 36 1 36 12
M  V30 37 1 33 18
M  V30 38 1 31 22
M  V30 39 1 1 37
M  V30 40 1 1 38
M  V30 41 1 1 39
M  V30 42 1 2 40
M  V30 43 1 2 41
M  V30 44 1 3 42
M  V30 45 1 3 43
M  V30 46 1 4 44
M  V30 47 1 5 45
M  V30 48 1 5 46
M  V30 49 1 6 47
M  V30 50 1 6 48
M  V30 51 1 7 49
M  V30 52 1 7 50
M  V30 53 1 7 51
M  V30 54 1 11 52
M  V30 55 1 11 53
M  V30 56 1 13 54
M  V30 57 1 13 55
M  V30 58 1 14 56
M  V30 59 1 15 57
M  V30 60 1 15 58
M  V30 61 1 17 59
M  V30 62 1 19 60
M  V30 63 1 20 61
M  V30 64 1 23 62
M  V30 65 1 24 63
M  V30 66 1 30 64
M  V30 67 1 31 65
M  V30 68 1 32 66
M  V30 69 1 33 67
M  V30 END BOND
M  V30 END CTAB
M  END
>  <Dataset>  (643) 
ChEMBL_Kinases

>  <Ligand_Instance>  (643) 
nan

>  <PDB_ID>  (643) 
nan

>  <Standardized_SMILES>  (643) 
CCCC(CCC)C(=O)OCC1(CO)C/C(=C/c2ccc(-c3ccc(C(F)(F)F)cc3)cc2)C(=O)O1

>  <Name>  (643) 
nan

>  <Pocket>  (643) 
nan

>  <ATP_Site>  (643) 
nan

>  <Peripheral>  (643) 
nan

>  <Num_H_Atoms_ProtBoundConf>  (643) 
nan

>  <Num_Resolved_Atoms>  (643) 
nan

>  <Num_Not_Resolved_Atoms>  (643) 
nan

$$$$
CHEMBL4583030
     RDKit          3D

  0  0  0  0  0  0  0  0  0  0999 V3000
M  V30 BEGIN CTAB
M  V30 COUNTS 45 48 0 0 0
M  V30 BEGIN ATOM
M  V30 1 O -0.740856 -3.721772 2.434273 0
M  V30 2 C -0.897280 -2.483533 2.290390 0
M  V30 3 C 0.204218 -1.778864 1.637242 0
M  V30 4 C 1.299330 -2.387345 1.218908 0
M  V30 5 C 2.434963 -1.769695 0.565112 0
M  V30 6 C 3.535017 -2.500903 0.165606 0
M  V30 7 N 4.592174 -1.932505 -0.441226 0
M  V30 8 C 4.641703 -0.613505 -0.696251 0
M  V30 9 N 5.541791 0.206720 -1.273872 0
M  V30 10 C 5.078353 1.480662 -1.276125 0
M  V30 11 C 3.813348 1.530730 -0.676578 0
M  V30 12 C 2.963242 2.688152 -0.466593 0
M  V30 13 C 2.686502 3.637503 -1.417057 0
M  V30 14 C 1.872135 4.738447 -1.189534 0
M  V30 15 C 1.296693 4.908112 0.057178 0
M  V30 16 C 1.573666 3.954393 1.014954 0
M  V30 17 C 2.381864 2.862096 0.788914 0
M  V30 18 C 3.592599 0.201636 -0.335610 0
M  V30 19 C 2.521321 -0.421407 0.287502 0
M  V30 20 N -2.044450 -1.796471 2.719742 0
M  V30 21 C -3.169367 -2.414141 3.368243 0
M  V30 22 C -4.046638 -3.152878 2.453994 0
M  V30 23 C -5.101860 -2.450495 1.860664 0
M  V30 24 C -6.010546 -3.014247 0.977470 0
M  V30 25 C -5.851665 -4.349576 0.675205 0
M  V30 26 N -4.837210 -5.053383 1.236641 0
M  V30 27 C -3.959651 -4.502549 2.091576 0
M  V30 28 H 0.142128 -0.713335 1.480353 0
M  V30 29 H 1.334158 -3.454525 1.390474 0
M  V30 30 H 3.530612 -3.573953 0.356157 0
M  V30 31 H 6.466919 -0.108749 -1.662609 0
M  V30 32 H 5.621737 2.334909 -1.689013 0
M  V30 33 H 3.130723 3.524396 -2.410960 0
M  V30 34 H 1.671626 5.476258 -1.968657 0
M  V30 35 H 0.674515 5.763738 0.205630 0
M  V30 36 H 1.095231 4.139773 1.971798 0
M  V30 37 H 2.503818 2.214274 1.621636 0
M  V30 38 H 1.698614 0.222205 0.568380 0
M  V30 39 H -2.039385 -0.748814 2.532619 0
M  V30 40 H -2.847559 -3.068820 4.224529 0
M  V30 41 H -3.763137 -1.612747 3.851946 0
M  V30 42 H -5.258633 -1.385952 2.079161 0
M  V30 43 H -6.804020 -2.411022 0.555900 0
M  V30 44 H -6.554056 -4.794809 -0.011577 0
M  V30 45 H -3.143853 -5.041012 2.553610 0
M  V30 END ATOM
M  V30 BEGIN BOND
M  V30 1 2 1 2
M  V30 2 1 2 3
M  V30 3 2 3 4
M  V30 4 1 4 5
M  V30 5 2 5 6
M  V30 6 1 6 7
M  V30 7 2 7 8
M  V30 8 1 8 9
M  V30 9 1 9 10
M  V30 10 2 10 11
M  V30 11 1 11 12
M  V30 12 2 12 13
M  V30 13 1 13 14
M  V30 14 2 14 15
M  V30 15 1 15 16
M  V30 16 2 16 17
M  V30 17 1 11 18
M  V30 18 2 18 19
M  V30 19 1 2 20
M  V30 20 1 20 21
M  V30 21 1 21 22
M  V30 22 2 22 23
M  V30 23 1 23 24
M  V30 24 2 24 25
M  V30 25 1 25 26
M  V30 26 2 26 27
M  V30 27 1 19 5
M  V30 28 1 27 22
M  V30 29 1 18 8
M  V30 30 1 17 12
M  V30 31 1 3 28
M  V30 32 1 4 29
M  V30 33 1 6 30
M  V30 34 1 9 31
M  V30 35 1 10 32
M  V30 36 1 13 33
M  V30 37 1 14 34
M  V30 38 1 15 35
M  V30 39 1 16 36
M  V30 40 1 17 37
M  V30 41 1 19 38
M  V30 42 1 20 39
M  V30 43 1 21 40
M  V30 44 1 21 41
M  V30 45 1 23 42
M  V30 46 1 24 43
M  V30 47 1 25 44
M  V30 48 1 27 45
M  V30 END BOND
M  V30 END CTAB
M  END
>  <Dataset>  (644) 
ChEMBL_Kinases

>  <Ligand_Instance>  (644) 
nan

>  <PDB_ID>  (644) 
nan

>  <Standardized_SMILES>  (644) 
O=C(/C=C/c1cnc2[nH]cc(-c3ccccc3)c2c1)NCc1cccnc1

>  <Name>  (644) 
nan

>  <Pocket>  (644) 
nan

>  <ATP_Site>  (644) 
nan

>  <Peripheral>  (644) 
nan

>  <Num_H_Atoms_ProtBoundConf>  (644) 
nan

>  <Num_Resolved_Atoms>  (644) 
nan

>  <Num_Not_Resolved_Atoms>  (644) 
nan

$$$$
CHEMBL4582089
     RDKit          3D

  0  0  0  0  0  0  0  0  0  0999 V3000
M  V30 BEGIN CTAB
M  V30 COUNTS 39 42 0 0 0
M  V30 BEGIN ATOM
M  V30 1 O 1.113417 -4.232980 3.789384 0
M  V30 2 C 0.132399 -3.624972 3.280323 0
M  V30 3 O -1.165895 -4.034411 3.611052 0
M  V30 4 C 0.383157 -2.481381 2.335769 0
M  V30 5 N -0.813528 -1.885801 1.835659 0
M  V30 6 C -0.824785 -0.764582 0.986057 0
M  V30 7 N 0.264053 -0.113858 0.545899 0
M  V30 8 C 0.288337 0.944741 -0.254169 0
M  V30 9 C 1.540252 1.570136 -0.667282 0
M  V30 10 C 2.736138 1.050276 -0.216095 0
M  V30 11 C 3.896775 1.669495 -0.628911 0
M  V30 12 N 3.862783 2.741940 -1.442412 0
M  V30 13 C 2.735334 3.283640 -1.906835 0
M  V30 14 C 1.581827 2.653968 -1.485759 0
M  V30 15 N -0.882204 1.478109 -0.714149 0
M  V30 16 C -2.064275 0.905925 -0.337882 0
M  V30 17 C -3.232451 1.431893 -0.791690 0
M  V30 18 N -4.404541 0.890720 -0.437893 0
M  V30 19 C -4.410560 -0.187664 0.378133 0
M  V30 20 C -3.216313 -0.709423 0.829987 0
M  V30 21 C -1.980569 -0.194118 0.498754 0
M  V30 22 C 1.483770 -1.611740 2.824946 0
M  V30 23 C 2.461185 -2.446497 2.026409 0
M  V30 24 C 1.295563 -2.904047 1.178555 0
M  V30 25 H -1.329971 -4.884019 4.152083 0
M  V30 26 H -1.691205 -2.345270 2.147318 0
M  V30 27 H 2.799579 0.197919 0.432235 0
M  V30 28 H 4.859715 1.304761 -0.306388 0
M  V30 29 H 2.651197 4.131789 -2.552962 0
M  V30 30 H 0.607414 3.026043 -1.814401 0
M  V30 31 H -3.215208 2.303295 -1.450485 0
M  V30 32 H -5.384990 -0.583699 0.631504 0
M  V30 33 H -3.330623 -1.551110 1.462232 0
M  V30 34 H 1.674556 -1.662382 3.938150 0
M  V30 35 H 1.542786 -0.571086 2.484885 0
M  V30 36 H 3.256932 -1.905354 1.493004 0
M  V30 37 H 2.928147 -3.274289 2.597672 0
M  V30 38 H 1.169030 -2.259253 0.308999 0
M  V30 39 H 1.269740 -3.997518 0.984416 0
M  V30 END ATOM
M  V30 BEGIN BOND
M  V30 1 2 1 2
M  V30 2 1 2 3
M  V30 3 1 2 4
M  V30 4 1 4 5
M  V30 5 1 5 6
M  V30 6 2 6 7
M  V30 7 1 7 8
M  V30 8 1 8 9
M  V30 9 2 9 10
M  V30 10 1 10 11
M  V30 11 2 11 12
M  V30 12 1 12 13
M  V30 13 2 13 14
M  V30 14 2 8 15
M  V30 15 1 15 16
M  V30 16 2 16 17
M  V30 17 1 17 18
M  V30 18 2 18 19
M  V30 19 1 19 20
M  V30 20 2 20 21
M  V30 21 1 4 22
M  V30 22 1 22 23
M  V30 23 1 23 24
M  V30 24 1 24 4
M  V30 25 1 21 6
M  V30 26 1 14 9
M  V30 27 1 21 16
M  V30 28 1 3 25
M  V30 29 1 5 26
M  V30 30 1 10 27
M  V30 31 1 11 28
M  V30 32 1 13 29
M  V30 33 1 14 30
M  V30 34 1 17 31
M  V30 35 1 19 32
M  V30 36 1 20 33
M  V30 37 1 22 34
M  V30 38 1 22 35
M  V30 39 1 23 36
M  V30 40 1 23 37
M  V30 41 1 24 38
M  V30 42 1 24 39
M  V30 END BOND
M  V30 END CTAB
M  END
>  <Dataset>  (645) 
ChEMBL_Kinases

>  <Ligand_Instance>  (645) 
nan

>  <PDB_ID>  (645) 
nan

>  <Standardized_SMILES>  (645) 
O=C(O)C1(Nc2nc(-c3ccncc3)nc3cnccc23)CCC1

>  <Name>  (645) 
nan

>  <Pocket>  (645) 
nan

>  <ATP_Site>  (645) 
nan

>  <Peripheral>  (645) 
nan

>  <Num_H_Atoms_ProtBoundConf>  (645) 
nan

>  <Num_Resolved_Atoms>  (645) 
nan

>  <Num_Not_Resolved_Atoms>  (645) 
nan

$$$$
CHEMBL4582824
     RDKit          3D

  0  0  0  0  0  0  0  0  0  0999 V3000
M  V30 BEGIN CTAB
M  V30 COUNTS 50 53 0 0 0
M  V30 BEGIN ATOM
M  V30 1 C 4.756280 -1.924814 -4.218575 0
M  V30 2 C 3.906896 -2.349101 -3.076146 0
M  V30 3 C 2.847710 -1.579387 -2.644951 0
M  V30 4 C 2.090164 -2.030148 -1.572132 0
M  V30 5 C 2.312626 -3.188294 -0.902810 0
M  V30 6 C 1.497724 -3.537485 0.154283 0
M  V30 7 C 0.339974 -2.744442 0.621139 0
M  V30 8 C 0.696993 -1.584672 1.509670 0
M  V30 9 C -0.498273 -0.729313 1.856439 0
M  V30 10 N -1.324806 -0.481351 0.688913 0
M  V30 11 C -2.159486 0.685834 0.609520 0
M  V30 12 O -2.924098 1.036539 -0.345570 0
M  V30 13 C -2.344444 1.751484 1.585362 0
M  V30 14 C -1.355701 2.604764 2.004340 0
M  V30 15 C -1.581789 3.591587 2.929133 0
M  V30 16 C -2.808382 3.802838 3.505438 0
M  V30 17 O -3.301826 4.692171 4.435070 0
M  V30 18 C -3.324104 4.476047 5.815805 0
M  V30 19 F -2.078479 4.288918 6.373056 0
M  V30 20 F -3.898874 5.599472 6.411011 0
M  V30 21 F -4.140731 3.368133 6.045837 0
M  V30 22 C -3.860398 2.961722 3.116834 0
M  V30 23 C -3.597583 1.965280 2.172453 0
M  V30 24 C -1.439658 -1.285744 -0.477531 0
M  V30 25 C -0.759464 -2.592805 -0.342861 0
M  V30 26 N 1.864405 -4.726780 0.720678 0
M  V30 27 C 2.895922 -5.467755 0.296466 0
M  V30 28 N 3.675924 -5.103577 -0.740538 0
M  V30 29 C 3.386028 -3.929047 -1.368643 0
M  V30 30 C 4.181116 -3.544111 -2.427310 0
M  V30 31 H 4.034609 -1.514028 -4.981445 0
M  V30 32 H 5.363846 -1.076125 -3.909363 0
M  V30 33 H 5.308733 -2.784974 -4.626562 0
M  V30 34 H 2.697641 -0.671446 -3.193473 0
M  V30 35 H 1.298739 -1.400901 -1.270795 0
M  V30 36 H -0.125603 -3.452493 1.404465 0
M  V30 37 H 1.118197 -1.895261 2.487996 0
M  V30 38 H 1.475615 -0.914096 1.094973 0
M  V30 39 H -1.161576 -1.210231 2.603412 0
M  V30 40 H -0.208832 0.250535 2.272212 0
M  V30 41 H -0.363605 2.522084 1.605130 0
M  V30 42 H -0.867357 4.295257 3.305142 0
M  V30 43 H -4.903932 2.958961 3.448337 0
M  V30 44 H -4.369049 1.280393 1.830379 0
M  V30 45 H -0.979732 -0.735566 -1.352949 0
M  V30 46 H -2.499830 -1.427427 -0.807966 0
M  V30 47 H -0.501246 -2.930547 -1.400677 0
M  V30 48 H -1.613970 -3.335169 -0.155603 0
M  V30 49 H 3.135601 -6.417613 0.801192 0
M  V30 50 H 5.009608 -4.208756 -2.719519 0
M  V30 END ATOM
M  V30 BEGIN BOND
M  V30 1 1 1 2
M  V30 2 2 2 3
M  V30 3 1 3 4
M  V30 4 2 4 5
M  V30 5 1 5 6
M  V30 6 1 6 7
M  V30 7 1 7 8
M  V30 8 1 8 9
M  V30 9 1 9 10
M  V30 10 1 10 11
M  V30 11 2 11 12
M  V30 12 1 11 13
M  V30 13 2 13 14
M  V30 14 1 14 15
M  V30 15 2 15 16
M  V30 16 1 16 17
M  V30 17 1 17 18
M  V30 18 1 18 19
M  V30 19 1 18 20
M  V30 20 1 18 21
M  V30 21 1 16 22
M  V30 22 2 22 23
M  V30 23 1 10 24
M  V30 24 1 24 25
M  V30 25 2 6 26
M  V30 26 1 26 27
M  V30 27 2 27 28
M  V30 28 1 28 29
M  V30 29 2 29 30
M  V30 30 1 30 2
M  V30 31 1 29 5
M  V30 32 1 25 7
M  V30 33 1 23 13
M  V30 34 1 1 31
M  V30 35 1 1 32
M  V30 36 1 1 33
M  V30 37 1 3 34
M  V30 38 1 4 35
M  V30 39 1 7 36
M  V30 40 1 8 37
M  V30 41 1 8 38
M  V30 42 1 9 39
M  V30 43 1 9 40
M  V30 44 1 14 41
M  V30 45 1 15 42
M  V30 46 1 22 43
M  V30 47 1 23 44
M  V30 48 1 24 45
M  V30 49 1 24 46
M  V30 50 1 25 47
M  V30 51 1 25 48
M  V30 52 1 27 49
M  V30 53 1 30 50
M  V30 END BOND
M  V30 END CTAB
M  END
>  <Dataset>  (646) 
ChEMBL_Kinases

>  <Ligand_Instance>  (646) 
nan

>  <PDB_ID>  (646) 
nan

>  <Standardized_SMILES>  (646) 
Cc1ccc2c(C3CCN(C(=O)c4ccc(OC(F)(F)F)cc4)CC3)ncnc2c1

>  <Name>  (646) 
nan

>  <Pocket>  (646) 
nan

>  <ATP_Site>  (646) 
nan

>  <Peripheral>  (646) 
nan

>  <Num_H_Atoms_ProtBoundConf>  (646) 
nan

>  <Num_Resolved_Atoms>  (646) 
nan

>  <Num_Not_Resolved_Atoms>  (646) 
nan

$$$$
CHEMBL4582703
     RDKit          3D

  0  0  0  0  0  0  0  0  0  0999 V3000
M  V30 BEGIN CTAB
M  V30 COUNTS 74 78 0 0 0
M  V30 BEGIN ATOM
M  V30 1 C 4.868810 -3.377345 6.372795 0
M  V30 2 O 5.326257 -3.533524 5.047395 0
M  V30 3 C 5.232674 -2.567784 4.058279 0
M  V30 4 C 5.715768 -2.817223 2.769541 0
M  V30 5 C 5.597543 -1.822772 1.824925 0
M  V30 6 C 5.028061 -0.595054 2.083014 0
M  V30 7 N 4.874961 0.471370 1.152035 0
M  V30 8 N 5.665552 1.067157 0.265443 0
M  V30 9 C 5.009636 2.040617 -0.370272 0
M  V30 10 C 3.728903 2.098553 0.110294 0
M  V30 11 C 2.617181 2.862349 -0.139034 0
M  V30 12 N 1.436909 2.689803 0.515101 0
M  V30 13 C 1.395048 1.714612 1.443499 0
M  V30 14 N 0.331493 1.279708 2.294744 0
M  V30 15 C -0.668895 0.287807 2.101387 0
M  V30 16 C -1.551052 0.086365 3.146917 0
M  V30 17 C -2.521770 -0.884523 2.949223 0
M  V30 18 O -3.435830 -1.139686 3.951905 0
M  V30 19 C -3.362420 -0.405728 5.158049 0
M  V30 20 C -2.603805 -1.616862 1.761652 0
M  V30 21 O -3.588388 -2.574544 1.609011 0
M  V30 22 C -4.865922 -2.298797 1.070156 0
M  V30 23 C -1.692686 -1.366079 0.758680 0
M  V30 24 O -1.739988 -2.082011 -0.454007 0
M  V30 25 C -0.753503 -1.752308 -1.441661 0
M  V30 26 C -0.867921 -2.550551 -2.680896 0
M  V30 27 C -2.117097 -2.472023 -3.469659 0
M  V30 28 N -2.496774 -1.215386 -4.021919 0
M  V30 29 C -2.929247 -0.191424 -3.126770 0
M  V30 30 C -4.178952 0.529736 -3.693905 0
M  V30 31 N -3.898639 0.909252 -5.059241 0
M  V30 32 C -2.585708 1.492413 -5.209795 0
M  V30 33 C -3.915128 -0.322639 -5.841802 0
M  V30 34 C -3.578427 -1.489470 -4.975695 0
M  V30 35 C -0.702008 -0.403973 0.909015 0
M  V30 36 N 2.475625 0.957129 1.699743 0
M  V30 37 C 3.667721 1.106750 1.062360 0
M  V30 38 C 4.560884 -0.396883 3.387961 0
M  V30 39 C 4.650789 -1.361561 4.388160 0
M  V30 40 H 3.769924 -3.542738 6.416326 0
M  V30 41 H 5.334837 -4.169998 6.984037 0
M  V30 42 H 5.053603 -2.363138 6.780574 0
M  V30 43 H 6.170827 -3.769236 2.522800 0
M  V30 44 H 5.954695 -1.964046 0.813978 0
M  V30 45 H 5.397749 2.691022 -1.140533 0
M  V30 46 H 2.641647 3.646920 -0.881701 0
M  V30 47 H 0.415810 1.856721 3.152976 0
M  V30 48 H -1.468257 0.659498 4.045635 0
M  V30 49 H -4.008126 -0.927461 5.909786 0
M  V30 50 H -3.692954 0.640606 4.996507 0
M  V30 51 H -2.344068 -0.369150 5.572857 0
M  V30 52 H -5.167616 -2.994859 0.276841 0
M  V30 53 H -5.623070 -2.371827 1.888125 0
M  V30 54 H -4.907243 -1.276922 0.632815 0
M  V30 55 H 0.268908 -1.854064 -0.980824 0
M  V30 56 H -0.862988 -0.679099 -1.668051 0
M  V30 57 H -0.009216 -2.314593 -3.353963 0
M  V30 58 H -0.723887 -3.623137 -2.393507 0
M  V30 59 H -2.013721 -3.260629 -4.286736 0
M  V30 60 H -2.999042 -2.885649 -2.882191 0
M  V30 61 H -3.198662 -0.583467 -2.136077 0
M  V30 62 H -2.182961 0.656764 -3.064797 0
M  V30 63 H -4.319634 1.428520 -3.065437 0
M  V30 64 H -5.070293 -0.095687 -3.641618 0
M  V30 65 H -1.839264 0.676859 -5.320570 0
M  V30 66 H -2.608383 2.039915 -6.189175 0
M  V30 67 H -2.346137 2.229988 -4.432405 0
M  V30 68 H -4.970013 -0.448811 -6.182116 0
M  V30 69 H -3.255275 -0.256987 -6.730443 0
M  V30 70 H -3.239525 -2.350719 -5.612521 0
M  V30 71 H -4.451351 -1.883086 -4.410046 0
M  V30 72 H 0.037992 -0.162904 0.161253 0
M  V30 73 H 4.099411 0.570774 3.634702 0
M  V30 74 H 4.262843 -1.120062 5.368336 0
M  V30 END ATOM
M  V30 BEGIN BOND
M  V30 1 1 1 2
M  V30 2 1 2 3
M  V30 3 2 3 4
M  V30 4 1 4 5
M  V30 5 2 5 6
M  V30 6 1 6 7
M  V30 7 1 7 8
M  V30 8 2 8 9
M  V30 9 1 9 10
M  V30 10 2 10 11
M  V30 11 1 11 12
M  V30 12 2 12 13
M  V30 13 1 13 14
M  V30 14 1 14 15
M  V30 15 2 15 16
M  V30 16 1 16 17
M  V30 17 1 17 18
M  V30 18 1 18 19
M  V30 19 2 17 20
M  V30 20 1 20 21
M  V30 21 1 21 22
M  V30 22 1 20 23
M  V30 23 1 23 24
M  V30 24 1 24 25
M  V30 25 1 25 26
M  V30 26 1 26 27
M  V30 27 1 27 28
M  V30 28 1 28 29
M  V30 29 1 29 30
M  V30 30 1 30 31
M  V30 31 1 31 32
M  V30 32 1 31 33
M  V30 33 1 33 34
M  V30 34 2 23 35
M  V30 35 1 13 36
M  V30 36 2 36 37
M  V30 37 1 6 38
M  V30 38 2 38 39
M  V30 39 1 39 3
M  V30 40 1 37 7
M  V30 41 1 37 10
M  V30 42 1 35 15
M  V30 43 1 34 28
M  V30 44 1 1 40
M  V30 45 1 1 41
M  V30 46 1 1 42
M  V30 47 1 4 43
M  V30 48 1 5 44
M  V30 49 1 9 45
M  V30 50 1 11 46
M  V30 51 1 14 47
M  V30 52 1 16 48
M  V30 53 1 19 49
M  V30 54 1 19 50
M  V30 55 1 19 51
M  V30 56 1 22 52
M  V30 57 1 22 53
M  V30 58 1 22 54
M  V30 59 1 25 55
M  V30 60 1 25 56
M  V30 61 1 26 57
M  V30 62 1 26 58
M  V30 63 1 27 59
M  V30 64 1 27 60
M  V30 65 1 29 61
M  V30 66 1 29 62
M  V30 67 1 30 63
M  V30 68 1 30 64
M  V30 69 1 32 65
M  V30 70 1 32 66
M  V30 71 1 32 67
M  V30 72 1 33 68
M  V30 73 1 33 69
M  V30 74 1 34 70
M  V30 75 1 34 71
M  V30 76 1 35 72
M  V30 77 1 38 73
M  V30 78 1 39 74
M  V30 END BOND
M  V30 END CTAB
M  END
>  <Dataset>  (647) 
ChEMBL_Kinases

>  <Ligand_Instance>  (647) 
nan

>  <PDB_ID>  (647) 
nan

>  <Standardized_SMILES>  (647) 
COc1ccc(-n2ncc3cnc(Nc4cc(OC)c(OC)c(OCCCN5CCN(C)CC5)c4)nc32)cc1

>  <Name>  (647) 
nan

>  <Pocket>  (647) 
nan

>  <ATP_Site>  (647) 
nan

>  <Peripheral>  (647) 
nan

>  <Num_H_Atoms_ProtBoundConf>  (647) 
nan

>  <Num_Resolved_Atoms>  (647) 
nan

>  <Num_Not_Resolved_Atoms>  (647) 
nan

$$$$
CHEMBL4582673
     RDKit          3D

  0  0  0  0  0  0  0  0  0  0999 V3000
M  V30 BEGIN CTAB
M  V30 COUNTS 39 41 0 0 0
M  V30 BEGIN ATOM
M  V30 1 O -2.479485 -4.359550 -0.344369 0
M  V30 2 C -1.444986 -3.534222 -0.719830 0
M  V30 3 C -0.914898 -2.724895 0.399106 0
M  V30 4 C -1.806251 -1.773662 1.084195 0
M  V30 5 N -1.044657 -1.105862 2.153322 0
M  V30 6 C 0.058855 -0.233029 1.894846 0
M  V30 7 N 0.457212 0.041604 0.652897 0
M  V30 8 C 1.482065 0.862195 0.374232 0
M  V30 9 C 1.866668 1.119586 -1.028206 0
M  V30 10 C 1.169073 0.513920 -2.040299 0
M  V30 11 C 1.538895 0.762698 -3.358366 0
M  V30 12 N 2.570149 1.588427 -3.647965 0
M  V30 13 C 3.259811 2.186673 -2.661068 0
M  V30 14 C 2.923222 1.965272 -1.332494 0
M  V30 15 N 2.163029 1.453695 1.373261 0
M  V30 16 C 1.824111 1.229730 2.677783 0
M  V30 17 C 2.489607 1.810736 3.736390 0
M  V30 18 N 2.148134 1.583469 5.017141 0
M  V30 19 C 1.102744 0.745671 5.280861 0
M  V30 20 C 0.449786 0.174225 4.206601 0
M  V30 21 C 0.762503 0.376778 2.890620 0
M  V30 22 C -3.099885 -2.272124 1.617243 0
M  V30 23 F -3.713025 -1.151473 2.225644 0
M  V30 24 F -3.996389 -2.597726 0.610211 0
M  V30 25 F -2.992042 -3.224893 2.588116 0
M  V30 26 H -2.567287 -5.066278 -1.032354 0
M  V30 27 H -1.657725 -2.957770 -1.644029 0
M  V30 28 H -0.611488 -4.230929 -1.033494 0
M  V30 29 H -0.054960 -2.125858 -0.025633 0
M  V30 30 H -0.509979 -3.437964 1.157892 0
M  V30 31 H -2.089478 -0.942127 0.346417 0
M  V30 32 H -1.383322 -1.330341 3.109067 0
M  V30 33 H 0.341999 -0.146821 -1.768979 0
M  V30 34 H 0.985957 0.282700 -4.157809 0
M  V30 35 H 4.095970 2.861942 -2.748751 0
M  V30 36 H 3.432874 2.412289 -0.476903 0
M  V30 37 H 3.318751 2.475506 3.533134 0
M  V30 38 H 0.864319 0.592200 6.308260 0
M  V30 39 H -0.352913 -0.464595 4.529420 0
M  V30 END ATOM
M  V30 BEGIN BOND
M  V30 1 1 1 2
M  V30 2 1 2 3
M  V30 3 1 3 4
M  V30 4 1 4 5
M  V30 5 1 5 6
M  V30 6 2 6 7
M  V30 7 1 7 8
M  V30 8 1 8 9
M  V30 9 2 9 10
M  V30 10 1 10 11
M  V30 11 2 11 12
M  V30 12 1 12 13
M  V30 13 2 13 14
M  V30 14 2 8 15
M  V30 15 1 15 16
M  V30 16 2 16 17
M  V30 17 1 17 18
M  V30 18 2 18 19
M  V30 19 1 19 20
M  V30 20 2 20 21
M  V30 21 1 4 22
M  V30 22 1 22 23
M  V30 23 1 22 24
M  V30 24 1 22 25
M  V30 25 1 21 6
M  V30 26 1 14 9
M  V30 27 1 21 16
M  V30 28 1 1 26
M  V30 29 1 2 27
M  V30 30 1 2 28
M  V30 31 1 3 29
M  V30 32 1 3 30
M  V30 33 1 4 31
M  V30 34 1 5 32
M  V30 35 1 10 33
M  V30 36 1 11 34
M  V30 37 1 13 35
M  V30 38 1 14 36
M  V30 39 1 17 37
M  V30 40 1 19 38
M  V30 41 1 20 39
M  V30 END BOND
M  V30 END CTAB
M  END
>  <Dataset>  (648) 
ChEMBL_Kinases

>  <Ligand_Instance>  (648) 
nan

>  <PDB_ID>  (648) 
nan

>  <Standardized_SMILES>  (648) 
OCCC(Nc1nc(-c2ccncc2)nc2cnccc12)C(F)(F)F

>  <Name>  (648) 
nan

>  <Pocket>  (648) 
nan

>  <ATP_Site>  (648) 
nan

>  <Peripheral>  (648) 
nan

>  <Num_H_Atoms_ProtBoundConf>  (648) 
nan

>  <Num_Resolved_Atoms>  (648) 
nan

>  <Num_Not_Resolved_Atoms>  (648) 
nan

$$$$
CHEMBL4582642
     RDKit          3D

  0  0  0  0  0  0  0  0  0  0999 V3000
M  V30 BEGIN CTAB
M  V30 COUNTS 41 44 0 0 0
M  V30 BEGIN ATOM
M  V30 1 C 0.741893 -5.079317 1.986533 0
M  V30 2 C 1.775519 -4.049603 2.341200 0
M  V30 3 N 2.923042 -4.217557 3.000204 0
M  V30 4 N 3.559612 -3.066746 3.114116 0
M  V30 5 C 2.792131 -2.141984 2.509011 0
M  V30 6 C 1.649879 -2.718130 2.003410 0
M  V30 7 C 0.544583 -2.104510 1.277215 0
M  V30 8 N 0.527638 -0.792472 1.002143 0
M  V30 9 C -0.457965 -0.168763 0.339233 0
M  V30 10 N -0.472635 1.209266 0.051931 0
M  V30 11 C 0.542926 2.153832 0.408534 0
M  V30 12 C 0.292130 3.602049 0.014129 0
M  V30 13 O 0.150740 3.750293 -1.363943 0
M  V30 14 C 1.916573 1.660611 -0.013726 0
M  V30 15 C 2.422614 2.007644 1.363173 0
M  V30 16 C 0.993000 2.057877 1.847190 0
M  V30 17 C -1.489532 -0.990043 -0.055920 0
M  V30 18 C -2.590960 -0.535782 -0.747610 0
M  V30 19 C -3.654157 -1.303839 -1.170818 0
M  V30 20 N -3.618995 -2.635647 -0.881821 0
M  V30 21 C -2.573372 -3.165267 -0.205245 0
M  V30 22 C -1.538217 -2.346242 0.192367 0
M  V30 23 N -0.480604 -2.876771 0.875600 0
M  V30 24 H 0.594021 -5.104191 0.874148 0
M  V30 25 H -0.215656 -4.731423 2.425821 0
M  V30 26 H 1.035773 -6.081157 2.295384 0
M  V30 27 H 4.479871 -2.924200 3.586508 0
M  V30 28 H 3.061508 -1.104370 2.445852 0
M  V30 29 H -1.239868 1.669516 -0.455568 0
M  V30 30 H 1.163627 4.209947 0.330555 0
M  V30 31 H -0.580870 4.024494 0.517871 0
M  V30 32 H -0.764361 4.074865 -1.595933 0
M  V30 33 H 1.917724 0.588285 -0.290123 0
M  V30 34 H 2.388367 2.309177 -0.804272 0
M  V30 35 H 2.953934 2.997206 1.417327 0
M  V30 36 H 3.055650 1.211253 1.829521 0
M  V30 37 H 0.635883 1.138673 2.350111 0
M  V30 38 H 0.812595 2.995546 2.423545 0
M  V30 39 H -2.693314 0.503667 -1.013987 0
M  V30 40 H -4.501038 -0.907152 -1.712268 0
M  V30 41 H -2.506853 -4.215083 0.043682 0
M  V30 END ATOM
M  V30 BEGIN BOND
M  V30 1 1 1 2
M  V30 2 2 2 3
M  V30 3 1 3 4
M  V30 4 1 4 5
M  V30 5 2 5 6
M  V30 6 1 6 7
M  V30 7 2 7 8
M  V30 8 1 8 9
M  V30 9 1 9 10
M  V30 10 1 10 11
M  V30 11 1 11 12
M  V30 12 1 12 13
M  V30 13 1 11 14
M  V30 14 1 14 15
M  V30 15 1 15 16
M  V30 16 2 9 17
M  V30 17 1 17 18
M  V30 18 2 18 19
M  V30 19 1 19 20
M  V30 20 2 20 21
M  V30 21 1 21 22
M  V30 22 2 22 23
M  V30 23 1 6 2
M  V30 24 1 23 7
M  V30 25 1 16 11
M  V30 26 1 22 17
M  V30 27 1 1 24
M  V30 28 1 1 25
M  V30 29 1 1 26
M  V30 30 1 4 27
M  V30 31 1 5 28
M  V30 32 1 10 29
M  V30 33 1 12 30
M  V30 34 1 12 31
M  V30 35 1 13 32
M  V30 36 1 14 33
M  V30 37 1 14 34
M  V30 38 1 15 35
M  V30 39 1 15 36
M  V30 40 1 16 37
M  V30 41 1 16 38
M  V30 42 1 18 39
M  V30 43 1 19 40
M  V30 44 1 21 41
M  V30 END BOND
M  V30 END CTAB
M  END
>  <Dataset>  (649) 
ChEMBL_Kinases

>  <Ligand_Instance>  (649) 
nan

>  <PDB_ID>  (649) 
nan

>  <Standardized_SMILES>  (649) 
Cc1n[nH]cc1-c1nc(NC2(CO)CCC2)c2ccncc2n1

>  <Name>  (649) 
nan

>  <Pocket>  (649) 
nan

>  <ATP_Site>  (649) 
nan

>  <Peripheral>  (649) 
nan

>  <Num_H_Atoms_ProtBoundConf>  (649) 
nan

>  <Num_Resolved_Atoms>  (649) 
nan

>  <Num_Not_Resolved_Atoms>  (649) 
nan

$$$$
CHEMBL4582595
     RDKit          3D

  0  0  0  0  0  0  0  0  0  0999 V3000
M  V30 BEGIN CTAB
M  V30 COUNTS 43 45 0 0 0
M  V30 BEGIN ATOM
M  V30 1 O 1.667353 1.483854 -0.719175 0
M  V30 2 C 0.982383 0.766048 0.060136 0
M  V30 3 N 1.203718 -0.602758 -0.206652 0
M  V30 4 C 2.133262 -0.805055 -1.275222 0
M  V30 5 C 1.739467 -0.903669 -2.601327 0
M  V30 6 C 2.631591 -1.097297 -3.621804 0
M  V30 7 C 3.983968 -1.198454 -3.312247 0
M  V30 8 C 4.393621 -1.102462 -1.996380 0
M  V30 9 Cl 6.074072 -1.223543 -1.567282 0
M  V30 10 C 3.487445 -0.905137 -0.953589 0
M  V30 11 C 0.124051 1.391093 1.050952 0
M  V30 12 C 0.096203 2.769049 1.095746 0
M  V30 13 C -0.684128 3.455028 1.997607 0
M  V30 14 C -0.658918 4.941501 1.982475 0
M  V30 15 F -0.768982 5.465008 3.263125 0
M  V30 16 F 0.557210 5.341507 1.461102 0
M  V30 17 F -1.669195 5.417080 1.151119 0
M  V30 18 C -1.485330 2.801756 2.910945 0
M  V30 19 C -1.467566 1.423319 2.877717 0
M  V30 20 C -0.684917 0.773850 1.973534 0
M  V30 21 O -0.716007 -0.590589 1.996497 0
M  V30 22 C -1.460322 -1.415083 2.842960 0
M  V30 23 C -1.156677 -2.833722 2.481231 0
M  V30 24 C -1.894418 -3.530635 1.527543 0
M  V30 25 C -1.576168 -4.828094 1.232175 0
M  V30 26 C -0.525488 -5.457738 1.872978 0
M  V30 27 F -0.215578 -6.750363 1.572458 0
M  V30 28 C 0.221536 -4.791199 2.821354 0
M  V30 29 C -0.111112 -3.486576 3.107294 0
M  V30 30 H 0.694114 -1.285591 0.371755 0
M  V30 31 H 0.675246 -0.812445 -2.732725 0
M  V30 32 H 2.276127 -1.167957 -4.641633 0
M  V30 33 H 4.722117 -1.351827 -4.090541 0
M  V30 34 H 3.827124 -0.832372 0.071606 0
M  V30 35 H 0.708133 3.358433 0.399036 0
M  V30 36 H -2.068285 3.412476 3.585620 0
M  V30 37 H -2.084946 0.907681 3.581390 0
M  V30 38 H -1.103283 -1.252054 3.879695 0
M  V30 39 H -2.548910 -1.252758 2.724569 0
M  V30 40 H -2.713223 -3.043938 1.026384 0
M  V30 41 H -2.132935 -5.380885 0.500567 0
M  V30 42 H 1.058429 -5.261930 3.345391 0
M  V30 43 H 0.444186 -2.922934 3.842405 0
M  V30 END ATOM
M  V30 BEGIN BOND
M  V30 1 2 1 2
M  V30 2 1 2 3
M  V30 3 1 3 4
M  V30 4 2 4 5
M  V30 5 1 5 6
M  V30 6 2 6 7
M  V30 7 1 7 8
M  V30 8 1 8 9
M  V30 9 2 8 10
M  V30 10 1 2 11
M  V30 11 2 11 12
M  V30 12 1 12 13
M  V30 13 1 13 14
M  V30 14 1 14 15
M  V30 15 1 14 16
M  V30 16 1 14 17
M  V30 17 2 13 18
M  V30 18 1 18 19
M  V30 19 2 19 20
M  V30 20 1 20 21
M  V30 21 1 21 22
M  V30 22 1 22 23
M  V30 23 2 23 24
M  V30 24 1 24 25
M  V30 25 2 25 26
M  V30 26 1 26 27
M  V30 27 1 26 28
M  V30 28 2 28 29
M  V30 29 1 10 4
M  V30 30 1 20 11
M  V30 31 1 29 23
M  V30 32 1 3 30
M  V30 33 1 5 31
M  V30 34 1 6 32
M  V30 35 1 7 33
M  V30 36 1 10 34
M  V30 37 1 12 35
M  V30 38 1 18 36
M  V30 39 1 19 37
M  V30 40 1 22 38
M  V30 41 1 22 39
M  V30 42 1 24 40
M  V30 43 1 25 41
M  V30 44 1 28 42
M  V30 45 1 29 43
M  V30 END BOND
M  V30 END CTAB
M  END
>  <Dataset>  (650) 
ChEMBL_Kinases

>  <Ligand_Instance>  (650) 
nan

>  <PDB_ID>  (650) 
nan

>  <Standardized_SMILES>  (650) 
O=C(Nc1cccc(Cl)c1)c1cc(C(F)(F)F)ccc1OCc1ccc(F)cc1

>  <Name>  (650) 
nan

>  <Pocket>  (650) 
nan

>  <ATP_Site>  (650) 
nan

>  <Peripheral>  (650) 
nan

>  <Num_H_Atoms_ProtBoundConf>  (650) 
nan

>  <Num_Resolved_Atoms>  (650) 
nan

>  <Num_Not_Resolved_Atoms>  (650) 
nan

$$$$
CHEMBL4582476
     RDKit          3D

  0  0  0  0  0  0  0  0  0  0999 V3000
M  V30 BEGIN CTAB
M  V30 COUNTS 48 51 0 0 0
M  V30 BEGIN ATOM
M  V30 1 C 4.401412 -1.911801 -0.339912 0
M  V30 2 N 5.265093 -0.724601 -0.215331 0
M  V30 3 N 6.515794 -0.892486 -0.680051 0
M  V30 4 C 7.156771 0.264613 -0.466798 0
M  V30 5 C 6.223055 1.050327 0.118952 0
M  V30 6 Cl 6.757424 2.659456 0.483880 0
M  V30 7 C 5.023465 0.486111 0.301722 0
M  V30 8 C 3.793324 0.864072 0.908327 0
M  V30 9 C 2.616407 0.250171 0.999383 0
M  V30 10 C 1.564015 0.670170 1.649119 0
M  V30 11 C 0.183291 0.238613 1.925232 0
M  V30 12 O -0.557938 0.951666 2.627087 0
M  V30 13 N -0.342864 -0.968656 1.419345 0
M  V30 14 C -1.690223 -1.446673 1.655453 0 CFG=2
M  V30 15 C -1.552450 -2.725946 2.436894 0
M  V30 16 N -2.146003 -3.865333 1.765229 0
M  V30 17 C -3.539695 -3.518537 1.560206 0
M  V30 18 C -3.594909 -2.541628 0.430706 0
M  V30 19 C -2.455131 -1.577328 0.377065 0 CFG=1
M  V30 20 C -3.070442 -0.246105 0.050136 0
M  V30 21 C -3.987407 0.187465 1.016566 0
M  V30 22 C -4.641266 1.393843 0.864423 0
M  V30 23 C -4.389644 2.178490 -0.248058 0
M  V30 24 F -5.012007 3.385354 -0.447815 0
M  V30 25 C -3.471810 1.735554 -1.207006 0
M  V30 26 F -3.178991 2.463021 -2.327551 0
M  V30 27 C -2.814868 0.531177 -1.061357 0
M  V30 28 S 2.039458 2.211610 2.370192 0
M  V30 29 C 3.775073 2.087178 1.632895 0
M  V30 30 Cl 4.828480 3.496771 2.099494 0
M  V30 31 H 3.591753 -1.708139 -1.058647 0
M  V30 32 H 4.986928 -2.810337 -0.651390 0
M  V30 33 H 4.007532 -2.158539 0.649572 0
M  V30 34 H 8.180684 0.351129 -0.764897 0
M  V30 35 H 2.313797 -0.677509 0.553335 0
M  V30 36 H 0.252192 -1.589689 0.827415 0
M  V30 37 H -2.272959 -0.738735 2.293695 0
M  V30 38 H -2.058138 -2.677172 3.445447 0
M  V30 39 H -0.500401 -3.001068 2.668021 0
M  V30 40 H -1.728624 -3.966666 0.791356 0
M  V30 41 H -4.159341 -4.406979 1.330557 0
M  V30 42 H -3.905201 -2.983650 2.474810 0
M  V30 43 H -3.583487 -3.140984 -0.522748 0
M  V30 44 H -4.604920 -2.060551 0.431331 0
M  V30 45 H -1.751270 -1.829536 -0.440468 0
M  V30 46 H -4.256975 -0.348632 1.922859 0
M  V30 47 H -5.368699 1.773521 1.597604 0
M  V30 48 H -2.096259 0.119754 -1.751550 0
M  V30 END ATOM
M  V30 BEGIN BOND
M  V30 1 1 1 2
M  V30 2 1 2 3
M  V30 3 2 3 4
M  V30 4 1 4 5
M  V30 5 1 5 6
M  V30 6 2 5 7
M  V30 7 1 7 8
M  V30 8 1 8 9
M  V30 9 2 9 10
M  V30 10 1 10 11
M  V30 11 2 11 12
M  V30 12 1 11 13
M  V30 13 1 13 14
M  V30 14 1 14 15
M  V30 15 1 15 16
M  V30 16 1 16 17
M  V30 17 1 17 18
M  V30 18 1 18 19
M  V30 19 1 19 20
M  V30 20 2 20 21
M  V30 21 1 21 22
M  V30 22 2 22 23
M  V30 23 1 23 24
M  V30 24 1 23 25
M  V30 25 1 25 26
M  V30 26 2 25 27
M  V30 27 1 10 28
M  V30 28 1 28 29
M  V30 29 1 29 30
M  V30 30 1 7 2
M  V30 31 2 29 8
M  V30 32 1 19 14
M  V30 33 1 27 20
M  V30 34 1 1 31
M  V30 35 1 1 32
M  V30 36 1 1 33
M  V30 37 1 4 34
M  V30 38 1 9 35
M  V30 39 1 13 36
M  V30 40 1 14 37 CFG=1
M  V30 41 1 15 38
M  V30 42 1 15 39
M  V30 43 1 16 40
M  V30 44 1 17 41
M  V30 45 1 17 42
M  V30 46 1 18 43
M  V30 47 1 18 44
M  V30 48 1 19 45 CFG=3
M  V30 49 1 21 46
M  V30 50 1 22 47
M  V30 51 1 27 48
M  V30 END BOND
M  V30 END CTAB
M  END
>  <Dataset>  (651) 
ChEMBL_Kinases

>  <Ligand_Instance>  (651) 
nan

>  <PDB_ID>  (651) 
nan

>  <Standardized_SMILES>  (651) 
Cn1ncc(Cl)c1-c1cc(C(=O)N[C@@H]2CNCC[C@H]2c2ccc(F)c(F)c2)sc1Cl

>  <Name>  (651) 
nan

>  <Pocket>  (651) 
nan

>  <ATP_Site>  (651) 
nan

>  <Peripheral>  (651) 
nan

>  <Num_H_Atoms_ProtBoundConf>  (651) 
nan

>  <Num_Resolved_Atoms>  (651) 
nan

>  <Num_Not_Resolved_Atoms>  (651) 
nan

$$$$
CHEMBL4582385
     RDKit          3D

  0  0  0  0  0  0  0  0  0  0999 V3000
M  V30 BEGIN CTAB
M  V30 COUNTS 32 34 0 0 0
M  V30 BEGIN ATOM
M  V30 1 C -0.403365 -4.411365 4.489593 0
M  V30 2 C 0.367969 -4.035365 3.272357 0
M  V30 3 N 1.380231 -4.747328 2.742531 0
M  V30 4 C 1.868965 -4.138229 1.642812 0
M  V30 5 C 1.109272 -2.973068 1.481718 0
M  V30 6 C 1.320130 -2.018770 0.394784 0
M  V30 7 C 2.289422 -2.173066 -0.579598 0
M  V30 8 C 2.421564 -1.216281 -1.578524 0
M  V30 9 N 1.600459 -0.128086 -1.601190 0
M  V30 10 C 0.647378 0.038244 -0.656049 0
M  V30 11 N -0.158397 1.209281 -0.769665 0
M  V30 12 C 0.035143 2.488227 -0.229746 0
M  V30 13 O 0.989807 2.880429 0.489589 0
M  V30 14 C -0.931073 3.574162 -0.470557 0
M  V30 15 C -2.357636 3.187567 -0.095500 0
M  V30 16 C -1.988059 3.514144 -1.488447 0
M  V30 17 C 0.503972 -0.911321 0.349393 0
M  V30 18 N 0.213042 -2.951162 2.489699 0
M  V30 19 H 0.166449 -5.143478 5.086401 0
M  V30 20 H -1.426787 -4.746058 4.224765 0
M  V30 21 H -0.515790 -3.519120 5.149417 0
M  V30 22 H 2.695687 -4.537094 1.048386 0
M  V30 23 H 2.920867 -3.050371 -0.526320 0
M  V30 24 H 3.178736 -1.334317 -2.341861 0
M  V30 25 H -0.975161 0.954560 -1.358526 0
M  V30 26 H -0.627848 4.525685 0.029683 0
M  V30 27 H -2.576252 2.149827 0.230192 0
M  V30 28 H -3.011359 3.928363 0.411432 0
M  V30 29 H -2.337109 4.479219 -1.927532 0
M  V30 30 H -1.917194 2.633986 -2.186980 0
M  V30 31 H -0.287212 -0.682453 1.053553 0
M  V30 32 H -0.497966 -2.191060 2.631563 0
M  V30 END ATOM
M  V30 BEGIN BOND
M  V30 1 1 1 2
M  V30 2 2 2 3
M  V30 3 1 3 4
M  V30 4 2 4 5
M  V30 5 1 5 6
M  V30 6 2 6 7
M  V30 7 1 7 8
M  V30 8 2 8 9
M  V30 9 1 9 10
M  V30 10 1 10 11
M  V30 11 1 11 12
M  V30 12 2 12 13
M  V30 13 1 12 14
M  V30 14 1 14 15
M  V30 15 1 15 16
M  V30 16 2 10 17
M  V30 17 1 5 18
M  V30 18 1 18 2
M  V30 19 1 17 6
M  V30 20 1 16 14
M  V30 21 1 1 19
M  V30 22 1 1 20
M  V30 23 1 1 21
M  V30 24 1 4 22
M  V30 25 1 7 23
M  V30 26 1 8 24
M  V30 27 1 11 25
M  V30 28 1 14 26
M  V30 29 1 15 27
M  V30 30 1 15 28
M  V30 31 1 16 29
M  V30 32 1 16 30
M  V30 33 1 17 31
M  V30 34 1 18 32
M  V30 END BOND
M  V30 END CTAB
M  END
>  <Dataset>  (652) 
ChEMBL_Kinases

>  <Ligand_Instance>  (652) 
nan

>  <PDB_ID>  (652) 
nan

>  <Standardized_SMILES>  (652) 
Cc1ncc(-c2ccnc(NC(=O)C3CC3)c2)[nH]1

>  <Name>  (652) 
nan

>  <Pocket>  (652) 
nan

>  <ATP_Site>  (652) 
nan

>  <Peripheral>  (652) 
nan

>  <Num_H_Atoms_ProtBoundConf>  (652) 
nan

>  <Num_Resolved_Atoms>  (652) 
nan

>  <Num_Not_Resolved_Atoms>  (652) 
nan

$$$$
CHEMBL461943
     RDKit          3D

  0  0  0  0  0  0  0  0  0  0999 V3000
M  V30 BEGIN CTAB
M  V30 COUNTS 57 58 0 0 0
M  V30 BEGIN ATOM
M  V30 1 C -1.532841 -4.107077 2.992661 0
M  V30 2 C -1.389322 -4.137876 1.450234 0
M  V30 3 C 0.023302 -3.672504 1.184830 0
M  V30 4 C 0.218387 -2.282604 1.761330 0
M  V30 5 O -0.807320 -1.806568 2.299009 0
M  V30 6 O 1.413203 -1.639424 1.684184 0
M  V30 7 C 1.788215 -0.386872 2.114242 0
M  V30 8 C 1.345410 0.797137 1.374487 0
M  V30 9 C -0.119586 0.995506 1.173285 0
M  V30 10 O -0.539808 0.088604 0.175654 0
M  V30 11 C 1.980075 2.085968 1.945518 0
M  V30 12 C 1.696582 3.026497 0.841197 0
M  V30 13 C 1.494922 4.338496 0.723468 0
M  V30 14 C 1.222949 5.186020 -0.429668 0
M  V30 15 C 1.864484 5.289697 -1.617453 0
M  V30 16 C 1.444697 6.126327 -2.627172 0
M  V30 17 C 0.321116 6.897793 -2.428020 0
M  V30 18 F -0.096824 7.721179 -3.412065 0
M  V30 19 C -0.371034 6.832620 -1.236942 0
M  V30 20 Cl -1.807631 7.836512 -1.022847 0
M  V30 21 C 0.081499 5.982327 -0.250651 0
M  V30 22 C 1.585710 2.208549 -0.361777 0
M  V30 23 O 1.278497 2.506848 -1.572982 0
M  V30 24 O 1.893754 0.917679 0.042166 0
M  V30 25 C -1.647711 -5.534057 1.043172 0
M  V30 26 C -1.608593 -5.896464 -0.386973 0
M  V30 27 C -0.340780 -5.711943 -1.136641 0
M  V30 28 C -1.915577 -7.417404 -0.428338 0
M  V30 29 C -2.774161 -5.282251 -1.163838 0
M  V30 30 H -2.048537 -5.042773 3.272527 0
M  V30 31 H -2.260326 -3.297249 3.288535 0
M  V30 32 H -0.567914 -3.960033 3.477863 0
M  V30 33 H -2.140832 -3.438447 1.065242 0
M  V30 34 H 0.716436 -4.336800 1.709449 0
M  V30 35 H 0.241432 -3.640454 0.104108 0
M  V30 36 H 1.651979 -0.266169 3.240526 0
M  V30 37 H 2.929837 -0.393623 2.050623 0
M  V30 38 H -0.285212 2.000343 0.705619 0
M  V30 39 H -0.733761 0.929117 2.075358 0
M  V30 40 H 0.193107 0.004127 -0.492080 0
M  V30 41 H 3.050814 1.852766 2.051150 0
M  V30 42 H 1.534380 2.362255 2.896288 0
M  V30 43 H 1.550871 4.860807 1.694953 0
M  V30 44 H 2.746262 4.694205 -1.735662 0
M  V30 45 H 1.992229 6.168056 -3.550367 0
M  V30 46 H -0.532234 5.998849 0.654200 0
M  V30 47 H -0.927909 -6.201229 1.596819 0
M  V30 48 H -2.667824 -5.871079 1.434835 0
M  V30 49 H 0.517606 -5.863002 -0.480487 0
M  V30 50 H -0.303059 -4.803555 -1.786286 0
M  V30 51 H -0.320220 -6.551812 -1.914693 0
M  V30 52 H -1.292357 -7.896388 0.369396 0
M  V30 53 H -2.982406 -7.542694 -0.220027 0
M  V30 54 H -1.601033 -7.812584 -1.411067 0
M  V30 55 H -2.879623 -5.914828 -2.070104 0
M  V30 56 H -3.673621 -5.252181 -0.540561 0
M  V30 57 H -2.547686 -4.262096 -1.525140 0
M  V30 END ATOM
M  V30 BEGIN BOND
M  V30 1 1 1 2
M  V30 2 1 2 3
M  V30 3 1 3 4
M  V30 4 2 4 5
M  V30 5 1 4 6
M  V30 6 1 6 7
M  V30 7 1 7 8
M  V30 8 1 8 9
M  V30 9 1 9 10
M  V30 10 1 8 11
M  V30 11 1 11 12
M  V30 12 2 12 13
M  V30 13 1 13 14
M  V30 14 2 14 15
M  V30 15 1 15 16
M  V30 16 2 16 17
M  V30 17 1 17 18
M  V30 18 1 17 19
M  V30 19 1 19 20
M  V30 20 2 19 21
M  V30 21 1 12 22
M  V30 22 2 22 23
M  V30 23 1 22 24
M  V30 24 1 2 25
M  V30 25 1 25 26
M  V30 26 1 26 27
M  V30 27 1 26 28
M  V30 28 1 26 29
M  V30 29 1 24 8
M  V30 30 1 21 14
M  V30 31 1 1 30
M  V30 32 1 1 31
M  V30 33 1 1 32
M  V30 34 1 2 33
M  V30 35 1 3 34
M  V30 36 1 3 35
M  V30 37 1 7 36
M  V30 38 1 7 37
M  V30 39 1 9 38
M  V30 40 1 9 39
M  V30 41 1 10 40
M  V30 42 1 11 41
M  V30 43 1 11 42
M  V30 44 1 13 43
M  V30 45 1 15 44
M  V30 46 1 16 45
M  V30 47 1 21 46
M  V30 48 1 25 47
M  V30 49 1 25 48
M  V30 50 1 27 49
M  V30 51 1 27 50
M  V30 52 1 27 51
M  V30 53 1 28 52
M  V30 54 1 28 53
M  V30 55 1 28 54
M  V30 56 1 29 55
M  V30 57 1 29 56
M  V30 58 1 29 57
M  V30 END BOND
M  V30 END CTAB
M  END
>  <Dataset>  (653) 
ChEMBL_Kinases

>  <Ligand_Instance>  (653) 
nan

>  <PDB_ID>  (653) 
nan

>  <Standardized_SMILES>  (653) 
CC(CC(=O)OCC1(CO)C/C(=C/c2ccc(F)c(Cl)c2)C(=O)O1)CC(C)(C)C

>  <Name>  (653) 
nan

>  <Pocket>  (653) 
nan

>  <ATP_Site>  (653) 
nan

>  <Peripheral>  (653) 
nan

>  <Num_H_Atoms_ProtBoundConf>  (653) 
nan

>  <Num_Resolved_Atoms>  (653) 
nan

>  <Num_Not_Resolved_Atoms>  (653) 
nan

$$$$
CHEMBL462011
     RDKit          3D

  0  0  0  0  0  0  0  0  0  0999 V3000
M  V30 BEGIN CTAB
M  V30 COUNTS 61 65 0 0 0
M  V30 BEGIN ATOM
M  V30 1 C 5.647295 1.228308 2.480110 0
M  V30 2 N 6.170521 0.013497 1.883655 0
M  V30 3 C 6.490525 -0.981528 2.888866 0
M  V30 4 C 5.230961 -0.541227 0.919695 0
M  V30 5 C 4.036989 -1.031322 1.685505 0
M  V30 6 N 3.008845 -1.618621 0.822458 0
M  V30 7 C 2.329943 -0.908519 -0.206275 0
M  V30 8 O 2.741808 0.276093 -0.218592 0
M  V30 9 C 1.374218 -1.766773 -0.922417 0
M  V30 10 C 0.451532 -1.100977 -1.881392 0
M  V30 11 N -0.460729 -0.146060 -1.286755 0
M  V30 12 C -0.546030 1.171256 -1.049731 0
M  V30 13 C 0.417390 2.082908 -1.445898 0
M  V30 14 C 0.260025 3.411855 -1.176451 0
M  V30 15 C -0.889575 3.829480 -0.495168 0
M  V30 16 O -1.060368 5.166408 -0.216599 0
M  V30 17 C -1.798475 2.861727 -0.137047 0
M  V30 18 C -1.688454 1.533393 -0.381198 0
M  V30 19 C -2.383603 0.382917 -0.173436 0
M  V30 20 C -3.571123 0.153919 0.436264 0
M  V30 21 C -4.083413 -1.113286 0.531552 0
M  V30 22 C -3.382759 -2.172263 0.000231 0
M  V30 23 C -3.811382 -3.587066 0.035476 0
M  V30 24 C -3.333477 -4.245947 1.161785 0
M  V30 25 C -3.576407 -5.574025 1.437398 0
M  V30 26 C -4.353710 -6.267602 0.505354 0
M  V30 27 C -4.828322 -5.612795 -0.612931 0
M  V30 28 C -4.571686 -4.299184 -0.858062 0
M  V30 29 Cl -5.112975 -3.354734 -2.231708 0
M  V30 30 C -2.174630 -1.898737 -0.614389 0
M  V30 31 C -1.622494 -0.617145 -0.729026 0
M  V30 32 C -5.374436 -1.167999 1.222920 0
M  V30 33 O -6.071215 -2.193451 1.452963 0
M  V30 34 N -5.631639 0.210677 1.560448 0
M  V30 35 C -4.547765 0.986463 1.085104 0
M  V30 36 O -4.634974 2.199660 1.306994 0
M  V30 37 H 5.091276 0.951854 3.404509 0
M  V30 38 H 6.437537 1.993491 2.669279 0
M  V30 39 H 4.870668 1.618239 1.772041 0
M  V30 40 H 7.524927 -0.897533 3.279548 0
M  V30 41 H 6.347418 -1.972045 2.409262 0
M  V30 42 H 5.818237 -0.819769 3.755422 0
M  V30 43 H 5.763538 -1.392605 0.412175 0
M  V30 44 H 4.982778 0.160312 0.125526 0
M  V30 45 H 4.313783 -1.784463 2.439088 0
M  V30 46 H 3.600632 -0.156721 2.249380 0
M  V30 47 H 2.796244 -2.649190 1.022368 0
M  V30 48 H 1.996545 -2.515302 -1.479417 0
M  V30 49 H 0.816744 -2.382345 -0.165876 0
M  V30 50 H -0.156597 -1.901557 -2.356920 0
M  V30 51 H 0.999953 -0.634634 -2.737855 0
M  V30 52 H 1.310492 1.808208 -1.971086 0
M  V30 53 H 1.003795 4.134478 -1.478853 0
M  V30 54 H -0.441616 5.843875 -0.640291 0
M  V30 55 H -2.640154 3.257938 0.373894 0
M  V30 56 H -2.716482 -3.777286 1.944871 0
M  V30 57 H -3.207437 -6.092241 2.310620 0
M  V30 58 H -4.610475 -7.319229 0.614725 0
M  V30 59 H -5.423386 -6.119153 -1.340213 0
M  V30 60 H -1.632412 -2.762840 -1.032718 0
M  V30 61 H -6.524230 0.438604 2.076247 0
M  V30 END ATOM
M  V30 BEGIN BOND
M  V30 1 1 1 2
M  V30 2 1 2 3
M  V30 3 1 2 4
M  V30 4 1 4 5
M  V30 5 1 5 6
M  V30 6 1 6 7
M  V30 7 2 7 8
M  V30 8 1 7 9
M  V30 9 1 9 10
M  V30 10 1 10 11
M  V30 11 1 11 12
M  V30 12 2 12 13
M  V30 13 1 13 14
M  V30 14 2 14 15
M  V30 15 1 15 16
M  V30 16 1 15 17
M  V30 17 2 17 18
M  V30 18 1 18 19
M  V30 19 2 19 20
M  V30 20 1 20 21
M  V30 21 2 21 22
M  V30 22 1 22 23
M  V30 23 2 23 24
M  V30 24 1 24 25
M  V30 25 2 25 26
M  V30 26 1 26 27
M  V30 27 2 27 28
M  V30 28 1 28 29
M  V30 29 1 22 30
M  V30 30 2 30 31
M  V30 31 1 21 32
M  V30 32 2 32 33
M  V30 33 1 32 34
M  V30 34 1 34 35
M  V30 35 2 35 36
M  V30 36 1 31 11
M  V30 37 1 18 12
M  V30 38 1 31 19
M  V30 39 1 35 20
M  V30 40 1 28 23
M  V30 41 1 1 37
M  V30 42 1 1 38
M  V30 43 1 1 39
M  V30 44 1 3 40
M  V30 45 1 3 41
M  V30 46 1 3 42
M  V30 47 1 4 43
M  V30 48 1 4 44
M  V30 49 1 5 45
M  V30 50 1 5 46
M  V30 51 1 6 47
M  V30 52 1 9 48
M  V30 53 1 9 49
M  V30 54 1 10 50
M  V30 55 1 10 51
M  V30 56 1 13 52
M  V30 57 1 14 53
M  V30 58 1 16 54
M  V30 59 1 17 55
M  V30 60 1 24 56
M  V30 61 1 25 57
M  V30 62 1 26 58
M  V30 63 1 27 59
M  V30 64 1 30 60
M  V30 65 1 34 61
M  V30 END BOND
M  V30 END CTAB
M  END
>  <Dataset>  (654) 
ChEMBL_Kinases

>  <Ligand_Instance>  (654) 
nan

>  <PDB_ID>  (654) 
nan

>  <Standardized_SMILES>  (654) 
CN(C)CCNC(=O)CCn1c2ccc(O)cc2c2c3c(c(-c4ccccc4Cl)cc21)C(=O)NC3=O

>  <Name>  (654) 
nan

>  <Pocket>  (654) 
nan

>  <ATP_Site>  (654) 
nan

>  <Peripheral>  (654) 
nan

>  <Num_H_Atoms_ProtBoundConf>  (654) 
nan

>  <Num_Resolved_Atoms>  (654) 
nan

>  <Num_Not_Resolved_Atoms>  (654) 
nan

$$$$
CHEMBL462126
     RDKit          3D

  0  0  0  0  0  0  0  0  0  0999 V3000
M  V30 BEGIN CTAB
M  V30 COUNTS 57 58 0 0 0
M  V30 BEGIN ATOM
M  V30 1 C -0.584060 -4.102475 2.680620 0
M  V30 2 C -1.264581 -3.933067 1.309528 0
M  V30 3 C -0.157061 -3.718444 0.309460 0
M  V30 4 C 0.638718 -2.486012 0.694175 0
M  V30 5 O 0.294196 -1.849296 1.708288 0
M  V30 6 O 1.679423 -2.176504 -0.117334 0
M  V30 7 C 2.595004 -1.133406 -0.071597 0
M  V30 8 C 2.084753 0.249471 -0.252959 0
M  V30 9 C 1.455201 0.405899 -1.638977 0
M  V30 10 O 2.485274 0.125372 -2.535470 0
M  V30 11 C 1.203218 0.798436 0.821314 0
M  V30 12 C 1.484207 2.280513 0.662630 0
M  V30 13 C 0.818449 3.233093 1.340830 0
M  V30 14 C 1.098508 4.653169 1.184260 0
M  V30 15 C 2.284300 5.308511 1.176646 0
M  V30 16 C 2.366120 6.672584 0.984458 0
M  V30 17 C 1.229175 7.443840 0.789246 0
M  V30 18 Cl 1.264777 9.174103 0.539812 0
M  V30 19 C -0.013163 6.813716 0.790011 0
M  V30 20 F -1.150738 7.525939 0.602992 0
M  V30 21 C -0.030765 5.459636 0.984983 0
M  V30 22 C 2.532432 2.447596 -0.334268 0
M  V30 23 O 2.610589 3.551215 -0.986093 0
M  V30 24 O 3.159113 1.213408 -0.225096 0
M  V30 25 C -2.098010 -5.129327 1.119422 0
M  V30 26 C -2.907389 -5.308707 -0.097731 0
M  V30 27 C -2.161531 -5.366075 -1.405450 0
M  V30 28 C -3.587722 -6.683322 0.056578 0
M  V30 29 C -4.071475 -4.331728 -0.195529 0
M  V30 30 H 0.504120 -4.099718 2.506824 0
M  V30 31 H -0.841566 -5.048217 3.168749 0
M  V30 32 H -0.794078 -3.214075 3.322174 0
M  V30 33 H -1.824633 -2.974572 1.342954 0
M  V30 34 H 0.515123 -4.584757 0.183514 0
M  V30 35 H -0.589244 -3.521009 -0.716476 0
M  V30 36 H 3.182788 -1.153264 0.882589 0
M  V30 37 H 3.319221 -1.318047 -0.901190 0
M  V30 38 H 1.140403 1.451121 -1.834385 0
M  V30 39 H 0.579532 -0.264593 -1.751332 0
M  V30 40 H 3.106357 0.917423 -2.482588 0
M  V30 41 H 1.602833 0.501635 1.800196 0
M  V30 42 H 0.125557 0.605098 0.663792 0
M  V30 43 H 0.017604 2.999698 2.060225 0
M  V30 44 H 3.163657 4.716194 1.344095 0
M  V30 45 H 3.316059 7.169053 0.981747 0
M  V30 46 H -1.038793 5.014192 0.976195 0
M  V30 47 H -1.447754 -6.044414 1.217870 0
M  V30 48 H -2.808788 -5.247127 1.996781 0
M  V30 49 H -1.128083 -5.733114 -1.320951 0
M  V30 50 H -2.279595 -4.455377 -2.031276 0
M  V30 51 H -2.674092 -6.160982 -2.039510 0
M  V30 52 H -2.875887 -7.342895 0.565371 0
M  V30 53 H -4.522914 -6.550509 0.636159 0
M  V30 54 H -3.831355 -7.061970 -0.979301 0
M  V30 55 H -4.961424 -4.779130 -0.703288 0
M  V30 56 H -4.416609 -3.966148 0.779308 0
M  V30 57 H -3.733390 -3.506386 -0.871907 0
M  V30 END ATOM
M  V30 BEGIN BOND
M  V30 1 1 1 2
M  V30 2 1 2 3
M  V30 3 1 3 4
M  V30 4 2 4 5
M  V30 5 1 4 6
M  V30 6 1 6 7
M  V30 7 1 7 8
M  V30 8 1 8 9
M  V30 9 1 9 10
M  V30 10 1 8 11
M  V30 11 1 11 12
M  V30 12 2 12 13
M  V30 13 1 13 14
M  V30 14 2 14 15
M  V30 15 1 15 16
M  V30 16 2 16 17
M  V30 17 1 17 18
M  V30 18 1 17 19
M  V30 19 1 19 20
M  V30 20 2 19 21
M  V30 21 1 12 22
M  V30 22 2 22 23
M  V30 23 1 22 24
M  V30 24 1 2 25
M  V30 25 1 25 26
M  V30 26 1 26 27
M  V30 27 1 26 28
M  V30 28 1 26 29
M  V30 29 1 24 8
M  V30 30 1 21 14
M  V30 31 1 1 30
M  V30 32 1 1 31
M  V30 33 1 1 32
M  V30 34 1 2 33
M  V30 35 1 3 34
M  V30 36 1 3 35
M  V30 37 1 7 36
M  V30 38 1 7 37
M  V30 39 1 9 38
M  V30 40 1 9 39
M  V30 41 1 10 40
M  V30 42 1 11 41
M  V30 43 1 11 42
M  V30 44 1 13 43
M  V30 45 1 15 44
M  V30 46 1 16 45
M  V30 47 1 21 46
M  V30 48 1 25 47
M  V30 49 1 25 48
M  V30 50 1 27 49
M  V30 51 1 27 50
M  V30 52 1 27 51
M  V30 53 1 28 52
M  V30 54 1 28 53
M  V30 55 1 28 54
M  V30 56 1 29 55
M  V30 57 1 29 56
M  V30 58 1 29 57
M  V30 END BOND
M  V30 END CTAB
M  END
>  <Dataset>  (655) 
ChEMBL_Kinases

>  <Ligand_Instance>  (655) 
nan

>  <PDB_ID>  (655) 
nan

>  <Standardized_SMILES>  (655) 
CC(CC(=O)OCC1(CO)C/C(=C/c2ccc(Cl)c(F)c2)C(=O)O1)CC(C)(C)C

>  <Name>  (655) 
nan

>  <Pocket>  (655) 
nan

>  <ATP_Site>  (655) 
nan

>  <Peripheral>  (655) 
nan

>  <Num_H_Atoms_ProtBoundConf>  (655) 
nan

>  <Num_Resolved_Atoms>  (655) 
nan

>  <Num_Not_Resolved_Atoms>  (655) 
nan

$$$$
CHEMBL4582192
     RDKit          3D

  0  0  0  0  0  0  0  0  0  0999 V3000
M  V30 BEGIN CTAB
M  V30 COUNTS 47 51 0 0 0
M  V30 BEGIN ATOM
M  V30 1 Cl 2.936776 -3.973366 4.223626 0
M  V30 2 C 2.929940 -2.406054 3.468256 0
M  V30 3 C 2.838006 -2.369385 2.096763 0
M  V30 4 C 2.829641 -1.124370 1.455026 0
M  V30 5 C 2.910228 0.055093 2.148903 0
M  V30 6 N 2.903447 1.339635 1.534353 0
M  V30 7 C 2.818270 1.235257 0.121080 0
M  V30 8 N 4.012487 1.080655 -0.442661 0
M  V30 9 C 4.177212 0.951555 -1.762846 0
M  V30 10 N 3.075015 0.983509 -2.520626 0
M  V30 11 C 1.843140 1.139181 -1.987133 0
M  V30 12 S 0.106710 1.234435 -2.627941 0
M  V30 13 C -0.646564 1.429557 -1.147145 0
M  V30 14 C 0.380770 1.430922 -0.117738 0
M  V30 15 C 1.648040 1.278195 -0.587010 0
M  V30 16 C -0.186147 1.619411 1.238815 0
M  V30 17 C -1.289146 0.575615 1.395494 0
M  V30 18 N -2.252320 0.707651 0.396735 0
M  V30 19 C -3.434814 -0.033074 0.495063 0
M  V30 20 C -3.138193 -1.510051 0.540940 0
M  V30 21 C -2.937044 -2.164969 1.751002 0
M  V30 22 C -2.663589 -3.518784 1.782511 0
M  V30 23 C -2.586943 -4.237996 0.609802 0
M  V30 24 C -2.781888 -3.613779 -0.604298 0
M  V30 25 C -3.055517 -2.253136 -0.613097 0
M  V30 26 C -2.079321 1.583373 -0.680131 0
M  V30 27 C 3.000220 -0.082376 3.535297 0
M  V30 28 C 3.013630 -1.262218 4.226547 0
M  V30 29 H 2.770455 -3.254157 1.473942 0
M  V30 30 H 2.756939 -1.115769 0.382076 0
M  V30 31 H 2.958610 2.173905 2.155644 0
M  V30 32 H 5.042522 0.819146 -2.395881 0
M  V30 33 H -0.721459 2.600356 1.280507 0
M  V30 34 H 0.525465 1.629831 2.050768 0
M  V30 35 H -0.762094 -0.410619 1.275405 0
M  V30 36 H -1.691960 0.560710 2.436415 0
M  V30 37 H -3.942346 0.241283 1.454979 0
M  V30 38 H -4.081153 0.188117 -0.384263 0
M  V30 39 H -2.998426 -1.590315 2.684380 0
M  V30 40 H -2.502794 -4.049870 2.719282 0
M  V30 41 H -2.368175 -5.308456 0.678947 0
M  V30 42 H -2.716038 -4.195709 -1.500870 0
M  V30 43 H -3.215682 -1.726268 -1.562995 0
M  V30 44 H -2.684277 1.228402 -1.546376 0
M  V30 45 H -2.303988 2.643812 -0.445779 0
M  V30 46 H 3.067031 0.828927 4.137874 0
M  V30 47 H 3.085409 -1.302080 5.297953 0
M  V30 END ATOM
M  V30 BEGIN BOND
M  V30 1 1 1 2
M  V30 2 2 2 3
M  V30 3 1 3 4
M  V30 4 2 4 5
M  V30 5 1 5 6
M  V30 6 1 6 7
M  V30 7 2 7 8
M  V30 8 1 8 9
M  V30 9 2 9 10
M  V30 10 1 10 11
M  V30 11 1 11 12
M  V30 12 1 12 13
M  V30 13 2 13 14
M  V30 14 1 14 15
M  V30 15 1 14 16
M  V30 16 1 16 17
M  V30 17 1 17 18
M  V30 18 1 18 19
M  V30 19 1 19 20
M  V30 20 2 20 21
M  V30 21 1 21 22
M  V30 22 2 22 23
M  V30 23 1 23 24
M  V30 24 2 24 25
M  V30 25 1 18 26
M  V30 26 1 5 27
M  V30 27 2 27 28
M  V30 28 1 28 2
M  V30 29 1 15 7
M  V30 30 1 25 20
M  V30 31 2 15 11
M  V30 32 1 26 13
M  V30 33 1 3 29
M  V30 34 1 4 30
M  V30 35 1 6 31
M  V30 36 1 9 32
M  V30 37 1 16 33
M  V30 38 1 16 34
M  V30 39 1 17 35
M  V30 40 1 17 36
M  V30 41 1 19 37
M  V30 42 1 19 38
M  V30 43 1 21 39
M  V30 44 1 22 40
M  V30 45 1 23 41
M  V30 46 1 24 42
M  V30 47 1 25 43
M  V30 48 1 26 44
M  V30 49 1 26 45
M  V30 50 1 27 46
M  V30 51 1 28 47
M  V30 END BOND
M  V30 END CTAB
M  END
>  <Dataset>  (656) 
ChEMBL_Kinases

>  <Ligand_Instance>  (656) 
nan

>  <PDB_ID>  (656) 
nan

>  <Standardized_SMILES>  (656) 
Clc1ccc(Nc2ncnc3sc4c(c23)CCN(Cc2ccccc2)C4)cc1

>  <Name>  (656) 
nan

>  <Pocket>  (656) 
nan

>  <ATP_Site>  (656) 
nan

>  <Peripheral>  (656) 
nan

>  <Num_H_Atoms_ProtBoundConf>  (656) 
nan

>  <Num_Resolved_Atoms>  (656) 
nan

>  <Num_Not_Resolved_Atoms>  (656) 
nan

$$$$
CHEMBL4582179
     RDKit          3D

  0  0  0  0  0  0  0  0  0  0999 V3000
M  V30 BEGIN CTAB
M  V30 COUNTS 148 154 0 0 0
M  V30 BEGIN ATOM
M  V30 1 C 8.243445 -0.313514 -1.392652 0
M  V30 2 N 7.035080 0.247701 -1.909084 0
M  V30 3 C 6.753278 1.590823 -1.377170 0 CFG=1
M  V30 4 C 7.902423 2.475384 -1.812415 0
M  V30 5 C 5.441747 2.064899 -1.881905 0
M  V30 6 O 5.174423 3.185073 -1.374828 0
M  V30 7 N 4.671901 1.286373 -2.806216 0
M  V30 8 C 3.360861 1.588382 -3.395064 0 CFG=2
M  V30 9 C 2.432809 0.511424 -2.951473 0
M  V30 10 O 3.494317 0.134678 -2.408725 0
M  V30 11 N 1.139654 -0.016845 -2.967060 0
M  V30 12 C -0.196836 0.322442 -3.539976 0
M  V30 13 C -1.068581 -0.740892 -3.004303 0 CFG=1
M  V30 14 N -2.294141 -1.020996 -3.621436 0
M  V30 15 C -3.061305 -2.015869 -2.979215 0
M  V30 16 O -2.563743 -2.551395 -1.971678 0
M  V30 17 C -4.114739 -2.942723 -2.622486 0
M  V30 18 C -3.756462 -3.800947 -1.451093 0
M  V30 19 C -3.488454 -3.201169 -0.144997 0
M  V30 20 C -3.078887 -4.269543 0.944146 0
M  V30 21 C -2.733651 -3.505311 2.168629 0
M  V30 22 C -2.310773 -4.227752 3.341238 0
M  V30 23 C -3.164747 -5.169776 4.113240 0
M  V30 24 C -4.442697 -4.576465 4.611365 0
M  V30 25 C -5.553066 -4.486907 3.641656 0
M  V30 26 C -6.679412 -3.599324 4.222239 0
M  V30 27 C -6.029882 -2.255852 4.156817 0
M  V30 28 C -5.486915 -1.151926 4.081030 0
M  V30 29 C -4.868566 0.120657 3.968680 0
M  V30 30 C -3.946885 0.679639 4.804902 0
M  V30 31 N -3.448655 1.866931 4.483355 0
M  V30 32 C -3.763780 2.590717 3.398394 0
M  V30 33 O -3.279581 3.779435 3.061783 0
M  V30 34 C -2.411997 4.725557 3.445048 0
M  V30 35 C -0.941823 4.343842 3.508522 0 CFG=2
M  V30 36 C -0.622070 3.286865 4.521662 0
M  V30 37 C 0.865685 3.502334 4.772369 0
M  V30 38 C 0.974808 4.979378 4.704010 0
M  V30 39 O 1.890560 5.671927 5.254618 0
M  V30 40 N -0.112617 5.458517 3.928098 0
M  V30 41 C -4.698677 2.054852 2.526583 0
M  V30 42 C -5.116167 2.700469 1.369250 0
M  V30 43 C -6.054857 2.173082 0.487179 0
M  V30 44 O -6.426616 2.892709 -0.661382 0
M  V30 45 C -5.819214 4.151831 -0.879908 0
M  V30 46 C -6.606745 0.946298 0.760881 0
M  V30 47 C -7.598663 0.352702 -0.137900 0
M  V30 48 N -8.257431 -0.891571 -0.037073 0
M  V30 49 O -7.922345 1.029460 -1.144341 0
M  V30 50 C -6.195998 0.303548 1.907587 0
M  V30 51 C -5.258308 0.804470 2.814970 0
M  V30 52 C -0.078849 -1.935784 -3.104918 0
M  V30 53 C 1.001310 -1.254570 -2.222343 0 CFG=1
M  V30 54 C 2.168338 -2.097271 -2.087507 0
M  V30 55 O 3.324460 -2.431837 -2.401165 0
M  V30 56 N 1.911867 -3.103769 -1.055560 0
M  V30 57 C 2.826753 -4.135591 -0.626039 0 CFG=2
M  V30 58 C 2.069219 -5.336572 -0.201665 0
M  V30 59 C 2.911611 -6.373500 0.497641 0
M  V30 60 C 4.310949 -5.869830 0.776677 0
M  V30 61 C 4.293480 -4.474979 1.294090 0
M  V30 62 C 5.003919 -4.082236 2.428772 0
M  V30 63 C 4.942984 -2.778126 2.857855 0
M  V30 64 C 4.182023 -1.882976 2.162270 0
M  V30 65 C 3.468510 -2.245649 1.037044 0
M  V30 66 C 3.521058 -3.541291 0.595458 0
M  V30 67 C 3.480353 1.695692 -4.891721 0
M  V30 68 C 4.497874 2.800507 -5.162276 0
M  V30 69 C 4.868843 2.764724 -6.636584 0
M  V30 70 C 3.632031 2.749689 -7.505633 0
M  V30 71 C 2.478145 3.168587 -6.650451 0
M  V30 72 C 2.199622 2.139706 -5.564233 0
M  V30 73 H 8.001858 -1.341120 -0.995744 0
M  V30 74 H 8.749335 0.311394 -0.635362 0
M  V30 75 H 8.972638 -0.529539 -2.228694 0
M  V30 76 H 7.157566 0.320881 -2.964230 0
M  V30 77 H 6.718292 1.511104 -0.272521 0
M  V30 78 H 7.605819 3.518680 -1.995188 0
M  V30 79 H 8.363976 2.079104 -2.726758 0
M  V30 80 H 8.656955 2.430793 -0.986449 0
M  V30 81 H 5.159483 0.380048 -3.081154 0
M  V30 82 H 3.025073 2.542999 -2.985223 0
M  V30 83 H -0.139458 0.417252 -4.620004 0
M  V30 84 H -0.499180 1.319361 -3.125170 0
M  V30 85 H -1.159820 -0.657426 -1.879995 0
M  V30 86 H -3.033148 -0.885259 -4.370486 0
M  V30 87 H -5.115504 -2.464475 -2.503269 0
M  V30 88 H -4.262098 -3.640731 -3.501360 0
M  V30 89 H -4.530818 -4.646253 -1.374687 0
M  V30 90 H -2.833274 -4.402304 -1.743283 0
M  V30 91 H -2.821143 -2.375727 0.008108 0
M  V30 92 H -4.519465 -2.896349 0.274088 0
M  V30 93 H -3.881608 -5.001582 1.037235 0
M  V30 94 H -2.148090 -4.755799 0.564847 0
M  V30 95 H -3.538015 -2.743062 2.432836 0
M  V30 96 H -1.822046 -2.861284 1.848241 0
M  V30 97 H -1.925094 -3.484614 4.153519 0
M  V30 98 H -1.336149 -4.814760 3.149659 0
M  V30 99 H -2.598123 -5.596802 4.992561 0
M  V30 100 H -3.349799 -6.091830 3.481012 0
M  V30 101 H -4.806755 -5.169019 5.503120 0
M  V30 102 H -4.225698 -3.563424 5.043833 0
M  V30 103 H -6.065849 -5.487347 3.521377 0
M  V30 104 H -5.348036 -4.128412 2.652766 0
M  V30 105 H -6.902756 -3.899275 5.241742 0
M  V30 106 H -7.568061 -3.619170 3.598572 0
M  V30 107 H -3.727552 0.069327 5.649503 0
M  V30 108 H -2.658049 5.089894 4.485063 0
M  V30 109 H -2.462882 5.663493 2.814374 0
M  V30 110 H -0.586674 3.999366 2.509459 0
M  V30 111 H -0.771890 2.268258 4.093042 0
M  V30 112 H -1.132140 3.478187 5.461899 0
M  V30 113 H 1.411112 2.991097 3.936955 0
M  V30 114 H 1.133622 3.068952 5.739612 0
M  V30 115 H -0.210962 6.467666 3.746778 0
M  V30 116 H -4.660521 3.654329 1.196651 0
M  V30 117 H -6.322572 4.726223 -1.678262 0
M  V30 118 H -4.734941 4.066833 -1.052629 0
M  V30 119 H -5.949790 4.744084 0.064186 0
M  V30 120 H -8.198858 -1.690600 -0.681295 0
M  V30 121 H -8.918008 -1.160588 0.745542 0
M  V30 122 H -6.642965 -0.639045 2.093306 0
M  V30 123 H 0.351835 -2.036555 -4.091924 0
M  V30 124 H -0.424267 -2.815958 -2.585740 0
M  V30 125 H 0.482943 -1.073091 -1.251558 0
M  V30 126 H 0.999766 -3.179496 -0.488790 0
M  V30 127 H 3.623079 -4.341314 -1.373247 0
M  V30 128 H 1.599061 -5.803409 -1.090662 0
M  V30 129 H 1.221174 -5.002521 0.462199 0
M  V30 130 H 2.970815 -7.341380 -0.028367 0
M  V30 131 H 2.431082 -6.572345 1.488996 0
M  V30 132 H 4.975796 -5.913118 -0.094092 0
M  V30 133 H 4.753244 -6.500905 1.581113 0
M  V30 134 H 5.594758 -4.811727 2.947272 0
M  V30 135 H 5.500786 -2.515961 3.730208 0
M  V30 136 H 4.100290 -0.833267 2.466158 0
M  V30 137 H 2.834014 -1.600002 0.426156 0
M  V30 138 H 3.827357 0.773327 -5.370689 0
M  V30 139 H 5.446294 2.651476 -4.608338 0
M  V30 140 H 4.113149 3.800849 -4.921263 0
M  V30 141 H 5.503535 1.893633 -6.846218 0
M  V30 142 H 5.426148 3.693378 -6.856979 0
M  V30 143 H 3.705503 3.502868 -8.338125 0
M  V30 144 H 3.515422 1.769016 -7.983221 0
M  V30 145 H 1.558030 3.172194 -7.298499 0
M  V30 146 H 2.659145 4.183535 -6.272152 0
M  V30 147 H 1.555484 2.624507 -4.799795 0
M  V30 148 H 1.623346 1.323482 -6.025331 0
M  V30 END ATOM
M  V30 BEGIN BOND
M  V30 1 1 1 2
M  V30 2 1 2 3
M  V30 3 1 3 4
M  V30 4 1 3 5
M  V30 5 2 5 6
M  V30 6 1 5 7
M  V30 7 1 7 8
M  V30 8 1 8 9
M  V30 9 2 9 10
M  V30 10 1 9 11
M  V30 11 1 11 12
M  V30 12 1 12 13
M  V30 13 1 13 14
M  V30 14 1 14 15
M  V30 15 2 15 16
M  V30 16 1 15 17
M  V30 17 1 17 18
M  V30 18 1 18 19
M  V30 19 1 19 20
M  V30 20 1 20 21
M  V30 21 1 21 22
M  V30 22 1 22 23
M  V30 23 1 23 24
M  V30 24 1 24 25
M  V30 25 1 25 26
M  V30 26 1 26 27
M  V30 27 3 27 28
M  V30 28 1 28 29
M  V30 29 2 29 30
M  V30 30 1 30 31
M  V30 31 2 31 32
M  V30 32 1 32 33
M  V30 33 1 33 34
M  V30 34 1 34 35
M  V30 35 1 35 36
M  V30 36 1 36 37
M  V30 37 1 37 38
M  V30 38 2 38 39
M  V30 39 1 38 40
M  V30 40 1 32 41
M  V30 41 2 41 42
M  V30 42 1 42 43
M  V30 43 1 43 44
M  V30 44 1 44 45
M  V30 45 2 43 46
M  V30 46 1 46 47
M  V30 47 1 47 48
M  V30 48 2 47 49
M  V30 49 1 46 50
M  V30 50 2 50 51
M  V30 51 1 13 52
M  V30 52 1 52 53
M  V30 53 1 53 54
M  V30 54 2 54 55
M  V30 55 1 54 56
M  V30 56 1 56 57
M  V30 57 1 57 58
M  V30 58 1 58 59
M  V30 59 1 59 60
M  V30 60 1 60 61
M  V30 61 2 61 62
M  V30 62 1 62 63
M  V30 63 2 63 64
M  V30 64 1 64 65
M  V30 65 2 65 66
M  V30 66 1 8 67
M  V30 67 1 67 68
M  V30 68 1 68 69
M  V30 69 1 69 70
M  V30 70 1 70 71
M  V30 71 1 71 72
M  V30 72 1 53 11
M  V30 73 1 66 57
M  V30 74 1 72 67
M  V30 75 1 51 29
M  V30 76 1 66 61
M  V30 77 1 40 35
M  V30 78 1 51 41
M  V30 79 1 1 73
M  V30 80 1 1 74
M  V30 81 1 1 75
M  V30 82 1 2 76
M  V30 83 1 3 77 CFG=1
M  V30 84 1 4 78
M  V30 85 1 4 79
M  V30 86 1 4 80
M  V30 87 1 7 81
M  V30 88 1 8 82 CFG=1
M  V30 89 1 12 83
M  V30 90 1 12 84
M  V30 91 1 13 85 CFG=1
M  V30 92 1 14 86
M  V30 93 1 17 87
M  V30 94 1 17 88
M  V30 95 1 18 89
M  V30 96 1 18 90
M  V30 97 1 19 91
M  V30 98 1 19 92
M  V30 99 1 20 93
M  V30 100 1 20 94
M  V30 101 1 21 95
M  V30 102 1 21 96
M  V30 103 1 22 97
M  V30 104 1 22 98
M  V30 105 1 23 99
M  V30 106 1 23 100
M  V30 107 1 24 101
M  V30 108 1 24 102
M  V30 109 1 25 103
M  V30 110 1 25 104
M  V30 111 1 26 105
M  V30 112 1 26 106
M  V30 113 1 30 107
M  V30 114 1 34 108
M  V30 115 1 34 109
M  V30 116 1 35 110 CFG=3
M  V30 117 1 36 111
M  V30 118 1 36 112
M  V30 119 1 37 113
M  V30 120 1 37 114
M  V30 121 1 40 115
M  V30 122 1 42 116
M  V30 123 1 45 117
M  V30 124 1 45 118
M  V30 125 1 45 119
M  V30 126 1 48 120
M  V30 127 1 48 121
M  V30 128 1 50 122
M  V30 129 1 52 123
M  V30 130 1 52 124
M  V30 131 1 53 125 CFG=1
M  V30 132 1 56 126
M  V30 133 1 57 127 CFG=3
M  V30 134 1 58 128
M  V30 135 1 58 129
M  V30 136 1 59 130
M  V30 137 1 59 131
M  V30 138 1 60 132
M  V30 139 1 60 133
M  V30 140 1 62 134
M  V30 141 1 63 135
M  V30 142 1 64 136
M  V30 143 1 65 137
M  V30 144 1 67 138
M  V30 145 1 68 139
M  V30 146 1 68 140
M  V30 147 1 69 141
M  V30 148 1 69 142
M  V30 149 1 70 143
M  V30 150 1 70 144
M  V30 151 1 71 145
M  V30 152 1 71 146
M  V30 153 1 72 147
M  V30 154 1 72 148
M  V30 END BOND
M  V30 END CTAB
M  END
>  <Dataset>  (657) 
ChEMBL_Kinases

>  <Ligand_Instance>  (657) 
nan

>  <PDB_ID>  (657) 
nan

>  <Standardized_SMILES>  (657) 
CN[C@@H](C)C(=O)N[C@H](C(=O)N1C[C@@H](NC(=O)CCCCCCCCCCC#Cc2cnc(OC[C@@H]3CCC(=O)N3)c3cc(OC)c(C(N)=O)cc23)C[C@H]1C(=O)N[C@@H]1CCCc2ccccc21)C1CCCCC1

>  <Name>  (657) 
nan

>  <Pocket>  (657) 
nan

>  <ATP_Site>  (657) 
nan

>  <Peripheral>  (657) 
nan

>  <Num_H_Atoms_ProtBoundConf>  (657) 
nan

>  <Num_Resolved_Atoms>  (657) 
nan

>  <Num_Not_Resolved_Atoms>  (657) 
nan

$$$$
CHEMBL461938
     RDKit          3D

  0  0  0  0  0  0  0  0  0  0999 V3000
M  V30 BEGIN CTAB
M  V30 COUNTS 63 64 0 0 0
M  V30 BEGIN ATOM
M  V30 1 C 1.894047 -0.421709 4.695902 0
M  V30 2 C 1.537530 -1.650789 3.952243 0
M  V30 3 C 2.594206 -1.860914 2.863185 0
M  V30 4 C 2.641729 -0.700991 1.924396 0
M  V30 5 O 2.001635 0.378232 1.957200 0
M  V30 6 O 3.542929 -0.963254 0.926655 0
M  V30 7 C 3.915502 -0.189391 -0.162807 0
M  V30 8 C 2.804681 0.141341 -1.136867 0
M  V30 9 C 3.408555 0.879936 -2.335150 0
M  V30 10 O 4.419949 0.080122 -2.878464 0
M  V30 11 C 2.117040 -1.124525 -1.607842 0
M  V30 12 C 0.743787 -0.692278 -1.865114 0
M  V30 13 C -0.246131 -1.088064 -2.637437 0
M  V30 14 C -1.589657 -0.559650 -2.806673 0
M  V30 15 C -2.019008 0.733077 -3.011543 0
M  V30 16 C -3.358767 1.028537 -3.118553 0
M  V30 17 C -3.767794 2.442010 -3.344901 0
M  V30 18 F -4.320888 2.458618 -4.634251 0
M  V30 19 F -4.698271 2.862411 -2.419514 0
M  V30 20 F -2.663839 3.267020 -3.414166 0
M  V30 21 C -4.334671 0.058494 -3.028285 0
M  V30 22 C -3.945930 -1.250934 -2.823691 0
M  V30 23 C -4.998440 -2.285540 -2.723730 0
M  V30 24 F -5.979584 -2.141020 -3.711795 0
M  V30 25 F -5.599554 -2.101601 -1.471006 0
M  V30 26 F -4.461515 -3.557019 -2.762110 0
M  V30 27 C -2.602686 -1.523542 -2.719514 0
M  V30 28 C 0.565515 0.418855 -0.949663 0
M  V30 29 O -0.547214 0.909556 -0.552513 0
M  V30 30 O 1.792972 0.883019 -0.554699 0
M  V30 31 C 0.225502 -1.691785 3.270641 0
M  V30 32 C -1.003003 -1.542747 4.075723 0
M  V30 33 C -2.168348 -1.631727 3.068478 0
M  V30 34 C -1.270113 -2.649186 5.069697 0
M  V30 35 C -1.168761 -0.182859 4.710762 0
M  V30 36 H 1.428595 0.454214 4.225135 0
M  V30 37 H 1.744076 -0.481103 5.794641 0
M  V30 38 H 3.003980 -0.261231 4.594208 0
M  V30 39 H 1.658087 -2.513106 4.655229 0
M  V30 40 H 3.575608 -1.984749 3.334443 0
M  V30 41 H 2.303922 -2.813662 2.335840 0
M  V30 42 H 4.695392 -0.757788 -0.712586 0
M  V30 43 H 4.402787 0.771446 0.117638 0
M  V30 44 H 3.913742 1.810512 -1.974603 0
M  V30 45 H 2.676337 1.090903 -3.122949 0
M  V30 46 H 4.532088 0.211849 -3.854196 0
M  V30 47 H 2.224747 -1.947524 -0.870608 0
M  V30 48 H 2.583213 -1.382622 -2.582909 0
M  V30 49 H -0.002689 -1.964304 -3.252093 0
M  V30 50 H -1.235335 1.459422 -3.088812 0
M  V30 51 H -5.375910 0.380197 -3.123348 0
M  V30 52 H -2.390430 -2.587154 -2.558541 0
M  V30 53 H 0.168997 -2.712683 2.779435 0
M  V30 54 H 0.174781 -0.981236 2.426118 0
M  V30 55 H -3.142522 -1.454911 3.543452 0
M  V30 56 H -2.106825 -2.691216 2.707240 0
M  V30 57 H -1.983006 -0.990522 2.199407 0
M  V30 58 H -2.376163 -2.843373 5.178745 0
M  V30 59 H -0.957915 -2.284687 6.090394 0
M  V30 60 H -0.807294 -3.602195 4.812652 0
M  V30 61 H -0.602305 -0.066560 5.655511 0
M  V30 62 H -2.276836 -0.097290 4.923199 0
M  V30 63 H -0.945988 0.575106 3.943054 0
M  V30 END ATOM
M  V30 BEGIN BOND
M  V30 1 1 1 2
M  V30 2 1 2 3
M  V30 3 1 3 4
M  V30 4 2 4 5
M  V30 5 1 4 6
M  V30 6 1 6 7
M  V30 7 1 7 8
M  V30 8 1 8 9
M  V30 9 1 9 10
M  V30 10 1 8 11
M  V30 11 1 11 12
M  V30 12 2 12 13
M  V30 13 1 13 14
M  V30 14 2 14 15
M  V30 15 1 15 16
M  V30 16 1 16 17
M  V30 17 1 17 18
M  V30 18 1 17 19
M  V30 19 1 17 20
M  V30 20 2 16 21
M  V30 21 1 21 22
M  V30 22 1 22 23
M  V30 23 1 23 24
M  V30 24 1 23 25
M  V30 25 1 23 26
M  V30 26 2 22 27
M  V30 27 1 12 28
M  V30 28 2 28 29
M  V30 29 1 28 30
M  V30 30 1 2 31
M  V30 31 1 31 32
M  V30 32 1 32 33
M  V30 33 1 32 34
M  V30 34 1 32 35
M  V30 35 1 30 8
M  V30 36 1 27 14
M  V30 37 1 1 36
M  V30 38 1 1 37
M  V30 39 1 1 38
M  V30 40 1 2 39
M  V30 41 1 3 40
M  V30 42 1 3 41
M  V30 43 1 7 42
M  V30 44 1 7 43
M  V30 45 1 9 44
M  V30 46 1 9 45
M  V30 47 1 10 46
M  V30 48 1 11 47
M  V30 49 1 11 48
M  V30 50 1 13 49
M  V30 51 1 15 50
M  V30 52 1 21 51
M  V30 53 1 27 52
M  V30 54 1 31 53
M  V30 55 1 31 54
M  V30 56 1 33 55
M  V30 57 1 33 56
M  V30 58 1 33 57
M  V30 59 1 34 58
M  V30 60 1 34 59
M  V30 61 1 34 60
M  V30 62 1 35 61
M  V30 63 1 35 62
M  V30 64 1 35 63
M  V30 END BOND
M  V30 END CTAB
M  END
>  <Dataset>  (658) 
ChEMBL_Kinases

>  <Ligand_Instance>  (658) 
nan

>  <PDB_ID>  (658) 
nan

>  <Standardized_SMILES>  (658) 
CC(CC(=O)OCC1(CO)C/C(=C/c2cc(C(F)(F)F)cc(C(F)(F)F)c2)C(=O)O1)CC(C)(C)C

>  <Name>  (658) 
nan

>  <Pocket>  (658) 
nan

>  <ATP_Site>  (658) 
nan

>  <Peripheral>  (658) 
nan

>  <Num_H_Atoms_ProtBoundConf>  (658) 
nan

>  <Num_Resolved_Atoms>  (658) 
nan

>  <Num_Not_Resolved_Atoms>  (658) 
nan

$$$$
CHEMBL4592349
     RDKit          3D

  0  0  0  0  0  0  0  0  0  0999 V3000
M  V30 BEGIN CTAB
M  V30 COUNTS 81 86 0 0 0
M  V30 BEGIN ATOM
M  V30 1 C 5.051804 -2.289911 2.196931 0
M  V30 2 S 4.566394 -0.577247 2.006870 0 CHG=1 VAL=3
M  V30 3 O 5.635587 0.220557 0.983235 0 CHG=-1 VAL=1
M  V30 4 C 4.538159 0.229950 3.580781 0
M  V30 5 N 5.681469 0.879494 3.913870 0
M  V30 6 C 5.822503 1.534368 5.069526 0
M  V30 7 C 4.777201 1.559806 5.965553 0
M  V30 8 C 3.595230 0.914242 5.672502 0
M  V30 9 C 3.459344 0.242387 4.480269 0
M  V30 10 C 2.332771 -0.549261 3.898530 0
M  V30 11 N 1.711170 0.229507 2.880749 0
M  V30 12 C 0.914513 1.377219 2.618547 0
M  V30 13 N 1.484212 2.576875 2.654912 0
M  V30 14 C 0.792113 3.695949 2.393039 0
M  V30 15 C -0.542568 3.548978 2.081771 0
M  V30 16 C -1.398489 4.667101 1.780431 0
M  V30 17 N -2.091383 5.571245 1.538952 0
M  V30 18 C -1.157432 2.322691 2.037493 0
M  V30 19 N -2.470147 1.968228 1.716582 0
M  V30 20 C -3.532918 1.081502 1.519182 0
M  V30 21 C -3.393373 -0.052292 0.562416 0
M  V30 22 C -4.786275 -0.733088 0.595460 0
M  V30 23 C -4.834438 -1.929687 -0.293758 0
M  V30 24 C -3.805734 -2.979846 0.080528 0
M  V30 25 C -2.476982 -2.319490 0.075898 0
M  V30 26 C -2.509248 -1.170018 1.069074 0
M  V30 27 C -2.039690 -1.707589 -1.227747 0
M  V30 28 N -1.404134 -2.623033 -2.108329 0
M  V30 29 C -0.810847 -1.850085 -3.211111 0
M  V30 30 C 0.017091 -2.751857 -4.101933 0 CFG=1
M  V30 31 C 0.618239 -1.964605 -5.219493 0
M  V30 32 C 1.322828 -0.766605 -4.681069 0
M  V30 33 C 2.383551 -1.158903 -3.715762 0 CFG=2
M  V30 34 O 3.599267 -1.325648 -4.391709 0
M  V30 35 C 2.084478 -2.275655 -2.787354 0
M  V30 36 C 1.178923 -3.351560 -3.322724 0
M  V30 37 C -3.161247 -0.889264 -1.746728 0
M  V30 38 C -4.520118 -1.545339 -1.719524 0
M  V30 39 C -3.177582 0.362653 -0.845220 0
M  V30 40 N -0.381947 1.263060 2.315577 0
M  V30 41 H 5.998515 -2.512174 1.675188 0
M  V30 42 H 4.221968 -2.924024 1.804615 0
M  V30 43 H 5.112972 -2.563885 3.280953 0
M  V30 44 H 6.752967 2.057200 5.335837 0
M  V30 45 H 4.798644 2.056155 6.905780 0
M  V30 46 H 2.692322 0.832319 6.245231 0
M  V30 47 H 2.656626 -1.521772 3.485677 0
M  V30 48 H 1.632109 -0.808635 4.732204 0
M  V30 49 H 1.834524 -0.083061 1.882223 0
M  V30 50 H 1.102088 4.719178 2.382165 0
M  V30 51 H -2.909955 2.921459 1.490115 0
M  V30 52 H -3.703052 0.570716 2.533960 0
M  V30 53 H -4.512817 1.551437 1.327032 0
M  V30 54 H -4.983906 -0.972447 1.647486 0
M  V30 55 H -5.555942 -0.029081 0.246302 0
M  V30 56 H -5.840673 -2.350119 -0.233685 0
M  V30 57 H -3.912900 -3.805063 -0.640137 0
M  V30 58 H -4.010695 -3.299223 1.125198 0
M  V30 59 H -1.724870 -3.060188 0.428998 0
M  V30 60 H -1.491173 -0.924692 1.305425 0
M  V30 61 H -2.994187 -1.585942 1.978838 0
M  V30 62 H -1.219864 -0.972314 -0.929811 0
M  V30 63 H -2.140847 -3.260221 -2.496732 0
M  V30 64 H -0.145518 -1.097176 -2.765700 0
M  V30 65 H -1.640838 -1.443285 -3.811451 0
M  V30 66 H -0.574925 -3.587268 -4.504078 0
M  V30 67 H -0.209736 -1.681022 -5.922951 0
M  V30 68 H 1.394668 -2.567270 -5.764485 0
M  V30 69 H 0.662523 0.000804 -4.215902 0
M  V30 70 H 1.833403 -0.208805 -5.509844 0
M  V30 71 H 2.554620 -0.246523 -3.056501 0
M  V30 72 H 4.067004 -0.476447 -4.534541 0
M  V30 73 H 3.058014 -2.806234 -2.560318 0
M  V30 74 H 1.715936 -1.951563 -1.790737 0
M  V30 75 H 1.755496 -3.969566 -4.037948 0
M  V30 76 H 0.857830 -3.985428 -2.496934 0
M  V30 77 H -3.036302 -0.490226 -2.771384 0
M  V30 78 H -4.488334 -2.431692 -2.353254 0
M  V30 79 H -5.242856 -0.779441 -2.086720 0
M  V30 80 H -4.052468 0.963504 -1.167086 0
M  V30 81 H -2.222186 0.860251 -1.048067 0
M  V30 END ATOM
M  V30 BEGIN BOND
M  V30 1 1 1 2
M  V30 2 1 2 3
M  V30 3 1 2 4
M  V30 4 2 4 5
M  V30 5 1 5 6
M  V30 6 2 6 7
M  V30 7 1 7 8
M  V30 8 2 8 9
M  V30 9 1 9 10
M  V30 10 1 10 11
M  V30 11 1 11 12
M  V30 12 2 12 13
M  V30 13 1 13 14
M  V30 14 2 14 15
M  V30 15 1 15 16
M  V30 16 3 16 17
M  V30 17 1 15 18
M  V30 18 1 18 19
M  V30 19 1 19 20
M  V30 20 1 20 21
M  V30 21 1 21 22
M  V30 22 1 22 23
M  V30 23 1 23 24
M  V30 24 1 24 25
M  V30 25 1 25 26
M  V30 26 1 25 27
M  V30 27 1 27 28
M  V30 28 1 28 29
M  V30 29 1 29 30
M  V30 30 1 30 31
M  V30 31 1 31 32
M  V30 32 1 32 33
M  V30 33 1 33 34
M  V30 34 1 33 35
M  V30 35 1 35 36
M  V30 36 1 27 37
M  V30 37 1 37 38
M  V30 38 1 37 39
M  V30 39 2 18 40
M  V30 40 1 9 4
M  V30 41 1 40 12
M  V30 42 1 26 21
M  V30 43 1 36 30
M  V30 44 1 39 21
M  V30 45 1 38 23
M  V30 46 1 1 41
M  V30 47 1 1 42
M  V30 48 1 1 43
M  V30 49 1 6 44
M  V30 50 1 7 45
M  V30 51 1 8 46
M  V30 52 1 10 47
M  V30 53 1 10 48
M  V30 54 1 11 49
M  V30 55 1 14 50
M  V30 56 1 19 51
M  V30 57 1 20 52
M  V30 58 1 20 53
M  V30 59 1 22 54
M  V30 60 1 22 55
M  V30 61 1 23 56
M  V30 62 1 24 57
M  V30 63 1 24 58
M  V30 64 1 25 59
M  V30 65 1 26 60
M  V30 66 1 26 61
M  V30 67 1 27 62
M  V30 68 1 28 63
M  V30 69 1 29 64
M  V30 70 1 29 65
M  V30 71 1 30 66 CFG=3
M  V30 72 1 31 67
M  V30 73 1 31 68
M  V30 74 1 32 69
M  V30 75 1 32 70
M  V30 76 1 33 71 CFG=1
M  V30 77 1 34 72
M  V30 78 1 35 73
M  V30 79 1 35 74
M  V30 80 1 36 75
M  V30 81 1 36 76
M  V30 82 1 37 77
M  V30 83 1 38 78
M  V30 84 1 38 79
M  V30 85 1 39 80
M  V30 86 1 39 81
M  V30 END BOND
M  V30 END CTAB
M  END
>  <Dataset>  (659) 
ChEMBL_Kinases

>  <Ligand_Instance>  (659) 
nan

>  <PDB_ID>  (659) 
nan

>  <Standardized_SMILES>  (659) 
C[S+]([O-])c1ncccc1CNc1ncc(C#N)c(NCC23CC4CC(C2)C(NC[C@H]2CC[C@H](O)CC2)C(C4)C3)n1

>  <Name>  (659) 
nan

>  <Pocket>  (659) 
nan

>  <ATP_Site>  (659) 
nan

>  <Peripheral>  (659) 
nan

>  <Num_H_Atoms_ProtBoundConf>  (659) 
nan

>  <Num_Resolved_Atoms>  (659) 
nan

>  <Num_Not_Resolved_Atoms>  (659) 
nan

$$$$
CHEMBL4592040
     RDKit          3D

  0  0  0  0  0  0  0  0  0  0999 V3000
M  V30 BEGIN CTAB
M  V30 COUNTS 32 35 0 0 0
M  V30 BEGIN ATOM
M  V30 1 O -0.029226 0.883119 2.914563 0
M  V30 2 S 0.386057 -0.567835 3.130310 0
M  V30 3 O 0.143250 -0.886596 4.577731 0
M  V30 4 N 2.045737 -0.660635 2.737837 0
M  V30 5 C 2.237126 -0.188176 1.379527 0
M  V30 6 N 1.657308 0.229507 0.476529 0
M  V30 7 C 2.101140 0.602217 -0.711560 0
M  V30 8 C 1.415749 1.103213 -1.798677 0
M  V30 9 C 2.076711 1.429000 -2.945761 0
M  V30 10 C 3.458027 1.295320 -3.132345 0
M  V30 11 Cl 4.352499 1.690910 -4.561775 0
M  V30 12 C 4.192290 0.798880 -2.077029 0
M  V30 13 C 3.466262 0.481007 -0.925546 0
M  V30 14 S 4.032540 -0.209766 0.724038 0
M  V30 15 C -0.561659 -1.592177 2.079889 0
M  V30 16 C 0.123313 -2.426551 1.089289 0
M  V30 17 S -1.268395 -3.344414 0.230014 0
M  V30 18 C -2.579790 -2.589691 1.200773 0
M  V30 19 C -3.961725 -2.784655 1.134810 0
M  V30 20 C -4.762057 -2.091564 1.982343 0
M  V30 21 C -4.115644 -1.258367 2.828602 0
M  V30 22 C -2.767569 -1.037224 2.926971 0
M  V30 23 C -1.911290 -1.709978 2.095782 0
M  V30 24 H 2.825440 -0.989490 3.328670 0
M  V30 25 H 0.355690 1.268930 -1.826811 0
M  V30 26 H 1.553488 1.830768 -3.828067 0
M  V30 27 H 5.243171 0.628595 -2.032838 0
M  V30 28 H 1.287109 -2.478738 0.914432 0
M  V30 29 H -4.247099 -3.486166 0.394495 0
M  V30 30 H -5.809360 -2.259994 1.909629 0
M  V30 31 H -4.776014 -0.697393 3.515954 0
M  V30 32 H -2.465194 -0.326353 3.675594 0
M  V30 END ATOM
M  V30 BEGIN BOND
M  V30 1 2 1 2
M  V30 2 2 2 3
M  V30 3 1 2 4
M  V30 4 1 4 5
M  V30 5 2 5 6
M  V30 6 1 6 7
M  V30 7 2 7 8
M  V30 8 1 8 9
M  V30 9 2 9 10
M  V30 10 1 10 11
M  V30 11 1 10 12
M  V30 12 2 12 13
M  V30 13 1 13 14
M  V30 14 1 2 15
M  V30 15 2 15 16
M  V30 16 1 16 17
M  V30 17 1 17 18
M  V30 18 2 18 19
M  V30 19 1 19 20
M  V30 20 2 20 21
M  V30 21 1 21 22
M  V30 22 2 22 23
M  V30 23 1 14 5
M  V30 24 1 23 15
M  V30 25 1 13 7
M  V30 26 1 23 18
M  V30 27 1 4 24
M  V30 28 1 8 25
M  V30 29 1 9 26
M  V30 30 1 12 27
M  V30 31 1 16 28
M  V30 32 1 19 29
M  V30 33 1 20 30
M  V30 34 1 21 31
M  V30 35 1 22 32
M  V30 END BOND
M  V30 END CTAB
M  END
>  <Dataset>  (660) 
ChEMBL_Kinases

>  <Ligand_Instance>  (660) 
nan

>  <PDB_ID>  (660) 
nan

>  <Standardized_SMILES>  (660) 
O=S(=O)(Nc1nc2ccc(Cl)cc2s1)c1csc2ccccc12

>  <Name>  (660) 
nan

>  <Pocket>  (660) 
nan

>  <ATP_Site>  (660) 
nan

>  <Peripheral>  (660) 
nan

>  <Num_H_Atoms_ProtBoundConf>  (660) 
nan

>  <Num_Resolved_Atoms>  (660) 
nan

>  <Num_Not_Resolved_Atoms>  (660) 
nan

$$$$
CHEMBL4591874
     RDKit          3D

  0  0  0  0  0  0  0  0  0  0999 V3000
M  V30 BEGIN CTAB
M  V30 COUNTS 51 54 0 0 0
M  V30 BEGIN ATOM
M  V30 1 C 4.470145 -1.260238 5.652266 0
M  V30 2 C 4.793117 -1.409165 4.178768 0
M  V30 3 C 5.911427 -2.451525 4.107428 0
M  V30 4 S 5.359615 0.128559 3.548684 0
M  V30 5 O 6.596054 0.489958 4.365030 0
M  V30 6 O 5.894942 -0.135328 2.157971 0
M  V30 7 N 4.218304 1.381894 3.577676 0
M  V30 8 C 2.966795 1.695343 3.026442 0
M  V30 9 N 2.190753 2.804221 3.231022 0
M  V30 10 N 1.105962 2.700691 2.497043 0
M  V30 11 C 1.066500 1.569697 1.774217 0
M  V30 12 C 0.090841 1.145358 0.899379 0
M  V30 13 C 0.351530 -0.079520 0.290318 0
M  V30 14 C -0.614937 -0.628535 -0.656446 0
M  V30 15 C -0.171788 -1.409377 -1.700548 0
M  V30 16 C -1.029047 -1.959576 -2.630364 0
M  V30 17 C -2.362468 -1.679244 -2.450464 0
M  V30 18 C -2.908150 -0.915521 -1.448256 0
M  V30 19 N -4.278901 -0.621682 -1.251266 0
M  V30 20 S -5.571225 -0.072226 -2.248629 0
M  V30 21 O -5.207644 1.212979 -2.950172 0
M  V30 22 O -6.788780 0.148061 -1.430317 0
M  V30 23 C -5.840596 -1.279693 -3.522983 0
M  V30 24 C -6.607247 -2.542736 -3.010450 0
M  V30 25 C -7.257622 -1.543587 -3.882961 0
M  V30 26 C -1.968130 -0.403740 -0.559338 0
M  V30 27 C 1.517206 -0.792112 0.567001 0
M  V30 28 C 2.421901 -0.263220 1.463759 0
M  V30 29 C 2.246915 0.942225 2.115569 0
M  V30 30 H 3.853908 -2.097074 6.005995 0
M  V30 31 H 3.906566 -0.329670 5.858166 0
M  V30 32 H 5.434681 -1.296333 6.197926 0
M  V30 33 H 3.943424 -1.778559 3.631387 0
M  V30 34 H 5.498925 -3.434802 4.368990 0
M  V30 35 H 6.706566 -2.225083 4.831369 0
M  V30 36 H 6.360983 -2.450986 3.095602 0
M  V30 37 H 4.550069 2.173111 4.204851 0
M  V30 38 H 0.477751 3.521868 2.616136 0
M  V30 39 H -0.787462 1.726750 0.718736 0
M  V30 40 H 0.874955 -1.583512 -1.776196 0
M  V30 41 H -0.682417 -2.567047 -3.442267 0
M  V30 42 H -3.032917 -2.112964 -3.174833 0
M  V30 43 H -4.517527 -0.804333 -0.227324 0
M  V30 44 H -5.047858 -1.514634 -4.229564 0
M  V30 45 H -6.265656 -3.514816 -3.410799 0
M  V30 46 H -6.852204 -2.586041 -1.942577 0
M  V30 47 H -8.052103 -0.944409 -3.381588 0
M  V30 48 H -7.454750 -1.739649 -4.949223 0
M  V30 49 H -2.295378 0.214835 0.272206 0
M  V30 50 H 1.721876 -1.740025 0.096773 0
M  V30 51 H 3.310799 -0.815295 1.650518 0
M  V30 END ATOM
M  V30 BEGIN BOND
M  V30 1 1 1 2
M  V30 2 1 2 3
M  V30 3 1 2 4
M  V30 4 2 4 5
M  V30 5 2 4 6
M  V30 6 1 4 7
M  V30 7 1 7 8
M  V30 8 2 8 9
M  V30 9 1 9 10
M  V30 10 1 10 11
M  V30 11 2 11 12
M  V30 12 1 12 13
M  V30 13 1 13 14
M  V30 14 2 14 15
M  V30 15 1 15 16
M  V30 16 2 16 17
M  V30 17 1 17 18
M  V30 18 1 18 19
M  V30 19 1 19 20
M  V30 20 2 20 21
M  V30 21 2 20 22
M  V30 22 1 20 23
M  V30 23 1 23 24
M  V30 24 1 24 25
M  V30 25 2 18 26
M  V30 26 2 13 27
M  V30 27 1 27 28
M  V30 28 2 28 29
M  V30 29 1 29 8
M  V30 30 1 29 11
M  V30 31 1 26 14
M  V30 32 1 25 23
M  V30 33 1 1 30
M  V30 34 1 1 31
M  V30 35 1 1 32
M  V30 36 1 2 33
M  V30 37 1 3 34
M  V30 38 1 3 35
M  V30 39 1 3 36
M  V30 40 1 7 37
M  V30 41 1 10 38
M  V30 42 1 12 39
M  V30 43 1 15 40
M  V30 44 1 16 41
M  V30 45 1 17 42
M  V30 46 1 19 43
M  V30 47 1 23 44
M  V30 48 1 24 45
M  V30 49 1 24 46
M  V30 50 1 25 47
M  V30 51 1 25 48
M  V30 52 1 26 49
M  V30 53 1 27 50
M  V30 54 1 28 51
M  V30 END BOND
M  V30 END CTAB
M  END
>  <Dataset>  (661) 
ChEMBL_Kinases

>  <Ligand_Instance>  (661) 
nan

>  <PDB_ID>  (661) 
nan

>  <Standardized_SMILES>  (661) 
CC(C)S(=O)(=O)Nc1n[nH]c2cc(-c3cccc(NS(=O)(=O)C4CC4)c3)ccc12

>  <Name>  (661) 
nan

>  <Pocket>  (661) 
nan

>  <ATP_Site>  (661) 
nan

>  <Peripheral>  (661) 
nan

>  <Num_H_Atoms_ProtBoundConf>  (661) 
nan

>  <Num_Resolved_Atoms>  (661) 
nan

>  <Num_Not_Resolved_Atoms>  (661) 
nan

$$$$
CHEMBL4591854
     RDKit          3D

  0  0  0  0  0  0  0  0  0  0999 V3000
M  V30 BEGIN CTAB
M  V30 COUNTS 51 54 0 0 0
M  V30 BEGIN ATOM
M  V30 1 C 4.751219 1.245647 -0.122099 0
M  V30 2 N 5.079975 2.441125 0.639198 0
M  V30 3 N 6.254959 3.052992 0.403286 0
M  V30 4 C 6.392845 4.130095 1.191380 0
M  V30 5 C 5.219487 4.108294 1.905050 0
M  V30 6 Cl 5.077666 5.411724 3.051405 0
M  V30 7 C 4.394483 3.089796 1.592669 0
M  V30 8 C 3.100369 2.738057 2.115522 0
M  V30 9 C 2.343584 1.664518 1.711699 0
M  V30 10 C 1.127983 1.573847 2.402210 0
M  V30 11 C 0.014360 0.627872 2.327798 0
M  V30 12 O -1.001542 0.751307 3.060410 0
M  V30 13 N 0.094138 -0.466748 1.389910 0
M  V30 14 C -0.902489 -1.499927 1.171809 0 CFG=2
M  V30 15 C -0.253766 -2.813885 1.511378 0
M  V30 16 N 0.876408 -2.991448 0.632783 0
M  V30 17 C 0.540251 -3.056513 -0.746281 0
M  V30 18 C -0.419104 -2.017391 -1.204657 0
M  V30 19 C -1.418556 -1.540578 -0.226048 0 CFG=1
M  V30 20 C -2.704709 -2.293088 -0.216379 0
M  V30 21 C -3.863323 -1.520695 -0.056001 0
M  V30 22 C -5.161831 -2.048477 -0.033929 0
M  V30 23 C -5.313356 -3.410762 -0.178537 0
M  V30 24 C -6.692502 -3.957078 -0.153259 0
M  V30 25 F -7.338513 -3.565514 1.002516 0
M  V30 26 F -7.324484 -3.475654 -1.282722 0
M  V30 27 F -6.700222 -5.335211 -0.233181 0
M  V30 28 C -4.191683 -4.187023 -0.337289 0
M  V30 29 C -2.932094 -3.639640 -0.354901 0
M  V30 30 O 1.153720 2.600478 3.227508 0
M  V30 31 C 2.275289 3.267313 3.068467 0
M  V30 32 Cl 2.542048 4.665603 4.047021 0
M  V30 33 H 3.872223 1.351094 -0.766788 0
M  V30 34 H 5.635775 0.954364 -0.742026 0
M  V30 35 H 4.677441 0.397861 0.620371 0
M  V30 36 H 7.283788 4.726380 1.119906 0
M  V30 37 H 2.450872 0.879352 0.999027 0
M  V30 38 H 0.960166 -0.512697 0.810320 0
M  V30 39 H -1.802032 -1.335314 1.821287 0
M  V30 40 H 0.185559 -2.770579 2.545429 0
M  V30 41 H -0.932370 -3.683416 1.480446 0
M  V30 42 H 1.685865 -2.403509 0.805769 0
M  V30 43 H 1.507010 -2.912046 -1.318457 0
M  V30 44 H 0.257998 -4.105546 -0.987982 0
M  V30 45 H 0.193988 -1.117295 -1.513882 0
M  V30 46 H -0.873101 -2.354002 -2.161544 0
M  V30 47 H -1.696797 -0.481625 -0.513616 0
M  V30 48 H -3.813656 -0.427104 0.064673 0
M  V30 49 H -6.008125 -1.387299 0.094040 0
M  V30 50 H -4.289554 -5.247093 -0.450956 0
M  V30 51 H -2.067957 -4.247270 -0.488095 0
M  V30 END ATOM
M  V30 BEGIN BOND
M  V30 1 1 1 2
M  V30 2 1 2 3
M  V30 3 2 3 4
M  V30 4 1 4 5
M  V30 5 1 5 6
M  V30 6 2 5 7
M  V30 7 1 7 8
M  V30 8 1 8 9
M  V30 9 2 9 10
M  V30 10 1 10 11
M  V30 11 2 11 12
M  V30 12 1 11 13
M  V30 13 1 13 14
M  V30 14 1 14 15
M  V30 15 1 15 16
M  V30 16 1 16 17
M  V30 17 1 17 18
M  V30 18 1 18 19
M  V30 19 1 19 20
M  V30 20 2 20 21
M  V30 21 1 21 22
M  V30 22 2 22 23
M  V30 23 1 23 24
M  V30 24 1 24 25
M  V30 25 1 24 26
M  V30 26 1 24 27
M  V30 27 1 23 28
M  V30 28 2 28 29
M  V30 29 1 10 30
M  V30 30 1 30 31
M  V30 31 1 31 32
M  V30 32 1 7 2
M  V30 33 2 31 8
M  V30 34 1 19 14
M  V30 35 1 29 20
M  V30 36 1 1 33
M  V30 37 1 1 34
M  V30 38 1 1 35
M  V30 39 1 4 36
M  V30 40 1 9 37
M  V30 41 1 13 38
M  V30 42 1 14 39 CFG=1
M  V30 43 1 15 40
M  V30 44 1 15 41
M  V30 45 1 16 42
M  V30 46 1 17 43
M  V30 47 1 17 44
M  V30 48 1 18 45
M  V30 49 1 18 46
M  V30 50 1 19 47 CFG=3
M  V30 51 1 21 48
M  V30 52 1 22 49
M  V30 53 1 28 50
M  V30 54 1 29 51
M  V30 END BOND
M  V30 END CTAB
M  END
>  <Dataset>  (662) 
ChEMBL_Kinases

>  <Ligand_Instance>  (662) 
nan

>  <PDB_ID>  (662) 
nan

>  <Standardized_SMILES>  (662) 
Cn1ncc(Cl)c1-c1cc(C(=O)N[C@@H]2CNCC[C@H]2c2ccc(C(F)(F)F)cc2)oc1Cl

>  <Name>  (662) 
nan

>  <Pocket>  (662) 
nan

>  <ATP_Site>  (662) 
nan

>  <Peripheral>  (662) 
nan

>  <Num_H_Atoms_ProtBoundConf>  (662) 
nan

>  <Num_Resolved_Atoms>  (662) 
nan

>  <Num_Not_Resolved_Atoms>  (662) 
nan

$$$$
CHEMBL459510
     RDKit          3D

  0  0  0  0  0  0  0  0  0  0999 V3000
M  V30 BEGIN CTAB
M  V30 COUNTS 44 47 0 0 0
M  V30 BEGIN ATOM
M  V30 1 O -0.958697 -4.929601 5.007571 0
M  V30 2 N -0.940754 -5.238581 3.799698 0 CHG=1 VAL=4
M  V30 3 O -1.286294 -6.544990 3.581270 0 CHG=-1 VAL=1
M  V30 4 C -0.595462 -4.318460 2.771080 0
M  V30 5 C -0.270949 -3.037190 3.152110 0
M  V30 6 C 0.057475 -2.177426 2.123943 0
M  V30 7 C 0.067353 -2.553177 0.793574 0
M  V30 8 C 0.405407 -1.648621 -0.201450 0
M  V30 9 N 0.730508 -0.352436 0.221237 0
M  V30 10 N 1.015260 0.645788 -0.495278 0
M  V30 11 C 1.332239 1.931319 0.089177 0
M  V30 12 C 2.679906 2.157026 0.379084 0
M  V30 13 C 3.005225 3.392909 0.943947 0
M  V30 14 C 2.038705 4.343731 1.202133 0
M  V30 15 C 2.423719 5.556766 1.766093 0
M  V30 16 C 1.445740 6.510009 2.023641 0
M  V30 17 C 0.095605 6.299504 1.739742 0
M  V30 18 C -0.244540 5.068075 1.174583 0
M  V30 19 C 0.697555 4.091982 0.902261 0
M  V30 20 C 0.351514 2.876789 0.343062 0
M  V30 21 O -0.975751 2.605729 0.037115 0
M  V30 22 C 0.397390 -2.082168 -1.511329 0
M  V30 23 O 0.738080 -1.160472 -2.481516 0
M  V30 24 C 0.064915 -3.380312 -1.854573 0
M  V30 25 C -0.272841 -4.280115 -0.847621 0
M  V30 26 S -0.706749 -5.948946 -1.213392 0
M  V30 27 O -0.649006 -6.169831 -2.700363 0
M  V30 28 O 0.301974 -6.862694 -0.549330 0
M  V30 29 O -2.268225 -6.289438 -0.682516 0
M  V30 30 C -0.271470 -3.869608 0.464793 0
M  V30 31 C -0.611530 -4.778035 1.470492 0
M  V30 32 H -0.278527 -2.740548 4.199820 0
M  V30 33 H 0.321936 -1.146802 2.390706 0
M  V30 34 H 3.449044 1.427599 0.185031 0
M  V30 35 H 4.040418 3.643361 1.198913 0
M  V30 36 H 3.450751 5.800156 2.016936 0
M  V30 37 H 1.725558 7.455590 2.460312 0
M  V30 38 H -0.657236 7.049779 1.944906 0
M  V30 39 H -1.290094 4.878755 0.943708 0
M  V30 40 H -1.556068 3.241445 -0.502233 0
M  V30 41 H 1.541297 -1.357900 -3.086401 0
M  V30 42 H 0.063812 -3.704110 -2.889584 0
M  V30 43 H -2.334509 -7.274526 -0.648043 0
M  V30 44 H -0.874798 -5.801145 1.214279 0
M  V30 END ATOM
M  V30 BEGIN BOND
M  V30 1 2 1 2
M  V30 2 1 2 3
M  V30 3 1 2 4
M  V30 4 2 4 5
M  V30 5 1 5 6
M  V30 6 2 6 7
M  V30 7 1 7 8
M  V30 8 1 8 9
M  V30 9 2 9 10
M  V30 10 1 10 11
M  V30 11 2 11 12
M  V30 12 1 12 13
M  V30 13 2 13 14
M  V30 14 1 14 15
M  V30 15 2 15 16
M  V30 16 1 16 17
M  V30 17 2 17 18
M  V30 18 1 18 19
M  V30 19 2 19 20
M  V30 20 1 20 21
M  V30 21 2 8 22
M  V30 22 1 22 23
M  V30 23 1 22 24
M  V30 24 2 24 25
M  V30 25 1 25 26
M  V30 26 2 26 27
M  V30 27 2 26 28
M  V30 28 1 26 29
M  V30 29 1 25 30
M  V30 30 2 30 31
M  V30 31 1 31 4
M  V30 32 1 30 7
M  V30 33 1 20 11
M  V30 34 1 19 14
M  V30 35 1 5 32
M  V30 36 1 6 33
M  V30 37 1 12 34
M  V30 38 1 13 35
M  V30 39 1 15 36
M  V30 40 1 16 37
M  V30 41 1 17 38
M  V30 42 1 18 39
M  V30 43 1 21 40
M  V30 44 1 23 41
M  V30 45 1 24 42
M  V30 46 1 29 43
M  V30 47 1 31 44
M  V30 END BOND
M  V30 END CTAB
M  END
>  <Dataset>  (663) 
ChEMBL_Kinases

>  <Ligand_Instance>  (663) 
nan

>  <PDB_ID>  (663) 
nan

>  <Standardized_SMILES>  (663) 
O=[N+]([O-])c1ccc2c(/N=N/c3ccc4ccccc4c3O)c(O)cc(S(=O)(=O)O)c2c1

>  <Name>  (663) 
nan

>  <Pocket>  (663) 
nan

>  <ATP_Site>  (663) 
nan

>  <Peripheral>  (663) 
nan

>  <Num_H_Atoms_ProtBoundConf>  (663) 
nan

>  <Num_Resolved_Atoms>  (663) 
nan

>  <Num_Not_Resolved_Atoms>  (663) 
nan

$$$$
CHEMBL4591733
     RDKit          3D

  0  0  0  0  0  0  0  0  0  0999 V3000
M  V30 BEGIN CTAB
M  V30 COUNTS 38 41 0 0 0
M  V30 BEGIN ATOM
M  V30 1 C 0.243485 -2.495696 3.064898 0
M  V30 2 C 0.084391 -1.074032 3.608218 0
M  V30 3 N -0.956773 -0.257057 3.015036 0
M  V30 4 C -0.896472 0.015943 1.621515 0
M  V30 5 N 0.142703 -0.516732 0.953082 0
M  V30 6 C 0.288994 -0.311390 -0.390534 0
M  V30 7 C 1.423397 -0.897964 -1.097560 0
M  V30 8 C 2.344366 -1.657951 -0.406680 0
M  V30 9 C 3.399578 -2.185106 -1.146649 0
M  V30 10 N 3.514592 -1.961404 -2.480499 0
M  V30 11 C 2.626073 -1.225192 -3.160418 0
M  V30 12 N 2.724140 -0.975949 -4.558447 0
M  V30 13 C 1.580719 -0.697034 -2.453792 0
M  V30 14 N -0.610065 0.430269 -1.063855 0
M  V30 15 C -1.677791 0.987160 -0.419759 0
M  V30 16 C -2.611360 1.753767 -1.103288 0
M  V30 17 N -3.656163 2.287973 -0.425242 0
M  V30 18 C -3.781543 2.072998 0.900077 0
M  V30 19 C -2.880845 1.317385 1.630830 0
M  V30 20 C -1.820201 0.776069 0.938102 0
M  V30 21 C 1.369253 -0.427411 3.973772 0
M  V30 22 C 0.444349 -0.918190 5.055190 0
M  V30 23 H -0.437603 -2.597324 2.192431 0
M  V30 24 H -0.115425 -3.236459 3.809735 0
M  V30 25 H 1.289564 -2.696421 2.764747 0
M  V30 26 H -1.659396 0.045993 3.720744 0
M  V30 27 H 2.275930 -1.848258 0.641966 0
M  V30 28 H 4.183950 -2.800013 -0.702418 0
M  V30 29 H 2.459400 -1.851074 -5.088990 0
M  V30 30 H 2.988373 -0.154253 -5.130161 0
M  V30 31 H 0.843204 -0.102882 -2.942697 0
M  V30 32 H -2.516452 1.929191 -2.163065 0
M  V30 33 H -4.643939 2.535884 1.361983 0
M  V30 34 H -2.995314 1.157763 2.677477 0
M  V30 35 H 2.352593 -0.918016 3.826294 0
M  V30 36 H 1.420413 0.669502 3.757230 0
M  V30 37 H -0.080454 -0.194232 5.699718 0
M  V30 38 H 0.815045 -1.800990 5.603190 0
M  V30 END ATOM
M  V30 BEGIN BOND
M  V30 1 1 1 2
M  V30 2 1 2 3
M  V30 3 1 3 4
M  V30 4 2 4 5
M  V30 5 1 5 6
M  V30 6 1 6 7
M  V30 7 2 7 8
M  V30 8 1 8 9
M  V30 9 2 9 10
M  V30 10 1 10 11
M  V30 11 1 11 12
M  V30 12 2 11 13
M  V30 13 2 6 14
M  V30 14 1 14 15
M  V30 15 2 15 16
M  V30 16 1 16 17
M  V30 17 2 17 18
M  V30 18 1 18 19
M  V30 19 2 19 20
M  V30 20 1 2 21
M  V30 21 1 21 22
M  V30 22 1 22 2
M  V30 23 1 20 4
M  V30 24 1 13 7
M  V30 25 1 20 15
M  V30 26 1 1 23
M  V30 27 1 1 24
M  V30 28 1 1 25
M  V30 29 1 3 26
M  V30 30 1 8 27
M  V30 31 1 9 28
M  V30 32 1 12 29
M  V30 33 1 12 30
M  V30 34 1 13 31
M  V30 35 1 16 32
M  V30 36 1 18 33
M  V30 37 1 19 34
M  V30 38 1 21 35
M  V30 39 1 21 36
M  V30 40 1 22 37
M  V30 41 1 22 38
M  V30 END BOND
M  V30 END CTAB
M  END
>  <Dataset>  (664) 
ChEMBL_Kinases

>  <Ligand_Instance>  (664) 
nan

>  <PDB_ID>  (664) 
nan

>  <Standardized_SMILES>  (664) 
CC1(Nc2nc(-c3ccnc(N)c3)nc3cnccc23)CC1

>  <Name>  (664) 
nan

>  <Pocket>  (664) 
nan

>  <ATP_Site>  (664) 
nan

>  <Peripheral>  (664) 
nan

>  <Num_H_Atoms_ProtBoundConf>  (664) 
nan

>  <Num_Resolved_Atoms>  (664) 
nan

>  <Num_Not_Resolved_Atoms>  (664) 
nan

$$$$
CHEMBL4591648
     RDKit          3D

  0  0  0  0  0  0  0  0  0  0999 V3000
M  V30 BEGIN CTAB
M  V30 COUNTS 66 70 0 0 0
M  V30 BEGIN ATOM
M  V30 1 C 4.047789 -0.306129 6.218625 0
M  V30 2 C 3.266554 -0.809512 5.030680 0 CFG=2
M  V30 3 C 2.979032 0.298163 4.055571 0
M  V30 4 C 2.246952 -0.191141 2.826314 0
M  V30 5 O 1.860532 0.867311 1.997450 0
M  V30 6 C 1.140733 0.782731 0.834472 0
M  V30 7 C 1.459633 1.741792 -0.090182 0
M  V30 8 C 0.797374 1.761223 -1.293038 0
M  V30 9 F 1.086242 2.702335 -2.233126 0
M  V30 10 C -0.180165 0.892564 -1.672624 0
M  V30 11 C -0.876788 0.928281 -2.952073 0
M  V30 12 C -2.252253 0.851280 -2.923290 0
M  V30 13 N -2.659715 0.903836 -4.199253 0
M  V30 14 N -1.642167 1.008498 -5.038125 0
M  V30 15 C -1.493709 1.111830 -6.465803 0
M  V30 16 C -1.351652 -0.155560 -7.214876 0
M  V30 17 N -2.440726 -1.075531 -7.123771 0
M  V30 18 C -2.141776 -2.213740 -8.023199 0
M  V30 19 C -2.692628 -1.642711 -5.838926 0
M  V30 20 C -0.503849 1.026663 -4.293558 0
M  V30 21 C -0.499892 -0.079340 -0.733007 0
M  V30 22 C 0.168218 -0.091048 0.464496 0
M  V30 23 C -0.264058 -1.194631 1.279578 0
M  V30 24 O -1.067497 -0.574754 1.989558 0
M  V30 25 N -0.656106 -2.277544 2.043505 0
M  V30 26 C -1.518674 -2.518994 3.125896 0
M  V30 27 C -2.702081 -3.134349 3.388061 0
M  V30 28 C -3.086882 -3.063499 4.708190 0
M  V30 29 C -2.326960 -2.424339 5.658159 0
M  V30 30 C -1.140159 -1.818172 5.346584 0
M  V30 31 N -0.792653 -1.900352 4.067988 0
M  V30 32 C -0.233186 -1.122920 6.237738 0
M  V30 33 N -0.790367 -0.400340 7.233530 0
M  V30 34 N 0.191848 0.167438 7.957685 0
M  V30 35 C 1.330094 -0.251669 7.347968 0
M  V30 36 N 1.118039 -1.039958 6.294463 0
M  V30 37 C 2.119694 -1.623314 5.478818 0
M  V30 38 H 3.989208 -0.967367 7.095317 0
M  V30 39 H 5.162836 -0.294108 5.972947 0
M  V30 40 H 3.828197 0.763052 6.422558 0
M  V30 41 H 3.972660 -1.522828 4.507076 0
M  V30 42 H 2.404269 1.136131 4.491017 0
M  V30 43 H 3.945686 0.719631 3.721543 0
M  V30 44 H 3.025302 -0.762751 2.215537 0
M  V30 45 H 1.405918 -0.817202 3.047766 0
M  V30 46 H 2.211333 2.500399 0.062741 0
M  V30 47 H -2.994306 0.762573 -2.112172 0
M  V30 48 H -2.457422 1.590883 -6.837656 0
M  V30 49 H -0.721778 1.873957 -6.730105 0
M  V30 50 H -1.290140 0.126190 -8.311123 0
M  V30 51 H -0.358117 -0.659377 -7.046258 0
M  V30 52 H -1.994086 -3.150902 -7.461580 0
M  V30 53 H -3.022208 -2.394183 -8.695824 0
M  V30 54 H -1.246834 -1.983573 -8.630508 0
M  V30 55 H -3.671467 -1.330798 -5.388063 0
M  V30 56 H -2.841157 -2.758763 -5.973871 0
M  V30 57 H -1.842446 -1.586886 -5.124423 0
M  V30 58 H 0.541096 1.097799 -4.519181 0
M  V30 59 H -1.261369 -0.836050 -0.843350 0
M  V30 60 H -0.375981 -3.259728 1.929609 0
M  V30 61 H -2.989372 -3.513904 2.435265 0
M  V30 62 H -4.027029 -3.566587 4.854648 0
M  V30 63 H -2.673770 -2.398911 6.675717 0
M  V30 64 H 2.125683 0.198917 7.928811 0
M  V30 65 H 2.574496 -2.463574 6.096774 0
M  V30 66 H 1.638787 -2.210742 4.643542 0
M  V30 END ATOM
M  V30 BEGIN BOND
M  V30 1 1 1 2
M  V30 2 1 2 3
M  V30 3 1 3 4
M  V30 4 1 4 5
M  V30 5 1 5 6
M  V30 6 2 6 7
M  V30 7 1 7 8
M  V30 8 1 8 9
M  V30 9 2 8 10
M  V30 10 1 10 11
M  V30 11 1 11 12
M  V30 12 2 12 13
M  V30 13 1 13 14
M  V30 14 1 14 15
M  V30 15 1 15 16
M  V30 16 1 16 17
M  V30 17 1 17 18
M  V30 18 1 17 19
M  V30 19 1 14 20
M  V30 20 1 10 21
M  V30 21 2 21 22
M  V30 22 1 22 23
M  V30 23 2 23 24
M  V30 24 1 23 25
M  V30 25 1 25 26
M  V30 26 1 26 27
M  V30 27 2 27 28
M  V30 28 1 28 29
M  V30 29 2 29 30
M  V30 30 1 30 31
M  V30 31 1 30 32
M  V30 32 2 32 33
M  V30 33 1 33 34
M  V30 34 2 34 35
M  V30 35 1 35 36
M  V30 36 1 36 37
M  V30 37 1 37 2
M  V30 38 1 22 6
M  V30 39 2 31 26
M  V30 40 1 36 32
M  V30 41 2 20 11
M  V30 42 1 1 38
M  V30 43 1 1 39
M  V30 44 1 1 40
M  V30 45 1 2 41 CFG=3
M  V30 46 1 3 42
M  V30 47 1 3 43
M  V30 48 1 4 44
M  V30 49 1 4 45
M  V30 50 1 7 46
M  V30 51 1 12 47
M  V30 52 1 15 48
M  V30 53 1 15 49
M  V30 54 1 16 50
M  V30 55 1 16 51
M  V30 56 1 18 52
M  V30 57 1 18 53
M  V30 58 1 18 54
M  V30 59 1 19 55
M  V30 60 1 19 56
M  V30 61 1 19 57
M  V30 62 1 20 58
M  V30 63 1 21 59
M  V30 64 1 25 60
M  V30 65 1 27 61
M  V30 66 1 28 62
M  V30 67 1 29 63
M  V30 68 1 35 64
M  V30 69 1 37 65
M  V30 70 1 37 66
M  V30 END BOND
M  V30 END CTAB
M  END
>  <Dataset>  (665) 
ChEMBL_Kinases

>  <Ligand_Instance>  (665) 
nan

>  <PDB_ID>  (665) 
nan

>  <Standardized_SMILES>  (665) 
C[C@@H]1CCOc2cc(F)c(-c3cnn(CCN(C)C)c3)cc2C(=O)Nc2cccc(n2)-c2nncn2C1

>  <Name>  (665) 
nan

>  <Pocket>  (665) 
nan

>  <ATP_Site>  (665) 
nan

>  <Peripheral>  (665) 
nan

>  <Num_H_Atoms_ProtBoundConf>  (665) 
nan

>  <Num_Resolved_Atoms>  (665) 
nan

>  <Num_Not_Resolved_Atoms>  (665) 
nan

$$$$
CHEMBL4591510
     RDKit          3D

  0  0  0  0  0  0  0  0  0  0999 V3000
M  V30 BEGIN CTAB
M  V30 COUNTS 50 54 0 0 0
M  V30 BEGIN ATOM
M  V30 1 C -2.559314 -4.760855 3.662326 0
M  V30 2 S -1.396189 -5.593583 2.547398 0
M  V30 3 C -0.315976 -4.339174 1.871774 0
M  V30 4 N 0.825762 -4.007086 2.520128 0
M  V30 5 C 1.407192 -3.042693 1.746192 0
M  V30 6 C 0.595107 -2.804203 0.624510 0
M  V30 7 C 1.116946 -1.769726 -0.250662 0
M  V30 8 C 1.402396 -0.511127 0.303678 0
M  V30 9 C 1.924771 0.583151 -0.351483 0
M  V30 10 C 2.187462 1.851363 0.311325 0
M  V30 11 C 1.948354 2.099224 1.643209 0
M  V30 12 C 2.185298 3.285790 2.301264 0
M  V30 13 C 2.708912 4.333043 1.580500 0
M  V30 14 C 2.970600 4.147215 0.240950 0
M  V30 15 C 2.710691 2.923049 -0.374179 0
M  V30 16 O 3.484030 5.352155 -0.219749 0
M  V30 17 C 3.980176 6.063133 0.909067 0
M  V30 18 O 3.066992 5.641661 1.905558 0
M  V30 19 N 2.177478 0.396443 -1.656943 0
M  V30 20 C 1.946639 -0.762757 -2.297099 0
M  V30 21 O 2.187249 -0.921140 -3.513008 0
M  V30 22 C 1.424300 -1.823956 -1.593475 0
M  V30 23 C 1.216982 -3.066751 -2.260636 0
M  V30 24 N 1.039451 -4.070402 -2.780673 0
M  V30 25 N -0.452764 -3.608283 0.724930 0
M  V30 26 C -1.539952 -3.672952 -0.181815 0
M  V30 27 C -2.668146 -2.750419 0.148191 0
M  V30 28 C -3.821893 -2.970818 0.868448 0
M  V30 29 C -4.732067 -1.953687 1.051543 0
M  V30 30 C -4.522219 -0.687838 0.524014 0
M  V30 31 C -3.368232 -0.466704 -0.196869 0
M  V30 32 C -2.439185 -1.488402 -0.389041 0
M  V30 33 H -2.464538 -3.656442 3.621644 0
M  V30 34 H -2.410597 -5.067239 4.717477 0
M  V30 35 H -3.617377 -4.990947 3.404517 0
M  V30 36 H 2.365254 -2.637982 2.116368 0
M  V30 37 H 1.175442 -0.414820 1.377407 0
M  V30 38 H 1.538056 1.328223 2.276875 0
M  V30 39 H 1.979318 3.427815 3.349813 0
M  V30 40 H 2.949826 2.893366 -1.408220 0
M  V30 41 H 4.030748 7.147088 0.766572 0
M  V30 42 H 4.983127 5.608944 1.126359 0
M  V30 43 H 2.568445 1.132900 -2.263502 0
M  V30 44 H -1.278863 -3.591053 -1.246709 0
M  V30 45 H -1.944530 -4.732056 -0.097580 0
M  V30 46 H -3.881539 -3.987997 1.226462 0
M  V30 47 H -5.599088 -2.199965 1.619115 0
M  V30 48 H -5.282690 0.060550 0.709865 0
M  V30 49 H -3.292867 0.546224 -0.567010 0
M  V30 50 H -1.607457 -1.111714 -0.979561 0
M  V30 END ATOM
M  V30 BEGIN BOND
M  V30 1 1 1 2
M  V30 2 1 2 3
M  V30 3 2 3 4
M  V30 4 1 4 5
M  V30 5 2 5 6
M  V30 6 1 6 7
M  V30 7 1 7 8
M  V30 8 2 8 9
M  V30 9 1 9 10
M  V30 10 2 10 11
M  V30 11 1 11 12
M  V30 12 2 12 13
M  V30 13 1 13 14
M  V30 14 2 14 15
M  V30 15 1 14 16
M  V30 16 1 16 17
M  V30 17 1 17 18
M  V30 18 1 9 19
M  V30 19 1 19 20
M  V30 20 2 20 21
M  V30 21 1 20 22
M  V30 22 1 22 23
M  V30 23 3 23 24
M  V30 24 1 6 25
M  V30 25 1 25 26
M  V30 26 1 26 27
M  V30 27 2 27 28
M  V30 28 1 28 29
M  V30 29 2 29 30
M  V30 30 1 30 31
M  V30 31 2 31 32
M  V30 32 1 25 3
M  V30 33 1 32 27
M  V30 34 2 22 7
M  V30 35 1 15 10
M  V30 36 1 18 13
M  V30 37 1 1 33
M  V30 38 1 1 34
M  V30 39 1 1 35
M  V30 40 1 5 36
M  V30 41 1 8 37
M  V30 42 1 11 38
M  V30 43 1 12 39
M  V30 44 1 15 40
M  V30 45 1 17 41
M  V30 46 1 17 42
M  V30 47 1 19 43
M  V30 48 1 26 44
M  V30 49 1 26 45
M  V30 50 1 28 46
M  V30 51 1 29 47
M  V30 52 1 30 48
M  V30 53 1 31 49
M  V30 54 1 32 50
M  V30 END BOND
M  V30 END CTAB
M  END
>  <Dataset>  (666) 
ChEMBL_Kinases

>  <Ligand_Instance>  (666) 
nan

>  <PDB_ID>  (666) 
nan

>  <Standardized_SMILES>  (666) 
CSc1ncc(-c2cc(-c3ccc4c(c3)OCO4)[nH]c(=O)c2C#N)n1Cc1ccccc1

>  <Name>  (666) 
nan

>  <Pocket>  (666) 
nan

>  <ATP_Site>  (666) 
nan

>  <Peripheral>  (666) 
nan

>  <Num_H_Atoms_ProtBoundConf>  (666) 
nan

>  <Num_Resolved_Atoms>  (666) 
nan

>  <Num_Not_Resolved_Atoms>  (666) 
nan

$$$$
CHEMBL4591428
     RDKit          3D

  0  0  0  0  0  0  0  0  0  0999 V3000
M  V30 BEGIN CTAB
M  V30 COUNTS 41 43 0 0 0
M  V30 BEGIN ATOM
M  V30 1 C -1.375224 -5.253085 1.822921 0
M  V30 2 C -0.002269 -4.674044 1.914252 0
M  V30 3 C -0.004744 -3.191100 2.249850 0
M  V30 4 C -0.759475 -2.494636 1.149006 0
M  V30 5 N -0.834988 -1.063527 1.349126 0
M  V30 6 C -1.650023 -0.630089 2.481085 0
M  V30 7 C -0.172542 -0.122110 0.512042 0
M  V30 8 N 0.758040 0.652423 1.089307 0
M  V30 9 C 1.433453 1.561078 0.367701 0
M  V30 10 C 2.428847 2.365050 1.063368 0
M  V30 11 C 3.166283 3.322094 0.382202 0
M  V30 12 C 4.109830 4.087083 1.028388 0
M  V30 13 N 4.302101 3.887015 2.335665 0
M  V30 14 C 3.604695 2.972794 3.010091 0
M  V30 15 C 2.655453 2.190106 2.403168 0
M  V30 16 N 1.231913 1.753763 -0.943151 0
M  V30 17 C 0.308910 1.001879 -1.568295 0
M  V30 18 C 0.015798 1.116491 -2.922490 0
M  V30 19 N -0.916952 0.333264 -3.469906 0
M  V30 20 C -1.605275 -0.585694 -2.756556 0
M  V30 21 C -1.358915 -0.747671 -1.403927 0
M  V30 22 C -0.398242 0.060250 -0.844920 0
M  V30 23 H -1.612351 -5.477300 0.766465 0
M  V30 24 H -1.447254 -6.187427 2.433231 0
M  V30 25 H -2.189772 -4.599433 2.198600 0
M  V30 26 H 0.517608 -4.802340 0.932623 0
M  V30 27 H 0.583564 -5.247719 2.662343 0
M  V30 28 H 1.053201 -2.880586 2.318706 0
M  V30 29 H -0.477280 -3.062040 3.240992 0
M  V30 30 H -0.213951 -2.761656 0.202769 0
M  V30 31 H -1.756760 -2.952420 1.078658 0
M  V30 32 H -2.576016 -1.240176 2.559093 0
M  V30 33 H -2.008730 0.425159 2.341848 0
M  V30 34 H -1.084770 -0.620971 3.434882 0
M  V30 35 H 2.960074 3.428411 -0.662702 0
M  V30 36 H 4.621280 4.799221 0.396607 0
M  V30 37 H 3.815369 2.862292 4.083346 0
M  V30 38 H 2.117601 1.459096 3.008606 0
M  V30 39 H 0.570060 1.861833 -3.513253 0
M  V30 40 H -2.334065 -1.158347 -3.313537 0
M  V30 41 H -1.921645 -1.482980 -0.863119 0
M  V30 END ATOM
M  V30 BEGIN BOND
M  V30 1 1 1 2
M  V30 2 1 2 3
M  V30 3 1 3 4
M  V30 4 1 4 5
M  V30 5 1 5 6
M  V30 6 1 5 7
M  V30 7 2 7 8
M  V30 8 1 8 9
M  V30 9 1 9 10
M  V30 10 2 10 11
M  V30 11 1 11 12
M  V30 12 2 12 13
M  V30 13 1 13 14
M  V30 14 2 14 15
M  V30 15 2 9 16
M  V30 16 1 16 17
M  V30 17 2 17 18
M  V30 18 1 18 19
M  V30 19 2 19 20
M  V30 20 1 20 21
M  V30 21 2 21 22
M  V30 22 1 22 7
M  V30 23 1 15 10
M  V30 24 1 22 17
M  V30 25 1 1 23
M  V30 26 1 1 24
M  V30 27 1 1 25
M  V30 28 1 2 26
M  V30 29 1 2 27
M  V30 30 1 3 28
M  V30 31 1 3 29
M  V30 32 1 4 30
M  V30 33 1 4 31
M  V30 34 1 6 32
M  V30 35 1 6 33
M  V30 36 1 6 34
M  V30 37 1 11 35
M  V30 38 1 12 36
M  V30 39 1 14 37
M  V30 40 1 15 38
M  V30 41 1 18 39
M  V30 42 1 20 40
M  V30 43 1 21 41
M  V30 END BOND
M  V30 END CTAB
M  END
>  <Dataset>  (667) 
ChEMBL_Kinases

>  <Ligand_Instance>  (667) 
nan

>  <PDB_ID>  (667) 
nan

>  <Standardized_SMILES>  (667) 
CCCCN(C)c1nc(-c2ccncc2)nc2cnccc12

>  <Name>  (667) 
nan

>  <Pocket>  (667) 
nan

>  <ATP_Site>  (667) 
nan

>  <Peripheral>  (667) 
nan

>  <Num_H_Atoms_ProtBoundConf>  (667) 
nan

>  <Num_Resolved_Atoms>  (667) 
nan

>  <Num_Not_Resolved_Atoms>  (667) 
nan

$$$$
CHEMBL459577
     RDKit          3D

  0  0  0  0  0  0  0  0  0  0999 V3000
M  V30 BEGIN CTAB
M  V30 COUNTS 27 28 0 0 0
M  V30 BEGIN ATOM
M  V30 1 O -1.322956 -1.173903 2.695553 0
M  V30 2 C -1.931709 -1.725390 1.547495 0
M  V30 3 C -1.416844 -3.079606 1.236496 0
M  V30 4 C 0.015293 -3.286939 0.992529 0
M  V30 5 C 0.708851 -2.623463 -0.136261 0
M  V30 6 N 0.762041 -1.201223 -0.166724 0
M  V30 7 N 0.062960 -0.208568 -0.686623 0
M  V30 8 C 0.641602 0.943408 -0.333958 0
M  V30 9 C 0.244958 2.242190 -0.657847 0
M  V30 10 Br -1.309637 2.538528 -1.738744 0
M  V30 11 C 0.985226 3.304190 -0.190457 0
M  V30 12 Br 0.412080 5.061623 -0.653785 0
M  V30 13 C 2.106536 3.048067 0.590853 0
M  V30 14 Br 3.117147 4.529482 1.227694 0
M  V30 15 C 2.455366 1.742024 0.882140 0
M  V30 16 Br 4.001008 1.395481 1.958854 0
M  V30 17 C 1.743495 0.656988 0.435186 0
M  V30 18 N 1.791888 -0.677006 0.520929 0
M  V30 19 H -1.121905 -1.869911 3.376030 0
M  V30 20 H -3.008904 -1.891615 1.921834 0
M  V30 21 H -1.961395 -0.981912 0.774081 0
M  V30 22 H -1.769143 -3.738747 2.102975 0
M  V30 23 H -2.028293 -3.515296 0.383589 0
M  V30 24 H 0.628341 -3.177744 1.949532 0
M  V30 25 H 0.131174 -4.411102 0.781791 0
M  V30 26 H 1.729200 -3.076744 -0.240845 0
M  V30 27 H 0.179281 -2.967176 -1.094081 0
M  V30 END ATOM
M  V30 BEGIN BOND
M  V30 1 1 1 2
M  V30 2 1 2 3
M  V30 3 1 3 4
M  V30 4 1 4 5
M  V30 5 1 5 6
M  V30 6 1 6 7
M  V30 7 2 7 8
M  V30 8 1 8 9
M  V30 9 1 9 10
M  V30 10 2 9 11
M  V30 11 1 11 12
M  V30 12 1 11 13
M  V30 13 1 13 14
M  V30 14 2 13 15
M  V30 15 1 15 16
M  V30 16 1 15 17
M  V30 17 2 17 18
M  V30 18 1 18 6
M  V30 19 1 17 8
M  V30 20 1 1 19
M  V30 21 1 2 20
M  V30 22 1 2 21
M  V30 23 1 3 22
M  V30 24 1 3 23
M  V30 25 1 4 24
M  V30 26 1 4 25
M  V30 27 1 5 26
M  V30 28 1 5 27
M  V30 END BOND
M  V30 END CTAB
M  END
>  <Dataset>  (668) 
ChEMBL_Kinases

>  <Ligand_Instance>  (668) 
nan

>  <PDB_ID>  (668) 
nan

>  <Standardized_SMILES>  (668) 
OCCCCn1nc2c(Br)c(Br)c(Br)c(Br)c2n1

>  <Name>  (668) 
nan

>  <Pocket>  (668) 
nan

>  <ATP_Site>  (668) 
nan

>  <Peripheral>  (668) 
nan

>  <Num_H_Atoms_ProtBoundConf>  (668) 
nan

>  <Num_Resolved_Atoms>  (668) 
nan

>  <Num_Not_Resolved_Atoms>  (668) 
nan

$$$$
CHEMBL4591205
     RDKit          3D

  0  0  0  0  0  0  0  0  0  0999 V3000
M  V30 BEGIN CTAB
M  V30 COUNTS 52 55 0 0 0
M  V30 BEGIN ATOM
M  V30 1 C 2.442923 -3.615844 4.650135 0
M  V30 2 C 2.232318 -2.593062 3.564402 0
M  V30 3 C 1.107223 -2.642708 2.730462 0
M  V30 4 C 1.097719 -1.624661 1.806526 0
M  V30 5 C 2.024471 -0.657999 1.660363 0
M  V30 6 C 3.080530 -0.687172 2.510888 0
M  V30 7 C 3.227052 -1.645626 3.488132 0
M  V30 8 C 4.083349 0.267099 2.427153 0
M  V30 9 O 5.064751 0.246165 3.211866 0
M  V30 10 N 3.958450 1.206950 1.476634 0
M  V30 11 C 2.917348 1.244862 0.630367 0
M  V30 12 C 2.856305 2.237218 -0.318385 0
M  V30 13 C 3.944652 3.227236 -0.368894 0
M  V30 14 C 1.762481 2.224286 -1.159433 0
M  V30 15 C 0.757584 1.252133 -1.059629 0
M  V30 16 O -0.209318 1.516488 -2.053338 0
M  V30 17 C 0.865614 0.256163 -0.070795 0
M  V30 18 C -0.325900 -0.520422 -0.283246 0
M  V30 19 C -1.457180 -0.062006 0.433212 0
M  V30 20 C -2.693576 -0.626539 0.303876 0
M  V30 21 C -2.803619 -1.687368 -0.572945 0
M  V30 22 C -4.167927 -2.306631 -0.712523 0 CFG=1
M  V30 23 C -4.554497 -2.812150 0.660312 0
M  V30 24 C -5.159327 -1.264346 -1.161820 0
M  V30 25 N -4.780893 -0.702178 -2.434701 0
M  V30 26 C -1.758152 -2.181743 -1.295624 0
M  V30 27 C -0.509697 -1.615583 -1.168347 0
M  V30 28 C 1.951446 0.299513 0.735230 0
M  V30 29 H 3.473309 -4.020158 4.543218 0
M  V30 30 H 1.724945 -4.466070 4.528921 0
M  V30 31 H 2.331997 -3.119016 5.627426 0
M  V30 32 H 0.463545 -3.463880 2.967090 0
M  V30 33 H 0.215576 -1.830073 1.293398 0
M  V30 34 H 4.079561 -1.629445 4.139206 0
M  V30 35 H 4.714001 1.929009 1.410395 0
M  V30 36 H 4.941292 2.750909 -0.510977 0
M  V30 37 H 3.718067 3.933688 -1.195862 0
M  V30 38 H 4.029071 3.811313 0.563110 0
M  V30 39 H 1.802833 3.043578 -1.872477 0
M  V30 40 H -1.189001 1.449480 -1.850051 0
M  V30 41 H -1.391826 0.772937 1.129423 0
M  V30 42 H -3.546227 -0.260404 0.861542 0
M  V30 43 H -4.192980 -3.139508 -1.418353 0
M  V30 44 H -5.279027 -3.625631 0.527526 0
M  V30 45 H -3.617605 -3.202646 1.110788 0
M  V30 46 H -4.990703 -1.970075 1.243176 0
M  V30 47 H -5.308655 -0.478558 -0.409179 0
M  V30 48 H -6.134110 -1.804696 -1.282044 0
M  V30 49 H -4.377834 0.263465 -2.330227 0
M  V30 50 H -5.620899 -0.659058 -3.063847 0
M  V30 51 H -1.838501 -3.011981 -1.983507 0
M  V30 52 H 0.403381 -1.901798 -1.674885 0
M  V30 END ATOM
M  V30 BEGIN BOND
M  V30 1 1 1 2
M  V30 2 2 2 3
M  V30 3 1 3 4
M  V30 4 2 4 5
M  V30 5 1 5 6
M  V30 6 2 6 7
M  V30 7 1 6 8
M  V30 8 2 8 9
M  V30 9 1 8 10
M  V30 10 1 10 11
M  V30 11 2 11 12
M  V30 12 1 12 13
M  V30 13 1 12 14
M  V30 14 2 14 15
M  V30 15 1 15 16
M  V30 16 1 15 17
M  V30 17 1 17 18
M  V30 18 2 18 19
M  V30 19 1 19 20
M  V30 20 2 20 21
M  V30 21 1 21 22
M  V30 22 1 22 23
M  V30 23 1 22 24
M  V30 24 1 24 25
M  V30 25 1 21 26
M  V30 26 2 26 27
M  V30 27 2 17 28
M  V30 28 1 7 2
M  V30 29 1 28 11
M  V30 30 1 28 5
M  V30 31 1 27 18
M  V30 32 1 1 29
M  V30 33 1 1 30
M  V30 34 1 1 31
M  V30 35 1 3 32
M  V30 36 1 4 33
M  V30 37 1 7 34
M  V30 38 1 10 35
M  V30 39 1 13 36
M  V30 40 1 13 37
M  V30 41 1 13 38
M  V30 42 1 14 39
M  V30 43 1 16 40
M  V30 44 1 19 41
M  V30 45 1 20 42
M  V30 46 1 22 43 CFG=3
M  V30 47 1 23 44
M  V30 48 1 23 45
M  V30 49 1 23 46
M  V30 50 1 24 47
M  V30 51 1 24 48
M  V30 52 1 25 49
M  V30 53 1 25 50
M  V30 54 1 26 51
M  V30 55 1 27 52
M  V30 END BOND
M  V30 END CTAB
M  END
>  <Dataset>  (669) 
ChEMBL_Kinases

>  <Ligand_Instance>  (669) 
nan

>  <PDB_ID>  (669) 
nan

>  <Standardized_SMILES>  (669) 
Cc1ccc2c(c1)c(=O)[nH]c1c(C)cc(O)c(-c3ccc([C@@H](C)CN)cc3)c12

>  <Name>  (669) 
nan

>  <Pocket>  (669) 
nan

>  <ATP_Site>  (669) 
nan

>  <Peripheral>  (669) 
nan

>  <Num_H_Atoms_ProtBoundConf>  (669) 
nan

>  <Num_Resolved_Atoms>  (669) 
nan

>  <Num_Not_Resolved_Atoms>  (669) 
nan

$$$$
CHEMBL4587118
     RDKit          3D

  0  0  0  0  0  0  0  0  0  0999 V3000
M  V30 BEGIN CTAB
M  V30 COUNTS 54 58 0 0 0
M  V30 BEGIN ATOM
M  V30 1 C 0.205799 -1.241777 4.494961 0
M  V30 2 C 0.904713 -0.001272 4.004136 0
M  V30 3 C 1.923678 0.550255 4.752581 0
M  V30 4 N 2.598117 1.674847 4.362044 0
M  V30 5 C 2.220990 2.248277 3.179166 0
M  V30 6 N 2.795378 3.402833 2.578809 0
M  V30 7 C 3.773686 3.373777 1.547662 0
M  V30 8 C 4.353392 4.491790 0.972973 0
M  V30 9 C 5.259098 4.105345 -0.005946 0
M  V30 10 N 5.212246 2.767132 -0.007479 0
M  V30 11 N 4.346218 2.346970 0.898381 0
M  V30 12 C 4.060138 0.958769 1.136663 0
M  V30 13 N 1.230152 1.706749 2.459322 0
M  V30 14 C 0.546739 0.604617 2.810305 0
M  V30 15 C -0.524524 0.051723 1.979395 0
M  V30 16 C -0.263184 0.003194 0.598849 0
M  V30 17 C -1.387343 -0.559714 0.025781 0
M  V30 18 N -2.300040 -0.845843 1.000856 0
M  V30 19 C -1.779860 -0.473676 2.208043 0
M  V30 20 C -3.597346 -1.447325 0.783357 0
M  V30 21 C -4.039574 -1.372619 -0.649522 0
M  V30 22 N -2.958137 -1.459665 -1.609842 0
M  V30 23 C -3.163689 -2.166805 -2.864901 0
M  V30 24 C -2.714796 -3.580747 -2.740730 0
M  V30 25 C -3.497902 -4.639792 -2.308961 0
M  V30 26 C -2.920333 -5.914839 -2.261412 0
M  V30 27 C -1.617225 -6.169472 -2.620377 0
M  V30 28 F -1.058227 -7.394622 -2.577151 0
M  V30 29 C -0.800096 -5.127366 -3.059183 0
M  V30 30 F 0.488638 -5.302726 -3.425844 0
M  V30 31 C -1.416508 -3.872372 -3.091445 0
M  V30 32 C -1.685953 -0.864814 -1.381794 0
M  V30 33 O -0.855229 -0.604921 -2.285241 0
M  V30 34 H -0.508591 -1.029112 5.290230 0
M  V30 35 H -0.218742 -1.838132 3.667038 0
M  V30 36 H 0.962768 -1.938864 4.962398 0
M  V30 37 H 2.234178 0.104028 5.698075 0
M  V30 38 H 2.444939 4.300851 2.949588 0
M  V30 39 H 4.207045 5.546161 1.172160 0
M  V30 40 H 5.873071 4.729761 -0.636199 0
M  V30 41 H 4.824127 0.292948 0.638878 0
M  V30 42 H 3.096126 0.635815 0.677578 0
M  V30 43 H 4.084385 0.717606 2.215961 0
M  V30 44 H 0.599505 0.313185 0.016641 0
M  V30 45 H -2.160730 -0.521414 3.206969 0
M  V30 46 H -3.623951 -2.513999 1.078487 0
M  V30 47 H -4.316817 -0.895744 1.454359 0
M  V30 48 H -4.800092 -2.161206 -0.817221 0
M  V30 49 H -4.514541 -0.381811 -0.819452 0
M  V30 50 H -4.239423 -2.182172 -3.157734 0
M  V30 51 H -2.593471 -1.710700 -3.691703 0
M  V30 52 H -4.513514 -4.421805 -2.033414 0
M  V30 53 H -3.541146 -6.736505 -1.923042 0
M  V30 54 H -0.743182 -3.078251 -3.444355 0
M  V30 END ATOM
M  V30 BEGIN BOND
M  V30 1 1 1 2
M  V30 2 2 2 3
M  V30 3 1 3 4
M  V30 4 2 4 5
M  V30 5 1 5 6
M  V30 6 1 6 7
M  V30 7 2 7 8
M  V30 8 1 8 9
M  V30 9 2 9 10
M  V30 10 1 10 11
M  V30 11 1 11 12
M  V30 12 1 5 13
M  V30 13 2 13 14
M  V30 14 1 14 15
M  V30 15 1 15 16
M  V30 16 2 16 17
M  V30 17 1 17 18
M  V30 18 1 18 19
M  V30 19 1 18 20
M  V30 20 1 20 21
M  V30 21 1 21 22
M  V30 22 1 22 23
M  V30 23 1 23 24
M  V30 24 2 24 25
M  V30 25 1 25 26
M  V30 26 2 26 27
M  V30 27 1 27 28
M  V30 28 1 27 29
M  V30 29 1 29 30
M  V30 30 2 29 31
M  V30 31 1 22 32
M  V30 32 2 32 33
M  V30 33 1 14 2
M  V30 34 2 19 15
M  V30 35 1 31 24
M  V30 36 1 11 7
M  V30 37 1 32 17
M  V30 38 1 1 34
M  V30 39 1 1 35
M  V30 40 1 1 36
M  V30 41 1 3 37
M  V30 42 1 6 38
M  V30 43 1 8 39
M  V30 44 1 9 40
M  V30 45 1 12 41
M  V30 46 1 12 42
M  V30 47 1 12 43
M  V30 48 1 16 44
M  V30 49 1 19 45
M  V30 50 1 20 46
M  V30 51 1 20 47
M  V30 52 1 21 48
M  V30 53 1 21 49
M  V30 54 1 23 50
M  V30 55 1 23 51
M  V30 56 1 25 52
M  V30 57 1 26 53
M  V30 58 1 31 54
M  V30 END BOND
M  V30 END CTAB
M  END
>  <Dataset>  (670) 
ChEMBL_Kinases

>  <Ligand_Instance>  (670) 
nan

>  <PDB_ID>  (670) 
nan

>  <Standardized_SMILES>  (670) 
Cc1cnc(Nc2ccnn2C)nc1-c1cc2n(c1)CCN(Cc1ccc(F)c(F)c1)C2=O

>  <Name>  (670) 
nan

>  <Pocket>  (670) 
nan

>  <ATP_Site>  (670) 
nan

>  <Peripheral>  (670) 
nan

>  <Num_H_Atoms_ProtBoundConf>  (670) 
nan

>  <Num_Resolved_Atoms>  (670) 
nan

>  <Num_Not_Resolved_Atoms>  (670) 
nan

$$$$
CHEMBL4590957
     RDKit          3D

  0  0  0  0  0  0  0  0  0  0999 V3000
M  V30 BEGIN CTAB
M  V30 COUNTS 60 63 0 0 0
M  V30 BEGIN ATOM
M  V30 1 C 2.682524 -3.376923 0.605397 0
M  V30 2 C 1.948561 -2.299819 1.303601 0
M  V30 3 C 2.546231 -1.256794 1.981420 0
M  V30 4 C 1.783048 -0.291232 2.606377 0
M  V30 5 N 2.336892 0.805594 3.302235 0
M  V30 6 C 2.792739 1.097950 4.604784 0
M  V30 7 O 2.772511 0.227490 5.516870 0
M  V30 8 C 3.336702 2.333468 5.144050 0
M  V30 9 O 3.366874 3.355478 4.171106 0
M  V30 10 C 2.161174 3.835619 3.620955 0
M  V30 11 C 0.832297 3.482298 3.875091 0
M  V30 12 C -0.194645 4.090064 3.212196 0
M  V30 13 C 0.066686 5.065125 2.278866 0
M  V30 14 C -1.032251 5.645113 1.636998 0
M  V30 15 O -2.198709 5.241135 1.951574 0
M  V30 16 C -0.777945 6.627167 0.695219 0
M  V30 17 C 0.532331 6.955031 0.465046 0
M  V30 18 O 1.568192 6.405445 1.072770 0
M  V30 19 C 1.368487 5.473521 1.968974 0
M  V30 20 C 2.382022 4.831957 2.664006 0
M  V30 21 C 0.384131 -0.339877 2.572445 0
M  V30 22 C -0.221067 -1.385638 1.892658 0
M  V30 23 C 0.569858 -2.345786 1.271003 0
M  V30 24 N -0.221051 -3.344494 0.610362 0
M  V30 25 C -0.450126 -3.005966 -0.751532 0
M  V30 26 O 0.083970 -1.920158 -1.093370 0
M  V30 27 C -1.257525 -3.935206 -1.565584 0
M  V30 28 C -1.827283 -5.123343 -1.166677 0
M  V30 29 C -2.551582 -5.845980 -2.104265 0
M  V30 30 C -2.699111 -5.391880 -3.398296 0
M  V30 31 N -3.457434 -6.194129 -4.300768 0
M  V30 32 C -4.024857 -7.429410 -3.795399 0
M  V30 33 C -3.682146 -5.838538 -5.686444 0
M  V30 34 C -2.126923 -4.198778 -3.797988 0
M  V30 35 C -1.391049 -3.450060 -2.871918 0
M  V30 36 H 3.168678 -3.023085 -0.329551 0
M  V30 37 H 2.054985 -4.258593 0.480803 0
M  V30 38 H 3.531839 -3.703718 1.261739 0
M  V30 39 H 3.623423 -1.207898 2.016301 0
M  V30 40 H 2.412248 1.557895 2.587795 0
M  V30 41 H 4.421186 2.143282 5.400933 0
M  V30 42 H 2.843910 2.671083 6.081966 0
M  V30 43 H 0.790482 2.705967 4.633653 0
M  V30 44 H -1.176885 3.738465 3.488136 0
M  V30 45 H -1.608265 7.072151 0.204230 0
M  V30 46 H 0.666107 7.740443 -0.293079 0
M  V30 47 H 3.375279 5.199338 2.373549 0
M  V30 48 H -0.230793 0.420369 3.065014 0
M  V30 49 H -1.302811 -1.382760 1.892035 0
M  V30 50 H -0.569303 -4.203379 1.102569 0
M  V30 51 H -1.654325 -5.391569 -0.136076 0
M  V30 52 H -2.973604 -6.765170 -1.734667 0
M  V30 53 H -3.181339 -8.112772 -3.560534 0
M  V30 54 H -4.652702 -7.936552 -4.551985 0
M  V30 55 H -4.628557 -7.311667 -2.893460 0
M  V30 56 H -3.690180 -6.815721 -6.253603 0
M  V30 57 H -4.632094 -5.315129 -5.849925 0
M  V30 58 H -2.811475 -5.289970 -6.135575 0
M  V30 59 H -2.243550 -3.841264 -4.818720 0
M  V30 60 H -0.977106 -2.533152 -3.258443 0
M  V30 END ATOM
M  V30 BEGIN BOND
M  V30 1 1 1 2
M  V30 2 2 2 3
M  V30 3 1 3 4
M  V30 4 1 4 5
M  V30 5 1 5 6
M  V30 6 2 6 7
M  V30 7 1 6 8
M  V30 8 1 8 9
M  V30 9 1 9 10
M  V30 10 2 10 11
M  V30 11 1 11 12
M  V30 12 2 12 13
M  V30 13 1 13 14
M  V30 14 2 14 15
M  V30 15 1 14 16
M  V30 16 2 16 17
M  V30 17 1 17 18
M  V30 18 1 18 19
M  V30 19 2 19 20
M  V30 20 2 4 21
M  V30 21 1 21 22
M  V30 22 2 22 23
M  V30 23 1 23 24
M  V30 24 1 24 25
M  V30 25 2 25 26
M  V30 26 1 25 27
M  V30 27 2 27 28
M  V30 28 1 28 29
M  V30 29 2 29 30
M  V30 30 1 30 31
M  V30 31 1 31 32
M  V30 32 1 31 33
M  V30 33 1 30 34
M  V30 34 2 34 35
M  V30 35 1 23 2
M  V30 36 1 35 27
M  V30 37 1 20 10
M  V30 38 1 19 13
M  V30 39 1 1 36
M  V30 40 1 1 37
M  V30 41 1 1 38
M  V30 42 1 3 39
M  V30 43 1 5 40
M  V30 44 1 8 41
M  V30 45 1 8 42
M  V30 46 1 11 43
M  V30 47 1 12 44
M  V30 48 1 16 45
M  V30 49 1 17 46
M  V30 50 1 20 47
M  V30 51 1 21 48
M  V30 52 1 22 49
M  V30 53 1 24 50
M  V30 54 1 28 51
M  V30 55 1 29 52
M  V30 56 1 32 53
M  V30 57 1 32 54
M  V30 58 1 32 55
M  V30 59 1 33 56
M  V30 60 1 33 57
M  V30 61 1 33 58
M  V30 62 1 34 59
M  V30 63 1 35 60
M  V30 END BOND
M  V30 END CTAB
M  END
>  <Dataset>  (671) 
ChEMBL_Kinases

>  <Ligand_Instance>  (671) 
nan

>  <PDB_ID>  (671) 
nan

>  <Standardized_SMILES>  (671) 
Cc1cc(NC(=O)COc2ccc3c(=O)ccoc3c2)ccc1NC(=O)c1ccc(N(C)C)cc1

>  <Name>  (671) 
nan

>  <Pocket>  (671) 
nan

>  <ATP_Site>  (671) 
nan

>  <Peripheral>  (671) 
nan

>  <Num_H_Atoms_ProtBoundConf>  (671) 
nan

>  <Num_Resolved_Atoms>  (671) 
nan

>  <Num_Not_Resolved_Atoms>  (671) 
nan

$$$$
CHEMBL4590906
     RDKit          3D

  0  0  0  0  0  0  0  0  0  0999 V3000
M  V30 BEGIN CTAB
M  V30 COUNTS 62 65 0 0 0
M  V30 BEGIN ATOM
M  V30 1 C 2.958818 -1.626656 5.966553 0
M  V30 2 N 2.242194 -1.170113 4.743506 0
M  V30 3 C 3.264983 -1.289324 3.698595 0
M  V30 4 C 1.829190 0.186030 4.923541 0
M  V30 5 C 0.808778 0.763979 4.019255 0
M  V30 6 C 1.045662 0.815996 2.560313 0 CFG=2
M  V30 7 C -0.129092 1.485051 1.855121 0
M  V30 8 C -0.268544 1.183493 0.426248 0 CFG=1
M  V30 9 C -0.142139 2.512626 -0.302073 0
M  V30 10 C -1.131722 3.071104 -1.096728 0
M  V30 11 C -0.880880 4.289856 -1.699983 0
M  V30 12 C 0.325875 4.948397 -1.523508 0
M  V30 13 Cl 0.539681 6.492449 -2.338644 0
M  V30 14 C 1.321918 4.408267 -0.736717 0
M  V30 15 Cl 2.854336 5.255069 -0.520914 0
M  V30 16 C 1.058357 3.192010 -0.140880 0
M  V30 17 C 0.677248 0.242636 -0.216695 0 CFG=2
M  V30 18 N -0.086583 -0.686877 -1.048018 0
M  V30 19 C -0.222076 -0.883228 -2.442282 0
M  V30 20 O 0.418168 -0.134718 -3.217346 0
M  V30 21 C -1.096635 -1.942301 -2.927644 0
M  V30 22 C -1.830945 -2.892133 -2.235052 0
M  V30 23 C -2.547057 -3.730521 -3.053937 0
M  V30 24 C -3.397442 -4.822283 -2.668418 0
M  V30 25 C -4.145300 -5.689388 -3.412951 0
M  V30 26 Cl -4.380947 -5.816774 -5.122445 0
M  V30 27 C -4.829056 -6.617324 -2.680696 0
M  V30 28 N -4.491818 -6.314141 -1.417981 0
M  V30 29 N -3.662960 -5.273279 -1.434925 0
M  V30 30 C -3.159496 -4.779374 -0.141804 0
M  V30 31 C -2.189080 -3.216471 -4.268420 0
M  V30 32 Cl -2.663125 -3.710497 -5.857597 0
M  V30 33 O -1.356482 -2.191552 -4.181931 0
M  V30 34 C 1.565354 -0.508093 0.741172 0
M  V30 35 N 0.981977 -0.572656 2.066101 0
M  V30 36 H 4.046712 -1.551571 5.855760 0
M  V30 37 H 2.672748 -2.676761 6.098086 0
M  V30 38 H 2.615756 -1.066020 6.858306 0
M  V30 39 H 3.451445 -0.336759 3.193729 0
M  V30 40 H 2.961297 -2.126016 3.048518 0
M  V30 41 H 4.239879 -1.543940 4.193329 0
M  V30 42 H 1.472400 0.258848 5.986636 0
M  V30 43 H 2.761686 0.846747 4.939909 0
M  V30 44 H -0.154794 0.179457 4.250294 0
M  V30 45 H 0.510861 1.804311 4.351015 0
M  V30 46 H 1.986569 1.286368 2.313902 0
M  V30 47 H -1.035795 1.071041 2.384753 0
M  V30 48 H -0.164315 2.581097 2.111139 0
M  V30 49 H -1.326960 0.857292 0.151388 0
M  V30 50 H -2.056831 2.502064 -1.192572 0
M  V30 51 H -1.712447 4.638434 -2.295353 0
M  V30 52 H 1.898678 2.825855 0.469764 0
M  V30 53 H 1.325579 0.791987 -0.924312 0
M  V30 54 H -0.605518 -1.287704 -0.339313 0
M  V30 55 H -1.734336 -2.832365 -1.166257 0
M  V30 56 H -5.491780 -7.432044 -2.843710 0
M  V30 57 H -3.488430 -5.464618 0.683300 0
M  V30 58 H -2.053612 -4.820795 -0.082169 0
M  V30 59 H -3.474727 -3.742127 0.058339 0
M  V30 60 H 1.671627 -1.558022 0.386605 0
M  V30 61 H 2.577991 -0.080365 0.799767 0
M  V30 62 H 0.023978 -0.925893 2.080039 0
M  V30 END ATOM
M  V30 BEGIN BOND
M  V30 1 1 1 2
M  V30 2 1 2 3
M  V30 3 1 2 4
M  V30 4 1 4 5
M  V30 5 1 5 6
M  V30 6 1 6 7
M  V30 7 1 7 8
M  V30 8 1 8 9
M  V30 9 2 9 10
M  V30 10 1 10 11
M  V30 11 2 11 12
M  V30 12 1 12 13
M  V30 13 1 12 14
M  V30 14 1 14 15
M  V30 15 2 14 16
M  V30 16 1 8 17
M  V30 17 1 17 18
M  V30 18 1 18 19
M  V30 19 2 19 20
M  V30 20 1 19 21
M  V30 21 2 21 22
M  V30 22 1 22 23
M  V30 23 1 23 24
M  V30 24 2 24 25
M  V30 25 1 25 26
M  V30 26 1 25 27
M  V30 27 2 27 28
M  V30 28 1 28 29
M  V30 29 1 29 30
M  V30 30 2 23 31
M  V30 31 1 31 32
M  V30 32 1 31 33
M  V30 33 1 17 34
M  V30 34 1 34 35
M  V30 35 1 35 6
M  V30 36 1 16 9
M  V30 37 1 33 21
M  V30 38 1 29 24
M  V30 39 1 1 36
M  V30 40 1 1 37
M  V30 41 1 1 38
M  V30 42 1 3 39
M  V30 43 1 3 40
M  V30 44 1 3 41
M  V30 45 1 4 42
M  V30 46 1 4 43
M  V30 47 1 5 44
M  V30 48 1 5 45
M  V30 49 1 6 46 CFG=1
M  V30 50 1 7 47
M  V30 51 1 7 48
M  V30 52 1 8 49 CFG=1
M  V30 53 1 10 50
M  V30 54 1 11 51
M  V30 55 1 16 52
M  V30 56 1 17 53 CFG=3
M  V30 57 1 18 54
M  V30 58 1 22 55
M  V30 59 1 27 56
M  V30 60 1 30 57
M  V30 61 1 30 58
M  V30 62 1 30 59
M  V30 63 1 34 60
M  V30 64 1 34 61
M  V30 65 1 35 62
M  V30 END BOND
M  V30 END CTAB
M  END
>  <Dataset>  (672) 
ChEMBL_Kinases

>  <Ligand_Instance>  (672) 
nan

>  <PDB_ID>  (672) 
nan

>  <Standardized_SMILES>  (672) 
CN(C)CC[C@@H]1C[C@@H](c2ccc(Cl)c(Cl)c2)[C@H](NC(=O)c2cc(-c3c(Cl)cnn3C)c(Cl)o2)CN1

>  <Name>  (672) 
nan

>  <Pocket>  (672) 
nan

>  <ATP_Site>  (672) 
nan

>  <Peripheral>  (672) 
nan

>  <Num_H_Atoms_ProtBoundConf>  (672) 
nan

>  <Num_Resolved_Atoms>  (672) 
nan

>  <Num_Not_Resolved_Atoms>  (672) 
nan

$$$$
CHEMBL4590865
     RDKit          3D

  0  0  0  0  0  0  0  0  0  0999 V3000
M  V30 BEGIN CTAB
M  V30 COUNTS 64 67 0 0 0
M  V30 BEGIN ATOM
M  V30 1 C -0.246353 -4.226310 2.913484 0
M  V30 2 C 0.257636 -2.828863 2.976045 0
M  V30 3 N 0.844942 -2.321720 4.077924 0
M  V30 4 C 1.300107 -1.057626 4.142622 0
M  V30 5 C 1.195591 -0.185129 3.076564 0
M  V30 6 N 1.658941 1.170258 3.071184 0
M  V30 7 C 2.998318 1.182171 2.620294 0
M  V30 8 O 3.637316 0.129620 2.287452 0
M  V30 9 C 3.775531 2.436770 2.497788 0
M  V30 10 C 5.079937 2.379059 2.057183 0
M  V30 11 C 5.904424 3.477050 1.900721 0
M  V30 12 N 5.378407 4.697157 2.207531 0
M  V30 13 C 4.100861 4.776424 2.641708 0
M  V30 14 C 3.585743 6.129371 2.958913 0
M  V30 15 C 2.147765 6.084813 3.432150 0
M  V30 16 F 4.338977 6.654451 3.994772 0
M  V30 17 F 3.620395 6.984816 1.877812 0
M  V30 18 C 3.270214 3.677770 2.800020 0
M  V30 19 C 0.586022 -0.714026 1.936402 0
M  V30 20 C 0.115162 -2.020936 1.867085 0
M  V30 21 C -0.491814 -2.440747 0.603647 0
M  V30 22 C -0.153127 -3.618753 -0.013199 0
M  V30 23 C -0.761799 -3.979849 -1.218687 0
M  V30 24 N -0.397449 -5.201155 -1.849508 0
M  V30 25 C -0.989185 -5.654574 -3.094896 0
M  V30 26 C -2.473428 -5.866409 -2.995156 0
M  V30 27 O -2.913932 -6.298821 -4.248551 0
M  V30 28 N -1.683266 -3.169052 -1.775011 0
M  V30 29 C -2.054359 -1.998058 -1.209777 0
M  V30 30 N -3.038209 -1.200520 -1.876150 0
M  V30 31 C -3.490198 -1.660966 -3.171433 0
M  V30 32 C -4.998039 -1.668843 -3.186315 0
M  V30 33 O -5.489739 -1.243976 -1.956985 0
M  V30 34 C -5.041888 0.076116 -1.733135 0
M  V30 35 C -3.583296 0.018736 -1.314937 0
M  V30 36 C -1.442238 -1.668298 -0.029673 0
M  V30 37 H -1.049348 -4.323787 2.166284 0
M  V30 38 H 0.574975 -4.947565 2.789747 0
M  V30 39 H -0.729845 -4.480014 3.903761 0
M  V30 40 H 1.765748 -0.681295 5.040560 0
M  V30 41 H 1.167330 2.051853 3.336818 0
M  V30 42 H 5.575719 1.438696 1.791009 0
M  V30 43 H 6.918417 3.438046 1.558049 0
M  V30 44 H 2.031052 5.416439 4.323832 0
M  V30 45 H 1.800491 7.075813 3.784032 0
M  V30 46 H 1.450237 5.734585 2.673430 0
M  V30 47 H 2.252446 3.758983 3.148755 0
M  V30 48 H 0.495562 -0.043448 1.090665 0
M  V30 49 H 0.583314 -4.287148 0.410747 0
M  V30 50 H 0.337805 -5.808139 -1.394854 0
M  V30 51 H -0.837620 -4.878504 -3.896384 0
M  V30 52 H -0.485939 -6.563399 -3.448160 0
M  V30 53 H -2.985678 -4.963637 -2.644315 0
M  V30 54 H -2.692029 -6.660917 -2.245945 0
M  V30 55 H -3.392751 -5.594598 -4.746326 0
M  V30 56 H -3.123457 -2.697435 -3.386980 0
M  V30 57 H -3.132962 -1.004990 -3.993719 0
M  V30 58 H -5.389017 -0.998919 -4.005347 0
M  V30 59 H -5.391258 -2.704869 -3.394651 0
M  V30 60 H -5.223650 0.644308 -2.648647 0
M  V30 61 H -5.618628 0.514768 -0.910798 0
M  V30 62 H -3.052302 0.923743 -1.678981 0
M  V30 63 H -3.480620 -0.052968 -0.213463 0
M  V30 64 H -1.705494 -0.740936 0.456706 0
M  V30 END ATOM
M  V30 BEGIN BOND
M  V30 1 1 1 2
M  V30 2 2 2 3
M  V30 3 1 3 4
M  V30 4 2 4 5
M  V30 5 1 5 6
M  V30 6 1 6 7
M  V30 7 2 7 8
M  V30 8 1 7 9
M  V30 9 2 9 10
M  V30 10 1 10 11
M  V30 11 2 11 12
M  V30 12 1 12 13
M  V30 13 1 13 14
M  V30 14 1 14 15
M  V30 15 1 14 16
M  V30 16 1 14 17
M  V30 17 2 13 18
M  V30 18 1 5 19
M  V30 19 2 19 20
M  V30 20 1 20 21
M  V30 21 2 21 22
M  V30 22 1 22 23
M  V30 23 1 23 24
M  V30 24 1 24 25
M  V30 25 1 25 26
M  V30 26 1 26 27
M  V30 27 2 23 28
M  V30 28 1 28 29
M  V30 29 1 29 30
M  V30 30 1 30 31
M  V30 31 1 31 32
M  V30 32 1 32 33
M  V30 33 1 33 34
M  V30 34 1 34 35
M  V30 35 2 29 36
M  V30 36 1 20 2
M  V30 37 1 36 21
M  V30 38 1 18 9
M  V30 39 1 35 30
M  V30 40 1 1 37
M  V30 41 1 1 38
M  V30 42 1 1 39
M  V30 43 1 4 40
M  V30 44 1 6 41
M  V30 45 1 10 42
M  V30 46 1 11 43
M  V30 47 1 15 44
M  V30 48 1 15 45
M  V30 49 1 15 46
M  V30 50 1 18 47
M  V30 51 1 19 48
M  V30 52 1 22 49
M  V30 53 1 24 50
M  V30 54 1 25 51
M  V30 55 1 25 52
M  V30 56 1 26 53
M  V30 57 1 26 54
M  V30 58 1 27 55
M  V30 59 1 31 56
M  V30 60 1 31 57
M  V30 61 1 32 58
M  V30 62 1 32 59
M  V30 63 1 34 60
M  V30 64 1 34 61
M  V30 65 1 35 62
M  V30 66 1 35 63
M  V30 67 1 36 64
M  V30 END BOND
M  V30 END CTAB
M  END
>  <Dataset>  (673) 
ChEMBL_Kinases

>  <Ligand_Instance>  (673) 
nan

>  <PDB_ID>  (673) 
nan

>  <Standardized_SMILES>  (673) 
Cc1ncc(NC(=O)c2ccnc(C(C)(F)F)c2)cc1-c1cc(NCCO)nc(N2CCOCC2)c1

>  <Name>  (673) 
nan

>  <Pocket>  (673) 
nan

>  <ATP_Site>  (673) 
nan

>  <Peripheral>  (673) 
nan

>  <Num_H_Atoms_ProtBoundConf>  (673) 
nan

>  <Num_Resolved_Atoms>  (673) 
nan

>  <Num_Not_Resolved_Atoms>  (673) 
nan

$$$$
CHEMBL4590812
     RDKit          3D

  0  0  0  0  0  0  0  0  0  0999 V3000
M  V30 BEGIN CTAB
M  V30 COUNTS 54 58 0 0 0
M  V30 BEGIN ATOM
M  V30 1 C 0.791906 -3.810769 3.714984 0
M  V30 2 N 2.120253 -3.513138 3.186040 0
M  V30 3 C 3.236914 -4.393291 3.534817 0
M  V30 4 C 4.567377 -3.751743 3.340350 0
M  V30 5 O 4.536350 -2.412425 2.928311 0
M  V30 6 C 3.504863 -1.806716 2.227600 0
M  V30 7 C 2.244719 -2.367046 2.351645 0
M  V30 8 C 1.189735 -1.794294 1.670273 0
M  V30 9 N 1.391618 -0.707467 0.898895 0
M  V30 10 N 2.586587 -0.152630 0.763535 0
M  V30 11 C 3.085532 0.899790 0.088487 0
M  V30 12 C 2.300308 1.788485 -0.766984 0
M  V30 13 C 2.893700 2.846833 -1.423881 0
M  V30 14 C 2.128872 3.679112 -2.232006 0
M  V30 15 C 0.778503 3.417926 -2.354917 0
M  V30 16 C 0.200383 2.356379 -1.691998 0
M  V30 17 C -1.231214 2.146282 -1.872646 0
M  V30 18 O -1.936735 2.891386 -2.601186 0
M  V30 19 N -1.949066 1.089407 -1.246218 0
M  V30 20 C -3.356092 1.133575 -1.612720 0
M  V30 21 C -4.136073 0.006435 -0.948090 0
M  V30 22 C -4.073070 0.067925 0.528305 0
M  V30 23 C -3.724733 -1.160388 1.263411 0
M  V30 24 N -3.117172 -2.202318 0.472353 0
M  V30 25 C -4.007882 -2.491642 -0.645874 0
M  V30 26 C -3.827476 -1.313809 -1.581091 0
M  V30 27 N 0.963238 1.589486 -0.933613 0
M  V30 28 N 4.420186 1.027922 0.307849 0
M  V30 29 N 4.775995 0.035250 1.140203 0
M  V30 30 C 3.653929 -0.691710 1.422473 0
M  V30 31 H 0.785116 -4.762936 4.281754 0
M  V30 32 H 0.135966 -4.011137 2.831599 0
M  V30 33 H 0.418336 -3.006226 4.368547 0
M  V30 34 H 3.084342 -5.294699 2.893893 0
M  V30 35 H 3.093587 -4.689867 4.587768 0
M  V30 36 H 5.139486 -3.804943 4.285617 0
M  V30 37 H 5.126323 -4.319336 2.567561 0
M  V30 38 H 0.219835 -2.258777 1.790858 0
M  V30 39 H 3.955040 2.968126 -1.263979 0
M  V30 40 H 2.649162 4.496662 -2.724670 0
M  V30 41 H 0.237373 4.104431 -3.000292 0
M  V30 42 H -1.435737 0.415192 -0.616533 0
M  V30 43 H -3.842649 2.086900 -1.300565 0
M  V30 44 H -3.495055 1.060773 -2.713453 0
M  V30 45 H -5.204435 0.226918 -1.247567 0
M  V30 46 H -5.008209 0.514273 0.979743 0
M  V30 47 H -3.293204 0.839836 0.791368 0
M  V30 48 H -4.651998 -1.632672 1.691949 0
M  V30 49 H -3.060787 -0.985271 2.138429 0
M  V30 50 H -3.069836 -3.071815 1.046018 0
M  V30 51 H -5.061367 -2.621887 -0.336198 0
M  V30 52 H -3.709076 -3.397839 -1.196559 0
M  V30 53 H -4.395889 -1.483500 -2.523811 0
M  V30 54 H -2.736818 -1.302466 -1.851085 0
M  V30 END ATOM
M  V30 BEGIN BOND
M  V30 1 1 1 2
M  V30 2 1 2 3
M  V30 3 1 3 4
M  V30 4 1 4 5
M  V30 5 1 5 6
M  V30 6 2 6 7
M  V30 7 1 7 8
M  V30 8 2 8 9
M  V30 9 1 9 10
M  V30 10 1 10 11
M  V30 11 1 11 12
M  V30 12 2 12 13
M  V30 13 1 13 14
M  V30 14 2 14 15
M  V30 15 1 15 16
M  V30 16 1 16 17
M  V30 17 2 17 18
M  V30 18 1 17 19
M  V30 19 1 19 20
M  V30 20 1 20 21
M  V30 21 1 21 22
M  V30 22 1 22 23
M  V30 23 1 23 24
M  V30 24 1 24 25
M  V30 25 1 25 26
M  V30 26 2 16 27
M  V30 27 2 11 28
M  V30 28 1 28 29
M  V30 29 2 29 30
M  V30 30 1 7 2
M  V30 31 1 30 10
M  V30 32 1 30 6
M  V30 33 1 27 12
M  V30 34 1 26 21
M  V30 35 1 1 31
M  V30 36 1 1 32
M  V30 37 1 1 33
M  V30 38 1 3 34
M  V30 39 1 3 35
M  V30 40 1 4 36
M  V30 41 1 4 37
M  V30 42 1 8 38
M  V30 43 1 13 39
M  V30 44 1 14 40
M  V30 45 1 15 41
M  V30 46 1 19 42
M  V30 47 1 20 43
M  V30 48 1 20 44
M  V30 49 1 21 45
M  V30 50 1 22 46
M  V30 51 1 22 47
M  V30 52 1 23 48
M  V30 53 1 23 49
M  V30 54 1 24 50
M  V30 55 1 25 51
M  V30 56 1 25 52
M  V30 57 1 26 53
M  V30 58 1 26 54
M  V30 END BOND
M  V30 END CTAB
M  END
>  <Dataset>  (674) 
ChEMBL_Kinases

>  <Ligand_Instance>  (674) 
nan

>  <PDB_ID>  (674) 
nan

>  <Standardized_SMILES>  (674) 
CN1CCOc2c1cnn1c(-c3cccc(C(=O)NCC4CCNCC4)n3)nnc21

>  <Name>  (674) 
nan

>  <Pocket>  (674) 
nan

>  <ATP_Site>  (674) 
nan

>  <Peripheral>  (674) 
nan

>  <Num_H_Atoms_ProtBoundConf>  (674) 
nan

>  <Num_Resolved_Atoms>  (674) 
nan

>  <Num_Not_Resolved_Atoms>  (674) 
nan

$$$$
CHEMBL4590759
     RDKit          3D

  0  0  0  0  0  0  0  0  0  0999 V3000
M  V30 BEGIN CTAB
M  V30 COUNTS 42 45 0 0 0
M  V30 BEGIN ATOM
M  V30 1 O 1.506570 -2.097166 0.824963 0
M  V30 2 C 0.579575 -2.901799 0.564078 0
M  V30 3 N 1.237424 -2.436684 -0.586479 0
M  V30 4 C 2.254162 -1.602027 -1.105246 0
M  V30 5 C 3.427826 -1.842408 -1.723970 0
M  V30 6 C 4.154477 -0.727066 -2.088447 0
M  V30 7 C 3.647758 0.520437 -1.804449 0
M  V30 8 C 2.442725 0.685936 -1.170602 0
M  V30 9 N 1.727944 -0.383713 -0.811616 0
M  V30 10 C 1.856694 1.955926 -0.846792 0
M  V30 11 N 2.443554 3.141102 -1.021821 0
M  V30 12 N 1.578363 4.053175 -0.602156 0
M  V30 13 C 0.461634 3.469751 -0.167526 0
M  V30 14 N 0.629696 2.122370 -0.320209 0
M  V30 15 C -0.276652 1.004804 -0.003753 0
M  V30 16 C -1.563044 1.584757 0.499885 0
M  V30 17 C -2.619429 0.604921 0.862870 0
M  V30 18 C -2.272962 -0.357057 1.947416 0
M  V30 19 O -1.211867 -1.189764 1.658411 0
M  V30 20 C -0.674643 -2.143119 2.475357 0
M  V30 21 C -1.037259 -2.243120 3.801529 0
M  V30 22 C -0.408418 -3.245537 4.496666 0
M  V30 23 C 0.523222 -4.156042 4.065086 0
M  V30 24 Br 1.392842 -5.530028 5.000425 0
M  V30 25 C 0.863517 -4.028983 2.735900 0
M  V30 26 C 0.274743 -3.048064 1.969406 0
M  V30 27 H 0.908274 -2.833120 -1.490096 0
M  V30 28 H 3.495895 -2.914060 -1.782135 0
M  V30 29 H 5.074532 -1.001853 -2.574472 0
M  V30 30 H 4.231688 1.355876 -2.097247 0
M  V30 31 H -0.408474 4.008559 0.231685 0
M  V30 32 H -0.498334 0.392224 -0.904387 0
M  V30 33 H 0.197157 0.419889 0.814028 0
M  V30 34 H -1.988232 2.229245 -0.325912 0
M  V30 35 H -1.394669 2.237187 1.385200 0
M  V30 36 H -3.505430 1.211781 1.212150 0
M  V30 37 H -3.011679 0.090417 -0.051926 0
M  V30 38 H -2.109192 0.266593 2.873895 0
M  V30 39 H -3.207632 -0.946457 2.163169 0
M  V30 40 H -1.753601 -1.596319 4.270217 0
M  V30 41 H -0.660826 -3.369345 5.562316 0
M  V30 42 H 1.556964 -4.553764 2.096302 0
M  V30 END ATOM
M  V30 BEGIN BOND
M  V30 1 2 1 2
M  V30 2 1 2 3
M  V30 3 1 3 4
M  V30 4 1 4 5
M  V30 5 2 5 6
M  V30 6 1 6 7
M  V30 7 2 7 8
M  V30 8 1 8 9
M  V30 9 1 8 10
M  V30 10 2 10 11
M  V30 11 1 11 12
M  V30 12 2 12 13
M  V30 13 1 13 14
M  V30 14 1 14 15
M  V30 15 1 15 16
M  V30 16 1 16 17
M  V30 17 1 17 18
M  V30 18 1 18 19
M  V30 19 1 19 20
M  V30 20 2 20 21
M  V30 21 1 21 22
M  V30 22 2 22 23
M  V30 23 1 23 24
M  V30 24 1 23 25
M  V30 25 2 25 26
M  V30 26 1 26 2
M  V30 27 2 9 4
M  V30 28 1 14 10
M  V30 29 1 26 20
M  V30 30 1 3 27
M  V30 31 1 5 28
M  V30 32 1 6 29
M  V30 33 1 7 30
M  V30 34 1 13 31
M  V30 35 1 15 32
M  V30 36 1 15 33
M  V30 37 1 16 34
M  V30 38 1 16 35
M  V30 39 1 17 36
M  V30 40 1 17 37
M  V30 41 1 18 38
M  V30 42 1 18 39
M  V30 43 1 21 40
M  V30 44 1 22 41
M  V30 45 1 25 42
M  V30 END BOND
M  V30 END CTAB
M  END
>  <Dataset>  (675) 
ChEMBL_Kinases

>  <Ligand_Instance>  (675) 
nan

>  <PDB_ID>  (675) 
nan

>  <Standardized_SMILES>  (675) 
O=C1Nc2cccc(n2)-c2nncn2CCCCOc2ccc(Br)cc21

>  <Name>  (675) 
nan

>  <Pocket>  (675) 
nan

>  <ATP_Site>  (675) 
nan

>  <Peripheral>  (675) 
nan

>  <Num_H_Atoms_ProtBoundConf>  (675) 
nan

>  <Num_Resolved_Atoms>  (675) 
nan

>  <Num_Not_Resolved_Atoms>  (675) 
nan

$$$$
CHEMBL4590585
     RDKit          3D

  0  0  0  0  0  0  0  0  0  0999 V3000
M  V30 BEGIN CTAB
M  V30 COUNTS 38 41 0 0 0
M  V30 BEGIN ATOM
M  V30 1 O 1.833171 -1.851156 2.877528 0
M  V30 2 C 0.583484 -1.981470 2.904422 0
M  V30 3 N -0.146487 -2.537491 1.824600 0
M  V30 4 C 0.461090 -2.997585 0.616561 0
M  V30 5 C 0.978567 -4.198465 0.174714 0
M  V30 6 N 1.430611 -4.025787 -1.097742 0
M  V30 7 C 1.211263 -2.749432 -1.467057 0
M  V30 8 N 1.534987 -2.211990 -2.678582 0
M  V30 9 C 1.238922 -0.899677 -2.879522 0
M  V30 10 C 0.629611 -0.152019 -1.875855 0
M  V30 11 C 0.293004 1.261757 -2.047454 0
M  V30 12 C 0.315456 2.092662 -0.944342 0
M  V30 13 C 0.006491 3.411757 -1.077167 0
M  V30 14 C -0.337054 3.996670 -2.265256 0
M  V30 15 C -0.356720 3.153957 -3.367234 0
M  V30 16 C -0.050047 1.808904 -3.277447 0
M  V30 17 C 0.325745 -0.750856 -0.670223 0
M  V30 18 C 0.599279 -2.074886 -0.403485 0
M  V30 19 C -0.078565 -1.524087 4.120359 0
M  V30 20 C 0.685272 -0.990430 5.138856 0
M  V30 21 C 0.105481 -0.535744 6.327050 0
M  V30 22 C -1.249068 -0.617426 6.493406 0
M  V30 23 N -1.996546 -1.142384 5.490442 0
M  V30 24 C -1.436880 -1.577508 4.352164 0
M  V30 25 H -1.184558 -2.642689 1.853796 0
M  V30 26 H 0.926312 -5.010511 0.896632 0
M  V30 27 H 1.852677 -4.853062 -1.568453 0
M  V30 28 H 1.448358 -0.366398 -3.798096 0
M  V30 29 H 0.578686 1.716081 0.051160 0
M  V30 30 H 0.030349 4.043813 -0.200520 0
M  V30 31 H -0.570222 5.046232 -2.302102 0
M  V30 32 H -0.632379 3.626139 -4.317427 0
M  V30 33 H -0.073619 1.176855 -4.151746 0
M  V30 34 H -0.154228 -0.199558 0.147437 0
M  V30 35 H 1.767015 -0.886726 5.094043 0
M  V30 36 H 0.697163 -0.120214 7.120122 0
M  V30 37 H -1.728299 -0.268208 7.415163 0
M  V30 38 H -2.063601 -1.990201 3.573432 0
M  V30 END ATOM
M  V30 BEGIN BOND
M  V30 1 2 1 2
M  V30 2 1 2 3
M  V30 3 1 3 4
M  V30 4 2 4 5
M  V30 5 1 5 6
M  V30 6 1 6 7
M  V30 7 2 7 8
M  V30 8 1 8 9
M  V30 9 2 9 10
M  V30 10 1 10 11
M  V30 11 2 11 12
M  V30 12 1 12 13
M  V30 13 2 13 14
M  V30 14 1 14 15
M  V30 15 2 15 16
M  V30 16 1 10 17
M  V30 17 2 17 18
M  V30 18 1 2 19
M  V30 19 2 19 20
M  V30 20 1 20 21
M  V30 21 2 21 22
M  V30 22 1 22 23
M  V30 23 2 23 24
M  V30 24 1 18 4
M  V30 25 1 24 19
M  V30 26 1 18 7
M  V30 27 1 16 11
M  V30 28 1 3 25
M  V30 29 1 5 26
M  V30 30 1 6 27
M  V30 31 1 9 28
M  V30 32 1 12 29
M  V30 33 1 13 30
M  V30 34 1 14 31
M  V30 35 1 15 32
M  V30 36 1 16 33
M  V30 37 1 17 34
M  V30 38 1 20 35
M  V30 39 1 21 36
M  V30 40 1 22 37
M  V30 41 1 24 38
M  V30 END BOND
M  V30 END CTAB
M  END
>  <Dataset>  (676) 
ChEMBL_Kinases

>  <Ligand_Instance>  (676) 
nan

>  <PDB_ID>  (676) 
nan

>  <Standardized_SMILES>  (676) 
O=C(Nc1c[nH]c2ncc(-c3ccccc3)cc12)c1cccnc1

>  <Name>  (676) 
nan

>  <Pocket>  (676) 
nan

>  <ATP_Site>  (676) 
nan

>  <Peripheral>  (676) 
nan

>  <Num_H_Atoms_ProtBoundConf>  (676) 
nan

>  <Num_Resolved_Atoms>  (676) 
nan

>  <Num_Not_Resolved_Atoms>  (676) 
nan

$$$$
CHEMBL4590548
     RDKit          3D

  0  0  0  0  0  0  0  0  0  0999 V3000
M  V30 BEGIN CTAB
M  V30 COUNTS 46 49 0 0 0
M  V30 BEGIN ATOM
M  V30 1 N 3.624098 -4.321869 1.564997 0
M  V30 2 C 3.683410 -3.177808 0.750154 0
M  V30 3 O 4.849437 -3.411045 0.373888 0
M  V30 4 C 2.665185 -2.171302 0.525985 0
M  V30 5 C 2.968617 -1.129881 -0.320199 0
M  V30 6 C 1.981951 -0.178901 -0.521157 0
M  V30 7 C 2.266202 0.947487 -1.414708 0
M  V30 8 C 1.611035 2.138457 -1.079198 0
M  V30 9 C 1.795886 3.274195 -1.842852 0
M  V30 10 C 2.643446 3.227384 -2.955963 0
M  V30 11 C 3.282844 2.031901 -3.268388 0
M  V30 12 C 3.103138 0.891686 -2.509629 0
M  V30 13 C 0.753376 -0.287985 0.108864 0
M  V30 14 C 0.514965 -1.367106 0.951285 0
M  V30 15 C -0.610422 -1.699602 1.686942 0
M  V30 16 C -1.860273 -0.888031 1.699295 0
M  V30 17 C -1.732061 0.123553 2.808003 0
M  V30 18 C -2.677110 1.292333 2.601623 0
M  V30 19 S -4.281509 0.542958 2.321304 0
M  V30 20 O -5.349330 1.237410 3.083161 0
M  V30 21 O -4.560749 0.502998 0.851970 0
M  V30 22 C -4.079486 -1.169174 2.830146 0
M  V30 23 C -3.081786 -1.758240 1.851002 0
M  V30 24 C -0.328912 -2.871740 2.357608 0
M  V30 25 N 0.922699 -3.236723 2.039712 0
M  V30 26 C 1.475521 -2.356478 1.190256 0
M  V30 27 H 3.243814 -5.268473 1.274742 0
M  V30 28 H 3.892233 -4.565871 2.555961 0
M  V30 29 H 3.945101 -1.081139 -0.795373 0
M  V30 30 H 0.941108 2.297596 -0.254724 0
M  V30 31 H 1.317863 4.233311 -1.638814 0
M  V30 32 H 2.831833 4.085351 -3.597996 0
M  V30 33 H 3.936904 2.014898 -4.136169 0
M  V30 34 H 3.576887 -0.040081 -2.720321 0
M  V30 35 H -0.004018 0.471351 -0.065348 0
M  V30 36 H -1.976596 -0.324072 0.750746 0
M  V30 37 H -1.847418 -0.319460 3.796909 0
M  V30 38 H -0.682426 0.519033 2.747587 0
M  V30 39 H -2.692380 1.874102 3.531182 0
M  V30 40 H -2.363628 1.895044 1.730383 0
M  V30 41 H -5.017890 -1.747276 2.714743 0
M  V30 42 H -3.694167 -1.181468 3.856702 0
M  V30 43 H -3.651850 -1.867760 0.891320 0
M  V30 44 H -2.814089 -2.789835 2.158440 0
M  V30 45 H -1.045560 -3.352189 3.008909 0
M  V30 46 H 1.412404 -4.084010 2.394920 0
M  V30 END ATOM
M  V30 BEGIN BOND
M  V30 1 1 1 2
M  V30 2 2 2 3
M  V30 3 1 2 4
M  V30 4 2 4 5
M  V30 5 1 5 6
M  V30 6 1 6 7
M  V30 7 2 7 8
M  V30 8 1 8 9
M  V30 9 2 9 10
M  V30 10 1 10 11
M  V30 11 2 11 12
M  V30 12 2 6 13
M  V30 13 1 13 14
M  V30 14 1 14 15
M  V30 15 1 15 16
M  V30 16 1 16 17
M  V30 17 1 17 18
M  V30 18 1 18 19
M  V30 19 2 19 20
M  V30 20 2 19 21
M  V30 21 1 19 22
M  V30 22 1 22 23
M  V30 23 2 15 24
M  V30 24 1 24 25
M  V30 25 1 25 26
M  V30 26 1 26 4
M  V30 27 1 12 7
M  V30 28 2 26 14
M  V30 29 1 23 16
M  V30 30 1 1 27
M  V30 31 1 1 28
M  V30 32 1 5 29
M  V30 33 1 8 30
M  V30 34 1 9 31
M  V30 35 1 10 32
M  V30 36 1 11 33
M  V30 37 1 12 34
M  V30 38 1 13 35
M  V30 39 1 16 36
M  V30 40 1 17 37
M  V30 41 1 17 38
M  V30 42 1 18 39
M  V30 43 1 18 40
M  V30 44 1 22 41
M  V30 45 1 22 42
M  V30 46 1 23 43
M  V30 47 1 23 44
M  V30 48 1 24 45
M  V30 49 1 25 46
M  V30 END BOND
M  V30 END CTAB
M  END
>  <Dataset>  (677) 
ChEMBL_Kinases

>  <Ligand_Instance>  (677) 
nan

>  <PDB_ID>  (677) 
nan

>  <Standardized_SMILES>  (677) 
NC(=O)c1cc(-c2ccccc2)cc2c(C3CCS(=O)(=O)CC3)c[nH]c12

>  <Name>  (677) 
nan

>  <Pocket>  (677) 
nan

>  <ATP_Site>  (677) 
nan

>  <Peripheral>  (677) 
nan

>  <Num_H_Atoms_ProtBoundConf>  (677) 
nan

>  <Num_Resolved_Atoms>  (677) 
nan

>  <Num_Not_Resolved_Atoms>  (677) 
nan

$$$$
CHEMBL4590543
     RDKit          3D

  0  0  0  0  0  0  0  0  0  0999 V3000
M  V30 BEGIN CTAB
M  V30 COUNTS 36 37 0 0 0
M  V30 BEGIN ATOM
M  V30 1 O 2.668775 -2.566746 2.769100 0
M  V30 2 C 1.430771 -2.241994 2.801534 0
M  V30 3 C 0.435717 -2.497646 1.742857 0
M  V30 4 C 0.993137 -3.205432 0.554966 0
M  V30 5 C 2.106264 -2.472460 -0.147336 0
M  V30 6 N 1.704961 -1.177163 -0.643357 0
M  V30 7 C 2.465313 -0.180696 -1.357935 0
M  V30 8 S 4.019965 -0.683682 -1.601151 0
M  V30 9 N 1.921883 1.062670 -1.784731 0
M  V30 10 C 0.547903 1.035867 -1.344434 0
M  V30 11 C -0.391776 0.538986 -2.234289 0
M  V30 12 C -1.738421 0.487106 -1.860653 0
M  V30 13 C -2.041313 0.949682 -0.592007 0
M  V30 14 C -1.112120 1.444645 0.296961 0
M  V30 15 C 0.221666 1.490972 -0.085913 0
M  V30 16 C -1.799184 1.838773 1.538891 0
M  V30 17 O -1.227757 2.325257 2.540920 0
M  V30 18 N -3.204024 1.564537 1.379167 0
M  V30 19 C -3.347938 1.017924 0.067247 0
M  V30 20 O -4.481825 0.688371 -0.331943 0
M  V30 21 N 1.052366 -1.577526 3.998089 0
M  V30 22 O 1.903185 -1.304887 5.016474 0
M  V30 23 H -0.357146 -3.151832 2.164290 0
M  V30 24 H -0.096341 -1.569867 1.408087 0
M  V30 25 H 0.161169 -3.279042 -0.186046 0
M  V30 26 H 1.365112 -4.200911 0.796714 0
M  V30 27 H 3.040417 -2.434144 0.469600 0
M  V30 28 H 2.373431 -3.089589 -1.040573 0
M  V30 29 H 0.693500 -0.907198 -0.457886 0
M  V30 30 H 2.610247 1.666170 -2.288195 0
M  V30 31 H -0.150152 0.183533 -3.211798 0
M  V30 32 H -2.532404 0.113458 -2.498191 0
M  V30 33 H 0.993110 1.863244 0.556327 0
M  V30 34 H -3.929829 1.752299 2.120641 0
M  V30 35 H 0.046829 -1.286339 4.082529 0
M  V30 36 H 1.868179 -0.323213 5.157027 0
M  V30 END ATOM
M  V30 BEGIN BOND
M  V30 1 2 1 2
M  V30 2 1 2 3
M  V30 3 1 3 4
M  V30 4 1 4 5
M  V30 5 1 5 6
M  V30 6 1 6 7
M  V30 7 2 7 8
M  V30 8 1 7 9
M  V30 9 1 9 10
M  V30 10 2 10 11
M  V30 11 1 11 12
M  V30 12 2 12 13
M  V30 13 1 13 14
M  V30 14 2 14 15
M  V30 15 1 14 16
M  V30 16 2 16 17
M  V30 17 1 16 18
M  V30 18 1 18 19
M  V30 19 2 19 20
M  V30 20 1 2 21
M  V30 21 1 21 22
M  V30 22 1 15 10
M  V30 23 1 19 13
M  V30 24 1 3 23
M  V30 25 1 3 24
M  V30 26 1 4 25
M  V30 27 1 4 26
M  V30 28 1 5 27
M  V30 29 1 5 28
M  V30 30 1 6 29
M  V30 31 1 9 30
M  V30 32 1 11 31
M  V30 33 1 12 32
M  V30 34 1 15 33
M  V30 35 1 18 34
M  V30 36 1 21 35
M  V30 37 1 22 36
M  V30 END BOND
M  V30 END CTAB
M  END
>  <Dataset>  (678) 
ChEMBL_Kinases

>  <Ligand_Instance>  (678) 
nan

>  <PDB_ID>  (678) 
nan

>  <Standardized_SMILES>  (678) 
O=C(CCCNC(=S)Nc1ccc2c(c1)C(=O)NC2=O)NO

>  <Name>  (678) 
nan

>  <Pocket>  (678) 
nan

>  <ATP_Site>  (678) 
nan

>  <Peripheral>  (678) 
nan

>  <Num_H_Atoms_ProtBoundConf>  (678) 
nan

>  <Num_Resolved_Atoms>  (678) 
nan

>  <Num_Not_Resolved_Atoms>  (678) 
nan

$$$$
CHEMBL459850
     RDKit          3D

  0  0  0  0  0  0  0  0  0  0999 V3000
M  V30 BEGIN CTAB
M  V30 COUNTS 52 55 0 0 0
M  V30 BEGIN ATOM
M  V30 1 C 0.575106 -3.939457 2.841185 0
M  V30 2 C 0.759923 -2.488306 2.597459 0
M  V30 3 C 1.700900 -1.765000 3.314477 0
M  V30 4 C 1.890917 -0.395981 3.100018 0
M  V30 5 C 1.083553 0.188815 2.130724 0
M  V30 6 N 1.276647 1.601029 1.906619 0
M  V30 7 C 2.262156 1.782783 0.899600 0
M  V30 8 O 2.739817 0.715673 0.433985 0
M  V30 9 C 2.736214 3.057870 0.392092 0
M  V30 10 C 3.700895 2.999044 -0.588930 0
M  V30 11 C 4.195129 4.194856 -1.115414 0
M  V30 12 C 3.738265 5.425211 -0.674234 0
M  V30 13 C 2.771281 5.402168 0.310726 0
M  V30 14 C 2.268591 6.728637 0.796709 0
M  V30 15 F 2.953530 7.024278 1.977287 0
M  V30 16 F 0.939831 6.584159 1.153951 0
M  V30 17 F 2.459599 7.687312 -0.153200 0
M  V30 18 C 2.235544 4.247508 0.878663 0
M  V30 19 C 0.132106 -0.497864 1.392603 0
M  V30 20 C -0.023333 -1.862492 1.639927 0
M  V30 21 N -0.990305 -2.599242 0.901183 0
M  V30 22 C -2.329442 -2.682094 1.450328 0
M  V30 23 C -3.231437 -3.472855 0.588766 0
M  V30 24 C -4.538170 -3.612693 1.026481 0
M  V30 25 N -5.445605 -4.325514 0.298204 0
M  V30 26 C -5.088708 -4.913818 -0.871664 0
M  V30 27 N -6.001084 -5.666650 -1.664448 0
M  V30 28 N -3.818185 -4.776065 -1.294246 0
M  V30 29 C -2.879224 -4.075136 -0.602116 0
M  V30 30 N -1.539829 -3.938648 -1.061999 0
M  V30 31 C -1.129537 -4.547799 -2.294302 0
M  V30 32 C -0.574460 -3.199758 -0.319534 0
M  V30 33 O 0.611336 -3.091516 -0.747823 0
M  V30 34 H 1.429193 -4.376861 3.388521 0
M  V30 35 H -0.327405 -4.149793 3.464209 0
M  V30 36 H 0.436408 -4.529472 1.914816 0
M  V30 37 H 2.302891 -2.295020 4.064822 0
M  V30 38 H 2.618255 0.165815 3.653453 0
M  V30 39 H 0.853985 2.473828 2.320036 0
M  V30 40 H 4.111051 2.079692 -0.988619 0
M  V30 41 H 4.959908 4.235473 -1.894847 0
M  V30 42 H 4.105242 6.359900 -1.066066 0
M  V30 43 H 1.484959 4.291340 1.641996 0
M  V30 44 H -0.467616 0.021441 0.647644 0
M  V30 45 H -2.688118 -1.625532 1.585024 0
M  V30 46 H -2.274280 -3.078901 2.486414 0
M  V30 47 H -4.881489 -3.164569 1.954351 0
M  V30 48 H -5.614152 -6.448077 -2.269104 0
M  V30 49 H -7.045433 -5.510656 -1.701953 0
M  V30 50 H -0.162181 -5.054684 -2.102057 0
M  V30 51 H -1.044841 -3.792558 -3.116085 0
M  V30 52 H -1.874055 -5.286363 -2.641944 0
M  V30 END ATOM
M  V30 BEGIN BOND
M  V30 1 1 1 2
M  V30 2 2 2 3
M  V30 3 1 3 4
M  V30 4 2 4 5
M  V30 5 1 5 6
M  V30 6 1 6 7
M  V30 7 2 7 8
M  V30 8 1 7 9
M  V30 9 2 9 10
M  V30 10 1 10 11
M  V30 11 2 11 12
M  V30 12 1 12 13
M  V30 13 1 13 14
M  V30 14 1 14 15
M  V30 15 1 14 16
M  V30 16 1 14 17
M  V30 17 2 13 18
M  V30 18 1 5 19
M  V30 19 2 19 20
M  V30 20 1 20 21
M  V30 21 1 21 22
M  V30 22 1 22 23
M  V30 23 2 23 24
M  V30 24 1 24 25
M  V30 25 2 25 26
M  V30 26 1 26 27
M  V30 27 1 26 28
M  V30 28 2 28 29
M  V30 29 1 29 30
M  V30 30 1 30 31
M  V30 31 1 30 32
M  V30 32 2 32 33
M  V30 33 1 20 2
M  V30 34 1 32 21
M  V30 35 1 18 9
M  V30 36 1 29 23
M  V30 37 1 1 34
M  V30 38 1 1 35
M  V30 39 1 1 36
M  V30 40 1 3 37
M  V30 41 1 4 38
M  V30 42 1 6 39
M  V30 43 1 10 40
M  V30 44 1 11 41
M  V30 45 1 12 42
M  V30 46 1 18 43
M  V30 47 1 19 44
M  V30 48 1 22 45
M  V30 49 1 22 46
M  V30 50 1 24 47
M  V30 51 1 27 48
M  V30 52 1 27 49
M  V30 53 1 31 50
M  V30 54 1 31 51
M  V30 55 1 31 52
M  V30 END BOND
M  V30 END CTAB
M  END
>  <Dataset>  (679) 
ChEMBL_Kinases

>  <Ligand_Instance>  (679) 
nan

>  <PDB_ID>  (679) 
nan

>  <Standardized_SMILES>  (679) 
Cc1ccc(NC(=O)c2cccc(C(F)(F)F)c2)cc1N1Cc2cnc(N)nc2N(C)C1=O

>  <Name>  (679) 
nan

>  <Pocket>  (679) 
nan

>  <ATP_Site>  (679) 
nan

>  <Peripheral>  (679) 
nan

>  <Num_H_Atoms_ProtBoundConf>  (679) 
nan

>  <Num_Resolved_Atoms>  (679) 
nan

>  <Num_Not_Resolved_Atoms>  (679) 
nan

$$$$
CHEMBL4590484
     RDKit          3D

  0  0  0  0  0  0  0  0  0  0999 V3000
M  V30 BEGIN CTAB
M  V30 COUNTS 29 31 0 0 0
M  V30 BEGIN ATOM
M  V30 1 C -0.704431 1.080122 3.469985 0
M  V30 2 C 0.459408 0.173104 3.414138 0
M  V30 3 N 1.284873 -0.091839 4.450220 0
M  V30 4 N 2.236250 -0.939509 4.098010 0
M  V30 5 C 2.007635 -1.224291 2.789877 0
M  V30 6 C 2.758128 -2.071593 2.000595 0
M  V30 7 C 2.309062 -2.185018 0.700727 0
M  V30 8 N 1.227620 -1.506728 0.288224 0
M  V30 9 C 0.486691 -0.686973 1.019765 0
M  V30 10 N -0.644468 -0.004245 0.512343 0
M  V30 11 C -1.084127 -0.117403 -0.840484 0
M  V30 12 C -1.346461 -1.548824 -1.339485 0
M  V30 13 C -0.976137 -0.980334 -2.719782 0
M  V30 14 C -0.063476 -0.014521 -1.943063 0
M  V30 15 C 0.903087 -0.546765 2.324746 0
M  V30 16 H -0.525976 1.923511 2.772819 0
M  V30 17 H -0.715516 1.570681 4.482618 0
M  V30 18 H -1.671729 0.569662 3.290599 0
M  V30 19 H 2.992320 -1.294040 4.727999 0
M  V30 20 H 3.626202 -2.618642 2.324453 0
M  V30 21 H 2.834487 -2.832298 -0.006520 0
M  V30 22 H -1.276206 0.634160 1.018456 0
M  V30 23 H -2.018290 0.458632 -1.116263 0
M  V30 24 H -0.596548 -2.277308 -1.023818 0
M  V30 25 H -2.400737 -1.853551 -1.290691 0
M  V30 26 H -1.817148 -0.430720 -3.191629 0
M  V30 27 H -0.441992 -1.687590 -3.372652 0
M  V30 28 H 0.005424 0.985148 -2.420469 0
M  V30 29 H 0.874953 -0.535224 -1.772023 0
M  V30 END ATOM
M  V30 BEGIN BOND
M  V30 1 1 1 2
M  V30 2 2 2 3
M  V30 3 1 3 4
M  V30 4 1 4 5
M  V30 5 2 5 6
M  V30 6 1 6 7
M  V30 7 2 7 8
M  V30 8 1 8 9
M  V30 9 1 9 10
M  V30 10 1 10 11
M  V30 11 1 11 12
M  V30 12 1 12 13
M  V30 13 1 13 14
M  V30 14 2 9 15
M  V30 15 1 15 2
M  V30 16 1 15 5
M  V30 17 1 14 11
M  V30 18 1 1 16
M  V30 19 1 1 17
M  V30 20 1 1 18
M  V30 21 1 4 19
M  V30 22 1 6 20
M  V30 23 1 7 21
M  V30 24 1 10 22
M  V30 25 1 11 23
M  V30 26 1 12 24
M  V30 27 1 12 25
M  V30 28 1 13 26
M  V30 29 1 13 27
M  V30 30 1 14 28
M  V30 31 1 14 29
M  V30 END BOND
M  V30 END CTAB
M  END
>  <Dataset>  (680) 
ChEMBL_Kinases

>  <Ligand_Instance>  (680) 
nan

>  <PDB_ID>  (680) 
nan

>  <Standardized_SMILES>  (680) 
Cc1n[nH]c2ccnc(NC3CCC3)c12

>  <Name>  (680) 
nan

>  <Pocket>  (680) 
nan

>  <ATP_Site>  (680) 
nan

>  <Peripheral>  (680) 
nan

>  <Num_H_Atoms_ProtBoundConf>  (680) 
nan

>  <Num_Resolved_Atoms>  (680) 
nan

>  <Num_Not_Resolved_Atoms>  (680) 
nan

$$$$
CHEMBL4590482
     RDKit          3D

  0  0  0  0  0  0  0  0  0  0999 V3000
M  V30 BEGIN CTAB
M  V30 COUNTS 39 40 0 0 0
M  V30 BEGIN ATOM
M  V30 1 O 0.546329 -1.341939 0.671848 0
M  V30 2 C 1.494318 -0.534648 0.846612 0
M  V30 3 N 2.726568 -1.233597 0.819389 0
M  V30 4 O 2.486211 -2.567571 0.610495 0
M  V30 5 C 2.501586 -2.746429 -0.789793 0
M  V30 6 C 2.228323 -4.176894 -1.126431 0
M  V30 7 C 2.231567 -4.432452 -2.618115 0
M  V30 8 O 1.260452 -3.674013 -3.268692 0
M  V30 9 C 1.385079 0.901140 1.049186 0
M  V30 10 C 2.525077 1.664253 1.164344 0
M  V30 11 C 2.310954 3.028759 1.327170 0
M  V30 12 C 1.087316 3.663358 1.381395 0
M  V30 13 F 1.029745 5.011473 1.544958 0
M  V30 14 C -0.023946 2.846791 1.260689 0
M  V30 15 F -1.226487 3.463183 1.313280 0
M  V30 16 C 0.138546 1.471447 1.095989 0
M  V30 17 N -1.096813 0.774877 1.017670 0
M  V30 18 C -2.061977 0.374888 1.986829 0
M  V30 19 C -3.289814 0.962116 1.644086 0
M  V30 20 C -4.427752 0.764382 2.403303 0
M  V30 21 C -4.362798 -0.028237 3.526465 0
M  V30 22 Cl -5.692415 -0.402784 4.621695 0
M  V30 23 C -3.159947 -0.607569 3.868282 0
M  V30 24 C -2.023830 -0.413412 3.115286 0
M  V30 25 F -0.783675 -0.906841 3.329945 0
M  V30 26 H 3.644514 -0.717268 0.950507 0
M  V30 27 H 3.575582 -2.551933 -1.066225 0
M  V30 28 H 1.811402 -2.045642 -1.274733 0
M  V30 29 H 1.235296 -4.527519 -0.771661 0
M  V30 30 H 2.994311 -4.819473 -0.653610 0
M  V30 31 H 1.970014 -5.488643 -2.812198 0
M  V30 32 H 3.217355 -4.227115 -3.085259 0
M  V30 33 H 0.730831 -3.165184 -2.606813 0
M  V30 34 H 3.518082 1.293223 1.137745 0
M  V30 35 H 3.189423 3.663229 1.421582 0
M  V30 36 H -1.239089 0.551423 -0.012809 0
M  V30 37 H -3.523401 1.618206 0.789138 0
M  V30 38 H -5.403237 1.177759 2.208862 0
M  V30 39 H -2.936735 -1.262150 4.725701 0
M  V30 END ATOM
M  V30 BEGIN BOND
M  V30 1 2 1 2
M  V30 2 1 2 3
M  V30 3 1 3 4
M  V30 4 1 4 5
M  V30 5 1 5 6
M  V30 6 1 6 7
M  V30 7 1 7 8
M  V30 8 1 2 9
M  V30 9 2 9 10
M  V30 10 1 10 11
M  V30 11 2 11 12
M  V30 12 1 12 13
M  V30 13 1 12 14
M  V30 14 1 14 15
M  V30 15 2 14 16
M  V30 16 1 16 17
M  V30 17 1 17 18
M  V30 18 2 18 19
M  V30 19 1 19 20
M  V30 20 2 20 21
M  V30 21 1 21 22
M  V30 22 1 21 23
M  V30 23 2 23 24
M  V30 24 1 24 25
M  V30 25 1 16 9
M  V30 26 1 24 18
M  V30 27 1 3 26
M  V30 28 1 5 27
M  V30 29 1 5 28
M  V30 30 1 6 29
M  V30 31 1 6 30
M  V30 32 1 7 31
M  V30 33 1 7 32
M  V30 34 1 8 33
M  V30 35 1 10 34
M  V30 36 1 11 35
M  V30 37 1 17 36
M  V30 38 1 19 37
M  V30 39 1 20 38
M  V30 40 1 23 39
M  V30 END BOND
M  V30 END CTAB
M  END
>  <Dataset>  (681) 
ChEMBL_Kinases

>  <Ligand_Instance>  (681) 
nan

>  <PDB_ID>  (681) 
nan

>  <Standardized_SMILES>  (681) 
O=C(NOCCCO)c1ccc(F)c(F)c1Nc1ccc(Cl)cc1F

>  <Name>  (681) 
nan

>  <Pocket>  (681) 
nan

>  <ATP_Site>  (681) 
nan

>  <Peripheral>  (681) 
nan

>  <Num_H_Atoms_ProtBoundConf>  (681) 
nan

>  <Num_Resolved_Atoms>  (681) 
nan

>  <Num_Not_Resolved_Atoms>  (681) 
nan

$$$$
CHEMBL459715
     RDKit          3D

  0  0  0  0  0  0  0  0  0  0999 V3000
M  V30 BEGIN CTAB
M  V30 COUNTS 47 50 0 0 0
M  V30 BEGIN ATOM
M  V30 1 C -0.939653 -5.559596 1.619859 0
M  V30 2 N -1.333348 -4.412841 0.862168 0
M  V30 3 C -1.128473 -4.541249 -0.548471 0
M  V30 4 C -1.515683 -3.268212 -1.259452 0
M  V30 5 N -1.958267 -2.323390 -0.329355 0
M  V30 6 C -1.400730 -1.050177 -0.265083 0
M  V30 7 C -0.015064 -0.954659 0.198062 0
M  V30 8 O 0.645830 -1.989385 0.526283 0
M  V30 9 N 0.630843 0.307974 0.292843 0
M  V30 10 N 1.944037 0.476707 0.726340 0
M  V30 11 C 2.385509 1.643953 0.434284 0
M  V30 12 C 3.772232 2.200064 0.742953 0
M  V30 13 C 4.190951 2.727435 1.880737 0
M  V30 14 C 5.456928 3.187522 2.027878 0
M  V30 15 C 6.262418 3.051004 0.875273 0
M  V30 16 S 5.078151 2.244753 -0.351720 0
M  V30 17 C 1.359181 2.417439 -0.261997 0
M  V30 18 C 0.101618 1.613983 -0.019645 0
M  V30 19 C -0.644177 2.106201 1.164324 0
M  V30 20 C -0.063540 1.959999 2.422113 0
M  V30 21 C -0.948801 2.491779 3.341807 0
M  V30 22 C -2.027955 2.936267 2.588251 0
M  V30 23 O -1.816413 2.696043 1.328373 0
M  V30 24 C -3.017811 -2.687320 0.531826 0
M  V30 25 C -2.627008 -3.958392 1.259360 0
M  V30 26 H -1.786497 -6.072754 2.147384 0
M  V30 27 H -0.407464 -6.258165 0.927031 0
M  V30 28 H -0.210885 -5.234797 2.396063 0
M  V30 29 H -0.023262 -4.657218 -0.713710 0
M  V30 30 H -1.643758 -5.445682 -0.968538 0
M  V30 31 H -2.386496 -3.549006 -1.921092 0
M  V30 32 H -0.737821 -2.854530 -1.906381 0
M  V30 33 H -1.475191 -0.455646 -1.214209 0
M  V30 34 H -2.019374 -0.447161 0.459922 0
M  V30 35 H 3.495907 2.797195 2.736693 0
M  V30 36 H 5.904984 3.634433 2.904204 0
M  V30 37 H 7.390623 3.398354 0.823182 0
M  V30 38 H 1.528985 2.513649 -1.353400 0
M  V30 39 H 1.199611 3.428808 0.199959 0
M  V30 40 H -0.535179 1.609917 -0.929720 0
M  V30 41 H 0.888464 1.528858 2.741195 0
M  V30 42 H -0.912434 2.593226 4.431955 0
M  V30 43 H -2.919814 3.414414 2.979299 0
M  V30 44 H -3.921748 -2.897405 -0.103477 0
M  V30 45 H -3.230788 -1.861906 1.226260 0
M  V30 46 H -3.425258 -4.736879 1.129214 0
M  V30 47 H -2.573294 -3.707879 2.342752 0
M  V30 END ATOM
M  V30 BEGIN BOND
M  V30 1 1 1 2
M  V30 2 1 2 3
M  V30 3 1 3 4
M  V30 4 1 4 5
M  V30 5 1 5 6
M  V30 6 1 6 7
M  V30 7 2 7 8
M  V30 8 1 7 9
M  V30 9 1 9 10
M  V30 10 2 10 11
M  V30 11 1 11 12
M  V30 12 2 12 13
M  V30 13 1 13 14
M  V30 14 2 14 15
M  V30 15 1 15 16
M  V30 16 1 11 17
M  V30 17 1 17 18
M  V30 18 1 18 19
M  V30 19 2 19 20
M  V30 20 1 20 21
M  V30 21 2 21 22
M  V30 22 1 22 23
M  V30 23 1 5 24
M  V30 24 1 24 25
M  V30 25 1 25 2
M  V30 26 1 18 9
M  V30 27 1 23 19
M  V30 28 1 16 12
M  V30 29 1 1 26
M  V30 30 1 1 27
M  V30 31 1 1 28
M  V30 32 1 3 29
M  V30 33 1 3 30
M  V30 34 1 4 31
M  V30 35 1 4 32
M  V30 36 1 6 33
M  V30 37 1 6 34
M  V30 38 1 13 35
M  V30 39 1 14 36
M  V30 40 1 15 37
M  V30 41 1 17 38
M  V30 42 1 17 39
M  V30 43 1 18 40
M  V30 44 1 20 41
M  V30 45 1 21 42
M  V30 46 1 22 43
M  V30 47 1 24 44
M  V30 48 1 24 45
M  V30 49 1 25 46
M  V30 50 1 25 47
M  V30 END BOND
M  V30 END CTAB
M  END
>  <Dataset>  (682) 
ChEMBL_Kinases

>  <Ligand_Instance>  (682) 
nan

>  <PDB_ID>  (682) 
nan

>  <Standardized_SMILES>  (682) 
CN1CCN(CC(=O)N2N=C(c3cccs3)CC2c2ccco2)CC1

>  <Name>  (682) 
nan

>  <Pocket>  (682) 
nan

>  <ATP_Site>  (682) 
nan

>  <Peripheral>  (682) 
nan

>  <Num_H_Atoms_ProtBoundConf>  (682) 
nan

>  <Num_Resolved_Atoms>  (682) 
nan

>  <Num_Not_Resolved_Atoms>  (682) 
nan

$$$$
CHEMBL4593028
     RDKit          3D

  0  0  0  0  0  0  0  0  0  0999 V3000
M  V30 BEGIN CTAB
M  V30 COUNTS 52 55 0 0 0
M  V30 BEGIN ATOM
M  V30 1 C 7.561176 -4.771800 1.626345 0
M  V30 2 O 6.961013 -5.510769 0.629277 0
M  V30 3 C 5.998285 -4.808354 -0.060114 0
M  V30 4 C 6.582647 -3.609001 -0.724556 0
M  V30 5 O 5.708933 -2.820574 -1.462553 0
M  V30 6 C 4.606462 -2.115405 -1.090841 0
M  V30 7 C 3.904684 -1.859224 0.063352 0
M  V30 8 C 2.776970 -1.077216 0.140487 0
M  V30 9 C 2.320103 -0.509636 -1.028247 0
M  V30 10 C 1.120582 0.309551 -0.890531 0
M  V30 11 C 0.186052 -0.046081 0.090112 0
M  V30 12 N -0.962145 0.628133 0.317938 0
M  V30 13 C -1.226717 1.719615 -0.452621 0
M  V30 14 C -2.319366 2.560610 -0.412675 0
M  V30 15 C -3.476994 2.456309 0.505958 0
M  V30 16 C -3.888024 3.630088 1.074316 0
M  V30 17 S -5.348551 3.065592 2.145333 0
M  V30 18 C -5.163993 1.371595 1.656602 0
M  V30 19 C -6.028603 0.302879 2.141728 0
M  V30 20 O -5.806185 -0.842180 1.733114 0
M  V30 21 N -7.086463 0.535343 3.042896 0
M  V30 22 C -8.020803 -0.403495 3.615421 0
M  V30 23 C -7.317269 -1.445098 4.444178 0
M  V30 24 F -6.414516 -2.206301 3.773137 0
M  V30 25 F -8.269543 -2.265886 5.059467 0
M  V30 26 F -6.681483 -0.800923 5.512683 0
M  V30 27 C -4.125760 1.310501 0.802664 0
M  V30 28 C -2.072715 3.487205 -1.404566 0
M  V30 29 N -0.878401 3.168434 -1.976944 0
M  V30 30 N -0.357015 2.097000 -1.406199 0
M  V30 31 C 0.792669 1.427205 -1.638901 0
M  V30 32 C 2.961329 -0.712212 -2.230899 0
M  V30 33 C 4.109217 -1.518382 -2.262224 0
M  V30 34 H 6.760329 -4.435674 2.326636 0
M  V30 35 H 8.280463 -5.411459 2.210708 0
M  V30 36 H 8.159552 -3.921339 1.290735 0
M  V30 37 H 5.443177 -5.458296 -0.782007 0
M  V30 38 H 5.253579 -4.474154 0.696515 0
M  V30 39 H 7.516703 -3.850200 -1.291487 0
M  V30 40 H 6.961346 -2.931075 0.105106 0
M  V30 41 H 4.364848 -2.348504 0.904114 0
M  V30 42 H 2.372761 -0.998050 1.133070 0
M  V30 43 H 0.325333 -0.898711 0.739686 0
M  V30 44 H -3.529111 4.664633 0.991079 0
M  V30 45 H -7.179857 1.560125 3.318742 0
M  V30 46 H -8.640728 -0.896259 2.817268 0
M  V30 47 H -8.755079 0.157825 4.218919 0
M  V30 48 H -3.833213 0.347970 0.372408 0
M  V30 49 H -2.744042 4.303704 -1.644058 0
M  V30 50 H 1.498958 1.708394 -2.389805 0
M  V30 51 H 2.497112 -0.208872 -3.065458 0
M  V30 52 H 4.466631 -1.554123 -3.301621 0
M  V30 END ATOM
M  V30 BEGIN BOND
M  V30 1 1 1 2
M  V30 2 1 2 3
M  V30 3 1 3 4
M  V30 4 1 4 5
M  V30 5 1 5 6
M  V30 6 2 6 7
M  V30 7 1 7 8
M  V30 8 2 8 9
M  V30 9 1 9 10
M  V30 10 1 10 11
M  V30 11 2 11 12
M  V30 12 1 12 13
M  V30 13 2 13 14
M  V30 14 1 14 15
M  V30 15 2 15 16
M  V30 16 1 16 17
M  V30 17 1 17 18
M  V30 18 1 18 19
M  V30 19 2 19 20
M  V30 20 1 19 21
M  V30 21 1 21 22
M  V30 22 1 22 23
M  V30 23 1 23 24
M  V30 24 1 23 25
M  V30 25 1 23 26
M  V30 26 2 18 27
M  V30 27 1 14 28
M  V30 28 2 28 29
M  V30 29 1 29 30
M  V30 30 1 30 31
M  V30 31 1 9 32
M  V30 32 2 32 33
M  V30 33 1 33 6
M  V30 34 2 31 10
M  V30 35 1 30 13
M  V30 36 1 27 15
M  V30 37 1 1 34
M  V30 38 1 1 35
M  V30 39 1 1 36
M  V30 40 1 3 37
M  V30 41 1 3 38
M  V30 42 1 4 39
M  V30 43 1 4 40
M  V30 44 1 7 41
M  V30 45 1 8 42
M  V30 46 1 11 43
M  V30 47 1 16 44
M  V30 48 1 21 45
M  V30 49 1 22 46
M  V30 50 1 22 47
M  V30 51 1 27 48
M  V30 52 1 28 49
M  V30 53 1 31 50
M  V30 54 1 32 51
M  V30 55 1 33 52
M  V30 END BOND
M  V30 END CTAB
M  END
>  <Dataset>  (683) 
ChEMBL_Kinases

>  <Ligand_Instance>  (683) 
nan

>  <PDB_ID>  (683) 
nan

>  <Standardized_SMILES>  (683) 
COCCOc1ccc(-c2cnc3c(-c4csc(C(=O)NCC(F)(F)F)c4)cnn3c2)cc1

>  <Name>  (683) 
nan

>  <Pocket>  (683) 
nan

>  <ATP_Site>  (683) 
nan

>  <Peripheral>  (683) 
nan

>  <Num_H_Atoms_ProtBoundConf>  (683) 
nan

>  <Num_Resolved_Atoms>  (683) 
nan

>  <Num_Not_Resolved_Atoms>  (683) 
nan

$$$$
CHEMBL4592930
     RDKit          3D

  0  0  0  0  0  0  0  0  0  0999 V3000
M  V30 BEGIN CTAB
M  V30 COUNTS 39 41 0 0 0
M  V30 BEGIN ATOM
M  V30 1 C 0.618770 -3.255930 -0.053534 0
M  V30 2 C -0.795634 -3.057297 0.507743 0
M  V30 3 C -1.409056 -4.405367 0.695472 0
M  V30 4 C -1.594424 -2.310446 -0.527139 0
M  V30 5 N -0.725318 -2.271438 1.738863 0
M  V30 6 C -0.171552 -0.967625 1.672695 0
M  V30 7 N 0.273288 -0.466232 0.530116 0
M  V30 8 C 0.808711 0.761351 0.401044 0
M  V30 9 C 1.271479 1.225781 -0.901484 0
M  V30 10 C 1.212976 0.495474 -2.077046 0
M  V30 11 N 1.744257 1.311479 -3.008113 0
M  V30 12 N 2.112343 2.465029 -2.479372 0
M  V30 13 C 1.835433 2.457677 -1.160021 0
M  V30 14 C 2.077227 3.536129 -0.172937 0
M  V30 15 F 0.890348 3.958838 0.424408 0
M  V30 16 F 3.017876 3.170815 0.779989 0
M  V30 17 F 2.579270 4.652463 -0.815202 0
M  V30 18 N 0.909382 1.545172 1.480993 0
M  V30 19 C 0.488684 1.139725 2.698779 0
M  V30 20 C 0.588302 1.943718 3.824057 0
M  V30 21 N 0.146072 1.473093 5.015434 0
M  V30 22 C -0.384611 0.240649 5.111941 0
M  V30 23 C -0.480861 -0.550450 3.996204 0
M  V30 24 C -0.050108 -0.129723 2.760498 0
M  V30 25 H 0.565046 -4.170611 -0.684057 0
M  V30 26 H 0.906042 -2.396436 -0.709815 0
M  V30 27 H 1.358470 -3.447549 0.747407 0
M  V30 28 H -0.701975 -5.195965 1.033673 0
M  V30 29 H -2.295911 -4.325245 1.383201 0
M  V30 30 H -1.840214 -4.756962 -0.263875 0
M  V30 31 H -0.890383 -1.707443 -1.132327 0
M  V30 32 H -2.071626 -3.052455 -1.198069 0
M  V30 33 H -2.398889 -1.700170 -0.059743 0
M  V30 34 H -1.101599 -2.762278 2.573425 0
M  V30 35 H 0.842304 -0.494119 -2.266088 0
M  V30 36 H 1.850767 1.063222 -4.016680 0
M  V30 37 H 1.026424 2.919462 3.661053 0
M  V30 38 H -0.712864 -0.058434 6.096582 0
M  V30 39 H -0.911480 -1.518707 4.138043 0
M  V30 END ATOM
M  V30 BEGIN BOND
M  V30 1 1 1 2
M  V30 2 1 2 3
M  V30 3 1 2 4
M  V30 4 1 2 5
M  V30 5 1 5 6
M  V30 6 2 6 7
M  V30 7 1 7 8
M  V30 8 1 8 9
M  V30 9 2 9 10
M  V30 10 1 10 11
M  V30 11 1 11 12
M  V30 12 2 12 13
M  V30 13 1 13 14
M  V30 14 1 14 15
M  V30 15 1 14 16
M  V30 16 1 14 17
M  V30 17 2 8 18
M  V30 18 1 18 19
M  V30 19 2 19 20
M  V30 20 1 20 21
M  V30 21 2 21 22
M  V30 22 1 22 23
M  V30 23 2 23 24
M  V30 24 1 24 6
M  V30 25 1 13 9
M  V30 26 1 24 19
M  V30 27 1 1 25
M  V30 28 1 1 26
M  V30 29 1 1 27
M  V30 30 1 3 28
M  V30 31 1 3 29
M  V30 32 1 3 30
M  V30 33 1 4 31
M  V30 34 1 4 32
M  V30 35 1 4 33
M  V30 36 1 5 34
M  V30 37 1 10 35
M  V30 38 1 11 36
M  V30 39 1 20 37
M  V30 40 1 22 38
M  V30 41 1 23 39
M  V30 END BOND
M  V30 END CTAB
M  END
>  <Dataset>  (684) 
ChEMBL_Kinases

>  <Ligand_Instance>  (684) 
nan

>  <PDB_ID>  (684) 
nan

>  <Standardized_SMILES>  (684) 
CC(C)(C)Nc1nc(-c2c[nH]nc2C(F)(F)F)nc2cnccc12

>  <Name>  (684) 
nan

>  <Pocket>  (684) 
nan

>  <ATP_Site>  (684) 
nan

>  <Peripheral>  (684) 
nan

>  <Num_H_Atoms_ProtBoundConf>  (684) 
nan

>  <Num_Resolved_Atoms>  (684) 
nan

>  <Num_Not_Resolved_Atoms>  (684) 
nan

$$$$
CHEMBL4593086
     RDKit          3D

  0  0  0  0  0  0  0  0  0  0999 V3000
M  V30 BEGIN CTAB
M  V30 COUNTS 66 69 0 0 0
M  V30 BEGIN ATOM
M  V30 1 C 2.437597 -1.921456 5.598055 0
M  V30 2 N 3.198604 -1.076920 6.510909 0
M  V30 3 N 3.874186 -1.657397 7.516240 0
M  V30 4 C 4.509117 -0.732782 8.246660 0
M  V30 5 C 4.166225 0.427905 7.610086 0
M  V30 6 Cl 4.839241 1.868168 8.317239 0
M  V30 7 C 3.352503 0.251497 6.526792 0
M  V30 8 C 2.785268 1.208389 5.614333 0
M  V30 9 C 1.972642 0.889968 4.552098 0
M  V30 10 C 1.568382 2.013623 3.838577 0
M  V30 11 C 0.725170 2.209241 2.660603 0
M  V30 12 O 0.490843 3.346111 2.175798 0
M  V30 13 N 0.139344 1.086552 2.025396 0
M  V30 14 C -0.697404 1.267764 0.858899 0 CFG=2
M  V30 15 C -2.128173 0.823043 1.064081 0
M  V30 16 N -2.791695 0.859884 -0.197626 0
M  V30 17 C -2.324558 -0.086514 -1.182737 0 CFG=2
M  V30 18 C -3.414363 -1.110375 -1.411600 0
M  V30 19 C -3.058970 -2.116093 -2.408182 0
M  V30 20 O -1.959737 -1.971271 -2.987109 0
M  V30 21 N -3.841296 -3.230924 -2.773670 0
M  V30 22 C -3.777965 -4.328475 -3.638625 0
M  V30 23 C -2.779267 -5.398457 -3.503485 0
M  V30 24 O -3.074784 -6.315876 -4.578639 0
M  V30 25 C -1.363710 -4.983752 -3.801227 0
M  V30 26 O -0.547569 -6.162533 -3.865203 0
M  V30 27 C -1.056253 -0.688567 -0.700792 0
M  V30 28 C -0.127227 0.445274 -0.240043 0 CFG=1
M  V30 29 C 0.388021 1.185302 -1.401923 0
M  V30 30 C -0.247060 2.236312 -2.033697 0
M  V30 31 C 0.235066 2.918237 -3.122822 0
M  V30 32 C 1.452406 2.546616 -3.653031 0
M  V30 33 Cl 2.121714 3.375445 -5.040021 0
M  V30 34 C 2.165200 1.512902 -3.098051 0
M  V30 35 Cl 3.711176 1.013360 -3.742320 0
M  V30 36 C 1.615202 0.878103 -2.007638 0
M  V30 37 O 2.140315 3.034093 4.471129 0
M  V30 38 C 2.832698 2.567833 5.482728 0
M  V30 39 Cl 3.690049 3.688505 6.490144 0
M  V30 40 H 2.873816 -1.864622 4.594360 0
M  V30 41 H 2.511361 -2.997765 5.943543 0
M  V30 42 H 1.339083 -1.728382 5.654059 0
M  V30 43 H 5.098984 -1.031466 9.094237 0
M  V30 44 H 1.573659 0.001067 4.135583 0
M  V30 45 H 0.267588 0.100574 2.343290 0
M  V30 46 H -0.784441 2.358727 0.585029 0
M  V30 47 H -2.242121 -0.173962 1.494748 0
M  V30 48 H -2.617454 1.623284 1.672647 0
M  V30 49 H -3.820201 0.746431 -0.103402 0
M  V30 50 H -2.154044 0.454283 -2.127142 0
M  V30 51 H -3.611201 -1.634403 -0.450081 0
M  V30 52 H -4.295210 -0.554315 -1.777439 0
M  V30 53 H -4.735859 -3.165190 -2.177302 0
M  V30 54 H -4.805561 -4.805802 -3.655617 0
M  V30 55 H -3.699864 -3.989570 -4.740797 0
M  V30 56 H -2.866503 -6.032606 -2.616211 0
M  V30 57 H -2.735560 -5.872178 -5.399821 0
M  V30 58 H -0.915653 -4.322330 -3.016623 0
M  V30 59 H -1.216564 -4.481079 -4.764969 0
M  V30 60 H -0.600788 -6.669443 -3.014637 0
M  V30 61 H -0.479266 -1.284250 -1.403394 0
M  V30 62 H -1.226327 -1.363949 0.186796 0
M  V30 63 H 0.769861 -0.146281 0.138723 0
M  V30 64 H -1.188566 2.578961 -1.672090 0
M  V30 65 H -0.304190 3.739527 -3.584167 0
M  V30 66 H 2.200866 0.067705 -1.593415 0
M  V30 END ATOM
M  V30 BEGIN BOND
M  V30 1 1 1 2
M  V30 2 1 2 3
M  V30 3 2 3 4
M  V30 4 1 4 5
M  V30 5 1 5 6
M  V30 6 2 5 7
M  V30 7 1 7 8
M  V30 8 1 8 9
M  V30 9 2 9 10
M  V30 10 1 10 11
M  V30 11 2 11 12
M  V30 12 1 11 13
M  V30 13 1 13 14
M  V30 14 1 14 15
M  V30 15 1 15 16
M  V30 16 1 16 17
M  V30 17 1 17 18
M  V30 18 1 18 19
M  V30 19 2 19 20
M  V30 20 1 19 21
M  V30 21 1 21 22
M  V30 22 1 22 23
M  V30 23 1 23 24
M  V30 24 1 23 25
M  V30 25 1 25 26
M  V30 26 1 17 27
M  V30 27 1 27 28
M  V30 28 1 28 29
M  V30 29 2 29 30
M  V30 30 1 30 31
M  V30 31 2 31 32
M  V30 32 1 32 33
M  V30 33 1 32 34
M  V30 34 1 34 35
M  V30 35 2 34 36
M  V30 36 1 10 37
M  V30 37 1 37 38
M  V30 38 1 38 39
M  V30 39 1 7 2
M  V30 40 2 38 8
M  V30 41 1 28 14
M  V30 42 1 36 29
M  V30 43 1 1 40
M  V30 44 1 1 41
M  V30 45 1 1 42
M  V30 46 1 4 43
M  V30 47 1 9 44
M  V30 48 1 13 45
M  V30 49 1 14 46 CFG=3
M  V30 50 1 15 47
M  V30 51 1 15 48
M  V30 52 1 16 49
M  V30 53 1 17 50 CFG=3
M  V30 54 1 18 51
M  V30 55 1 18 52
M  V30 56 1 21 53
M  V30 57 1 22 54
M  V30 58 1 22 55
M  V30 59 1 23 56
M  V30 60 1 24 57
M  V30 61 1 25 58
M  V30 62 1 25 59
M  V30 63 1 26 60
M  V30 64 1 27 61
M  V30 65 1 27 62
M  V30 66 1 28 63 CFG=1
M  V30 67 1 30 64
M  V30 68 1 31 65
M  V30 69 1 36 66
M  V30 END BOND
M  V30 END CTAB
M  END
>  <Dataset>  (685) 
ChEMBL_Kinases

>  <Ligand_Instance>  (685) 
nan

>  <PDB_ID>  (685) 
nan

>  <Standardized_SMILES>  (685) 
Cn1ncc(Cl)c1-c1cc(C(=O)N[C@@H]2CN[C@H](CC(=O)NCC(O)CO)C[C@H]2c2ccc(Cl)c(Cl)c2)oc1Cl

>  <Name>  (685) 
nan

>  <Pocket>  (685) 
nan

>  <ATP_Site>  (685) 
nan

>  <Peripheral>  (685) 
nan

>  <Num_H_Atoms_ProtBoundConf>  (685) 
nan

>  <Num_Resolved_Atoms>  (685) 
nan

>  <Num_Not_Resolved_Atoms>  (685) 
nan

$$$$
CHEMBL4593296
     RDKit          3D

  0  0  0  0  0  0  0  0  0  0999 V3000
M  V30 BEGIN CTAB
M  V30 COUNTS 47 51 0 0 0
M  V30 BEGIN ATOM
M  V30 1 F 4.302153 -1.443152 -4.912476 0
M  V30 2 C 3.711344 -0.728458 -3.917194 0
M  V30 3 C 4.224764 0.493709 -3.550991 0
M  V30 4 C 3.579694 1.171347 -2.531796 0
M  V30 5 C 2.466394 0.689001 -1.877343 0
M  V30 6 N 1.929879 1.508736 -0.846566 0
M  V30 7 C 1.890222 0.865347 0.420984 0
M  V30 8 N 3.082214 0.641372 0.959717 0
M  V30 9 C 3.311976 0.070636 2.128503 0
M  V30 10 N 2.220853 -0.307345 2.814057 0
M  V30 11 C 0.991205 -0.074298 2.256902 0
M  V30 12 S -0.716673 -0.459467 2.947656 0
M  V30 13 C -1.551072 0.177613 1.609066 0
M  V30 14 C -0.583687 0.656435 0.688204 0
M  V30 15 C 0.708854 0.519104 1.036668 0
M  V30 16 C -1.129224 1.252314 -0.546426 0
M  V30 17 C -2.403180 0.686019 -1.027629 0
M  V30 18 N -3.207650 -0.033328 -0.131523 0
M  V30 19 C -3.090087 -1.450088 -0.305017 0
M  V30 20 C -3.402462 -1.901885 -1.674115 0
M  V30 21 C -4.721579 -2.098653 -2.056455 0
M  V30 22 C -5.088486 -2.536808 -3.307863 0
M  V30 23 C -4.118575 -2.804207 -4.254839 0
M  V30 24 C -2.773547 -2.630959 -3.945898 0
M  V30 25 C -2.497333 -2.193583 -2.684171 0
M  V30 26 C -3.014048 0.308089 1.267538 0
M  V30 27 C 2.006218 -0.529908 -2.288511 0
M  V30 28 F 0.931787 -1.037332 -1.682519 0
M  V30 29 C 2.586728 -1.272711 -3.294534 0
M  V30 30 H 5.112916 0.890499 -4.064766 0
M  V30 31 H 4.038017 2.128650 -2.293477 0
M  V30 32 H 1.672600 2.443278 -1.238962 0
M  V30 33 H 4.181964 -0.185156 2.705561 0
M  V30 34 H -1.289481 2.339358 -0.294663 0
M  V30 35 H -0.376815 1.277279 -1.367401 0
M  V30 36 H -2.979923 1.572279 -1.477886 0
M  V30 37 H -2.174350 0.097450 -1.967116 0
M  V30 38 H -2.041197 -1.714510 -0.032941 0
M  V30 39 H -3.786539 -1.941570 0.415747 0
M  V30 40 H -5.538937 -1.904600 -1.351845 0
M  V30 41 H -6.098991 -2.702232 -3.648806 0
M  V30 42 H -4.329922 -3.153884 -5.263154 0
M  V30 43 H -1.974523 -2.829119 -4.659084 0
M  V30 44 H -1.437676 -2.073123 -2.450277 0
M  V30 45 H -3.557379 -0.440601 1.848094 0
M  V30 46 H -3.335116 1.326795 1.480070 0
M  V30 47 H 2.196835 -2.233000 -3.593112 0
M  V30 END ATOM
M  V30 BEGIN BOND
M  V30 1 1 1 2
M  V30 2 2 2 3
M  V30 3 1 3 4
M  V30 4 2 4 5
M  V30 5 1 5 6
M  V30 6 1 6 7
M  V30 7 2 7 8
M  V30 8 1 8 9
M  V30 9 2 9 10
M  V30 10 1 10 11
M  V30 11 1 11 12
M  V30 12 1 12 13
M  V30 13 2 13 14
M  V30 14 1 14 15
M  V30 15 1 14 16
M  V30 16 1 16 17
M  V30 17 1 17 18
M  V30 18 1 18 19
M  V30 19 1 19 20
M  V30 20 2 20 21
M  V30 21 1 21 22
M  V30 22 2 22 23
M  V30 23 1 23 24
M  V30 24 2 24 25
M  V30 25 1 18 26
M  V30 26 1 5 27
M  V30 27 1 27 28
M  V30 28 2 27 29
M  V30 29 1 29 2
M  V30 30 1 15 7
M  V30 31 1 25 20
M  V30 32 2 15 11
M  V30 33 1 26 13
M  V30 34 1 3 30
M  V30 35 1 4 31
M  V30 36 1 6 32
M  V30 37 1 9 33
M  V30 38 1 16 34
M  V30 39 1 16 35
M  V30 40 1 17 36
M  V30 41 1 17 37
M  V30 42 1 19 38
M  V30 43 1 19 39
M  V30 44 1 21 40
M  V30 45 1 22 41
M  V30 46 1 23 42
M  V30 47 1 24 43
M  V30 48 1 25 44
M  V30 49 1 26 45
M  V30 50 1 26 46
M  V30 51 1 29 47
M  V30 END BOND
M  V30 END CTAB
M  END
>  <Dataset>  (686) 
ChEMBL_Kinases

>  <Ligand_Instance>  (686) 
nan

>  <PDB_ID>  (686) 
nan

>  <Standardized_SMILES>  (686) 
Fc1ccc(Nc2ncnc3sc4c(c23)CCN(Cc2ccccc2)C4)c(F)c1

>  <Name>  (686) 
nan

>  <Pocket>  (686) 
nan

>  <ATP_Site>  (686) 
nan

>  <Peripheral>  (686) 
nan

>  <Num_H_Atoms_ProtBoundConf>  (686) 
nan

>  <Num_Resolved_Atoms>  (686) 
nan

>  <Num_Not_Resolved_Atoms>  (686) 
nan

$$$$
CHEMBL459285
     RDKit          3D

  0  0  0  0  0  0  0  0  0  0999 V3000
M  V30 BEGIN CTAB
M  V30 COUNTS 33 35 0 0 0
M  V30 BEGIN ATOM
M  V30 1 C -2.269960 -2.601012 0.345762 0
M  V30 2 C -0.853229 -2.711657 0.824337 0
M  V30 3 C -0.939432 -3.025084 2.322827 0
M  V30 4 C -0.111584 -3.869116 0.205364 0
M  V30 5 N 1.249715 -3.841099 0.722557 0
M  V30 6 C 2.006451 -2.643343 0.483803 0
M  V30 7 O 3.264622 -2.687234 0.343336 0
M  V30 8 C 1.251183 -1.374297 0.411521 0
M  V30 9 C 1.659638 -0.074041 0.200220 0
M  V30 10 C 0.492586 0.661364 0.242945 0
M  V30 11 C 0.398266 2.118244 0.070259 0
M  V30 12 C -0.839977 2.720337 0.138017 0
M  V30 13 C -0.819696 4.106496 -0.039051 0
M  V30 14 N 0.294219 4.853682 -0.262453 0
M  V30 15 C 1.486536 4.236618 -0.323000 0
M  V30 16 C 1.549613 2.861379 -0.156979 0
M  V30 17 N -0.526198 -0.158564 0.464524 0
M  V30 18 C -0.126696 -1.458639 0.582047 0
M  V30 19 H -2.744971 -1.799203 0.983232 0
M  V30 20 H -2.830886 -3.533132 0.598460 0
M  V30 21 H -2.384813 -2.274408 -0.689767 0
M  V30 22 H -1.312853 -2.146356 2.866371 0
M  V30 23 H -1.590764 -3.925572 2.397829 0
M  V30 24 H 0.075121 -3.352506 2.660922 0
M  V30 25 H -0.062239 -3.790650 -0.884525 0
M  V30 26 H -0.597051 -4.837541 0.458699 0
M  V30 27 H 1.707505 -4.617889 1.246453 0
M  V30 28 H 2.676557 0.248690 0.041529 0
M  V30 29 H -1.755778 2.206581 0.309011 0
M  V30 30 H -1.788899 4.625280 0.008001 0
M  V30 31 H 2.445349 4.708237 -0.493685 0
M  V30 32 H 2.492281 2.298152 -0.195341 0
M  V30 33 H -1.553637 0.094210 0.551882 0
M  V30 END ATOM
M  V30 BEGIN BOND
M  V30 1 1 1 2
M  V30 2 1 2 3
M  V30 3 1 2 4
M  V30 4 1 4 5
M  V30 5 1 5 6
M  V30 6 2 6 7
M  V30 7 1 6 8
M  V30 8 1 8 9
M  V30 9 2 9 10
M  V30 10 1 10 11
M  V30 11 2 11 12
M  V30 12 1 12 13
M  V30 13 2 13 14
M  V30 14 1 14 15
M  V30 15 2 15 16
M  V30 16 1 10 17
M  V30 17 1 17 18
M  V30 18 1 18 2
M  V30 19 2 18 8
M  V30 20 1 16 11
M  V30 21 1 1 19
M  V30 22 1 1 20
M  V30 23 1 1 21
M  V30 24 1 3 22
M  V30 25 1 3 23
M  V30 26 1 3 24
M  V30 27 1 4 25
M  V30 28 1 4 26
M  V30 29 1 5 27
M  V30 30 1 9 28
M  V30 31 1 12 29
M  V30 32 1 13 30
M  V30 33 1 15 31
M  V30 34 1 16 32
M  V30 35 1 17 33
M  V30 END BOND
M  V30 END CTAB
M  END
>  <Dataset>  (687) 
ChEMBL_Kinases

>  <Ligand_Instance>  (687) 
nan

>  <PDB_ID>  (687) 
nan

>  <Standardized_SMILES>  (687) 
CC1(C)CNC(=O)c2cc(-c3ccncc3)[nH]c21

>  <Name>  (687) 
nan

>  <Pocket>  (687) 
nan

>  <ATP_Site>  (687) 
nan

>  <Peripheral>  (687) 
nan

>  <Num_H_Atoms_ProtBoundConf>  (687) 
nan

>  <Num_Resolved_Atoms>  (687) 
nan

>  <Num_Not_Resolved_Atoms>  (687) 
nan

$$$$
CHEMBL459284
     RDKit          3D

  0  0  0  0  0  0  0  0  0  0999 V3000
M  V30 BEGIN CTAB
M  V30 COUNTS 31 33 0 0 0
M  V30 BEGIN ATOM
M  V30 1 C -2.738696 -1.947035 1.787262 0
M  V30 2 C -1.473370 -2.749225 1.656617 0
M  V30 3 C -1.661944 -4.016982 0.880405 0
M  V30 4 N -0.394515 -4.639787 0.634942 0
M  V30 5 C 0.630586 -3.837710 0.046201 0
M  V30 6 O 1.551789 -4.314555 -0.658946 0
M  V30 7 C 0.593504 -2.388445 0.284834 0
M  V30 8 C 1.447941 -1.384605 -0.156617 0
M  V30 9 C 0.911809 -0.246312 0.380310 0
M  V30 10 C 1.452998 1.097659 0.204791 0
M  V30 11 C 2.588287 1.320655 -0.545075 0
M  V30 12 C 3.076246 2.603862 -0.692831 0
M  V30 13 N 2.449277 3.649255 -0.106936 0
M  V30 14 C 1.339135 3.416787 0.624200 0
M  V30 15 N 0.556300 4.393283 1.307411 0
M  V30 16 N 0.873805 2.176227 0.762627 0
M  V30 17 N -0.181000 -0.552031 1.088716 0
M  V30 18 C -0.424073 -1.877098 1.061492 0
M  V30 19 H -3.300868 -2.305480 2.659944 0
M  V30 20 H -2.460992 -0.895731 1.965804 0
M  V30 21 H -3.307043 -2.030726 0.836950 0
M  V30 22 H -1.171858 -3.049121 2.700613 0
M  V30 23 H -2.292382 -3.920726 -0.023667 0
M  V30 24 H -2.235513 -4.727561 1.543928 0
M  V30 25 H -0.152368 -5.647039 0.853484 0
M  V30 26 H 2.318403 -1.524786 -0.777290 0
M  V30 27 H 3.086687 0.473775 -1.013160 0
M  V30 28 H 3.969073 2.793119 -1.280522 0
M  V30 29 H 1.221812 4.571149 2.106463 0
M  V30 30 H -0.354493 4.860117 1.186120 0
M  V30 31 H -0.763903 0.174754 1.597393 0
M  V30 END ATOM
M  V30 BEGIN BOND
M  V30 1 1 1 2
M  V30 2 1 2 3
M  V30 3 1 3 4
M  V30 4 1 4 5
M  V30 5 2 5 6
M  V30 6 1 5 7
M  V30 7 1 7 8
M  V30 8 2 8 9
M  V30 9 1 9 10
M  V30 10 2 10 11
M  V30 11 1 11 12
M  V30 12 2 12 13
M  V30 13 1 13 14
M  V30 14 1 14 15
M  V30 15 2 14 16
M  V30 16 1 9 17
M  V30 17 1 17 18
M  V30 18 1 18 2
M  V30 19 2 18 7
M  V30 20 1 16 10
M  V30 21 1 1 19
M  V30 22 1 1 20
M  V30 23 1 1 21
M  V30 24 1 2 22
M  V30 25 1 3 23
M  V30 26 1 3 24
M  V30 27 1 4 25
M  V30 28 1 8 26
M  V30 29 1 11 27
M  V30 30 1 12 28
M  V30 31 1 15 29
M  V30 32 1 15 30
M  V30 33 1 17 31
M  V30 END BOND
M  V30 END CTAB
M  END
>  <Dataset>  (688) 
ChEMBL_Kinases

>  <Ligand_Instance>  (688) 
nan

>  <PDB_ID>  (688) 
nan

>  <Standardized_SMILES>  (688) 
CC1CNC(=O)c2cc(-c3ccnc(N)n3)[nH]c21

>  <Name>  (688) 
nan

>  <Pocket>  (688) 
nan

>  <ATP_Site>  (688) 
nan

>  <Peripheral>  (688) 
nan

>  <Num_H_Atoms_ProtBoundConf>  (688) 
nan

>  <Num_Resolved_Atoms>  (688) 
nan

>  <Num_Not_Resolved_Atoms>  (688) 
nan

$$$$
CHEMBL4593348
     RDKit          3D

  0  0  0  0  0  0  0  0  0  0999 V3000
M  V30 BEGIN CTAB
M  V30 COUNTS 42 43 0 0 0
M  V30 BEGIN ATOM
M  V30 1 C -0.396515 -4.741158 -1.251435 0
M  V30 2 C 0.436068 -3.528187 -0.949867 0
M  V30 3 C -0.412350 -2.429697 -0.290384 0
M  V30 4 C -1.497238 -2.066161 -1.236165 0
M  V30 5 C -2.446918 -1.012644 -0.782702 0
M  V30 6 C 0.486963 -1.322641 0.140509 0
M  V30 7 N -0.186562 -0.209510 0.777311 0
M  V30 8 C 0.796055 0.730898 1.190841 0
M  V30 9 C 1.274384 1.772996 0.433032 0
M  V30 10 C 0.755915 1.945097 -0.914326 0
M  V30 11 N 1.149995 2.973286 -1.811812 0
M  V30 12 O -0.023350 1.508051 -1.786066 0
M  V30 13 C 2.219049 2.695051 0.814562 0
M  V30 14 N 2.694001 2.517149 2.066346 0
M  V30 15 C 2.291356 1.529498 2.886213 0
M  V30 16 C 2.829334 1.418623 4.153013 0
M  V30 17 C 2.424294 0.405818 5.008560 0
M  V30 18 C 1.460970 -0.492090 4.549744 0
M  V30 19 C 0.990252 -1.567810 5.375760 0
M  V30 20 N 0.617985 -2.445390 6.061670 0
M  V30 21 C 0.905805 -0.403266 3.284745 0
M  V30 22 C 1.328860 0.614437 2.457398 0
M  V30 23 H -0.720710 -4.677710 -2.310276 0
M  V30 24 H 0.206807 -5.682477 -1.164756 0
M  V30 25 H -1.241013 -4.863158 -0.555146 0
M  V30 26 H 0.929944 -3.117243 -1.854138 0
M  V30 27 H 1.235593 -3.823222 -0.238494 0
M  V30 28 H -0.872470 -2.891764 0.623892 0
M  V30 29 H -2.096030 -2.986360 -1.465933 0
M  V30 30 H -1.014207 -1.685293 -2.171445 0
M  V30 31 H -2.752497 -1.111940 0.278374 0
M  V30 32 H -2.166533 0.020527 -0.967381 0
M  V30 33 H -3.409014 -1.163586 -1.356868 0
M  V30 34 H 1.223546 -1.747267 0.865852 0
M  V30 35 H 1.143818 -0.955251 -0.702416 0
M  V30 36 H -1.011359 0.308201 1.113659 0
M  V30 37 H 0.790815 3.942133 -1.951587 0
M  V30 38 H 0.784877 3.953915 -1.951766 0
M  V30 39 H 2.552375 3.491254 0.171191 0
M  V30 40 H 3.590839 2.113227 4.541050 0
M  V30 41 H 2.838935 0.300478 6.017801 0
M  V30 42 H 0.152822 -1.109361 2.933152 0
M  V30 END ATOM
M  V30 BEGIN BOND
M  V30 1 1 1 2
M  V30 2 1 2 3
M  V30 3 1 3 4
M  V30 4 1 4 5
M  V30 5 1 3 6
M  V30 6 1 6 7
M  V30 7 1 7 8
M  V30 8 2 8 9
M  V30 9 1 9 10
M  V30 10 1 10 11
M  V30 11 2 10 12
M  V30 12 1 9 13
M  V30 13 2 13 14
M  V30 14 1 14 15
M  V30 15 2 15 16
M  V30 16 1 16 17
M  V30 17 2 17 18
M  V30 18 1 18 19
M  V30 19 3 19 20
M  V30 20 1 18 21
M  V30 21 2 21 22
M  V30 22 1 22 8
M  V30 23 1 22 15
M  V30 24 1 1 23
M  V30 25 1 1 24
M  V30 26 1 1 25
M  V30 27 1 2 26
M  V30 28 1 2 27
M  V30 29 1 3 28
M  V30 30 1 4 29
M  V30 31 1 4 30
M  V30 32 1 5 31
M  V30 33 1 5 32
M  V30 34 1 5 33
M  V30 35 1 6 34
M  V30 36 1 6 35
M  V30 37 1 7 36
M  V30 38 1 11 37
M  V30 39 1 11 38
M  V30 40 1 13 39
M  V30 41 1 16 40
M  V30 42 1 17 41
M  V30 43 1 21 42
M  V30 END BOND
M  V30 END CTAB
M  END
>  <Dataset>  (689) 
ChEMBL_Kinases

>  <Ligand_Instance>  (689) 
nan

>  <PDB_ID>  (689) 
nan

>  <Standardized_SMILES>  (689) 
CCC(CC)CNc1c(C(N)=O)cnc2ccc(C#N)cc12

>  <Name>  (689) 
nan

>  <Pocket>  (689) 
nan

>  <ATP_Site>  (689) 
nan

>  <Peripheral>  (689) 
nan

>  <Num_H_Atoms_ProtBoundConf>  (689) 
nan

>  <Num_Resolved_Atoms>  (689) 
nan

>  <Num_Not_Resolved_Atoms>  (689) 
nan

$$$$
CHEMBL459283
     RDKit          3D

  0  0  0  0  0  0  0  0  0  0999 V3000
M  V30 BEGIN CTAB
M  V30 COUNTS 39 41 0 0 0
M  V30 BEGIN ATOM
M  V30 1 C -1.388290 -2.824681 2.438766 0
M  V30 2 C -1.700118 -2.563811 1.020779 0
M  V30 3 C -0.621800 -2.152789 0.099402 0
M  V30 4 C 0.528728 -3.106094 -0.053823 0
M  V30 5 C 1.292404 -3.401725 1.197105 0
M  V30 6 C -1.300667 -2.153895 -1.306268 0
M  V30 7 N -0.332762 -1.891898 -2.341642 0
M  V30 8 C 0.221296 -0.574199 -2.224001 0
M  V30 9 O 0.594707 0.092003 -3.230823 0
M  V30 10 C 0.319279 -0.067714 -0.853644 0
M  V30 11 C 0.806564 1.185735 -0.509177 0
M  V30 12 C 0.701795 1.243379 0.862935 0
M  V30 13 C 1.105124 2.396712 1.657960 0
M  V30 14 C 1.629535 3.530088 1.072973 0
M  V30 15 C 1.997258 4.597658 1.869142 0
M  V30 16 N 1.860656 4.567810 3.194926 0
M  V30 17 C 1.349040 3.461768 3.764232 0
M  V30 18 C 0.950755 2.338246 3.046841 0
M  V30 19 N 0.180157 0.076955 1.272107 0
M  V30 20 C -0.084391 -0.786321 0.280847 0
M  V30 21 H -0.916367 -3.828988 2.575835 0
M  V30 22 H -2.402209 -2.972586 2.947012 0
M  V30 23 H -0.919474 -2.039700 3.022734 0
M  V30 24 H -2.202134 -3.476647 0.612789 0
M  V30 25 H -2.494445 -1.765345 0.982278 0
M  V30 26 H 1.244587 -2.691283 -0.811932 0
M  V30 27 H 0.182229 -4.074483 -0.521754 0
M  V30 28 H 1.124476 -4.458118 1.548605 0
M  V30 29 H 1.128248 -2.722828 2.035913 0
M  V30 30 H 2.403498 -3.340931 0.982868 0
M  V30 31 H -1.726397 -3.177567 -1.423345 0
M  V30 32 H -2.115456 -1.432663 -1.228072 0
M  V30 33 H 0.007730 -2.508152 -3.141138 0
M  V30 34 H 1.190066 1.969272 -1.135205 0
M  V30 35 H 1.751747 3.580536 -0.008127 0
M  V30 36 H 2.407741 5.474989 1.367710 0
M  V30 37 H 1.237046 3.438746 4.857620 0
M  V30 38 H 0.548406 1.480763 3.549257 0
M  V30 39 H 0.028400 -0.063048 2.274426 0
M  V30 END ATOM
M  V30 BEGIN BOND
M  V30 1 1 1 2
M  V30 2 1 2 3
M  V30 3 1 3 4
M  V30 4 1 4 5
M  V30 5 1 3 6
M  V30 6 1 6 7
M  V30 7 1 7 8
M  V30 8 2 8 9
M  V30 9 1 8 10
M  V30 10 1 10 11
M  V30 11 2 11 12
M  V30 12 1 12 13
M  V30 13 2 13 14
M  V30 14 1 14 15
M  V30 15 2 15 16
M  V30 16 1 16 17
M  V30 17 2 17 18
M  V30 18 1 12 19
M  V30 19 1 19 20
M  V30 20 1 20 3
M  V30 21 2 20 10
M  V30 22 1 18 13
M  V30 23 1 1 21
M  V30 24 1 1 22
M  V30 25 1 1 23
M  V30 26 1 2 24
M  V30 27 1 2 25
M  V30 28 1 4 26
M  V30 29 1 4 27
M  V30 30 1 5 28
M  V30 31 1 5 29
M  V30 32 1 5 30
M  V30 33 1 6 31
M  V30 34 1 6 32
M  V30 35 1 7 33
M  V30 36 1 11 34
M  V30 37 1 14 35
M  V30 38 1 15 36
M  V30 39 1 17 37
M  V30 40 1 18 38
M  V30 41 1 19 39
M  V30 END BOND
M  V30 END CTAB
M  END
>  <Dataset>  (690) 
ChEMBL_Kinases

>  <Ligand_Instance>  (690) 
nan

>  <PDB_ID>  (690) 
nan

>  <Standardized_SMILES>  (690) 
CCC1(CC)CNC(=O)c2cc(-c3ccncc3)[nH]c21

>  <Name>  (690) 
nan

>  <Pocket>  (690) 
nan

>  <ATP_Site>  (690) 
nan

>  <Peripheral>  (690) 
nan

>  <Num_H_Atoms_ProtBoundConf>  (690) 
nan

>  <Num_Resolved_Atoms>  (690) 
nan

>  <Num_Not_Resolved_Atoms>  (690) 
nan

$$$$
CHEMBL4592746
     RDKit          3D

  0  0  0  0  0  0  0  0  0  0999 V3000
M  V30 BEGIN CTAB
M  V30 COUNTS 61 64 0 0 0
M  V30 BEGIN ATOM
M  V30 1 C 3.090744 3.943960 -5.193444 0
M  V30 2 C 2.796682 3.119646 -4.167147 0
M  V30 3 S 3.871072 3.216971 -2.784901 0
M  V30 4 O 5.096671 2.394681 -3.104937 0
M  V30 5 O 4.245192 4.658652 -2.595780 0
M  V30 6 N 3.162150 2.571124 -1.350422 0
M  V30 7 C 2.844366 1.168252 -1.493927 0
M  V30 8 C 2.246899 0.741866 -0.200638 0
M  V30 9 C 3.142704 0.265594 0.764239 0
M  V30 10 C 2.677471 -0.149453 1.991094 0
M  V30 11 C 1.347540 -0.127442 2.345873 0
M  V30 12 O 0.821072 -0.531728 3.563308 0
M  V30 13 C 1.740115 -1.010638 4.527718 0
M  V30 14 C 0.493051 0.353098 1.356963 0
M  V30 15 N -0.894394 0.402628 1.665015 0
M  V30 16 C -2.077997 0.794034 0.986188 0
M  V30 17 N -2.636678 -0.244933 0.343518 0
M  V30 18 C -3.765745 -0.170862 -0.382760 0
M  V30 19 N -4.365021 -1.273277 -1.067367 0
M  V30 20 C -3.754455 -2.550049 -1.103236 0
M  V30 21 C -4.505768 -3.542751 -0.467324 0
M  V30 22 C -3.968068 -4.826866 -0.456795 0
M  V30 23 C -2.750679 -5.040796 -1.061828 0
M  V30 24 C -2.061445 -4.038793 -1.667330 0
M  V30 25 C -2.541376 -2.757673 -1.709129 0
M  V30 26 C -1.805326 -1.724516 -2.400157 0
M  V30 27 O -2.048575 -0.531133 -2.653953 0
M  V30 28 N -0.527624 -2.001779 -2.948729 0
M  V30 29 C 0.088293 -0.863988 -3.614171 0
M  V30 30 C -4.343681 1.079542 -0.435112 0
M  V30 31 C -5.469115 1.558006 -1.052481 0
M  V30 32 C -5.586129 2.892074 -0.778383 0
M  V30 33 N -4.555648 3.265436 0.000687 0
M  V30 34 C -3.803688 2.169648 0.208745 0
M  V30 35 N -2.667169 2.003051 0.915507 0
M  V30 36 C 0.921329 0.777009 0.118273 0
M  V30 37 H 3.950810 4.629774 -5.157075 0
M  V30 38 H 3.560920 4.681548 -5.812074 0
M  V30 39 H 1.901403 2.526515 -4.417506 0
M  V30 40 H 2.422744 3.149176 -0.941367 0
M  V30 41 H 3.801474 0.646163 -1.660300 0
M  V30 42 H 2.121373 1.003369 -2.318225 0
M  V30 43 H 4.190218 0.219673 0.559086 0
M  V30 44 H 3.377718 -0.512905 2.722531 0
M  V30 45 H 2.368089 -0.147602 4.863773 0
M  V30 46 H 2.422363 -1.731381 4.045719 0
M  V30 47 H 1.242630 -1.406271 5.433182 0
M  V30 48 H -1.273644 0.105047 2.589262 0
M  V30 49 H -5.272974 -1.123506 -1.547698 0
M  V30 50 H -5.458903 -3.357633 0.002571 0
M  V30 51 H -4.546287 -5.605701 0.034787 0
M  V30 52 H -2.429762 -6.062376 -0.995662 0
M  V30 53 H -1.130983 -4.378260 -2.088363 0
M  V30 54 H -0.024750 -2.925514 -2.907275 0
M  V30 55 H -0.440146 -0.659843 -4.580570 0
M  V30 56 H 1.144897 -1.067104 -3.881776 0
M  V30 57 H 0.040427 0.063538 -3.041575 0
M  V30 58 H -6.129771 0.934725 -1.653387 0
M  V30 59 H -6.392367 3.543226 -1.139260 0
M  V30 60 H -4.328845 4.199826 0.396373 0
M  V30 61 H 0.243125 1.137143 -0.613230 0
M  V30 END ATOM
M  V30 BEGIN BOND
M  V30 1 2 1 2
M  V30 2 1 2 3
M  V30 3 2 3 4
M  V30 4 2 3 5
M  V30 5 1 3 6
M  V30 6 1 6 7
M  V30 7 1 7 8
M  V30 8 2 8 9
M  V30 9 1 9 10
M  V30 10 2 10 11
M  V30 11 1 11 12
M  V30 12 1 12 13
M  V30 13 1 11 14
M  V30 14 1 14 15
M  V30 15 1 15 16
M  V30 16 2 16 17
M  V30 17 1 17 18
M  V30 18 1 18 19
M  V30 19 1 19 20
M  V30 20 2 20 21
M  V30 21 1 21 22
M  V30 22 2 22 23
M  V30 23 1 23 24
M  V30 24 2 24 25
M  V30 25 1 25 26
M  V30 26 2 26 27
M  V30 27 1 26 28
M  V30 28 1 28 29
M  V30 29 2 18 30
M  V30 30 1 30 31
M  V30 31 2 31 32
M  V30 32 1 32 33
M  V30 33 1 33 34
M  V30 34 2 34 35
M  V30 35 2 14 36
M  V30 36 1 36 8
M  V30 37 1 35 16
M  V30 38 1 25 20
M  V30 39 1 34 30
M  V30 40 1 1 37
M  V30 41 1 1 38
M  V30 42 1 2 39
M  V30 43 1 6 40
M  V30 44 1 7 41
M  V30 45 1 7 42
M  V30 46 1 9 43
M  V30 47 1 10 44
M  V30 48 1 13 45
M  V30 49 1 13 46
M  V30 50 1 13 47
M  V30 51 1 15 48
M  V30 52 1 19 49
M  V30 53 1 21 50
M  V30 54 1 22 51
M  V30 55 1 23 52
M  V30 56 1 24 53
M  V30 57 1 28 54
M  V30 58 1 29 55
M  V30 59 1 29 56
M  V30 60 1 29 57
M  V30 61 1 31 58
M  V30 62 1 32 59
M  V30 63 1 33 60
M  V30 64 1 36 61
M  V30 END BOND
M  V30 END CTAB
M  END
>  <Dataset>  (691) 
ChEMBL_Kinases

>  <Ligand_Instance>  (691) 
nan

>  <PDB_ID>  (691) 
nan

>  <Standardized_SMILES>  (691) 
C=CS(=O)(=O)NCc1ccc(OC)c(Nc2nc(Nc3ccccc3C(=O)NC)c3cc[nH]c3n2)c1

>  <Name>  (691) 
nan

>  <Pocket>  (691) 
nan

>  <ATP_Site>  (691) 
nan

>  <Peripheral>  (691) 
nan

>  <Num_H_Atoms_ProtBoundConf>  (691) 
nan

>  <Num_Resolved_Atoms>  (691) 
nan

>  <Num_Not_Resolved_Atoms>  (691) 
nan

$$$$
CHEMBL4593398
     RDKit          3D

  0  0  0  0  0  0  0  0  0  0999 V3000
M  V30 BEGIN CTAB
M  V30 COUNTS 40 44 0 0 0
M  V30 BEGIN ATOM
M  V30 1 F 4.848631 -1.528182 3.043411 0
M  V30 2 C 3.662746 -1.171523 2.406651 0
M  V30 3 F 3.238990 0.012423 2.896016 0
M  V30 4 F 2.717574 -2.152778 2.765582 0
M  V30 5 C 3.862264 -1.229047 0.939824 0
M  V30 6 N 4.932740 -1.588362 0.205176 0
M  V30 7 N 4.677979 -1.518604 -1.079175 0
M  V30 8 C 3.410092 -1.104448 -1.215208 0
M  V30 9 C 2.843162 -0.903496 0.044429 0
M  V30 10 C 1.507265 -0.417715 0.337561 0
M  V30 11 N 1.516491 0.734925 1.025375 0
M  V30 12 C 0.355853 1.319739 1.375754 0
M  V30 13 C 0.375455 2.495572 2.074945 0
M  V30 14 C -0.822906 3.112760 2.441191 0
M  V30 15 C -1.982780 2.472988 2.062638 0
M  V30 16 N -3.269846 2.871360 2.305456 0
M  V30 17 N -4.007160 1.923243 1.749583 0
M  V30 18 C -3.249272 0.975610 1.184820 0
M  V30 19 C -1.941651 1.305553 1.369746 0
M  V30 20 C -0.795347 0.675022 0.993262 0
M  V30 21 C -0.925364 -0.480206 0.303866 0
M  V30 22 C 0.330275 -1.037829 -0.030129 0
M  V30 23 C 0.420630 -2.314255 -0.774722 0
M  V30 24 C -0.606047 -3.325152 -0.345178 0
M  V30 25 C -1.782874 -2.708057 0.368168 0
M  V30 26 C -2.003766 -1.280520 -0.168533 0
M  V30 27 H 5.304062 -1.730783 -1.912713 0
M  V30 28 H 2.847201 -0.930008 -2.115043 0
M  V30 29 H 1.321875 2.932723 2.337903 0
M  V30 30 H -0.817635 4.043744 2.991059 0
M  V30 31 H -3.527323 3.742569 2.823182 0
M  V30 32 H -3.877566 0.257442 0.775285 0
M  V30 33 H 0.345192 -2.072298 -1.851296 0
M  V30 34 H 1.428248 -2.736413 -0.604331 0
M  V30 35 H -0.154121 -4.073533 0.328421 0
M  V30 36 H -0.942286 -3.873968 -1.252506 0
M  V30 37 H -2.682409 -3.274794 0.087195 0
M  V30 38 H -1.641746 -2.740224 1.433079 0
M  V30 39 H -1.711331 -1.494694 -1.289379 0
M  V30 40 H -3.001818 -1.037229 -0.325538 0
M  V30 END ATOM
M  V30 BEGIN BOND
M  V30 1 1 1 2
M  V30 2 1 2 3
M  V30 3 1 2 4
M  V30 4 1 2 5
M  V30 5 2 5 6
M  V30 6 1 6 7
M  V30 7 1 7 8
M  V30 8 2 8 9
M  V30 9 1 9 10
M  V30 10 2 10 11
M  V30 11 1 11 12
M  V30 12 2 12 13
M  V30 13 1 13 14
M  V30 14 2 14 15
M  V30 15 1 15 16
M  V30 16 1 16 17
M  V30 17 2 17 18
M  V30 18 1 18 19
M  V30 19 2 19 20
M  V30 20 1 20 21
M  V30 21 2 21 22
M  V30 22 1 22 23
M  V30 23 1 23 24
M  V30 24 1 24 25
M  V30 25 1 25 26
M  V30 26 1 9 5
M  V30 27 1 22 10
M  V30 28 1 20 12
M  V30 29 1 26 21
M  V30 30 1 19 15
M  V30 31 1 7 27
M  V30 32 1 8 28
M  V30 33 1 13 29
M  V30 34 1 14 30
M  V30 35 1 16 31
M  V30 36 1 18 32
M  V30 37 1 23 33
M  V30 38 1 23 34
M  V30 39 1 24 35
M  V30 40 1 24 36
M  V30 41 1 25 37
M  V30 42 1 25 38
M  V30 43 1 26 39
M  V30 44 1 26 40
M  V30 END BOND
M  V30 END CTAB
M  END
>  <Dataset>  (692) 
ChEMBL_Kinases

>  <Ligand_Instance>  (692) 
nan

>  <PDB_ID>  (692) 
nan

>  <Standardized_SMILES>  (692) 
FC(F)(F)c1n[nH]cc1-c1nc2ccc3[nH]ncc3c2c2c1CCCC2

>  <Name>  (692) 
nan

>  <Pocket>  (692) 
nan

>  <ATP_Site>  (692) 
nan

>  <Peripheral>  (692) 
nan

>  <Num_H_Atoms_ProtBoundConf>  (692) 
nan

>  <Num_Resolved_Atoms>  (692) 
nan

>  <Num_Not_Resolved_Atoms>  (692) 
nan

$$$$
CHEMBL459343
     RDKit          3D

  0  0  0  0  0  0  0  0  0  0999 V3000
M  V30 BEGIN CTAB
M  V30 COUNTS 29 30 0 0 0
M  V30 BEGIN ATOM
M  V30 1 O 4.010255 -4.024033 3.370258 0
M  V30 2 P 2.808018 -3.454034 4.101367 0
M  V30 3 O 1.812700 -4.732599 4.525495 0
M  V30 4 O 3.400158 -2.780095 5.544254 0
M  V30 5 O 2.068267 -2.311027 3.119403 0
M  V30 6 C 0.865785 -2.734445 2.566655 0
M  V30 7 C 0.220491 -1.707256 1.696622 0
M  V30 8 C 1.090287 -1.293477 0.511450 0
M  V30 9 N 0.322427 -0.288064 -0.238905 0
M  V30 10 N 0.394795 1.028721 0.003819 0
M  V30 11 C -0.435804 1.663855 -0.862989 0
M  V30 12 C -0.789808 2.959514 -1.107536 0
M  V30 13 Br -0.014207 4.344081 -0.057218 0
M  V30 14 C -1.688536 3.338981 -2.082947 0
M  V30 15 Br -2.164346 5.163003 -2.401600 0
M  V30 16 C -2.252959 2.320512 -2.848667 0
M  V30 17 Br -3.514513 2.715480 -4.234590 0
M  V30 18 C -1.945391 0.984245 -2.661856 0
M  V30 19 Br -2.733644 -0.387507 -3.724962 0
M  V30 20 C -1.032981 0.689679 -1.660551 0
M  V30 21 N -0.525722 -0.501032 -1.229011 0
M  V30 22 H 1.131628 -4.397858 5.154550 0
M  V30 23 H 2.917887 -1.936714 5.732295 0
M  V30 24 H 1.135200 -3.593849 1.892820 0
M  V30 25 H 0.128465 -3.088227 3.283144 0
M  V30 26 H -0.682240 -2.191728 1.249448 0
M  V30 27 H -0.140858 -0.816606 2.233323 0
M  V30 28 H 2.020842 -0.878166 0.915552 0
M  V30 29 H 1.316700 -2.143753 -0.140929 0
M  V30 END ATOM
M  V30 BEGIN BOND
M  V30 1 2 1 2
M  V30 2 1 2 3
M  V30 3 1 2 4
M  V30 4 1 2 5
M  V30 5 1 5 6
M  V30 6 1 6 7
M  V30 7 1 7 8
M  V30 8 1 8 9
M  V30 9 1 9 10
M  V30 10 2 10 11
M  V30 11 1 11 12
M  V30 12 1 12 13
M  V30 13 2 12 14
M  V30 14 1 14 15
M  V30 15 1 14 16
M  V30 16 1 16 17
M  V30 17 2 16 18
M  V30 18 1 18 19
M  V30 19 1 18 20
M  V30 20 2 20 21
M  V30 21 1 21 9
M  V30 22 1 20 11
M  V30 23 1 3 22
M  V30 24 1 4 23
M  V30 25 1 6 24
M  V30 26 1 6 25
M  V30 27 1 7 26
M  V30 28 1 7 27
M  V30 29 1 8 28
M  V30 30 1 8 29
M  V30 END BOND
M  V30 END CTAB
M  END
>  <Dataset>  (693) 
ChEMBL_Kinases

>  <Ligand_Instance>  (693) 
nan

>  <PDB_ID>  (693) 
nan

>  <Standardized_SMILES>  (693) 
O=P(O)(O)OCCCn1nc2c(Br)c(Br)c(Br)c(Br)c2n1

>  <Name>  (693) 
nan

>  <Pocket>  (693) 
nan

>  <ATP_Site>  (693) 
nan

>  <Peripheral>  (693) 
nan

>  <Num_H_Atoms_ProtBoundConf>  (693) 
nan

>  <Num_Resolved_Atoms>  (693) 
nan

>  <Num_Not_Resolved_Atoms>  (693) 
nan

$$$$
CHEMBL4592358
     RDKit          3D

  0  0  0  0  0  0  0  0  0  0999 V3000
M  V30 BEGIN CTAB
M  V30 COUNTS 47 49 0 0 0
M  V30 BEGIN ATOM
M  V30 1 C 1.361875 -3.543161 1.284301 0
M  V30 2 C 2.515742 -3.559690 0.331638 0
M  V30 3 C 3.530691 -4.617824 0.734908 0
M  V30 4 C 3.182703 -2.180462 0.250664 0
M  V30 5 C 2.139873 -1.234259 -0.224946 0
M  V30 6 N 0.882739 -1.209893 -0.368111 0
M  V30 7 C 0.141567 -0.105798 -0.872593 0
M  V30 8 C 0.148573 0.270078 -2.203944 0
M  V30 9 C 0.852708 -0.323045 -3.302500 0
M  V30 10 N 1.422128 -0.828452 -4.201484 0
M  V30 11 C -0.686857 1.365464 -2.254725 0
M  V30 12 N -1.179493 1.643541 -1.011744 0
M  V30 13 C -0.662938 0.727521 -0.155069 0
M  V30 14 C -0.983480 0.732034 1.259672 0
M  V30 15 O -1.757199 1.580964 1.800493 0
M  V30 16 N -0.477310 -0.201431 2.202567 0
M  V30 17 C -0.839778 -0.129282 3.573866 0
M  V30 18 C -0.115810 0.611210 4.498690 0
M  V30 19 C -0.482410 0.669991 5.826272 0
M  V30 20 C -1.594012 -0.013999 6.281806 0
M  V30 21 Br -2.146182 0.033908 8.113898 0
M  V30 22 C -2.329794 -0.753997 5.394351 0
M  V30 23 C -1.940339 -0.794416 4.075151 0
M  V30 24 C -2.064829 2.814597 -1.098921 0
M  V30 25 C -2.545869 2.705491 -2.530992 0
M  V30 26 C -1.245354 2.367953 -3.227912 0
M  V30 27 H 1.173668 -4.590268 1.642577 0
M  V30 28 H 1.561856 -2.883959 2.168048 0
M  V30 29 H 0.404426 -3.198254 0.845531 0
M  V30 30 H 2.140310 -3.872773 -0.660377 0
M  V30 31 H 4.189412 -4.300476 1.545538 0
M  V30 32 H 4.060197 -5.001530 -0.163023 0
M  V30 33 H 2.914953 -5.474342 1.111362 0
M  V30 34 H 4.058226 -2.209592 -0.406547 0
M  V30 35 H 3.553517 -1.899435 1.255770 0
M  V30 36 H 2.607924 -0.305698 -0.532672 0
M  V30 37 H 0.171226 -0.951965 1.880472 0
M  V30 38 H 0.754980 1.141879 4.121822 0
M  V30 39 H 0.092108 1.251147 6.532391 0
M  V30 40 H -3.199488 -1.296169 5.720494 0
M  V30 41 H -2.511834 -1.378220 3.348740 0
M  V30 42 H -1.443330 3.733822 -1.067860 0
M  V30 43 H -2.868154 2.781562 -0.360400 0
M  V30 44 H -3.036479 3.604121 -2.904862 0
M  V30 45 H -3.189883 1.794578 -2.652849 0
M  V30 46 H -1.432631 1.890092 -4.211672 0
M  V30 47 H -0.537866 3.194167 -3.266221 0
M  V30 END ATOM
M  V30 BEGIN BOND
M  V30 1 1 1 2
M  V30 2 1 2 3
M  V30 3 1 2 4
M  V30 4 1 4 5
M  V30 5 2 5 6
M  V30 6 1 6 7
M  V30 7 1 7 8
M  V30 8 1 8 9
M  V30 9 3 9 10
M  V30 10 2 8 11
M  V30 11 1 11 12
M  V30 12 1 12 13
M  V30 13 1 13 14
M  V30 14 2 14 15
M  V30 15 1 14 16
M  V30 16 1 16 17
M  V30 17 2 17 18
M  V30 18 1 18 19
M  V30 19 2 19 20
M  V30 20 1 20 21
M  V30 21 1 20 22
M  V30 22 2 22 23
M  V30 23 1 12 24
M  V30 24 1 24 25
M  V30 25 1 25 26
M  V30 26 2 13 7
M  V30 27 1 23 17
M  V30 28 1 26 11
M  V30 29 1 1 27
M  V30 30 1 1 28
M  V30 31 1 1 29
M  V30 32 1 2 30
M  V30 33 1 3 31
M  V30 34 1 3 32
M  V30 35 1 3 33
M  V30 36 1 4 34
M  V30 37 1 4 35
M  V30 38 1 5 36
M  V30 39 1 16 37
M  V30 40 1 18 38
M  V30 41 1 19 39
M  V30 42 1 22 40
M  V30 43 1 23 41
M  V30 44 1 24 42
M  V30 45 1 24 43
M  V30 46 1 25 44
M  V30 47 1 25 45
M  V30 48 1 26 46
M  V30 49 1 26 47
M  V30 END BOND
M  V30 END CTAB
M  END
>  <Dataset>  (694) 
ChEMBL_Kinases

>  <Ligand_Instance>  (694) 
nan

>  <PDB_ID>  (694) 
nan

>  <Standardized_SMILES>  (694) 
CC(C)C/C=N/c1c(C#N)c2n(c1C(=O)Nc1ccc(Br)cc1)CCC2

>  <Name>  (694) 
nan

>  <Pocket>  (694) 
nan

>  <ATP_Site>  (694) 
nan

>  <Peripheral>  (694) 
nan

>  <Num_H_Atoms_ProtBoundConf>  (694) 
nan

>  <Num_Resolved_Atoms>  (694) 
nan

>  <Num_Not_Resolved_Atoms>  (694) 
nan

$$$$
CHEMBL459346
     RDKit          3D

  0  0  0  0  0  0  0  0  0  0999 V3000
M  V30 BEGIN CTAB
M  V30 COUNTS 24 25 0 0 0
M  V30 BEGIN ATOM
M  V30 1 O -0.659925 -2.151993 0.125783 0
M  V30 2 C -0.593359 -3.120245 1.098951 0
M  V30 3 C -0.288729 -2.576319 2.459599 0
M  V30 4 C 1.037602 -1.848648 2.533638 0
M  V30 5 N 1.085797 -0.716510 1.630583 0
M  V30 6 N 1.464517 -0.555856 0.373492 0
M  V30 7 C 1.309358 0.723430 -0.010681 0
M  V30 8 C 1.565157 1.364747 -1.215847 0
M  V30 9 Br 2.266919 0.435609 -2.725026 0
M  V30 10 C 1.298698 2.717640 -1.311242 0
M  V30 11 Br 1.621740 3.679992 -2.935050 0
M  V30 12 C 0.790786 3.373871 -0.208037 0
M  V30 13 Br 0.393840 5.256523 -0.261412 0
M  V30 14 C 0.528515 2.756812 1.000560 0
M  V30 15 Br -0.174273 3.696136 2.506101 0
M  V30 16 C 0.801724 1.405664 1.074307 0
M  V30 17 N 0.680432 0.490668 2.054162 0
M  V30 18 H -0.401397 -2.544975 -0.745827 0
M  V30 19 H -1.563441 -3.624406 1.137669 0
M  V30 20 H 0.154799 -3.913519 0.877186 0
M  V30 21 H -1.064923 -1.776693 2.654525 0
M  V30 22 H -0.404568 -3.328932 3.239671 0
M  V30 23 H 1.202634 -1.547507 3.576340 0
M  V30 24 H 1.800237 -2.603743 2.224566 0
M  V30 END ATOM
M  V30 BEGIN BOND
M  V30 1 1 1 2
M  V30 2 1 2 3
M  V30 3 1 3 4
M  V30 4 1 4 5
M  V30 5 1 5 6
M  V30 6 2 6 7
M  V30 7 1 7 8
M  V30 8 1 8 9
M  V30 9 2 8 10
M  V30 10 1 10 11
M  V30 11 1 10 12
M  V30 12 1 12 13
M  V30 13 2 12 14
M  V30 14 1 14 15
M  V30 15 1 14 16
M  V30 16 2 16 17
M  V30 17 1 17 5
M  V30 18 1 16 7
M  V30 19 1 1 18
M  V30 20 1 2 19
M  V30 21 1 2 20
M  V30 22 1 3 21
M  V30 23 1 3 22
M  V30 24 1 4 23
M  V30 25 1 4 24
M  V30 END BOND
M  V30 END CTAB
M  END
>  <Dataset>  (695) 
ChEMBL_Kinases

>  <Ligand_Instance>  (695) 
nan

>  <PDB_ID>  (695) 
nan

>  <Standardized_SMILES>  (695) 
OCCCn1nc2c(Br)c(Br)c(Br)c(Br)c2n1

>  <Name>  (695) 
nan

>  <Pocket>  (695) 
nan

>  <ATP_Site>  (695) 
nan

>  <Peripheral>  (695) 
nan

>  <Num_H_Atoms_ProtBoundConf>  (695) 
nan

>  <Num_Resolved_Atoms>  (695) 
nan

>  <Num_Not_Resolved_Atoms>  (695) 
nan

$$$$
CHEMBL4593509
     RDKit          3D

  0  0  0  0  0  0  0  0  0  0999 V3000
M  V30 BEGIN CTAB
M  V30 COUNTS 51 54 0 0 0
M  V30 BEGIN ATOM
M  V30 1 C 4.979864 -4.556204 2.012843 0
M  V30 2 N 5.935797 -3.493363 1.935357 0
M  V30 3 N 7.243359 -3.558136 2.154790 0
M  V30 4 C 7.785249 -2.341359 1.979165 0
M  V30 5 C 6.750827 -1.495006 1.635147 0
M  V30 6 Cl 6.982653 0.195207 1.309236 0
M  V30 7 C 5.571683 -2.240769 1.609646 0
M  V30 8 C 4.318586 -1.602961 1.276060 0
M  V30 9 C 3.191050 -1.870721 2.040112 0
M  V30 10 C 1.970714 -1.289582 1.765977 0
M  V30 11 C 1.811472 -0.410349 0.714499 0
M  V30 12 C 0.580989 0.269718 0.318859 0
M  V30 13 O 0.530937 1.070484 -0.672509 0
M  V30 14 N -0.664522 0.099589 1.001419 0
M  V30 15 C -1.876919 0.804211 0.568019 0 CFG=2
M  V30 16 C -2.277928 1.740640 1.667776 0
M  V30 17 N -3.530700 1.428837 2.311015 0
M  V30 18 C -3.476769 0.017840 2.636140 0
M  V30 19 C -3.619974 -0.750570 1.366112 0
M  V30 20 C -2.883541 -0.191964 0.182100 0 CFG=1
M  V30 21 C -3.782423 0.165803 -0.936146 0
M  V30 22 C -4.626684 1.252410 -0.963231 0
M  V30 23 C -5.465944 1.583557 -2.005292 0
M  V30 24 C -5.485966 0.781836 -3.127631 0
M  V30 25 C -4.678406 -0.332788 -3.203924 0
M  V30 26 F -4.654934 -1.153571 -4.274872 0
M  V30 27 C -3.872351 -0.586934 -2.116364 0
M  V30 28 C 2.937809 -0.149788 -0.040009 0
M  V30 29 C 4.164131 -0.724391 0.223594 0
M  V30 30 H 4.473119 -4.635184 3.002172 0
M  V30 31 H 5.553071 -5.520659 1.908520 0
M  V30 32 H 4.206960 -4.494403 1.221147 0
M  V30 33 H 8.820325 -2.105144 2.091264 0
M  V30 34 H 3.231270 -2.550828 2.884748 0
M  V30 35 H 1.085713 -1.487796 2.350566 0
M  V30 36 H -0.638903 -0.552387 1.812871 0
M  V30 37 H -1.618698 1.428131 -0.328921 0
M  V30 38 H -2.232973 2.812878 1.346092 0
M  V30 39 H -1.525366 1.722611 2.519337 0
M  V30 40 H -3.567476 1.952269 3.211201 0
M  V30 41 H -2.555419 -0.244955 3.194898 0
M  V30 42 H -4.330114 -0.250174 3.299805 0
M  V30 43 H -4.699210 -0.812135 1.045015 0
M  V30 44 H -3.336082 -1.806564 1.584259 0
M  V30 45 H -2.315600 -1.104658 -0.229439 0
M  V30 46 H -4.672624 1.921610 -0.141982 0
M  V30 47 H -6.114287 2.448849 -1.984183 0
M  V30 48 H -6.112734 0.969215 -3.987064 0
M  V30 49 H -3.232194 -1.481151 -2.191308 0
M  V30 50 H 2.914774 0.523618 -0.882646 0
M  V30 51 H 5.056091 -0.521523 -0.369580 0
M  V30 END ATOM
M  V30 BEGIN BOND
M  V30 1 1 1 2
M  V30 2 1 2 3
M  V30 3 2 3 4
M  V30 4 1 4 5
M  V30 5 1 5 6
M  V30 6 2 5 7
M  V30 7 1 7 8
M  V30 8 2 8 9
M  V30 9 1 9 10
M  V30 10 2 10 11
M  V30 11 1 11 12
M  V30 12 2 12 13
M  V30 13 1 12 14
M  V30 14 1 14 15
M  V30 15 1 15 16
M  V30 16 1 16 17
M  V30 17 1 17 18
M  V30 18 1 18 19
M  V30 19 1 19 20
M  V30 20 1 20 21
M  V30 21 2 21 22
M  V30 22 1 22 23
M  V30 23 2 23 24
M  V30 24 1 24 25
M  V30 25 1 25 26
M  V30 26 2 25 27
M  V30 27 1 11 28
M  V30 28 2 28 29
M  V30 29 1 7 2
M  V30 30 1 29 8
M  V30 31 1 20 15
M  V30 32 1 27 21
M  V30 33 1 1 30
M  V30 34 1 1 31
M  V30 35 1 1 32
M  V30 36 1 4 33
M  V30 37 1 9 34
M  V30 38 1 10 35
M  V30 39 1 14 36
M  V30 40 1 15 37 CFG=3
M  V30 41 1 16 38
M  V30 42 1 16 39
M  V30 43 1 17 40
M  V30 44 1 18 41
M  V30 45 1 18 42
M  V30 46 1 19 43
M  V30 47 1 19 44
M  V30 48 1 20 45 CFG=3
M  V30 49 1 22 46
M  V30 50 1 23 47
M  V30 51 1 24 48
M  V30 52 1 27 49
M  V30 53 1 28 50
M  V30 54 1 29 51
M  V30 END BOND
M  V30 END CTAB
M  END
>  <Dataset>  (696) 
ChEMBL_Kinases

>  <Ligand_Instance>  (696) 
nan

>  <PDB_ID>  (696) 
nan

>  <Standardized_SMILES>  (696) 
Cn1ncc(Cl)c1-c1ccc(C(=O)N[C@@H]2CNCC[C@H]2c2cccc(F)c2)cc1

>  <Name>  (696) 
nan

>  <Pocket>  (696) 
nan

>  <ATP_Site>  (696) 
nan

>  <Peripheral>  (696) 
nan

>  <Num_H_Atoms_ProtBoundConf>  (696) 
nan

>  <Num_Resolved_Atoms>  (696) 
nan

>  <Num_Not_Resolved_Atoms>  (696) 
nan

$$$$
CHEMBL4593539
     RDKit          3D

  0  0  0  0  0  0  0  0  0  0999 V3000
M  V30 BEGIN CTAB
M  V30 COUNTS 65 67 0 0 0
M  V30 BEGIN ATOM
M  V30 1 C 3.009702 0.355304 5.925586 0
M  V30 2 C 3.384286 1.094095 4.662543 0
M  V30 3 N 3.089668 0.286937 3.492850 0
M  V30 4 C 3.363111 0.789873 2.183681 0
M  V30 5 O 3.858754 1.905256 1.933199 0
M  V30 6 N 3.008531 -0.114395 1.171333 0
M  V30 7 C 3.123806 0.133328 -0.212948 0
M  V30 8 C 2.459701 1.361322 -0.723431 0
M  V30 9 C 3.233200 2.337367 -1.362873 0
M  V30 10 C 2.741969 3.439764 -2.003180 0
M  V30 11 C 1.388706 3.610980 -2.026162 0
M  V30 12 C 0.589569 2.667437 -1.403250 0
M  V30 13 C 1.107833 1.545937 -0.748903 0
M  V30 14 C 0.163089 0.632901 -0.127865 0
M  V30 15 C -0.947998 0.314234 -0.912849 0
M  V30 16 C -1.749807 -0.622209 -0.301996 0
M  V30 17 C -2.952641 -1.038236 -1.194582 0
M  V30 18 C -4.144083 -1.078117 -1.821064 0
M  V30 19 N -4.232771 -2.092924 -2.579497 0
M  V30 20 C -3.761794 -2.981991 -2.969001 0
M  V30 21 N -3.375667 -4.234971 -3.643132 0
M  V30 22 C -2.081704 -4.417564 -4.326536 0
M  V30 23 C -1.932228 -3.429005 -5.433210 0
M  V30 24 C -1.839244 -5.836931 -4.666539 0
M  V30 25 S -2.165354 -2.649313 -1.933525 0
M  V30 26 N -1.605306 -1.220304 0.876444 0
M  V30 27 C -0.524804 -0.883622 1.598560 0
M  V30 28 N -0.192362 -1.408437 2.863870 0
M  V30 29 C -0.917712 -0.772418 3.919454 0
M  V30 30 C -2.413885 -1.003758 3.817793 0
M  V30 31 N -3.036577 -0.327523 4.935566 0
M  V30 32 C -2.953889 1.115680 4.844302 0
M  V30 33 N 0.269854 0.014124 1.037369 0
M  V30 34 H 3.797075 0.448042 6.703721 0
M  V30 35 H 2.034447 0.716842 6.306425 0
M  V30 36 H 2.888209 -0.728437 5.666739 0
M  V30 37 H 4.484009 1.281735 4.693842 0
M  V30 38 H 2.882014 2.057712 4.557307 0
M  V30 39 H 2.683259 -0.663505 3.679960 0
M  V30 40 H 2.643040 -1.099418 1.362690 0
M  V30 41 H 4.232317 0.244204 -0.418894 0
M  V30 42 H 2.859853 -0.752237 -0.875094 0
M  V30 43 H 4.328980 2.265675 -1.382071 0
M  V30 44 H 3.363550 4.181705 -2.488294 0
M  V30 45 H 0.861686 4.449527 -2.505108 0
M  V30 46 H -0.504537 2.787029 -1.413111 0
M  V30 47 H -1.173935 0.726495 -1.868992 0
M  V30 48 H -4.511260 -0.182967 -1.374473 0
M  V30 49 H -4.269462 -4.699413 -3.399333 0
M  V30 50 H -1.322352 -4.130388 -3.546785 0
M  V30 51 H -1.899478 -2.417642 -4.969702 0
M  V30 52 H -2.791779 -3.473922 -6.116504 0
M  V30 53 H -0.952473 -3.587352 -5.927197 0
M  V30 54 H -1.098291 -5.879881 -5.509603 0
M  V30 55 H -1.387947 -6.402794 -3.796198 0
M  V30 56 H -2.769557 -6.396868 -4.920080 0
M  V30 57 H 0.490391 -2.164906 3.137435 0
M  V30 58 H -0.583371 -1.113833 4.910744 0
M  V30 59 H -0.697598 0.325447 3.850714 0
M  V30 60 H -2.824205 -0.699937 2.851582 0
M  V30 61 H -2.653567 -2.084598 3.942250 0
M  V30 62 H -4.024406 -0.630825 5.070514 0
M  V30 63 H -3.188284 1.508440 3.838043 0
M  V30 64 H -1.903475 1.429912 5.080611 0
M  V30 65 H -3.637869 1.585533 5.591645 0
M  V30 END ATOM
M  V30 BEGIN BOND
M  V30 1 1 1 2
M  V30 2 1 2 3
M  V30 3 1 3 4
M  V30 4 2 4 5
M  V30 5 1 4 6
M  V30 6 1 6 7
M  V30 7 1 7 8
M  V30 8 2 8 9
M  V30 9 1 9 10
M  V30 10 2 10 11
M  V30 11 1 11 12
M  V30 12 2 12 13
M  V30 13 1 13 14
M  V30 14 2 14 15
M  V30 15 1 15 16
M  V30 16 1 16 17
M  V30 17 2 17 18
M  V30 18 1 18 19
M  V30 19 2 19 20
M  V30 20 1 20 21
M  V30 21 1 21 22
M  V30 22 1 22 23
M  V30 23 1 22 24
M  V30 24 1 20 25
M  V30 25 2 16 26
M  V30 26 1 26 27
M  V30 27 1 27 28
M  V30 28 1 28 29
M  V30 29 1 29 30
M  V30 30 1 30 31
M  V30 31 1 31 32
M  V30 32 2 27 33
M  V30 33 1 13 8
M  V30 34 1 33 14
M  V30 35 1 25 17
M  V30 36 1 1 34
M  V30 37 1 1 35
M  V30 38 1 1 36
M  V30 39 1 2 37
M  V30 40 1 2 38
M  V30 41 1 3 39
M  V30 42 1 6 40
M  V30 43 1 7 41
M  V30 44 1 7 42
M  V30 45 1 9 43
M  V30 46 1 10 44
M  V30 47 1 11 45
M  V30 48 1 12 46
M  V30 49 1 15 47
M  V30 50 1 18 48
M  V30 51 1 21 49
M  V30 52 1 22 50
M  V30 53 1 23 51
M  V30 54 1 23 52
M  V30 55 1 23 53
M  V30 56 1 24 54
M  V30 57 1 24 55
M  V30 58 1 24 56
M  V30 59 1 28 57
M  V30 60 1 29 58
M  V30 61 1 29 59
M  V30 62 1 30 60
M  V30 63 1 30 61
M  V30 64 1 31 62
M  V30 65 1 32 63
M  V30 66 1 32 64
M  V30 67 1 32 65
M  V30 END BOND
M  V30 END CTAB
M  END
>  <Dataset>  (697) 
ChEMBL_Kinases

>  <Ligand_Instance>  (697) 
nan

>  <PDB_ID>  (697) 
nan

>  <Standardized_SMILES>  (697) 
CCNC(=O)NCc1ccccc1-c1cc(-c2cnc(NC(C)C)s2)nc(NCCNC)n1

>  <Name>  (697) 
nan

>  <Pocket>  (697) 
nan

>  <ATP_Site>  (697) 
nan

>  <Peripheral>  (697) 
nan

>  <Num_H_Atoms_ProtBoundConf>  (697) 
nan

>  <Num_Resolved_Atoms>  (697) 
nan

>  <Num_Not_Resolved_Atoms>  (697) 
nan

$$$$
CHEMBL4593581
     RDKit          3D

  0  0  0  0  0  0  0  0  0  0999 V3000
M  V30 BEGIN CTAB
M  V30 COUNTS 103 106 0 0 0
M  V30 BEGIN ATOM
M  V30 1 C 2.354877 -4.136696 3.555721 0
M  V30 2 C 2.209892 -2.672802 3.897200 0
M  V30 3 C 2.773657 -2.362645 5.266016 0
M  V30 4 C 2.648873 -0.898595 5.632181 0
M  V30 5 C 1.202076 -0.452004 5.668652 0
M  V30 6 C 1.073834 0.993856 6.054128 0
M  V30 7 C 1.725205 1.949479 5.114242 0
M  V30 8 C 1.170207 1.966046 3.752458 0
M  V30 9 O 0.433155 2.997885 3.619706 0
M  V30 10 O 1.040052 1.416721 2.513570 0
M  V30 11 C 0.284603 1.930043 1.459881 0 CFG=1
M  V30 12 C 1.349648 2.334333 0.417131 0
M  V30 13 C 1.363681 3.544386 -0.056645 0
M  V30 14 C 2.392113 3.858010 -1.033209 0
M  V30 15 O 3.345694 3.381563 -1.646937 0
M  V30 16 O 2.438157 5.124519 -1.552293 0
M  V30 17 C 3.339549 5.633784 -2.496294 0
M  V30 18 C 2.225958 1.191052 0.128588 0
M  V30 19 C 1.439074 -0.105762 -0.119641 0 CFG=1
M  V30 20 C 2.307755 -1.324250 0.123942 0
M  V30 21 C 2.506230 -2.195908 -1.088540 0 CFG=2
M  V30 22 C 3.165497 -1.470456 -2.221823 0
M  V30 23 O 4.320458 -0.822719 -1.783025 0
M  V30 24 O 1.364311 -2.833104 -1.528031 0
M  V30 25 C 1.034645 -4.152768 -1.582381 0
M  V30 26 O 1.721756 -5.170403 -1.231422 0
M  V30 27 C -0.338671 -4.295648 -2.144172 0
M  V30 28 C -1.420709 -4.327837 -1.115709 0
M  V30 29 O -2.668905 -4.398088 -1.771678 0
M  V30 30 C -3.084371 -3.388722 -2.668665 0
M  V30 31 C -3.661643 -3.798285 -3.854559 0
M  V30 32 C -4.115094 -2.933499 -4.832020 0
M  V30 33 C -3.994257 -1.573256 -4.633914 0
M  V30 34 C -4.430635 -0.555757 -5.582073 0
M  V30 35 C -3.521120 -0.116644 -6.553579 0
M  V30 36 C -2.122233 -0.475586 -6.851379 0
M  V30 37 N -4.151490 0.803914 -7.295730 0
M  V30 38 O -5.350628 0.945047 -6.847483 0
M  V30 39 C -5.575266 0.168052 -5.834403 0
M  V30 40 C -6.763721 -0.052045 -4.972607 0
M  V30 41 C -3.404446 -1.186202 -3.421088 0
M  V30 42 C -2.942648 -2.027374 -2.424587 0
M  V30 43 C -2.359814 -1.493397 -1.192842 0
M  V30 44 O -1.265666 -1.251200 -1.702673 0
M  V30 45 O -2.874064 -1.344455 0.026472 0
M  V30 46 C -2.338283 -0.854153 1.189886 0
M  V30 47 C -1.829976 0.536990 1.280781 0
M  V30 48 C -2.868169 1.502741 0.731934 0
M  V30 49 C -1.844343 0.831916 2.823008 0
M  V30 50 C -0.487155 0.847071 0.741830 0 CFG=1
M  V30 51 O -0.603490 1.407182 -0.577050 0
M  V30 52 O 0.368760 -0.246573 0.745745 0
M  V30 53 H 1.373222 -4.619729 3.404377 0
M  V30 54 H 2.921606 -4.260630 2.618805 0
M  V30 55 H 2.956154 -4.659470 4.337874 0
M  V30 56 H 1.135250 -2.402509 3.887605 0
M  V30 57 H 2.765899 -2.096344 3.114424 0
M  V30 58 H 3.833133 -2.688914 5.243266 0
M  V30 59 H 2.221069 -2.984318 6.009393 0
M  V30 60 H 3.191118 -0.332480 4.821882 0
M  V30 61 H 3.176479 -0.686845 6.568476 0
M  V30 62 H 0.598935 -1.045377 6.361879 0
M  V30 63 H 0.779832 -0.557051 4.639915 0
M  V30 64 H -0.024443 1.242344 6.044881 0
M  V30 65 H 1.483414 1.139811 7.076714 0
M  V30 66 H 1.812897 2.975367 5.534789 0
M  V30 67 H 2.800175 1.603769 4.986672 0
M  V30 68 H -0.304488 2.840158 1.681249 0
M  V30 69 H 0.660715 4.296937 0.241012 0
M  V30 70 H 4.025170 4.908821 -2.947172 0
M  V30 71 H 3.919009 6.489422 -2.041162 0
M  V30 72 H 2.739040 6.124759 -3.302548 0
M  V30 73 H 2.910439 1.330808 -0.703832 0
M  V30 74 H 2.852654 1.044858 1.058828 0
M  V30 75 H 1.066530 -0.056835 -1.142752 0
M  V30 76 H 1.921569 -1.989271 0.917762 0
M  V30 77 H 3.299099 -0.960915 0.446510 0
M  V30 78 H 3.216868 -3.001889 -0.750132 0
M  V30 79 H 2.496908 -0.788860 -2.760608 0
M  V30 80 H 3.487142 -2.255621 -2.955410 0
M  V30 81 H 5.129698 -1.377685 -1.903872 0
M  V30 82 H -0.336719 -5.319022 -2.630170 0
M  V30 83 H -0.580279 -3.605370 -2.951508 0
M  V30 84 H -1.348760 -3.600647 -0.312484 0
M  V30 85 H -1.321235 -5.334584 -0.606482 0
M  V30 86 H -3.781716 -4.870370 -4.065995 0
M  V30 87 H -4.568942 -3.201853 -5.766401 0
M  V30 88 H -1.393340 0.330120 -6.643047 0
M  V30 89 H -2.028755 -0.714617 -7.948589 0
M  V30 90 H -1.871672 -1.414013 -6.288776 0
M  V30 91 H -7.409094 0.860144 -5.144489 0
M  V30 92 H -6.498347 -0.141644 -3.916285 0
M  V30 93 H -7.359278 -0.895087 -5.374644 0
M  V30 94 H -3.230574 -0.132857 -3.133037 0
M  V30 95 H -1.557481 -1.589682 1.616423 0
M  V30 96 H -3.164899 -0.985135 1.964032 0
M  V30 97 H -2.860979 1.355810 -0.360437 0
M  V30 98 H -2.519658 2.525228 0.989873 0
M  V30 99 H -3.846845 1.253588 1.183995 0
M  V30 100 H -2.802603 0.353316 3.199349 0
M  V30 101 H -1.050783 0.264466 3.322360 0
M  V30 102 H -1.917297 1.892526 3.020658 0
M  V30 103 H -0.909124 2.334927 -0.445076 0
M  V30 END ATOM
M  V30 BEGIN BOND
M  V30 1 1 1 2
M  V30 2 1 2 3
M  V30 3 1 3 4
M  V30 4 1 4 5
M  V30 5 1 5 6
M  V30 6 1 6 7
M  V30 7 1 7 8
M  V30 8 2 8 9
M  V30 9 1 8 10
M  V30 10 1 10 11
M  V30 11 1 11 12
M  V30 12 2 12 13
M  V30 13 1 13 14
M  V30 14 2 14 15
M  V30 15 1 14 16
M  V30 16 1 16 17
M  V30 17 1 12 18
M  V30 18 1 18 19
M  V30 19 1 19 20
M  V30 20 1 20 21
M  V30 21 1 21 22
M  V30 22 1 22 23
M  V30 23 1 21 24
M  V30 24 1 24 25
M  V30 25 2 25 26
M  V30 26 1 25 27
M  V30 27 1 27 28
M  V30 28 1 28 29
M  V30 29 1 29 30
M  V30 30 2 30 31
M  V30 31 1 31 32
M  V30 32 2 32 33
M  V30 33 1 33 34
M  V30 34 1 34 35
M  V30 35 1 35 36
M  V30 36 2 35 37
M  V30 37 1 37 38
M  V30 38 1 38 39
M  V30 39 1 39 40
M  V30 40 1 33 41
M  V30 41 2 41 42
M  V30 42 1 42 43
M  V30 43 2 43 44
M  V30 44 1 43 45
M  V30 45 1 45 46
M  V30 46 1 46 47
M  V30 47 1 47 48
M  V30 48 1 47 49
M  V30 49 1 47 50
M  V30 50 1 50 51 CFG=3
M  V30 51 1 50 52
M  V30 52 1 50 11
M  V30 53 1 52 19
M  V30 54 1 42 30
M  V30 55 2 39 34
M  V30 56 1 1 53
M  V30 57 1 1 54
M  V30 58 1 1 55
M  V30 59 1 2 56
M  V30 60 1 2 57
M  V30 61 1 3 58
M  V30 62 1 3 59
M  V30 63 1 4 60
M  V30 64 1 4 61
M  V30 65 1 5 62
M  V30 66 1 5 63
M  V30 67 1 6 64
M  V30 68 1 6 65
M  V30 69 1 7 66
M  V30 70 1 7 67
M  V30 71 1 11 68 CFG=1
M  V30 72 1 13 69
M  V30 73 1 17 70
M  V30 74 1 17 71
M  V30 75 1 17 72
M  V30 76 1 18 73
M  V30 77 1 18 74
M  V30 78 1 19 75 CFG=3
M  V30 79 1 20 76
M  V30 80 1 20 77
M  V30 81 1 21 78 CFG=1
M  V30 82 1 22 79
M  V30 83 1 22 80
M  V30 84 1 23 81
M  V30 85 1 27 82
M  V30 86 1 27 83
M  V30 87 1 28 84
M  V30 88 1 28 85
M  V30 89 1 31 86
M  V30 90 1 32 87
M  V30 91 1 36 88
M  V30 92 1 36 89
M  V30 93 1 36 90
M  V30 94 1 40 91
M  V30 95 1 40 92
M  V30 96 1 40 93
M  V30 97 1 41 94
M  V30 98 1 46 95
M  V30 99 1 46 96
M  V30 100 1 48 97
M  V30 101 1 48 98
M  V30 102 1 48 99
M  V30 103 1 49 100
M  V30 104 1 49 101
M  V30 105 1 49 102
M  V30 106 1 51 103
M  V30 END BOND
M  V30 END CTAB
M  END
>  <Dataset>  (698) 
ChEMBL_Kinases

>  <Ligand_Instance>  (698) 
nan

>  <PDB_ID>  (698) 
nan

>  <Standardized_SMILES>  (698) 
CCCCCCCC(=O)O[C@H]1/C(=C/C(=O)OC)C[C@H]2C[C@H](CO)OC(=O)CCOc3ccc(-c4c(C)noc4C)cc3C(=O)OCC(C)(C)[C@]1(O)O2

>  <Name>  (698) 
nan

>  <Pocket>  (698) 
nan

>  <ATP_Site>  (698) 
nan

>  <Peripheral>  (698) 
nan

>  <Num_H_Atoms_ProtBoundConf>  (698) 
nan

>  <Num_Resolved_Atoms>  (698) 
nan

>  <Num_Not_Resolved_Atoms>  (698) 
nan

$$$$
CHEMBL4593677
     RDKit          3D

  0  0  0  0  0  0  0  0  0  0999 V3000
M  V30 BEGIN CTAB
M  V30 COUNTS 37 39 0 0 0
M  V30 BEGIN ATOM
M  V30 1 C 1.366678 -4.350649 2.508989 0
M  V30 2 C 0.502394 -3.163300 2.278470 0
M  V30 3 C 0.372685 -2.591471 1.095192 0
M  V30 4 C 1.101073 -3.145050 -0.015166 0
M  V30 5 N 1.701737 -3.601691 -0.917523 0
M  V30 6 C -0.472418 -1.406110 0.798712 0
M  V30 7 C 0.347730 -0.292756 0.219306 0
M  V30 8 C 1.350764 0.350393 0.910152 0
M  V30 9 C 2.092583 1.370875 0.359864 0
M  V30 10 C 1.833021 1.782732 -0.945314 0
M  V30 11 N 2.372323 2.729069 -1.743589 0
M  V30 12 N 1.752840 2.721491 -2.929192 0
M  V30 13 C 0.797156 1.767738 -2.923286 0
M  V30 14 C -0.176811 1.330274 -3.958383 0
M  V30 15 C 0.833314 1.164474 -1.678194 0
M  V30 16 C 0.122156 0.146953 -1.074259 0
M  V30 17 C -1.166424 -0.937696 2.028958 0
M  V30 18 C -2.025622 0.221173 1.862524 0
M  V30 19 N -2.710751 1.150127 1.722853 0
M  V30 20 C -1.077750 -1.466147 3.239209 0
M  V30 21 C -1.837155 -0.873426 4.351440 0
M  V30 22 N -0.226791 -2.599507 3.362028 0
M  V30 23 H 0.754217 -5.299861 2.496043 0
M  V30 24 H 1.884616 -4.235598 3.479914 0
M  V30 25 H 2.063112 -4.453355 1.649673 0
M  V30 26 H -1.220382 -1.755156 0.029195 0
M  V30 27 H 1.563394 0.040979 1.924847 0
M  V30 28 H 2.871532 1.878197 0.881063 0
M  V30 29 H 3.158578 3.385617 -1.498892 0
M  V30 30 H -1.143585 1.023276 -3.464254 0
M  V30 31 H -0.433664 2.164435 -4.638694 0
M  V30 32 H 0.202762 0.427932 -4.473734 0
M  V30 33 H -0.666106 -0.348032 -1.637533 0
M  V30 34 H -2.057354 -1.576710 5.160626 0
M  V30 35 H -2.821977 -0.489715 3.956325 0
M  V30 36 H -1.276511 0.011981 4.732572 0
M  V30 37 H -0.133713 -3.037910 4.293027 0
M  V30 END ATOM
M  V30 BEGIN BOND
M  V30 1 1 1 2
M  V30 2 2 2 3
M  V30 3 1 3 4
M  V30 4 3 4 5
M  V30 5 1 3 6
M  V30 6 1 6 7
M  V30 7 2 7 8
M  V30 8 1 8 9
M  V30 9 2 9 10
M  V30 10 1 10 11
M  V30 11 1 11 12
M  V30 12 2 12 13
M  V30 13 1 13 14
M  V30 14 1 13 15
M  V30 15 2 15 16
M  V30 16 1 6 17
M  V30 17 1 17 18
M  V30 18 3 18 19
M  V30 19 2 17 20
M  V30 20 1 20 21
M  V30 21 1 20 22
M  V30 22 1 22 2
M  V30 23 1 16 7
M  V30 24 1 15 10
M  V30 25 1 1 23
M  V30 26 1 1 24
M  V30 27 1 1 25
M  V30 28 1 6 26
M  V30 29 1 8 27
M  V30 30 1 9 28
M  V30 31 1 11 29
M  V30 32 1 14 30
M  V30 33 1 14 31
M  V30 34 1 14 32
M  V30 35 1 16 33
M  V30 36 1 21 34
M  V30 37 1 21 35
M  V30 38 1 21 36
M  V30 39 1 22 37
M  V30 END BOND
M  V30 END CTAB
M  END
>  <Dataset>  (699) 
ChEMBL_Kinases

>  <Ligand_Instance>  (699) 
nan

>  <PDB_ID>  (699) 
nan

>  <Standardized_SMILES>  (699) 
CC1=C(C#N)C(c2ccc3[nH]nc(C)c3c2)C(C#N)=C(C)N1

>  <Name>  (699) 
BAY-474

>  <Pocket>  (699) 
nan

>  <ATP_Site>  (699) 
nan

>  <Peripheral>  (699) 
nan

>  <Num_H_Atoms_ProtBoundConf>  (699) 
nan

>  <Num_Resolved_Atoms>  (699) 
nan

>  <Num_Not_Resolved_Atoms>  (699) 
nan

$$$$
CHEMBL4593717
     RDKit          3D

  0  0  0  0  0  0  0  0  0  0999 V3000
M  V30 BEGIN CTAB
M  V30 COUNTS 52 56 0 0 0
M  V30 BEGIN ATOM
M  V30 1 C 1.317148 -2.473075 3.766980 0
M  V30 2 C 2.630202 -2.664537 3.103291 0
M  V30 3 C 3.571529 -3.577583 3.665991 0
M  V30 4 S 5.034382 -3.458238 2.476518 0
M  V30 5 C 4.064076 -2.188574 1.455754 0
M  V30 6 N 4.734607 -1.674893 0.292217 0
M  V30 7 C 3.998711 -0.723499 -0.464749 0
M  V30 8 N 4.566005 -0.197455 -1.590032 0
M  V30 9 C 3.923933 0.700352 -2.342239 0
M  V30 10 C 2.657104 1.139998 -2.019584 0
M  V30 11 C 2.091642 0.601954 -0.879169 0
M  V30 12 C 0.761546 0.934437 -0.363986 0
M  V30 13 S -0.045633 2.530299 0.230721 0
M  V30 14 C -1.674247 1.609425 0.593755 0
M  V30 15 C -2.853205 2.344993 1.139003 0
M  V30 16 C -3.258369 1.771455 2.504329 0
M  V30 17 C -3.514178 0.295534 2.347785 0
M  V30 18 N -4.565379 0.080163 1.385457 0
M  V30 19 C -4.320869 0.671622 0.104175 0
M  V30 20 C -4.004975 2.132163 0.220981 0
M  V30 21 N -1.419841 0.537566 0.291356 0
M  V30 22 C -0.293156 0.043482 -0.188330 0
M  V30 23 C -0.163337 -1.391255 -0.521058 0
M  V30 24 C 0.079235 -1.613764 -1.861652 0
M  V30 25 C 0.220337 -2.918401 -2.296321 0
M  V30 26 C 0.110152 -3.924874 -1.361830 0
M  V30 27 F 0.255385 -5.197022 -1.829726 0
M  V30 28 C -0.132750 -3.728478 -0.011420 0
M  V30 29 C -0.267196 -2.433255 0.387179 0
M  V30 30 N 2.776436 -0.299432 -0.153161 0
M  V30 31 N 3.104761 -2.104457 2.018131 0
M  V30 32 H 1.423959 -2.552710 4.871024 0
M  V30 33 H 0.557476 -3.202940 3.383846 0
M  V30 34 H 0.934888 -1.454761 3.561299 0
M  V30 35 H 3.347912 -4.211147 4.673088 0
M  V30 36 H 5.681662 -1.955940 0.000008 0
M  V30 37 H 4.365913 1.133521 -3.250375 0
M  V30 38 H 2.054282 1.858064 -2.556774 0
M  V30 39 H -2.578120 3.411420 1.249904 0
M  V30 40 H -2.475799 1.941929 3.258626 0
M  V30 41 H -4.235073 2.238009 2.756216 0
M  V30 42 H -3.922478 -0.053179 3.335175 0
M  V30 43 H -2.604999 -0.302084 2.176529 0
M  V30 44 H -4.717360 -0.948564 1.284184 0
M  V30 45 H -3.610811 0.108834 -0.529721 0
M  V30 46 H -5.302469 0.622315 -0.452829 0
M  V30 47 H -4.908209 2.601123 0.710520 0
M  V30 48 H -3.932514 2.621372 -0.756334 0
M  V30 49 H 0.167519 -0.820682 -2.605767 0
M  V30 50 H 0.409709 -3.105714 -3.338836 0
M  V30 51 H -0.216190 -4.520770 0.705213 0
M  V30 52 H -0.459014 -2.129289 1.408327 0
M  V30 END ATOM
M  V30 BEGIN BOND
M  V30 1 1 1 2
M  V30 2 2 2 3
M  V30 3 1 3 4
M  V30 4 1 4 5
M  V30 5 1 5 6
M  V30 6 1 6 7
M  V30 7 2 7 8
M  V30 8 1 8 9
M  V30 9 2 9 10
M  V30 10 1 10 11
M  V30 11 1 11 12
M  V30 12 1 12 13
M  V30 13 1 13 14
M  V30 14 1 14 15
M  V30 15 1 15 16
M  V30 16 1 16 17
M  V30 17 1 17 18
M  V30 18 1 18 19
M  V30 19 1 19 20
M  V30 20 2 14 21
M  V30 21 1 21 22
M  V30 22 1 22 23
M  V30 23 2 23 24
M  V30 24 1 24 25
M  V30 25 2 25 26
M  V30 26 1 26 27
M  V30 27 1 26 28
M  V30 28 2 28 29
M  V30 29 2 11 30
M  V30 30 2 5 31
M  V30 31 1 31 2
M  V30 32 1 30 7
M  V30 33 2 22 12
M  V30 34 1 29 23
M  V30 35 1 20 15
M  V30 36 1 1 32
M  V30 37 1 1 33
M  V30 38 1 1 34
M  V30 39 1 3 35
M  V30 40 1 6 36
M  V30 41 1 9 37
M  V30 42 1 10 38
M  V30 43 1 15 39
M  V30 44 1 16 40
M  V30 45 1 16 41
M  V30 46 1 17 42
M  V30 47 1 17 43
M  V30 48 1 18 44
M  V30 49 1 19 45
M  V30 50 1 19 46
M  V30 51 1 20 47
M  V30 52 1 20 48
M  V30 53 1 24 49
M  V30 54 1 25 50
M  V30 55 1 28 51
M  V30 56 1 29 52
M  V30 END BOND
M  V30 END CTAB
M  END
>  <Dataset>  (700) 
ChEMBL_Kinases

>  <Ligand_Instance>  (700) 
nan

>  <PDB_ID>  (700) 
nan

>  <Standardized_SMILES>  (700) 
Cc1csc(Nc2nccc(-c3sc(C4CCNCC4)nc3-c3ccc(F)cc3)n2)n1

>  <Name>  (700) 
nan

>  <Pocket>  (700) 
nan

>  <ATP_Site>  (700) 
nan

>  <Peripheral>  (700) 
nan

>  <Num_H_Atoms_ProtBoundConf>  (700) 
nan

>  <Num_Resolved_Atoms>  (700) 
nan

>  <Num_Not_Resolved_Atoms>  (700) 
nan

$$$$
CHEMBL4592565
     RDKit          3D

  0  0  0  0  0  0  0  0  0  0999 V3000
M  V30 BEGIN CTAB
M  V30 COUNTS 62 66 0 0 0
M  V30 BEGIN ATOM
M  V30 1 C 3.605226 -6.175552 0.818853 0
M  V30 2 N 2.255739 -5.740342 1.029915 0
M  V30 3 C 1.373933 -5.953890 -0.108996 0
M  V30 4 C 0.921912 -4.538202 0.057786 0
M  V30 5 C 0.852673 -3.802523 -1.243634 0
M  V30 6 C -0.540074 -3.169155 -1.350387 0
M  V30 7 N -0.668560 -2.261659 -0.226814 0
M  V30 8 C -0.957403 -0.844047 -0.250562 0
M  V30 9 C -0.711889 -0.080511 0.874142 0
M  V30 10 C -1.018456 1.269294 0.785883 0
M  V30 11 C -1.538838 1.880499 -0.324004 0
M  V30 12 O -1.852009 3.173970 -0.464961 0
M  V30 13 C -1.788130 4.290233 0.323315 0
M  V30 14 C -0.446324 4.710398 0.793453 0
M  V30 15 C 0.253505 4.481733 1.954257 0
M  V30 16 C 1.511755 4.955379 2.198195 0
M  V30 17 C 2.140778 5.709904 1.245595 0
M  V30 18 C 1.512147 5.989964 0.050448 0
M  V30 19 C 0.218659 5.483382 -0.162294 0
M  V30 20 C -1.782464 1.108250 -1.446311 0
M  V30 21 C -2.325135 1.493578 -2.744133 0
M  V30 22 O -2.505208 0.677370 -3.696856 0
M  V30 23 N -2.739800 2.757891 -3.196754 0
M  V30 24 C -3.215482 2.711872 -4.534656 0
M  V30 25 C -4.595684 2.469984 -4.583184 0
M  V30 26 C -5.206363 2.395886 -5.843106 0
M  V30 27 N -4.524541 2.546193 -7.019586 0
M  V30 28 N -3.231442 2.771431 -6.912466 0
M  V30 29 C -2.579141 2.854917 -5.742249 0
M  V30 30 C -1.475180 -0.260954 -1.366250 0
M  V30 31 C -0.493876 -2.849517 1.086302 0
M  V30 32 C -0.342303 -4.358177 0.880575 0
M  V30 33 C 2.119949 -4.291215 0.925861 0
M  V30 34 H 3.646514 -6.741639 -0.120572 0
M  V30 35 H 3.983005 -6.778133 1.681038 0
M  V30 36 H 4.280493 -5.308174 0.701813 0
M  V30 37 H 1.908877 -6.144812 -1.063447 0
M  V30 38 H 0.573555 -6.710610 0.053773 0
M  V30 39 H 1.583752 -2.978783 -1.257956 0
M  V30 40 H 1.049100 -4.452226 -2.116241 0
M  V30 41 H -1.331660 -3.927570 -1.408803 0
M  V30 42 H -0.584753 -2.618018 -2.338991 0
M  V30 43 H -0.299833 -0.540633 1.762167 0
M  V30 44 H -0.820973 1.834677 1.674455 0
M  V30 45 H -2.420381 4.093480 1.237801 0
M  V30 46 H -2.279582 5.149351 -0.209903 0
M  V30 47 H -0.309058 3.893907 2.657583 0
M  V30 48 H 1.946990 4.704139 3.150375 0
M  V30 49 H 3.140364 6.080232 1.456200 0
M  V30 50 H 2.085405 6.593967 -0.637657 0
M  V30 51 H -0.113243 5.809607 -1.161561 0
M  V30 52 H -2.643613 3.544895 -2.521875 0
M  V30 53 H -5.231645 2.335048 -3.721130 0
M  V30 54 H -6.278672 2.208728 -5.875054 0
M  V30 55 H -1.508225 3.039045 -5.604424 0
M  V30 56 H -1.637240 -0.929183 -2.191014 0
M  V30 57 H -1.482916 -2.740164 1.608441 0
M  V30 58 H 0.357406 -2.471330 1.650689 0
M  V30 59 H -1.242818 -4.797503 0.421195 0
M  V30 60 H -0.168521 -4.833745 1.863035 0
M  V30 61 H 2.970194 -3.771355 0.440464 0
M  V30 62 H 1.888208 -3.847763 1.930749 0
M  V30 END ATOM
M  V30 BEGIN BOND
M  V30 1 1 1 2
M  V30 2 1 2 3
M  V30 3 1 3 4
M  V30 4 1 4 5
M  V30 5 1 5 6
M  V30 6 1 6 7
M  V30 7 1 7 8
M  V30 8 2 8 9
M  V30 9 1 9 10
M  V30 10 2 10 11
M  V30 11 1 11 12
M  V30 12 1 12 13
M  V30 13 1 13 14
M  V30 14 2 14 15
M  V30 15 1 15 16
M  V30 16 2 16 17
M  V30 17 1 17 18
M  V30 18 2 18 19
M  V30 19 1 11 20
M  V30 20 1 20 21
M  V30 21 2 21 22
M  V30 22 1 21 23
M  V30 23 1 23 24
M  V30 24 2 24 25
M  V30 25 1 25 26
M  V30 26 2 26 27
M  V30 27 1 27 28
M  V30 28 2 28 29
M  V30 29 2 20 30
M  V30 30 1 7 31
M  V30 31 1 31 32
M  V30 32 1 4 33
M  V30 33 1 33 2
M  V30 34 1 32 4
M  V30 35 1 30 8
M  V30 36 1 19 14
M  V30 37 1 29 24
M  V30 38 1 1 34
M  V30 39 1 1 35
M  V30 40 1 1 36
M  V30 41 1 3 37
M  V30 42 1 3 38
M  V30 43 1 5 39
M  V30 44 1 5 40
M  V30 45 1 6 41
M  V30 46 1 6 42
M  V30 47 1 9 43
M  V30 48 1 10 44
M  V30 49 1 13 45
M  V30 50 1 13 46
M  V30 51 1 15 47
M  V30 52 1 16 48
M  V30 53 1 17 49
M  V30 54 1 18 50
M  V30 55 1 19 51
M  V30 56 1 23 52
M  V30 57 1 25 53
M  V30 58 1 26 54
M  V30 59 1 29 55
M  V30 60 1 30 56
M  V30 61 1 31 57
M  V30 62 1 31 58
M  V30 63 1 32 59
M  V30 64 1 32 60
M  V30 65 1 33 61
M  V30 66 1 33 62
M  V30 END BOND
M  V30 END CTAB
M  END
>  <Dataset>  (701) 
ChEMBL_Kinases

>  <Ligand_Instance>  (701) 
nan

>  <PDB_ID>  (701) 
nan

>  <Standardized_SMILES>  (701) 
CN1CC2(CCN(c3ccc(OCc4ccccc4)c(C(=O)Nc4ccnnc4)c3)CC2)C1

>  <Name>  (701) 
nan

>  <Pocket>  (701) 
nan

>  <ATP_Site>  (701) 
nan

>  <Peripheral>  (701) 
nan

>  <Num_H_Atoms_ProtBoundConf>  (701) 
nan

>  <Num_Resolved_Atoms>  (701) 
nan

>  <Num_Not_Resolved_Atoms>  (701) 
nan

$$$$
CHEMBL4594002
     RDKit          3D

  0  0  0  0  0  0  0  0  0  0999 V3000
M  V30 BEGIN CTAB
M  V30 COUNTS 80 85 0 0 0
M  V30 BEGIN ATOM
M  V30 1 N 3.826251 -3.078737 4.060892 0
M  V30 2 C 2.934790 -2.335509 4.144177 0
M  V30 3 C 1.808279 -1.426862 4.251087 0
M  V30 4 C 2.050668 -0.295286 4.983108 0
M  V30 5 N 1.012364 0.540901 5.082079 0
M  V30 6 C -0.202106 0.309299 4.509155 0
M  V30 7 N -1.165920 1.319936 4.759463 0
M  V30 8 C -2.515426 1.499298 4.342504 0
M  V30 9 C -2.760193 1.663853 2.911164 0
M  V30 10 C -3.312259 0.654636 2.152906 0
M  V30 11 C -3.580458 0.771350 0.819606 0
M  V30 12 C -3.317372 1.917295 0.122990 0
M  V30 13 C -2.768498 2.935484 0.851410 0
M  V30 14 C -2.499853 2.809859 2.200256 0
M  V30 15 C -1.891606 3.986827 2.886666 0
M  V30 16 F -1.736532 5.053614 1.986910 0
M  V30 17 F -2.631542 4.455001 3.934173 0
M  V30 18 F -0.565649 3.687238 3.245997 0
M  V30 19 N -0.427082 -0.799773 3.795559 0
M  V30 20 C 0.568207 -1.690322 3.650696 0
M  V30 21 N 0.467515 -2.923269 2.949302 0
M  V30 22 C -0.473245 -3.665667 2.189953 0
M  V30 23 C -0.755985 -3.216581 0.798922 0
M  V30 24 C -1.793312 -4.149265 0.142965 0
M  V30 25 C -1.944028 -3.792741 -1.303556 0
M  V30 26 C -2.383668 -2.348020 -1.485521 0
M  V30 27 C -1.330501 -1.480136 -0.844095 0
M  V30 28 C -1.270114 -1.834522 0.628514 0
M  V30 29 C -0.007000 -1.632523 -1.538327 0
M  V30 30 N 0.997843 -0.882061 -0.856747 0
M  V30 31 C 2.307041 -0.927993 -1.419183 0
M  V30 32 C 2.365725 -0.220017 -2.755852 0 CFG=1
M  V30 33 C 1.979397 1.211075 -2.569210 0
M  V30 34 C 1.702866 1.838929 -3.916803 0
M  V30 35 C 2.505493 1.196745 -5.016808 0 CFG=2
M  V30 36 O 1.734271 0.311528 -5.774322 0
M  V30 37 C 3.803948 0.627142 -4.548824 0
M  V30 38 C 3.725011 -0.281704 -3.368839 0
M  V30 39 C 0.380120 -3.110061 -1.450957 0
M  V30 40 C -0.682681 -3.979617 -2.087116 0
M  V30 41 C 0.523630 -3.452619 -0.002366 0
M  V30 42 H 3.007179 -0.097869 5.442951 0
M  V30 43 H -0.904540 2.144522 5.385032 0
M  V30 44 H -3.062071 0.563166 4.681558 0
M  V30 45 H -3.072637 2.309117 4.864640 0
M  V30 46 H -3.541354 -0.289702 2.673225 0
M  V30 47 H -4.021090 -0.108882 0.329040 0
M  V30 48 H -3.565014 1.911161 -0.924577 0
M  V30 49 H -2.550944 3.866730 0.301751 0
M  V30 50 H 1.339254 -3.543200 2.937417 0
M  V30 51 H -1.469672 -3.590840 2.730314 0
M  V30 52 H -0.293550 -4.767042 2.191864 0
M  V30 53 H -2.781797 -4.044890 0.618657 0
M  V30 54 H -1.362840 -5.167016 0.203977 0
M  V30 55 H -2.704014 -4.479624 -1.737265 0
M  V30 56 H -3.365045 -2.180529 -0.997343 0
M  V30 57 H -2.424554 -2.165948 -2.572259 0
M  V30 58 H -1.607954 -0.395509 -0.952292 0
M  V30 59 H -0.637614 -1.048949 1.082711 0
M  V30 60 H -2.294721 -1.789265 1.022537 0
M  V30 61 H -0.166622 -1.322122 -2.587402 0
M  V30 62 H 0.712937 -0.003616 -0.420300 0
M  V30 63 H 2.967760 -0.331805 -0.730612 0
M  V30 64 H 2.742478 -1.925086 -1.444413 0
M  V30 65 H 1.682214 -0.781690 -3.425403 0
M  V30 66 H 2.888870 1.741589 -2.172879 0
M  V30 67 H 1.178821 1.388002 -1.845578 0
M  V30 68 H 0.621664 1.637314 -4.143579 0
M  V30 69 H 1.800324 2.947385 -3.898358 0
M  V30 70 H 2.757367 2.032613 -5.728161 0
M  V30 71 H 0.761042 0.504561 -5.653934 0
M  V30 72 H 4.568365 1.450229 -4.440749 0
M  V30 73 H 4.206609 0.021466 -5.413712 0
M  V30 74 H 4.524943 -0.070045 -2.621964 0
M  V30 75 H 3.892050 -1.360126 -3.653426 0
M  V30 76 H 1.337594 -3.303948 -1.933663 0
M  V30 77 H -0.842245 -3.546623 -3.107718 0
M  V30 78 H -0.301538 -5.003359 -2.122009 0
M  V30 79 H 0.701998 -4.560049 0.098257 0
M  V30 80 H 1.371370 -2.935394 0.465549 0
M  V30 END ATOM
M  V30 BEGIN BOND
M  V30 1 3 1 2
M  V30 2 1 2 3
M  V30 3 2 3 4
M  V30 4 1 4 5
M  V30 5 2 5 6
M  V30 6 1 6 7
M  V30 7 1 7 8
M  V30 8 1 8 9
M  V30 9 2 9 10
M  V30 10 1 10 11
M  V30 11 2 11 12
M  V30 12 1 12 13
M  V30 13 2 13 14
M  V30 14 1 14 15
M  V30 15 1 15 16
M  V30 16 1 15 17
M  V30 17 1 15 18
M  V30 18 1 6 19
M  V30 19 2 19 20
M  V30 20 1 20 21
M  V30 21 1 21 22
M  V30 22 1 22 23
M  V30 23 1 23 24
M  V30 24 1 24 25
M  V30 25 1 25 26
M  V30 26 1 26 27
M  V30 27 1 27 28
M  V30 28 1 27 29
M  V30 29 1 29 30
M  V30 30 1 30 31
M  V30 31 1 31 32
M  V30 32 1 32 33
M  V30 33 1 33 34
M  V30 34 1 34 35
M  V30 35 1 35 36
M  V30 36 1 35 37
M  V30 37 1 37 38
M  V30 38 1 29 39
M  V30 39 1 39 40
M  V30 40 1 39 41
M  V30 41 1 20 3
M  V30 42 1 28 23
M  V30 43 1 38 32
M  V30 44 1 14 9
M  V30 45 1 41 23
M  V30 46 1 40 25
M  V30 47 1 4 42
M  V30 48 1 7 43
M  V30 49 1 8 44
M  V30 50 1 8 45
M  V30 51 1 10 46
M  V30 52 1 11 47
M  V30 53 1 12 48
M  V30 54 1 13 49
M  V30 55 1 21 50
M  V30 56 1 22 51
M  V30 57 1 22 52
M  V30 58 1 24 53
M  V30 59 1 24 54
M  V30 60 1 25 55
M  V30 61 1 26 56
M  V30 62 1 26 57
M  V30 63 1 27 58
M  V30 64 1 28 59
M  V30 65 1 28 60
M  V30 66 1 29 61
M  V30 67 1 30 62
M  V30 68 1 31 63
M  V30 69 1 31 64
M  V30 70 1 32 65 CFG=3
M  V30 71 1 33 66
M  V30 72 1 33 67
M  V30 73 1 34 68
M  V30 74 1 34 69
M  V30 75 1 35 70 CFG=3
M  V30 76 1 36 71
M  V30 77 1 37 72
M  V30 78 1 37 73
M  V30 79 1 38 74
M  V30 80 1 38 75
M  V30 81 1 39 76
M  V30 82 1 40 77
M  V30 83 1 40 78
M  V30 84 1 41 79
M  V30 85 1 41 80
M  V30 END BOND
M  V30 END CTAB
M  END
>  <Dataset>  (702) 
ChEMBL_Kinases

>  <Ligand_Instance>  (702) 
nan

>  <PDB_ID>  (702) 
nan

>  <Standardized_SMILES>  (702) 
N#Cc1cnc(NCc2ccccc2C(F)(F)F)nc1NCC12CC3CC(C1)C(NC[C@H]1CC[C@H](O)CC1)C(C3)C2

>  <Name>  (702) 
nan

>  <Pocket>  (702) 
nan

>  <ATP_Site>  (702) 
nan

>  <Peripheral>  (702) 
nan

>  <Num_H_Atoms_ProtBoundConf>  (702) 
nan

>  <Num_Resolved_Atoms>  (702) 
nan

>  <Num_Not_Resolved_Atoms>  (702) 
nan

$$$$
CHEMBL4592487
     RDKit          3D

  0  0  0  0  0  0  0  0  0  0999 V3000
M  V30 BEGIN CTAB
M  V30 COUNTS 49 52 0 0 0
M  V30 BEGIN ATOM
M  V30 1 C 1.228299 -5.307134 4.066169 0
M  V30 2 C 0.928076 -4.082346 3.207524 0
M  V30 3 C 1.167126 -2.841594 4.040573 0
M  V30 4 O -0.391908 -4.142825 2.810614 0
M  V30 5 C 1.842543 -4.128976 2.022700 0
M  V30 6 N 1.662129 -3.012293 1.114045 0
M  V30 7 C 2.248423 -1.802983 1.079188 0
M  V30 8 C 1.736920 -1.065921 0.003079 0
M  V30 9 C 2.212932 0.286562 -0.264427 0
M  V30 10 N 3.548975 0.565940 -0.261487 0
M  V30 11 N 3.758315 1.835801 -0.521531 0
M  V30 12 C 2.590479 2.475219 -0.711650 0
M  V30 13 C 2.137858 3.747448 -1.001518 0
M  V30 14 C 0.766280 4.000609 -1.117364 0
M  V30 15 N -0.114734 2.997931 -0.945019 0
M  V30 16 C 0.274534 1.740855 -0.661296 0
M  V30 17 O -0.684604 0.751509 -0.494668 0
M  V30 18 C -2.028597 1.092051 -0.627010 0
M  V30 19 C -2.793458 0.930732 0.692944 0
M  V30 20 C -4.212995 1.372487 0.364730 0
M  V30 21 O -4.839546 0.375032 -0.366210 0
M  V30 22 C -3.976474 -0.420065 -1.075985 0
M  V30 23 C -2.784397 0.304124 -1.643867 0
M  V30 24 C 1.627616 1.501870 -0.549579 0
M  V30 25 C 0.822364 -1.915427 -0.583149 0
M  V30 26 N 0.791605 -3.080874 0.099314 0
M  V30 27 H 1.463066 -6.159403 3.382614 0
M  V30 28 H 2.096516 -5.077664 4.717693 0
M  V30 29 H 0.321828 -5.584426 4.652815 0
M  V30 30 H 1.263875 -1.939118 3.382768 0
M  V30 31 H 0.340921 -2.684823 4.760448 0
M  V30 32 H 2.084484 -3.003827 4.617914 0
M  V30 33 H -0.689335 -3.285066 2.401491 0
M  V30 34 H 1.709878 -5.078863 1.486303 0
M  V30 35 H 2.892586 -4.063200 2.423906 0
M  V30 36 H 3.008172 -1.475650 1.799492 0
M  V30 37 H 4.667742 2.356331 -0.589841 0
M  V30 38 H 2.909659 4.518205 -1.129648 0
M  V30 39 H 0.472796 5.024965 -1.347594 0
M  V30 40 H -2.140634 2.189656 -0.864561 0
M  V30 41 H -2.856482 -0.145462 0.959978 0
M  V30 42 H -2.338642 1.536243 1.495129 0
M  V30 43 H -4.134531 2.249693 -0.330794 0
M  V30 44 H -4.763134 1.701268 1.250893 0
M  V30 45 H -4.545342 -0.832316 -1.947232 0
M  V30 46 H -3.673125 -1.341351 -0.504344 0
M  V30 47 H -3.141137 0.928032 -2.494185 0
M  V30 48 H -2.142486 -0.500509 -2.108983 0
M  V30 49 H 0.268466 -1.617895 -1.444783 0
M  V30 END ATOM
M  V30 BEGIN BOND
M  V30 1 1 1 2
M  V30 2 1 2 3
M  V30 3 1 2 4
M  V30 4 1 2 5
M  V30 5 1 5 6
M  V30 6 1 6 7
M  V30 7 2 7 8
M  V30 8 1 8 9
M  V30 9 2 9 10
M  V30 10 1 10 11
M  V30 11 1 11 12
M  V30 12 2 12 13
M  V30 13 1 13 14
M  V30 14 2 14 15
M  V30 15 1 15 16
M  V30 16 1 16 17
M  V30 17 1 17 18
M  V30 18 1 18 19
M  V30 19 1 19 20
M  V30 20 1 20 21
M  V30 21 1 21 22
M  V30 22 1 22 23
M  V30 23 2 16 24
M  V30 24 1 8 25
M  V30 25 2 25 26
M  V30 26 1 26 6
M  V30 27 1 24 9
M  V30 28 1 24 12
M  V30 29 1 23 18
M  V30 30 1 1 27
M  V30 31 1 1 28
M  V30 32 1 1 29
M  V30 33 1 3 30
M  V30 34 1 3 31
M  V30 35 1 3 32
M  V30 36 1 4 33
M  V30 37 1 5 34
M  V30 38 1 5 35
M  V30 39 1 7 36
M  V30 40 1 11 37
M  V30 41 1 13 38
M  V30 42 1 14 39
M  V30 43 1 18 40
M  V30 44 1 19 41
M  V30 45 1 19 42
M  V30 46 1 20 43
M  V30 47 1 20 44
M  V30 48 1 22 45
M  V30 49 1 22 46
M  V30 50 1 23 47
M  V30 51 1 23 48
M  V30 52 1 25 49
M  V30 END BOND
M  V30 END CTAB
M  END
>  <Dataset>  (703) 
ChEMBL_Kinases

>  <Ligand_Instance>  (703) 
nan

>  <PDB_ID>  (703) 
nan

>  <Standardized_SMILES>  (703) 
CC(C)(O)Cn1cc(-c2n[nH]c3ccnc(OC4CCOCC4)c23)cn1

>  <Name>  (703) 
nan

>  <Pocket>  (703) 
nan

>  <ATP_Site>  (703) 
nan

>  <Peripheral>  (703) 
nan

>  <Num_H_Atoms_ProtBoundConf>  (703) 
nan

>  <Num_Resolved_Atoms>  (703) 
nan

>  <Num_Not_Resolved_Atoms>  (703) 
nan

$$$$
CHEMBL4594113
     RDKit          3D

  0  0  0  0  0  0  0  0  0  0999 V3000
M  V30 BEGIN CTAB
M  V30 COUNTS 56 60 0 0 0
M  V30 BEGIN ATOM
M  V30 1 C 5.120575 -2.861234 2.957234 0
M  V30 2 O 4.242091 -2.103715 2.146194 0
M  V30 3 C 4.451330 -0.727166 1.968696 0
M  V30 4 C 5.539969 -0.208846 2.626889 0
M  V30 5 C 5.726644 1.159475 2.435017 0
M  V30 6 C 4.893564 1.918542 1.656027 0
M  V30 7 C 3.809932 1.360217 1.010970 0
M  V30 8 N 2.852962 1.991710 0.172024 0
M  V30 9 C 1.668954 2.548606 0.726163 0
M  V30 10 O 1.382491 2.532574 1.941175 0
M  V30 11 N 0.835570 3.132759 -0.267000 0
M  V30 12 C -0.420567 3.793021 -0.180084 0
M  V30 13 C -1.508628 2.943460 -0.296141 0
M  V30 14 C -2.795269 3.446158 -0.232590 0
M  V30 15 O -3.878735 2.558112 -0.353445 0
M  V30 16 C -3.682139 1.198620 -0.518216 0
M  V30 17 C -3.538989 0.497301 -1.705121 0
M  V30 18 C -3.345505 -0.859304 -1.798518 0
M  V30 19 C -3.281829 -1.624166 -0.651800 0
M  V30 20 N -3.103131 -2.925151 -0.567274 0
M  V30 21 C -3.045460 -3.586345 0.345298 0
M  V30 22 N -2.867588 -4.987322 0.827857 0
M  V30 23 C -2.705373 -5.819389 -0.281011 0
M  V30 24 O -2.707497 -5.459014 -1.483036 0
M  V30 25 C -2.508127 -7.285589 -0.051048 0
M  V30 26 C -1.296719 -7.837091 -0.863308 0
M  V30 27 C -2.696689 -8.233831 -1.172753 0
M  V30 28 S -3.279810 -2.281947 1.710595 0
M  V30 29 C -3.419420 -0.952919 0.497815 0
M  V30 30 C -3.617992 0.430924 0.625900 0
M  V30 31 C -3.073904 4.783358 -0.055426 0
M  V30 32 C -1.971801 5.595495 0.055685 0
M  V30 33 C -0.657512 5.136711 -0.001979 0
M  V30 34 F 0.431758 5.906814 0.102737 0
M  V30 35 C 3.595783 -0.008371 1.183270 0
M  V30 36 H 6.126060 -2.872211 2.532540 0
M  V30 37 H 4.676165 -3.897362 2.987910 0
M  V30 38 H 5.086794 -2.467682 4.012566 0
M  V30 39 H 6.212473 -0.766639 3.242693 0
M  V30 40 H 6.541236 1.692035 2.892990 0
M  V30 41 H 5.005094 2.977711 1.483781 0
M  V30 42 H 3.119602 1.989137 -0.828809 0
M  V30 43 H 1.024380 3.174857 -1.291169 0
M  V30 44 H -1.410297 1.861971 -0.439677 0
M  V30 45 H -3.596517 1.147070 -2.594900 0
M  V30 46 H -3.257417 -1.203708 -2.840504 0
M  V30 47 H -2.870063 -5.251467 1.814447 0
M  V30 48 H -2.503031 -7.641731 0.991248 0
M  V30 49 H -0.808449 -7.176174 -1.580943 0
M  V30 50 H -0.602854 -8.512084 -0.349584 0
M  V30 51 H -2.991111 -9.274329 -0.868925 0
M  V30 52 H -3.150964 -7.859998 -2.092635 0
M  V30 53 H -3.711073 0.822896 1.628812 0
M  V30 54 H -4.080142 5.163736 -0.007432 0
M  V30 55 H -2.106259 6.668609 0.197951 0
M  V30 56 H 2.770940 -0.552960 0.721688 0
M  V30 END ATOM
M  V30 BEGIN BOND
M  V30 1 1 1 2
M  V30 2 1 2 3
M  V30 3 2 3 4
M  V30 4 1 4 5
M  V30 5 2 5 6
M  V30 6 1 6 7
M  V30 7 1 7 8
M  V30 8 1 8 9
M  V30 9 2 9 10
M  V30 10 1 9 11
M  V30 11 1 11 12
M  V30 12 2 12 13
M  V30 13 1 13 14
M  V30 14 1 14 15
M  V30 15 1 15 16
M  V30 16 2 16 17
M  V30 17 1 17 18
M  V30 18 2 18 19
M  V30 19 1 19 20
M  V30 20 2 20 21
M  V30 21 1 21 22
M  V30 22 1 22 23
M  V30 23 2 23 24
M  V30 24 1 23 25
M  V30 25 1 25 26
M  V30 26 1 26 27
M  V30 27 1 21 28
M  V30 28 1 28 29
M  V30 29 2 29 30
M  V30 30 2 14 31
M  V30 31 1 31 32
M  V30 32 2 32 33
M  V30 33 1 33 34
M  V30 34 2 7 35
M  V30 35 1 35 3
M  V30 36 1 33 12
M  V30 37 1 30 16
M  V30 38 1 29 19
M  V30 39 1 27 25
M  V30 40 1 1 36
M  V30 41 1 1 37
M  V30 42 1 1 38
M  V30 43 1 4 39
M  V30 44 1 5 40
M  V30 45 1 6 41
M  V30 46 1 8 42
M  V30 47 1 11 43
M  V30 48 1 13 44
M  V30 49 1 17 45
M  V30 50 1 18 46
M  V30 51 1 22 47
M  V30 52 1 25 48
M  V30 53 1 26 49
M  V30 54 1 26 50
M  V30 55 1 27 51
M  V30 56 1 27 52
M  V30 57 1 30 53
M  V30 58 1 31 54
M  V30 59 1 32 55
M  V30 60 1 35 56
M  V30 END BOND
M  V30 END CTAB
M  END
>  <Dataset>  (704) 
ChEMBL_Kinases

>  <Ligand_Instance>  (704) 
nan

>  <PDB_ID>  (704) 
nan

>  <Standardized_SMILES>  (704) 
COc1cccc(NC(=O)Nc2cc(Oc3ccc4nc(NC(=O)C5CC5)sc4c3)ccc2F)c1

>  <Name>  (704) 
nan

>  <Pocket>  (704) 
nan

>  <ATP_Site>  (704) 
nan

>  <Peripheral>  (704) 
nan

>  <Num_H_Atoms_ProtBoundConf>  (704) 
nan

>  <Num_Resolved_Atoms>  (704) 
nan

>  <Num_Not_Resolved_Atoms>  (704) 
nan

$$$$
CHEMBL4594302
     RDKit          3D

  0  0  0  0  0  0  0  0  0  0999 V3000
M  V30 BEGIN CTAB
M  V30 COUNTS 58 62 0 0 0
M  V30 BEGIN ATOM
M  V30 1 C 5.425817 0.914839 6.212903 0
M  V30 2 C 6.015842 0.691417 4.836170 0
M  V30 3 C 6.785818 -0.608993 4.775070 0
M  V30 4 N 4.995259 0.717966 3.808789 0
M  V30 5 C 5.032185 1.708943 2.786980 0
M  V30 6 O 5.935181 2.607383 2.711425 0
M  V30 7 C 3.936545 1.658117 1.768676 0
M  V30 8 O 4.067325 2.677738 0.806970 0
M  V30 9 C 3.113273 2.767404 -0.219865 0
M  V30 10 C 3.229535 3.773797 -1.182002 0
M  V30 11 C 2.279781 3.864601 -2.205802 0
M  V30 12 C 1.225930 2.965648 -2.273348 0
M  V30 13 C 1.122731 1.976707 -1.317262 0
M  V30 14 C 0.013803 1.032264 -1.390853 0
M  V30 15 N -0.147340 0.042768 -0.494786 0
M  V30 16 C -1.167784 -0.833266 -0.553119 0
M  V30 17 C -2.117765 -0.763668 -1.548298 0
M  V30 18 C -3.180496 -1.626301 -1.659509 0
M  V30 19 N -3.360857 -2.657615 -0.710227 0
M  V30 20 C -4.371267 -3.607109 -0.558253 0
M  V30 21 C -5.699066 -3.234836 -0.703694 0
M  V30 22 C -6.744208 -4.133019 -0.589085 0
M  V30 23 C -6.514129 -5.465638 -0.319460 0
M  V30 24 N -7.291001 -6.551813 -0.153241 0
M  V30 25 N -6.524297 -7.619007 0.095585 0
M  V30 26 C -5.222521 -7.242004 0.095512 0
M  V30 27 C -5.211400 -5.887116 -0.165321 0
M  V30 28 C -4.190811 -4.969253 -0.285232 0
M  V30 29 C -4.044642 -1.424210 -2.711172 0
M  V30 30 C -3.857417 -0.400867 -3.617618 0
M  V30 31 C -2.798408 0.476428 -3.525096 0
M  V30 32 C -1.943151 0.255942 -2.463161 0
M  V30 33 N -0.904340 1.116217 -2.370695 0
M  V30 34 C 2.053316 1.878886 -0.304532 0
M  V30 35 H 4.646168 1.705253 6.173494 0
M  V30 36 H 6.189866 1.282435 6.927636 0
M  V30 37 H 5.036523 -0.056982 6.576311 0
M  V30 38 H 6.725015 1.517075 4.666808 0
M  V30 39 H 6.701172 -1.120993 3.793032 0
M  V30 40 H 7.864157 -0.411250 5.040143 0
M  V30 41 H 6.372586 -1.290114 5.574138 0
M  V30 42 H 4.252188 0.001260 3.845704 0
M  V30 43 H 4.001170 0.689662 1.198730 0
M  V30 44 H 2.941772 1.638580 2.262458 0
M  V30 45 H 4.043218 4.492066 -1.156066 0
M  V30 46 H 2.314385 4.619954 -2.978962 0
M  V30 47 H 0.486790 3.024912 -3.058467 0
M  V30 48 H -1.227107 -1.596561 0.201774 0
M  V30 49 H -2.712136 -2.865135 0.071868 0
M  V30 50 H -6.064781 -2.252632 -0.899010 0
M  V30 51 H -7.795610 -3.894106 -0.693440 0
M  V30 52 H -8.337208 -6.540262 -0.214314 0
M  V30 53 H -4.350399 -7.868732 0.265740 0
M  V30 54 H -3.173724 -5.305502 -0.163383 0
M  V30 55 H -4.902117 -2.048924 -2.897791 0
M  V30 56 H -4.552713 -0.250983 -4.449486 0
M  V30 57 H -2.638220 1.280930 -4.224822 0
M  V30 58 H 1.982173 1.109848 0.448724 0
M  V30 END ATOM
M  V30 BEGIN BOND
M  V30 1 1 1 2
M  V30 2 1 2 3
M  V30 3 1 2 4
M  V30 4 1 4 5
M  V30 5 2 5 6
M  V30 6 1 5 7
M  V30 7 1 7 8
M  V30 8 1 8 9
M  V30 9 2 9 10
M  V30 10 1 10 11
M  V30 11 2 11 12
M  V30 12 1 12 13
M  V30 13 1 13 14
M  V30 14 2 14 15
M  V30 15 1 15 16
M  V30 16 2 16 17
M  V30 17 1 17 18
M  V30 18 1 18 19
M  V30 19 1 19 20
M  V30 20 2 20 21
M  V30 21 1 21 22
M  V30 22 2 22 23
M  V30 23 1 23 24
M  V30 24 1 24 25
M  V30 25 2 25 26
M  V30 26 1 26 27
M  V30 27 2 27 28
M  V30 28 2 18 29
M  V30 29 1 29 30
M  V30 30 2 30 31
M  V30 31 1 31 32
M  V30 32 2 32 33
M  V30 33 2 13 34
M  V30 34 1 34 9
M  V30 35 1 33 14
M  V30 36 1 32 17
M  V30 37 1 28 20
M  V30 38 1 27 23
M  V30 39 1 1 35
M  V30 40 1 1 36
M  V30 41 1 1 37
M  V30 42 1 2 38
M  V30 43 1 3 39
M  V30 44 1 3 40
M  V30 45 1 3 41
M  V30 46 1 4 42
M  V30 47 1 7 43
M  V30 48 1 7 44
M  V30 49 1 10 45
M  V30 50 1 11 46
M  V30 51 1 12 47
M  V30 52 1 16 48
M  V30 53 1 19 49
M  V30 54 1 21 50
M  V30 55 1 22 51
M  V30 56 1 24 52
M  V30 57 1 26 53
M  V30 58 1 28 54
M  V30 59 1 29 55
M  V30 60 1 30 56
M  V30 61 1 31 57
M  V30 62 1 34 58
M  V30 END BOND
M  V30 END CTAB
M  END
>  <Dataset>  (705) 
ChEMBL_Kinases

>  <Ligand_Instance>  (705) 
nan

>  <PDB_ID>  (705) 
nan

>  <Standardized_SMILES>  (705) 
CC(C)NC(=O)COc1cccc(-c2ncc3c(Nc4ccc5[nH]ncc5c4)cccc3n2)c1

>  <Name>  (705) 
BELUMOSUDIL

>  <Pocket>  (705) 
nan

>  <ATP_Site>  (705) 
nan

>  <Peripheral>  (705) 
nan

>  <Num_H_Atoms_ProtBoundConf>  (705) 
nan

>  <Num_Resolved_Atoms>  (705) 
nan

>  <Num_Not_Resolved_Atoms>  (705) 
nan

$$$$
CHEMBL4594423
     RDKit          3D

  0  0  0  0  0  0  0  0  0  0999 V3000
M  V30 BEGIN CTAB
M  V30 COUNTS 53 56 0 0 0
M  V30 BEGIN ATOM
M  V30 1 C 0.324692 -2.626795 3.365685 0
M  V30 2 N 0.948478 -2.148894 2.184328 0
M  V30 3 C 2.353043 -1.851308 2.292887 0
M  V30 4 C 2.684606 -0.853685 1.238105 0
M  V30 5 C 1.829294 -1.022404 -0.044004 0 CFG=2
M  V30 6 C 0.937172 0.091438 -0.070487 0
M  V30 7 C 1.673129 1.298145 -0.172350 0
M  V30 8 O 3.066782 1.325658 -0.287796 0
M  V30 9 P 3.992519 2.740785 -0.413082 0
M  V30 10 O 3.562393 3.607515 -1.582179 0
M  V30 11 O 5.635206 2.402491 -0.595148 0
M  V30 12 O 3.804084 3.626069 1.035574 0
M  V30 13 C 1.103169 2.552149 -0.169065 0
M  V30 14 C -0.245273 2.632493 -0.061671 0
M  V30 15 O -0.895094 3.854325 -0.048993 0
M  V30 16 C -0.951682 1.455409 0.034852 0
M  V30 17 C -2.330870 1.565684 0.148978 0
M  V30 18 O -2.875233 2.692469 0.159380 0
M  V30 19 C -2.988047 0.361202 0.243569 0
M  V30 20 C -2.409961 -0.923356 0.234337 0
M  V30 21 C -3.401584 -1.951150 0.337480 0
M  V30 22 C -4.606449 -1.718760 1.014752 0
M  V30 23 C -5.660784 -2.586862 1.149668 0
M  V30 24 C -5.555584 -3.815923 0.574343 0
M  V30 25 C -4.425627 -4.147554 -0.110849 0
M  V30 26 C -3.426297 -3.216368 -0.193904 0
M  V30 27 Cl -2.099235 -3.760865 -1.185902 0
M  V30 28 O -1.111740 -0.952221 0.125770 0
M  V30 29 C -0.436302 0.166108 0.035372 0
M  V30 30 C 1.438366 -2.423012 -0.165649 0 CFG=2
M  V30 31 O 0.898195 -2.720548 -1.390866 0
M  V30 32 C 0.824191 -3.048768 1.037969 0
M  V30 33 H 0.303927 -3.715799 3.506638 0
M  V30 34 H 0.777935 -2.091480 4.235377 0
M  V30 35 H -0.744103 -2.261463 3.360198 0
M  V30 36 H 2.985815 -2.762508 2.227442 0
M  V30 37 H 2.524797 -1.412606 3.306465 0
M  V30 38 H 2.570646 0.163143 1.662292 0
M  V30 39 H 3.766183 -0.960701 1.020156 0
M  V30 40 H 2.596403 -0.859870 -0.867909 0
M  V30 41 H 5.716256 1.820238 -1.395997 0
M  V30 42 H 4.514679 3.311568 1.663877 0
M  V30 43 H 1.650281 3.477454 -0.245685 0
M  V30 44 H -1.319783 4.268937 -0.877260 0
M  V30 45 H -4.077932 0.551909 0.318183 0
M  V30 46 H -4.813246 -0.766425 1.537823 0
M  V30 47 H -6.564166 -2.345399 1.686513 0
M  V30 48 H -6.378922 -4.508905 0.675376 0
M  V30 49 H -4.401361 -5.132159 -0.542810 0
M  V30 50 H 2.452347 -2.982700 -0.245017 0
M  V30 51 H 1.205691 -2.019230 -2.018405 0
M  V30 52 H 1.372610 -3.974300 1.408033 0
M  V30 53 H -0.207549 -3.417151 0.931207 0
M  V30 END ATOM
M  V30 BEGIN BOND
M  V30 1 1 1 2
M  V30 2 1 2 3
M  V30 3 1 3 4
M  V30 4 1 4 5
M  V30 5 1 5 6
M  V30 6 2 6 7
M  V30 7 1 7 8
M  V30 8 1 8 9
M  V30 9 2 9 10
M  V30 10 1 9 11
M  V30 11 1 9 12
M  V30 12 1 7 13
M  V30 13 2 13 14
M  V30 14 1 14 15
M  V30 15 1 14 16
M  V30 16 1 16 17
M  V30 17 2 17 18
M  V30 18 1 17 19
M  V30 19 2 19 20
M  V30 20 1 20 21
M  V30 21 2 21 22
M  V30 22 1 22 23
M  V30 23 2 23 24
M  V30 24 1 24 25
M  V30 25 2 25 26
M  V30 26 1 26 27
M  V30 27 1 20 28
M  V30 28 1 28 29
M  V30 29 1 5 30
M  V30 30 1 30 31
M  V30 31 1 30 32
M  V30 32 1 32 2
M  V30 33 1 29 6
M  V30 34 2 29 16
M  V30 35 1 26 21
M  V30 36 1 1 33
M  V30 37 1 1 34
M  V30 38 1 1 35
M  V30 39 1 3 36
M  V30 40 1 3 37
M  V30 41 1 4 38
M  V30 42 1 4 39
M  V30 43 1 5 40 CFG=3
M  V30 44 1 11 41
M  V30 45 1 12 42
M  V30 46 1 13 43
M  V30 47 1 15 44
M  V30 48 1 19 45
M  V30 49 1 22 46
M  V30 50 1 23 47
M  V30 51 1 24 48
M  V30 52 1 25 49
M  V30 53 1 30 50 CFG=3
M  V30 54 1 31 51
M  V30 55 1 32 52
M  V30 56 1 32 53
M  V30 END BOND
M  V30 END CTAB
M  END
>  <Dataset>  (706) 
ChEMBL_Kinases

>  <Ligand_Instance>  (706) 
nan

>  <PDB_ID>  (706) 
nan

>  <Standardized_SMILES>  (706) 
CN1CC[C@H](c2c(OP(=O)(O)O)cc(O)c3c(=O)cc(-c4ccccc4Cl)oc23)[C@H](O)C1

>  <Name>  (706) 
TP-1287

>  <Pocket>  (706) 
nan

>  <ATP_Site>  (706) 
nan

>  <Peripheral>  (706) 
nan

>  <Num_H_Atoms_ProtBoundConf>  (706) 
nan

>  <Num_Resolved_Atoms>  (706) 
nan

>  <Num_Not_Resolved_Atoms>  (706) 
nan

$$$$
CHEMBL4593446
     RDKit          3D

  0  0  0  0  0  0  0  0  0  0999 V3000
M  V30 BEGIN CTAB
M  V30 COUNTS 54 57 0 0 0
M  V30 BEGIN ATOM
M  V30 1 C 1.321494 -3.896877 0.397121 0
M  V30 2 C 1.396824 -2.536922 0.991398 0
M  V30 3 N 2.345862 -2.250093 1.901172 0
M  V30 4 C 2.473125 -1.038369 2.473054 0
M  V30 5 C 1.577846 -0.058219 2.094421 0
M  V30 6 N 1.654107 1.252446 2.660760 0
M  V30 7 C 2.508641 2.070757 1.866445 0
M  V30 8 O 2.992293 1.456953 0.862257 0
M  V30 9 C 2.848463 3.454488 2.095619 0
M  V30 10 C 3.702669 4.019590 1.171603 0
M  V30 11 C 4.069066 5.359509 1.340515 0
M  V30 12 C 3.547276 6.034767 2.430508 0
M  V30 13 C 2.695511 5.447875 3.339836 0
M  V30 14 C 2.197853 6.267921 4.470209 0
M  V30 15 F 1.589098 5.466202 5.418259 0
M  V30 16 F 3.327639 6.840846 5.064813 0
M  V30 17 F 1.374586 7.283792 4.086320 0
M  V30 18 C 2.333313 4.129513 3.176050 0
M  V30 19 C 0.606725 -0.360385 1.160314 0
M  V30 20 C 0.464557 -1.617139 0.558749 0
M  V30 21 C -0.591820 -1.810518 -0.397297 0
M  V30 22 C -0.650345 -0.782021 -1.345271 0
M  V30 23 N -1.626375 -0.873465 -2.297162 0
M  V30 24 C -2.460135 -1.926916 -2.269969 0
M  V30 25 O -3.420951 -1.948273 -3.267269 0
M  V30 26 C -2.449892 -2.963388 -1.365844 0
M  V30 27 N -3.321398 -4.067887 -1.321155 0
M  V30 28 C -3.114280 -5.130540 -0.325965 0
M  V30 29 C -3.677537 -6.399141 -0.925623 0
M  V30 30 O -3.375059 -6.519541 -2.278192 0
M  V30 31 C -4.022656 -5.546467 -3.038141 0
M  V30 32 C -4.484233 -4.419330 -2.102517 0
M  V30 33 C -1.469452 -2.871192 -0.409804 0
M  V30 34 H 2.353679 -4.342236 0.339486 0
M  V30 35 H 0.862490 -3.926417 -0.605723 0
M  V30 36 H 0.772397 -4.557736 1.079447 0
M  V30 37 H 3.218382 -0.772157 3.203184 0
M  V30 38 H 1.229019 1.729264 3.511094 0
M  V30 39 H 4.111742 3.493986 0.319023 0
M  V30 40 H 4.739214 5.800253 0.614254 0
M  V30 41 H 3.841737 7.060709 2.539997 0
M  V30 42 H 1.663226 3.683785 3.899645 0
M  V30 43 H -0.099398 0.419593 0.864336 0
M  V30 44 H 0.014132 0.069981 -1.377732 0
M  V30 45 H -4.048018 -1.135463 -3.281229 0
M  V30 46 H -3.624301 -4.939886 0.617808 0
M  V30 47 H -2.033369 -5.328631 -0.184077 0
M  V30 48 H -3.127437 -7.255910 -0.434789 0
M  V30 49 H -4.752668 -6.553723 -0.698523 0
M  V30 50 H -4.849622 -5.954505 -3.618459 0
M  V30 51 H -3.272191 -5.115104 -3.732233 0
M  V30 52 H -5.333774 -4.781425 -1.478851 0
M  V30 53 H -4.860211 -3.639061 -2.767422 0
M  V30 54 H -1.276888 -3.546747 0.384251 0
M  V30 END ATOM
M  V30 BEGIN BOND
M  V30 1 1 1 2
M  V30 2 2 2 3
M  V30 3 1 3 4
M  V30 4 2 4 5
M  V30 5 1 5 6
M  V30 6 1 6 7
M  V30 7 2 7 8
M  V30 8 1 7 9
M  V30 9 2 9 10
M  V30 10 1 10 11
M  V30 11 2 11 12
M  V30 12 1 12 13
M  V30 13 1 13 14
M  V30 14 1 14 15
M  V30 15 1 14 16
M  V30 16 1 14 17
M  V30 17 2 13 18
M  V30 18 1 5 19
M  V30 19 2 19 20
M  V30 20 1 20 21
M  V30 21 2 21 22
M  V30 22 1 22 23
M  V30 23 2 23 24
M  V30 24 1 24 25
M  V30 25 1 24 26
M  V30 26 1 26 27
M  V30 27 1 27 28
M  V30 28 1 28 29
M  V30 29 1 29 30
M  V30 30 1 30 31
M  V30 31 1 31 32
M  V30 32 2 26 33
M  V30 33 1 20 2
M  V30 34 1 33 21
M  V30 35 1 18 9
M  V30 36 1 32 27
M  V30 37 1 1 34
M  V30 38 1 1 35
M  V30 39 1 1 36
M  V30 40 1 4 37
M  V30 41 1 6 38
M  V30 42 1 10 39
M  V30 43 1 11 40
M  V30 44 1 12 41
M  V30 45 1 18 42
M  V30 46 1 19 43
M  V30 47 1 22 44
M  V30 48 1 25 45
M  V30 49 1 28 46
M  V30 50 1 28 47
M  V30 51 1 29 48
M  V30 52 1 29 49
M  V30 53 1 31 50
M  V30 54 1 31 51
M  V30 55 1 32 52
M  V30 56 1 32 53
M  V30 57 1 33 54
M  V30 END BOND
M  V30 END CTAB
M  END
>  <Dataset>  (707) 
ChEMBL_Kinases

>  <Ligand_Instance>  (707) 
nan

>  <PDB_ID>  (707) 
nan

>  <Standardized_SMILES>  (707) 
Cc1ncc(NC(=O)c2cccc(C(F)(F)F)c2)cc1-c1cnc(O)c(N2CCOCC2)c1

>  <Name>  (707) 
nan

>  <Pocket>  (707) 
nan

>  <ATP_Site>  (707) 
nan

>  <Peripheral>  (707) 
nan

>  <Num_H_Atoms_ProtBoundConf>  (707) 
nan

>  <Num_Resolved_Atoms>  (707) 
nan

>  <Num_Not_Resolved_Atoms>  (707) 
nan

$$$$
CHEMBL4588897
     RDKit          3D

  0  0  0  0  0  0  0  0  0  0999 V3000
M  V30 BEGIN CTAB
M  V30 COUNTS 46 48 0 0 0
M  V30 BEGIN ATOM
M  V30 1 C -0.282467 -4.117752 0.579255 0
M  V30 2 C 0.556091 -3.880810 1.810173 0
M  V30 3 C 0.198153 -5.050513 2.744573 0
M  V30 4 O 1.905832 -4.079212 1.522490 0
M  V30 5 C 0.270991 -2.652505 2.568085 0
M  V30 6 C 0.428601 -1.338074 1.872471 0
M  V30 7 C 1.807418 -1.091040 1.356544 0
M  V30 8 C 0.201852 -0.302901 3.003023 0
M  V30 9 N -0.554860 -1.033431 0.882531 0
M  V30 10 C -0.476122 0.173764 0.141385 0
M  V30 11 N 0.522278 1.041178 0.364858 0
M  V30 12 C 0.659152 2.203168 -0.298226 0
M  V30 13 C 1.770100 3.100605 -0.004506 0
M  V30 14 C 3.028036 3.337703 -0.553884 0
M  V30 15 N 3.568088 4.317557 0.204291 0
M  V30 16 N 2.751943 4.688362 1.154648 0
M  V30 17 C 1.614503 3.970092 1.080972 0
M  V30 18 N -0.226038 2.572060 -1.253176 0
M  V30 19 C -1.260698 1.738726 -1.528383 0
M  V30 20 C -2.214849 2.044426 -2.496628 0
M  V30 21 N -3.243254 1.186703 -2.750643 0
M  V30 22 C -3.382493 0.018157 -2.085107 0
M  V30 23 C -2.433330 -0.275827 -1.128653 0
M  V30 24 C -1.373770 0.553470 -0.830748 0
M  V30 25 H -1.333850 -4.139895 0.867245 0
M  V30 26 H -0.025484 -3.470194 -0.280079 0
M  V30 27 H -0.055709 -5.174651 0.237506 0
M  V30 28 H 0.910980 -5.144922 3.566033 0
M  V30 29 H 0.029779 -5.973136 2.152732 0
M  V30 30 H -0.784821 -4.764703 3.178931 0
M  V30 31 H 1.960929 -4.648223 0.698601 0
M  V30 32 H 0.907857 -2.623096 3.469049 0
M  V30 33 H -0.780130 -2.697316 2.921618 0
M  V30 34 H 1.859272 -1.069176 0.240619 0
M  V30 35 H 2.141015 -0.087142 1.673291 0
M  V30 36 H 2.558668 -1.794153 1.785224 0
M  V30 37 H 0.867531 -0.660886 3.831568 0
M  V30 38 H -0.828703 -0.363982 3.385798 0
M  V30 39 H 0.551488 0.693155 2.722945 0
M  V30 40 H -1.285079 -1.765107 0.793996 0
M  V30 41 H 3.286464 2.738181 -1.400589 0
M  V30 42 H 3.066867 5.448148 1.810038 0
M  V30 43 H 0.863805 4.190695 1.818738 0
M  V30 44 H -2.078890 2.977900 -3.008457 0
M  V30 45 H -4.197486 -0.626348 -2.309843 0
M  V30 46 H -2.581365 -1.215524 -0.622410 0
M  V30 END ATOM
M  V30 BEGIN BOND
M  V30 1 1 1 2
M  V30 2 1 2 3
M  V30 3 1 2 4
M  V30 4 1 2 5
M  V30 5 1 5 6
M  V30 6 1 6 7
M  V30 7 1 6 8
M  V30 8 1 6 9
M  V30 9 1 9 10
M  V30 10 2 10 11
M  V30 11 1 11 12
M  V30 12 1 12 13
M  V30 13 1 13 14
M  V30 14 2 14 15
M  V30 15 1 15 16
M  V30 16 1 16 17
M  V30 17 2 12 18
M  V30 18 1 18 19
M  V30 19 2 19 20
M  V30 20 1 20 21
M  V30 21 2 21 22
M  V30 22 1 22 23
M  V30 23 2 23 24
M  V30 24 1 24 10
M  V30 25 2 17 13
M  V30 26 1 24 19
M  V30 27 1 1 25
M  V30 28 1 1 26
M  V30 29 1 1 27
M  V30 30 1 3 28
M  V30 31 1 3 29
M  V30 32 1 3 30
M  V30 33 1 4 31
M  V30 34 1 5 32
M  V30 35 1 5 33
M  V30 36 1 7 34
M  V30 37 1 7 35
M  V30 38 1 7 36
M  V30 39 1 8 37
M  V30 40 1 8 38
M  V30 41 1 8 39
M  V30 42 1 9 40
M  V30 43 1 14 41
M  V30 44 1 16 42
M  V30 45 1 17 43
M  V30 46 1 20 44
M  V30 47 1 22 45
M  V30 48 1 23 46
M  V30 END BOND
M  V30 END CTAB
M  END
>  <Dataset>  (708) 
ChEMBL_Kinases

>  <Ligand_Instance>  (708) 
nan

>  <PDB_ID>  (708) 
nan

>  <Standardized_SMILES>  (708) 
CC(C)(O)CC(C)(C)Nc1nc(-c2cn[nH]c2)nc2cnccc12

>  <Name>  (708) 
nan

>  <Pocket>  (708) 
nan

>  <ATP_Site>  (708) 
nan

>  <Peripheral>  (708) 
nan

>  <Num_H_Atoms_ProtBoundConf>  (708) 
nan

>  <Num_Resolved_Atoms>  (708) 
nan

>  <Num_Not_Resolved_Atoms>  (708) 
nan

$$$$
CHEMBL4588895
     RDKit          3D

  0  0  0  0  0  0  0  0  0  0999 V3000
M  V30 BEGIN CTAB
M  V30 COUNTS 44 48 0 0 0
M  V30 BEGIN ATOM
M  V30 1 O 3.561923 3.206662 2.002679 0
M  V30 2 S 2.960470 2.148641 1.119072 0
M  V30 3 O 2.298295 1.172947 2.049226 0
M  V30 4 C 4.132106 1.377500 0.167102 0
M  V30 5 C 4.610152 -0.026320 0.011337 0
M  V30 6 C 5.602499 -0.193350 -0.905652 0
M  V30 7 C 6.136009 0.885191 -1.650831 0
M  V30 8 S 5.190772 2.344741 -1.058557 0
M  V30 9 N 1.744616 2.944699 0.178706 0
M  V30 10 C 0.991959 2.077904 -0.657914 0
M  V30 11 C 0.346868 0.896360 -0.048920 0
M  V30 12 C -0.336349 1.176302 1.234361 0
M  V30 13 C -0.072725 2.455811 1.636616 0
M  V30 14 S -1.004270 2.638803 3.209974 0
M  V30 15 C -1.649833 0.946457 3.143456 0
M  V30 16 N -2.448345 0.403918 4.049249 0
M  V30 17 C -2.845640 -0.862453 3.869100 0
M  V30 18 N -2.369621 -1.431595 2.765232 0
M  V30 19 C -1.567093 -0.890105 1.852960 0
M  V30 20 N -1.220327 -1.750479 0.789374 0
M  V30 21 C -1.716325 -3.058025 0.571809 0
M  V30 22 C -2.935284 -3.538559 1.018791 0
M  V30 23 C -3.412161 -4.805789 0.829927 0
M  V30 24 C -2.634925 -5.691913 0.142925 0
M  V30 25 Cl -3.161233 -7.336419 -0.147600 0
M  V30 26 C -1.414517 -5.329934 -0.345669 0
M  V30 27 C -1.012065 -4.035456 -0.110418 0
M  V30 28 C -1.135201 0.398103 1.990560 0
M  V30 29 C 0.744698 3.550860 1.074485 0
M  V30 30 H 4.054723 -0.645075 0.679664 0
M  V30 31 H 5.921342 -1.220337 -0.990847 0
M  V30 32 H 6.889811 0.743670 -2.343788 0
M  V30 33 H 0.221183 2.733796 -1.160528 0
M  V30 34 H 1.606456 1.716942 -1.533833 0
M  V30 35 H 1.101081 0.081817 0.001679 0
M  V30 36 H -0.416993 0.547491 -0.819739 0
M  V30 37 H -3.494589 -1.317948 4.593577 0
M  V30 38 H -0.555778 -1.544516 0.021016 0
M  V30 39 H -3.617956 -2.909603 1.560839 0
M  V30 40 H -4.363406 -5.150851 1.189212 0
M  V30 41 H -0.769579 -6.003232 -0.895329 0
M  V30 42 H -0.033292 -3.760286 -0.505783 0
M  V30 43 H 0.191242 4.256285 0.444717 0
M  V30 44 H 1.279187 4.126524 1.855349 0
M  V30 END ATOM
M  V30 BEGIN BOND
M  V30 1 2 1 2
M  V30 2 2 2 3
M  V30 3 1 2 4
M  V30 4 2 4 5
M  V30 5 1 5 6
M  V30 6 2 6 7
M  V30 7 1 7 8
M  V30 8 1 2 9
M  V30 9 1 9 10
M  V30 10 1 10 11
M  V30 11 1 11 12
M  V30 12 2 12 13
M  V30 13 1 13 14
M  V30 14 1 14 15
M  V30 15 2 15 16
M  V30 16 1 16 17
M  V30 17 2 17 18
M  V30 18 1 18 19
M  V30 19 1 19 20
M  V30 20 1 20 21
M  V30 21 2 21 22
M  V30 22 1 22 23
M  V30 23 2 23 24
M  V30 24 1 24 25
M  V30 25 1 24 26
M  V30 26 2 26 27
M  V30 27 2 19 28
M  V30 28 1 13 29
M  V30 29 1 8 4
M  V30 30 1 29 9
M  V30 31 1 28 12
M  V30 32 1 28 15
M  V30 33 1 27 21
M  V30 34 1 5 30
M  V30 35 1 6 31
M  V30 36 1 7 32
M  V30 37 1 10 33
M  V30 38 1 10 34
M  V30 39 1 11 35
M  V30 40 1 11 36
M  V30 41 1 17 37
M  V30 42 1 20 38
M  V30 43 1 22 39
M  V30 44 1 23 40
M  V30 45 1 26 41
M  V30 46 1 27 42
M  V30 47 1 29 43
M  V30 48 1 29 44
M  V30 END BOND
M  V30 END CTAB
M  END
>  <Dataset>  (709) 
ChEMBL_Kinases

>  <Ligand_Instance>  (709) 
nan

>  <PDB_ID>  (709) 
nan

>  <Standardized_SMILES>  (709) 
O=S(=O)(c1cccs1)N1CCc2c(sc3ncnc(Nc4ccc(Cl)cc4)c23)C1

>  <Name>  (709) 
nan

>  <Pocket>  (709) 
nan

>  <ATP_Site>  (709) 
nan

>  <Peripheral>  (709) 
nan

>  <Num_H_Atoms_ProtBoundConf>  (709) 
nan

>  <Num_Resolved_Atoms>  (709) 
nan

>  <Num_Not_Resolved_Atoms>  (709) 
nan

$$$$
CHEMBL4588843
     RDKit          3D

  0  0  0  0  0  0  0  0  0  0999 V3000
M  V30 BEGIN CTAB
M  V30 COUNTS 77 81 0 0 0
M  V30 BEGIN ATOM
M  V30 1 C 3.277642 2.410014 4.764335 0
M  V30 2 C 3.164934 1.173184 3.853912 0
M  V30 3 O 2.419438 1.434532 2.816093 0
M  V30 4 C 1.697967 1.696744 1.800333 0
M  V30 5 C 1.980694 2.671797 0.872437 0
M  V30 6 C 1.245483 3.003367 -0.241247 0
M  V30 7 C 1.645514 4.081582 -1.201688 0
M  V30 8 C 1.266392 3.773195 -2.612613 0
M  V30 9 C 2.257196 2.843852 -3.282613 0
M  V30 10 N 3.600600 3.353218 -3.232684 0
M  V30 11 C 4.198774 3.425802 -4.532949 0
M  V30 12 C 3.675134 4.599013 -2.498001 0
M  V30 13 C 3.124306 4.343720 -1.116116 0
M  V30 14 C 0.105867 2.233460 -0.386543 0
M  V30 15 C -0.280321 1.232240 0.474507 0
M  V30 16 C 0.524135 0.974544 1.562162 0
M  V30 17 N 0.175499 -0.053953 2.475244 0
M  V30 18 C -0.896871 -0.976701 2.591685 0
M  V30 19 N -2.030401 -0.796611 3.322647 0
M  V30 20 C -2.987412 -1.764284 3.353839 0
M  V30 21 C -2.758201 -2.910495 2.625037 0
M  V30 22 C -1.597252 -3.112089 1.865746 0
M  V30 23 N -0.673297 -2.104165 1.874960 0
M  V30 24 N -1.429642 -4.329833 1.112090 0
M  V30 25 C -0.733522 -4.215380 -0.138169 0
M  V30 26 C -1.515286 -3.406216 -1.113519 0
M  V30 27 C -2.409649 -4.202711 -1.839673 0
M  V30 28 C -3.246565 -3.689955 -2.810985 0
M  V30 29 C -3.167968 -2.333199 -3.045600 0
M  V30 30 C -2.292678 -1.523338 -2.342099 0
M  V30 31 C -2.282675 -0.145938 -2.649306 0
M  V30 32 N -2.255201 0.979837 -2.894489 0
M  V30 33 C -1.485179 -2.079383 -1.390607 0
M  V30 34 C -1.998932 -5.490803 1.681567 0 CFG=2
M  V30 35 C -1.834484 -6.790519 1.004327 0
M  V30 36 C -0.384006 -7.181451 0.872818 0
M  V30 37 C -3.458126 -5.170480 1.901278 0
M  V30 38 O -4.462503 -5.820595 1.509070 0
M  V30 39 N -3.738690 -3.969157 2.655043 0
M  V30 40 C -4.952478 -3.782846 3.429112 0
M  V30 41 H 3.357788 2.156545 5.818697 0
M  V30 42 H 4.127735 3.031147 4.432819 0
M  V30 43 H 2.361748 3.035544 4.632329 0
M  V30 44 H 4.234681 0.946140 3.597752 0
M  V30 45 H 2.798063 0.353827 4.544980 0
M  V30 46 H 2.901621 3.228203 1.082567 0
M  V30 47 H 1.109910 5.015375 -0.882600 0
M  V30 48 H 0.279281 3.327336 -2.759656 0
M  V30 49 H 1.274481 4.726553 -3.188247 0
M  V30 50 H 2.202643 1.875363 -2.703650 0
M  V30 51 H 1.926944 2.686481 -4.312875 0
M  V30 52 H 4.272517 2.395825 -4.958521 0
M  V30 53 H 3.603274 4.019560 -5.229175 0
M  V30 54 H 5.236018 3.796126 -4.420706 0
M  V30 55 H 4.756295 4.882099 -2.405755 0
M  V30 56 H 3.155608 5.422342 -3.010792 0
M  V30 57 H 3.383503 5.166378 -0.410735 0
M  V30 58 H 3.615641 3.381894 -0.783625 0
M  V30 59 H -0.552476 2.393890 -1.205297 0
M  V30 60 H -1.182005 0.656734 0.321677 0
M  V30 61 H 0.770532 -0.281314 3.299303 0
M  V30 62 H -3.882621 -1.607397 3.940061 0
M  V30 63 H 0.207880 -3.613300 0.041356 0
M  V30 64 H -0.416663 -5.128425 -0.618640 0
M  V30 65 H -2.534623 -5.280456 -1.717335 0
M  V30 66 H -3.942752 -4.251786 -3.390535 0
M  V30 67 H -3.818062 -1.893420 -3.809456 0
M  V30 68 H -0.792877 -1.512803 -0.822315 0
M  V30 69 H -1.578588 -5.624380 2.723928 0
M  V30 70 H -2.389267 -6.896083 0.050054 0
M  V30 71 H -2.315440 -7.555397 1.667206 0
M  V30 72 H -0.066969 -7.439597 -0.151482 0
M  V30 73 H -0.135114 -8.080420 1.484601 0
M  V30 74 H 0.305426 -6.395586 1.263857 0
M  V30 75 H -4.750754 -3.808226 4.527296 0
M  V30 76 H -5.475339 -2.830654 3.206756 0
M  V30 77 H -5.674533 -4.591104 3.162493 0
M  V30 END ATOM
M  V30 BEGIN BOND
M  V30 1 1 1 2
M  V30 2 1 2 3
M  V30 3 1 3 4
M  V30 4 2 4 5
M  V30 5 1 5 6
M  V30 6 1 6 7
M  V30 7 1 7 8
M  V30 8 1 8 9
M  V30 9 1 9 10
M  V30 10 1 10 11
M  V30 11 1 10 12
M  V30 12 1 12 13
M  V30 13 2 6 14
M  V30 14 1 14 15
M  V30 15 2 15 16
M  V30 16 1 16 17
M  V30 17 1 17 18
M  V30 18 2 18 19
M  V30 19 1 19 20
M  V30 20 2 20 21
M  V30 21 1 21 22
M  V30 22 2 22 23
M  V30 23 1 22 24
M  V30 24 1 24 25
M  V30 25 1 25 26
M  V30 26 2 26 27
M  V30 27 1 27 28
M  V30 28 2 28 29
M  V30 29 1 29 30
M  V30 30 1 30 31
M  V30 31 3 31 32
M  V30 32 2 30 33
M  V30 33 1 24 34
M  V30 34 1 34 35
M  V30 35 1 35 36
M  V30 36 1 34 37
M  V30 37 2 37 38
M  V30 38 1 37 39
M  V30 39 1 39 40
M  V30 40 1 16 4
M  V30 41 1 23 18
M  V30 42 1 33 26
M  V30 43 1 13 7
M  V30 44 1 39 21
M  V30 45 1 1 41
M  V30 46 1 1 42
M  V30 47 1 1 43
M  V30 48 1 2 44
M  V30 49 1 2 45
M  V30 50 1 5 46
M  V30 51 1 7 47
M  V30 52 1 8 48
M  V30 53 1 8 49
M  V30 54 1 9 50
M  V30 55 1 9 51
M  V30 56 1 11 52
M  V30 57 1 11 53
M  V30 58 1 11 54
M  V30 59 1 12 55
M  V30 60 1 12 56
M  V30 61 1 13 57
M  V30 62 1 13 58
M  V30 63 1 14 59
M  V30 64 1 15 60
M  V30 65 1 17 61
M  V30 66 1 20 62
M  V30 67 1 25 63
M  V30 68 1 25 64
M  V30 69 1 27 65
M  V30 70 1 28 66
M  V30 71 1 29 67
M  V30 72 1 33 68
M  V30 73 1 34 69 CFG=1
M  V30 74 1 35 70
M  V30 75 1 35 71
M  V30 76 1 36 72
M  V30 77 1 36 73
M  V30 78 1 36 74
M  V30 79 1 40 75
M  V30 80 1 40 76
M  V30 81 1 40 77
M  V30 END BOND
M  V30 END CTAB
M  END
>  <Dataset>  (710) 
ChEMBL_Kinases

>  <Ligand_Instance>  (710) 
nan

>  <PDB_ID>  (710) 
nan

>  <Standardized_SMILES>  (710) 
CCOc1cc(C2CCN(C)CC2)ccc1Nc1ncc2c(n1)N(Cc1cccc(C#N)c1)[C@H](CC)C(=O)N2C

>  <Name>  (710) 
nan

>  <Pocket>  (710) 
nan

>  <ATP_Site>  (710) 
nan

>  <Peripheral>  (710) 
nan

>  <Num_H_Atoms_ProtBoundConf>  (710) 
nan

>  <Num_Resolved_Atoms>  (710) 
nan

>  <Num_Not_Resolved_Atoms>  (710) 
nan

$$$$
CHEMBL460848
     RDKit          3D

  0  0  0  0  0  0  0  0  0  0999 V3000
M  V30 BEGIN CTAB
M  V30 COUNTS 72 76 0 0 0
M  V30 BEGIN ATOM
M  V30 1 C 1.974985 -2.546986 6.674648 0
M  V30 2 C 1.084351 -2.999151 5.520624 0
M  V30 3 C 1.063437 -1.943740 4.437553 0
M  V30 4 C 0.223707 -2.279279 3.259549 0
M  V30 5 C 0.202200 -1.220408 2.170674 0
M  V30 6 S -0.413958 0.359316 2.662167 0
M  V30 7 C -0.301694 1.670740 1.488323 0
M  V30 8 N 0.924080 2.271526 1.592873 0
M  V30 9 C 1.215799 3.311755 0.794132 0
M  V30 10 C 2.437739 3.991693 0.823592 0
M  V30 11 C 2.732338 5.057294 0.002781 0
M  V30 12 C 1.794598 5.500480 -0.905827 0
M  V30 13 C 0.565871 4.870262 -0.984493 0
M  V30 14 C 0.336605 3.813274 -0.136673 0
M  V30 15 C -0.880667 3.206232 -0.230123 0
M  V30 16 O -1.793408 3.542699 -1.027074 0
M  V30 17 N -1.151291 2.170186 0.576706 0
M  V30 18 C -2.387819 1.530079 0.543775 0
M  V30 19 C -3.185744 1.275383 1.646760 0
M  V30 20 C -4.399007 0.632945 1.506524 0
M  V30 21 C -4.839691 0.230389 0.250798 0
M  V30 22 C -4.037269 0.489070 -0.840385 0
M  V30 23 C -2.799974 1.138597 -0.737816 0
M  V30 24 C -0.615981 -1.805799 1.084551 0
M  V30 25 O -1.798139 -1.537971 0.801605 0
M  V30 26 N 0.012986 -2.790206 0.260122 0
M  V30 27 C 1.374892 -3.330815 0.247787 0
M  V30 28 C 2.017800 -2.915761 -1.034202 0
M  V30 29 C 1.217786 -2.967421 -2.265885 0
M  V30 30 C -0.266102 -2.996556 -2.113364 0
M  V30 31 C -0.873908 -1.623676 -2.351918 0
M  V30 32 C -0.600186 -1.088112 -3.733468 0
M  V30 33 C -0.831479 -2.149306 -4.758463 0
M  V30 34 N -1.610567 -3.213168 -4.165902 0
M  V30 35 C -0.872938 -3.926669 -3.145459 0
M  V30 36 C -0.754855 -3.462610 -0.790700 0
M  V30 37 H 2.538701 -3.365053 7.132305 0
M  V30 38 H 1.311144 -2.019271 7.401555 0
M  V30 39 H 2.641697 -1.756154 6.272660 0
M  V30 40 H 1.438304 -3.993169 5.154713 0
M  V30 41 H 0.063381 -3.166957 5.910494 0
M  V30 42 H 2.143984 -1.808976 4.140461 0
M  V30 43 H 0.674189 -1.023937 4.915086 0
M  V30 44 H -0.824676 -2.440214 3.654178 0
M  V30 45 H 0.502223 -3.247882 2.824499 0
M  V30 46 H 1.253767 -1.111842 1.756743 0
M  V30 47 H 3.188089 3.649836 1.538780 0
M  V30 48 H 3.713183 5.536499 0.087456 0
M  V30 49 H 2.004795 6.330241 -1.555080 0
M  V30 50 H -0.196667 5.197265 -1.692489 0
M  V30 51 H -2.825046 1.597110 2.620413 0
M  V30 52 H -5.038411 0.423506 2.353047 0
M  V30 53 H -5.773796 -0.276898 0.051160 0
M  V30 54 H -4.353048 0.185508 -1.848459 0
M  V30 55 H -2.202573 1.319471 -1.633694 0
M  V30 56 H 1.283023 -4.425543 0.372287 0
M  V30 57 H 1.984501 -2.884900 1.071606 0
M  V30 58 H 2.445262 -1.881965 -0.869299 0
M  V30 59 H 2.929150 -3.543341 -1.147010 0
M  V30 60 H 1.531614 -3.849113 -2.894070 0
M  V30 61 H 1.466358 -2.079805 -2.889514 0
M  V30 62 H -0.553408 -0.901995 -1.565599 0
M  V30 63 H -1.977360 -1.719053 -2.254792 0
M  V30 64 H -1.368485 -0.276106 -3.890289 0
M  V30 65 H 0.379798 -0.574489 -3.811134 0
M  V30 66 H -1.443772 -1.743559 -5.601436 0
M  V30 67 H 0.104451 -2.528407 -5.217452 0
M  V30 68 H -1.809690 -3.891107 -4.934051 0
M  V30 69 H -1.570600 -4.670123 -2.718698 0
M  V30 70 H -0.058804 -4.517639 -3.611891 0
M  V30 71 H -1.834844 -3.165909 -0.677026 0
M  V30 72 H -0.648662 -4.558443 -0.698619 0
M  V30 END ATOM
M  V30 BEGIN BOND
M  V30 1 1 1 2
M  V30 2 1 2 3
M  V30 3 1 3 4
M  V30 4 1 4 5
M  V30 5 1 5 6
M  V30 6 1 6 7
M  V30 7 2 7 8
M  V30 8 1 8 9
M  V30 9 2 9 10
M  V30 10 1 10 11
M  V30 11 2 11 12
M  V30 12 1 12 13
M  V30 13 2 13 14
M  V30 14 1 14 15
M  V30 15 2 15 16
M  V30 16 1 15 17
M  V30 17 1 17 18
M  V30 18 2 18 19
M  V30 19 1 19 20
M  V30 20 2 20 21
M  V30 21 1 21 22
M  V30 22 2 22 23
M  V30 23 1 5 24
M  V30 24 2 24 25
M  V30 25 1 24 26
M  V30 26 1 26 27
M  V30 27 1 27 28
M  V30 28 1 28 29
M  V30 29 1 29 30
M  V30 30 1 30 31
M  V30 31 1 31 32
M  V30 32 1 32 33
M  V30 33 1 33 34
M  V30 34 1 34 35
M  V30 35 1 30 36
M  V30 36 1 17 7
M  V30 37 1 23 18
M  V30 38 1 36 26
M  V30 39 1 14 9
M  V30 40 1 35 30
M  V30 41 1 1 37
M  V30 42 1 1 38
M  V30 43 1 1 39
M  V30 44 1 2 40
M  V30 45 1 2 41
M  V30 46 1 3 42
M  V30 47 1 3 43
M  V30 48 1 4 44
M  V30 49 1 4 45
M  V30 50 1 5 46
M  V30 51 1 10 47
M  V30 52 1 11 48
M  V30 53 1 12 49
M  V30 54 1 13 50
M  V30 55 1 19 51
M  V30 56 1 20 52
M  V30 57 1 21 53
M  V30 58 1 22 54
M  V30 59 1 23 55
M  V30 60 1 27 56
M  V30 61 1 27 57
M  V30 62 1 28 58
M  V30 63 1 28 59
M  V30 64 1 29 60
M  V30 65 1 29 61
M  V30 66 1 31 62
M  V30 67 1 31 63
M  V30 68 1 32 64
M  V30 69 1 32 65
M  V30 70 1 33 66
M  V30 71 1 33 67
M  V30 72 1 34 68
M  V30 73 1 35 69
M  V30 74 1 35 70
M  V30 75 1 36 71
M  V30 76 1 36 72
M  V30 END BOND
M  V30 END CTAB
M  END
>  <Dataset>  (711) 
ChEMBL_Kinases

>  <Ligand_Instance>  (711) 
nan

>  <PDB_ID>  (711) 
nan

>  <Standardized_SMILES>  (711) 
CCCCC(Sc1nc2ccccc2c(=O)n1-c1ccccc1)C(=O)N1CCCC2(CCCNC2)C1

>  <Name>  (711) 
nan

>  <Pocket>  (711) 
nan

>  <ATP_Site>  (711) 
nan

>  <Peripheral>  (711) 
nan

>  <Num_H_Atoms_ProtBoundConf>  (711) 
nan

>  <Num_Resolved_Atoms>  (711) 
nan

>  <Num_Not_Resolved_Atoms>  (711) 
nan

$$$$
CHEMBL4588742
     RDKit          3D

  0  0  0  0  0  0  0  0  0  0999 V3000
M  V30 BEGIN CTAB
M  V30 COUNTS 52 55 0 0 0
M  V30 BEGIN ATOM
M  V30 1 C -0.007229 1.835585 -1.267969 0
M  V30 2 N 1.086540 1.725148 -0.321544 0
M  V30 3 C 2.015371 2.626694 0.040106 0
M  V30 4 C 2.884010 2.117110 0.976207 0
M  V30 5 C 4.006189 2.800741 1.592143 0
M  V30 6 C 4.847298 2.264777 2.517379 0
M  V30 7 Br 4.935828 0.571124 3.339422 0
M  V30 8 C 5.795153 3.197169 2.880196 0
M  V30 9 N 5.521864 4.289359 2.173359 0
M  V30 10 N 4.456295 4.047806 1.408581 0
M  V30 11 C 3.919977 5.053808 0.524938 0
M  V30 12 C 2.413948 0.839627 1.156247 0
M  V30 13 C 1.296800 0.587217 0.353653 0
M  V30 14 C 0.701739 -0.731249 0.453380 0
M  V30 15 O 1.085871 -1.688189 1.170663 0
M  V30 16 N -0.436284 -1.159164 -0.260629 0
M  V30 17 C -1.077095 -2.456903 -0.206467 0 CFG=2
M  V30 18 C -0.904422 -3.172451 -1.537044 0
M  V30 19 N -1.848157 -2.548296 -2.446844 0
M  V30 20 C -3.135673 -3.084514 -2.064197 0
M  V30 21 C -3.560743 -2.712796 -0.690350 0
M  V30 22 C -2.491458 -2.397088 0.274025 0 CFG=1
M  V30 23 C -2.688937 -3.263690 1.470103 0
M  V30 24 C -2.604256 -4.645192 1.398058 0
M  V30 25 C -2.777174 -5.500517 2.468749 0
M  V30 26 C -3.054307 -4.955697 3.703486 0
M  V30 27 Cl -3.277950 -6.018755 5.076925 0
M  V30 28 C -3.150041 -3.590345 3.834123 0
M  V30 29 C -2.969373 -2.776473 2.735440 0
M  V30 30 H 0.056928 2.853542 -1.740732 0
M  V30 31 H 0.108873 1.147051 -2.145687 0
M  V30 32 H -0.989660 1.788667 -0.799162 0
M  V30 33 H 1.955526 3.589294 -0.434254 0
M  V30 34 H 6.643474 3.202219 3.571967 0
M  V30 35 H 4.502617 6.020327 0.614056 0
M  V30 36 H 3.963491 4.805538 -0.542953 0
M  V30 37 H 2.889563 5.316478 0.862976 0
M  V30 38 H 2.900689 0.166425 1.852106 0
M  V30 39 H -0.942968 -0.544085 -0.925304 0
M  V30 40 H -0.493657 -3.071559 0.510394 0
M  V30 41 H 0.144689 -3.009244 -1.851089 0
M  V30 42 H -1.110166 -4.242337 -1.354054 0
M  V30 43 H -1.630524 -2.940118 -3.389231 0
M  V30 44 H -3.084269 -4.192859 -2.182530 0
M  V30 45 H -3.867754 -2.730828 -2.839126 0
M  V30 46 H -4.272073 -1.848752 -0.803854 0
M  V30 47 H -4.250332 -3.534217 -0.338004 0
M  V30 48 H -2.631855 -1.342349 0.657046 0
M  V30 49 H -2.391342 -5.134466 0.466879 0
M  V30 50 H -2.702448 -6.572873 2.367736 0
M  V30 51 H -3.369871 -3.171387 4.816964 0
M  V30 52 H -3.048374 -1.705855 2.857405 0
M  V30 END ATOM
M  V30 BEGIN BOND
M  V30 1 1 1 2
M  V30 2 1 2 3
M  V30 3 2 3 4
M  V30 4 1 4 5
M  V30 5 2 5 6
M  V30 6 1 6 7
M  V30 7 1 6 8
M  V30 8 2 8 9
M  V30 9 1 9 10
M  V30 10 1 10 11
M  V30 11 1 4 12
M  V30 12 2 12 13
M  V30 13 1 13 14
M  V30 14 2 14 15
M  V30 15 1 14 16
M  V30 16 1 16 17
M  V30 17 1 17 18
M  V30 18 1 18 19
M  V30 19 1 19 20
M  V30 20 1 20 21
M  V30 21 1 21 22
M  V30 22 1 22 23
M  V30 23 2 23 24
M  V30 24 1 24 25
M  V30 25 2 25 26
M  V30 26 1 26 27
M  V30 27 1 26 28
M  V30 28 2 28 29
M  V30 29 1 13 2
M  V30 30 1 22 17
M  V30 31 1 29 23
M  V30 32 1 10 5
M  V30 33 1 1 30
M  V30 34 1 1 31
M  V30 35 1 1 32
M  V30 36 1 3 33
M  V30 37 1 8 34
M  V30 38 1 11 35
M  V30 39 1 11 36
M  V30 40 1 11 37
M  V30 41 1 12 38
M  V30 42 1 16 39
M  V30 43 1 17 40 CFG=1
M  V30 44 1 18 41
M  V30 45 1 18 42
M  V30 46 1 19 43
M  V30 47 1 20 44
M  V30 48 1 20 45
M  V30 49 1 21 46
M  V30 50 1 21 47
M  V30 51 1 22 48 CFG=1
M  V30 52 1 24 49
M  V30 53 1 25 50
M  V30 54 1 28 51
M  V30 55 1 29 52
M  V30 END BOND
M  V30 END CTAB
M  END
>  <Dataset>  (712) 
ChEMBL_Kinases

>  <Ligand_Instance>  (712) 
nan

>  <PDB_ID>  (712) 
nan

>  <Standardized_SMILES>  (712) 
Cn1cc(-c2c(Br)cnn2C)cc1C(=O)N[C@@H]1CNCC[C@H]1c1ccc(Cl)cc1

>  <Name>  (712) 
nan

>  <Pocket>  (712) 
nan

>  <ATP_Site>  (712) 
nan

>  <Peripheral>  (712) 
nan

>  <Num_H_Atoms_ProtBoundConf>  (712) 
nan

>  <Num_Resolved_Atoms>  (712) 
nan

>  <Num_Not_Resolved_Atoms>  (712) 
nan

$$$$
CHEMBL4588446
     RDKit          3D

  0  0  0  0  0  0  0  0  0  0999 V3000
M  V30 BEGIN CTAB
M  V30 COUNTS 31 34 0 0 0
M  V30 BEGIN ATOM
M  V30 1 C 1.906268 -1.061067 2.071133 0
M  V30 2 C 1.310620 -2.395451 1.818238 0
M  V30 3 N 1.387392 -3.461649 2.648879 0
M  V30 4 N 0.774619 -4.502776 2.165393 0
M  V30 5 C 0.271515 -4.124208 0.977403 0
M  V30 6 C -0.462909 -4.833489 0.060055 0
M  V30 7 C -0.868019 -4.189857 -1.104619 0
M  V30 8 N -0.552088 -2.918736 -1.326050 0
M  V30 9 C 0.168108 -2.186242 -0.450878 0
M  V30 10 N 0.506162 -0.852056 -0.680713 0
M  V30 11 C 0.159290 0.452014 -0.250550 0
M  V30 12 C 0.797010 1.534734 -0.792617 0
M  V30 13 C 0.502075 2.802830 -0.365338 0
M  V30 14 C -0.456657 3.034176 0.637241 0
M  V30 15 N -0.837827 4.190730 1.143982 0
M  V30 16 C -1.628945 4.394972 1.972064 0
M  V30 17 S -2.198056 2.618942 2.367543 0
M  V30 18 C -1.085479 1.952378 1.167796 0
M  V30 19 C -0.781161 0.659428 0.726965 0
M  V30 20 C 0.574819 -2.810278 0.703758 0
M  V30 21 H 2.382663 -0.628012 1.184932 0
M  V30 22 H 2.722861 -1.197877 2.842234 0
M  V30 23 H 1.180931 -0.380366 2.574719 0
M  V30 24 H 0.748922 -5.393267 2.694363 0
M  V30 25 H -0.693273 -5.869225 0.283144 0
M  V30 26 H -1.441485 -4.843481 -1.772725 0
M  V30 27 H 1.242805 -0.980454 -1.380402 0
M  V30 28 H 1.542801 1.344640 -1.576906 0
M  V30 29 H 1.065670 3.575956 -0.856622 0
M  V30 30 H -1.743739 5.629776 2.214239 0
M  V30 31 H -1.340257 -0.086398 1.218799 0
M  V30 END ATOM
M  V30 BEGIN BOND
M  V30 1 1 1 2
M  V30 2 2 2 3
M  V30 3 1 3 4
M  V30 4 1 4 5
M  V30 5 2 5 6
M  V30 6 1 6 7
M  V30 7 2 7 8
M  V30 8 1 8 9
M  V30 9 1 9 10
M  V30 10 1 10 11
M  V30 11 2 11 12
M  V30 12 1 12 13
M  V30 13 2 13 14
M  V30 14 1 14 15
M  V30 15 2 15 16
M  V30 16 1 16 17
M  V30 17 1 17 18
M  V30 18 2 18 19
M  V30 19 2 9 20
M  V30 20 1 20 2
M  V30 21 1 20 5
M  V30 22 1 19 11
M  V30 23 1 18 14
M  V30 24 1 1 21
M  V30 25 1 1 22
M  V30 26 1 1 23
M  V30 27 1 4 24
M  V30 28 1 6 25
M  V30 29 1 7 26
M  V30 30 1 10 27
M  V30 31 1 12 28
M  V30 32 1 13 29
M  V30 33 1 16 30
M  V30 34 1 19 31
M  V30 END BOND
M  V30 END CTAB
M  END
>  <Dataset>  (713) 
ChEMBL_Kinases

>  <Ligand_Instance>  (713) 
nan

>  <PDB_ID>  (713) 
nan

>  <Standardized_SMILES>  (713) 
Cc1n[nH]c2ccnc(Nc3ccc4ncsc4c3)c12

>  <Name>  (713) 
nan

>  <Pocket>  (713) 
nan

>  <ATP_Site>  (713) 
nan

>  <Peripheral>  (713) 
nan

>  <Num_H_Atoms_ProtBoundConf>  (713) 
nan

>  <Num_Resolved_Atoms>  (713) 
nan

>  <Num_Not_Resolved_Atoms>  (713) 
nan

$$$$
CHEMBL460853
     RDKit          3D

  0  0  0  0  0  0  0  0  0  0999 V3000
M  V30 BEGIN CTAB
M  V30 COUNTS 72 76 0 0 0
M  V30 BEGIN ATOM
M  V30 1 C -1.547322 0.267528 3.337047 0
M  V30 2 C -1.244838 -1.041025 2.566877 0
M  V30 3 C -2.537728 -1.436115 1.912052 0
M  V30 4 C -2.517842 -2.655799 1.071442 0
M  V30 5 C -1.633595 -2.699720 -0.107070 0 CFG=1
M  V30 6 S -1.843648 -1.539033 -1.407950 0
M  V30 7 C -1.660110 0.156801 -1.126960 0
M  V30 8 N -0.528964 0.867675 -1.135211 0
M  V30 9 C -0.408760 2.171484 -0.969025 0
M  V30 10 C 0.801418 2.858740 -0.989232 0
M  V30 11 C 0.848310 4.223048 -0.809421 0
M  V30 12 C -0.297846 4.963096 -0.602306 0
M  V30 13 C -1.485005 4.264576 -0.585627 0
M  V30 14 C -1.558730 2.889295 -0.764674 0
M  V30 15 C -2.781182 2.208385 -0.744505 0
M  V30 16 O -3.764808 2.951236 -0.553332 0
M  V30 17 N -2.816465 0.855643 -0.925548 0
M  V30 18 C -4.173439 0.367838 -0.899537 0
M  V30 19 C -5.080164 0.747993 0.060724 0
M  V30 20 C -6.380225 0.296682 0.102584 0
M  V30 21 C -6.819531 -0.586650 -0.861897 0
M  V30 22 C -5.926897 -0.982852 -1.835741 0
M  V30 23 Cl -6.529139 -2.097914 -3.028755 0
M  V30 24 C -4.604360 -0.527296 -1.883385 0
M  V30 25 C -0.224907 -3.095929 0.205744 0
M  V30 26 O -0.508447 -3.460443 1.365478 0
M  V30 27 N 1.120591 -3.473628 0.502487 0
M  V30 28 C 1.462800 -4.021593 1.800803 0
M  V30 29 C 2.900596 -3.711896 2.034172 0
M  V30 30 C 3.366984 -2.432986 1.401953 0
M  V30 31 C 3.180006 -2.391327 -0.081211 0 CFG=1
M  V30 32 C 2.849303 -0.980445 -0.519947 0
M  V30 33 C 3.880280 0.010574 -0.028096 0
M  V30 34 C 5.234385 -0.444089 -0.528595 0
M  V30 35 N 5.169214 -1.624243 -1.338436 0
M  V30 36 C 4.490764 -2.740370 -0.758565 0
M  V30 37 C 2.066478 -3.273120 -0.578320 0
M  V30 38 H -2.566224 0.288714 3.725945 0
M  V30 39 H -0.794984 0.330690 4.148325 0
M  V30 40 H -1.333353 1.131884 2.648181 0
M  V30 41 H -0.942844 -1.771391 3.352560 0
M  V30 42 H -0.436428 -0.770407 1.863712 0
M  V30 43 H -3.229102 -1.685569 2.785099 0
M  V30 44 H -2.959389 -0.531075 1.489773 0
M  V30 45 H -3.573529 -2.850206 0.676893 0
M  V30 46 H -2.337855 -3.538964 1.716434 0
M  V30 47 H -1.981390 -3.714197 -0.612732 0
M  V30 48 H 1.706960 2.300000 -1.150332 0
M  V30 49 H 1.807520 4.742690 -0.829440 0
M  V30 50 H -0.230509 6.034884 -0.463403 0
M  V30 51 H -2.395111 4.838165 -0.423761 0
M  V30 52 H -4.805308 1.431040 0.844330 0
M  V30 53 H -7.070759 0.626860 0.886992 0
M  V30 54 H -7.838986 -0.919547 -0.800342 0
M  V30 55 H -3.949865 -0.876622 -2.676543 0
M  V30 56 H 0.803046 -3.699709 2.612106 0
M  V30 57 H 1.335316 -5.143081 1.716650 0
M  V30 58 H 3.570787 -4.560611 1.794948 0
M  V30 59 H 3.006852 -3.551387 3.147073 0
M  V30 60 H 2.910496 -1.535599 1.857913 0
M  V30 61 H 4.452122 -2.357193 1.617846 0
M  V30 62 H 1.839826 -0.760083 -0.138284 0
M  V30 63 H 2.878806 -0.958533 -1.634241 0
M  V30 64 H 3.581434 1.003016 -0.420990 0
M  V30 65 H 3.842918 0.098056 1.068625 0
M  V30 66 H 5.594131 0.371777 -1.224023 0
M  V30 67 H 6.012746 -0.467774 0.262868 0
M  V30 68 H 4.871291 -1.395362 -2.302795 0
M  V30 69 H 4.335458 -3.480094 -1.589544 0
M  V30 70 H 5.179172 -3.223710 -0.031746 0
M  V30 71 H 1.607809 -2.920153 -1.497183 0
M  V30 72 H 2.494040 -4.288765 -0.848297 0
M  V30 END ATOM
M  V30 BEGIN BOND
M  V30 1 1 1 2
M  V30 2 1 2 3
M  V30 3 1 3 4
M  V30 4 1 4 5
M  V30 5 1 5 6
M  V30 6 1 6 7
M  V30 7 2 7 8
M  V30 8 1 8 9
M  V30 9 2 9 10
M  V30 10 1 10 11
M  V30 11 2 11 12
M  V30 12 1 12 13
M  V30 13 2 13 14
M  V30 14 1 14 15
M  V30 15 2 15 16
M  V30 16 1 15 17
M  V30 17 1 17 18
M  V30 18 2 18 19
M  V30 19 1 19 20
M  V30 20 2 20 21
M  V30 21 1 21 22
M  V30 22 1 22 23
M  V30 23 2 22 24
M  V30 24 1 5 25
M  V30 25 2 25 26
M  V30 26 1 25 27
M  V30 27 1 27 28
M  V30 28 1 28 29
M  V30 29 1 29 30
M  V30 30 1 31 30 CFG=1
M  V30 31 1 31 32
M  V30 32 1 32 33
M  V30 33 1 33 34
M  V30 34 1 34 35
M  V30 35 1 35 36
M  V30 36 1 31 37
M  V30 37 1 17 7
M  V30 38 1 24 18
M  V30 39 1 37 27
M  V30 40 1 14 9
M  V30 41 1 36 31
M  V30 42 1 1 38
M  V30 43 1 1 39
M  V30 44 1 1 40
M  V30 45 1 2 41
M  V30 46 1 2 42
M  V30 47 1 3 43
M  V30 48 1 3 44
M  V30 49 1 4 45
M  V30 50 1 4 46
M  V30 51 1 5 47 CFG=3
M  V30 52 1 10 48
M  V30 53 1 11 49
M  V30 54 1 12 50
M  V30 55 1 13 51
M  V30 56 1 19 52
M  V30 57 1 20 53
M  V30 58 1 21 54
M  V30 59 1 24 55
M  V30 60 1 28 56
M  V30 61 1 28 57
M  V30 62 1 29 58
M  V30 63 1 29 59
M  V30 64 1 30 60
M  V30 65 1 30 61
M  V30 66 1 32 62
M  V30 67 1 32 63
M  V30 68 1 33 64
M  V30 69 1 33 65
M  V30 70 1 34 66
M  V30 71 1 34 67
M  V30 72 1 35 68
M  V30 73 1 36 69
M  V30 74 1 36 70
M  V30 75 1 37 71
M  V30 76 1 37 72
M  V30 END BOND
M  V30 END CTAB
M  END
>  <Dataset>  (714) 
ChEMBL_Kinases

>  <Ligand_Instance>  (714) 
nan

>  <PDB_ID>  (714) 
nan

>  <Standardized_SMILES>  (714) 
CCCC[C@@H](Sc1nc2ccccc2c(=O)n1-c1cccc(Cl)c1)C(=O)N1CCC[C@]2(CCCNC2)C1

>  <Name>  (714) 
nan

>  <Pocket>  (714) 
nan

>  <ATP_Site>  (714) 
nan

>  <Peripheral>  (714) 
nan

>  <Num_H_Atoms_ProtBoundConf>  (714) 
nan

>  <Num_Resolved_Atoms>  (714) 
nan

>  <Num_Not_Resolved_Atoms>  (714) 
nan

$$$$
CHEMBL4588267
     RDKit          3D

  0  0  0  0  0  0  0  0  0  0999 V3000
M  V30 BEGIN CTAB
M  V30 COUNTS 50 53 0 0 0
M  V30 BEGIN ATOM
M  V30 1 C -0.752785 -5.141831 0.689266 0
M  V30 2 C -0.305616 -4.416068 -0.556909 0 CFG=2
M  V30 3 C 0.234489 -3.082537 -0.156352 0
M  V30 4 C 0.410021 -2.180795 -1.185860 0
M  V30 5 C 0.904677 -0.922469 -0.911032 0
M  V30 6 C 1.225812 -0.575433 0.430844 0
M  V30 7 C 1.826155 0.637293 0.915344 0
M  V30 8 C 3.198534 0.340778 0.849532 0
M  V30 9 O 3.913030 -0.795114 0.441936 0
M  V30 10 C 4.118222 1.321940 1.254210 0
M  V30 11 C 3.718472 2.562585 1.712407 0
M  V30 12 Cl 4.808134 3.813779 2.225462 0
M  V30 13 C 2.377326 2.799260 1.756646 0
M  V30 14 N 1.931567 3.987636 2.193321 0
M  V30 15 C 0.628783 4.297340 2.266729 0
M  V30 16 O 0.232506 5.413723 2.677650 0
M  V30 17 C -0.265363 3.324995 1.866689 0
M  V30 18 C -1.605527 3.638340 1.941958 0
M  V30 19 O -1.997077 4.880227 2.400614 0
M  V30 20 C -2.495572 2.671930 1.546098 0
M  V30 21 C -2.137689 1.402541 1.075950 0
M  V30 22 C -0.778244 1.211447 1.047660 0
M  V30 23 C 0.155473 2.107820 1.418179 0
M  V30 24 C 1.474690 1.863692 1.370005 0
M  V30 25 C 1.020763 -1.551975 1.443118 0
M  V30 26 C 0.525575 -2.810221 1.164418 0
M  V30 27 N -1.391750 -4.202293 -1.462751 0
M  V30 28 C -2.031137 -5.391973 -1.924267 0
M  V30 29 C -2.326997 -3.190055 -1.085869 0
M  V30 30 H -1.477796 -4.568011 1.275256 0
M  V30 31 H 0.143184 -5.445767 1.282518 0
M  V30 32 H -1.211679 -6.115680 0.379596 0
M  V30 33 H 0.443797 -5.049634 -1.042923 0
M  V30 34 H 0.184881 -2.384538 -2.224346 0
M  V30 35 H 1.094958 -0.115429 -1.604993 0
M  V30 36 H 4.398043 -1.350116 1.154445 0
M  V30 37 H 5.206187 1.225023 1.254594 0
M  V30 38 H 2.600258 4.727370 2.497332 0
M  V30 39 H -2.998827 5.075098 2.475855 0
M  V30 40 H -3.537790 2.978771 1.628517 0
M  V30 41 H -2.997401 0.802354 0.820181 0
M  V30 42 H -0.711579 0.240501 0.683517 0
M  V30 43 H 1.242319 -1.358729 2.483198 0
M  V30 44 H 0.379112 -3.533874 1.952337 0
M  V30 45 H -1.331204 -5.963559 -2.564806 0
M  V30 46 H -2.547267 -5.976782 -1.156062 0
M  V30 47 H -2.850138 -5.045065 -2.620891 0
M  V30 48 H -3.287606 -3.679696 -0.823772 0
M  V30 49 H -2.438194 -2.478877 -1.935306 0
M  V30 50 H -2.018212 -2.639362 -0.149978 0
M  V30 END ATOM
M  V30 BEGIN BOND
M  V30 1 1 1 2
M  V30 2 1 2 3
M  V30 3 2 3 4
M  V30 4 1 4 5
M  V30 5 2 5 6
M  V30 6 1 6 7
M  V30 7 2 7 8
M  V30 8 1 8 9
M  V30 9 1 8 10
M  V30 10 2 10 11
M  V30 11 1 11 12
M  V30 12 1 11 13
M  V30 13 1 13 14
M  V30 14 1 14 15
M  V30 15 2 15 16
M  V30 16 1 15 17
M  V30 17 2 17 18
M  V30 18 1 18 19
M  V30 19 1 18 20
M  V30 20 2 20 21
M  V30 21 1 21 22
M  V30 22 2 22 23
M  V30 23 1 23 24
M  V30 24 1 6 25
M  V30 25 2 25 26
M  V30 26 1 2 27
M  V30 27 1 27 28
M  V30 28 1 27 29
M  V30 29 1 26 3
M  V30 30 1 24 7
M  V30 31 2 24 13
M  V30 32 1 23 17
M  V30 33 1 1 30
M  V30 34 1 1 31
M  V30 35 1 1 32
M  V30 36 1 2 33 CFG=3
M  V30 37 1 4 34
M  V30 38 1 5 35
M  V30 39 1 9 36
M  V30 40 1 10 37
M  V30 41 1 14 38
M  V30 42 1 19 39
M  V30 43 1 20 40
M  V30 44 1 21 41
M  V30 45 1 22 42
M  V30 46 1 25 43
M  V30 47 1 26 44
M  V30 48 1 28 45
M  V30 49 1 28 46
M  V30 50 1 28 47
M  V30 51 1 29 48
M  V30 52 1 29 49
M  V30 53 1 29 50
M  V30 END BOND
M  V30 END CTAB
M  END
>  <Dataset>  (715) 
ChEMBL_Kinases

>  <Ligand_Instance>  (715) 
nan

>  <PDB_ID>  (715) 
nan

>  <Standardized_SMILES>  (715) 
C[C@H](c1ccc(-c2c(O)cc(Cl)c3[nH]c(=O)c4c(O)cccc4c23)cc1)N(C)C

>  <Name>  (715) 
nan

>  <Pocket>  (715) 
nan

>  <ATP_Site>  (715) 
nan

>  <Peripheral>  (715) 
nan

>  <Num_H_Atoms_ProtBoundConf>  (715) 
nan

>  <Num_Resolved_Atoms>  (715) 
nan

>  <Num_Not_Resolved_Atoms>  (715) 
nan

$$$$
CHEMBL4588200
     RDKit          3D

  0  0  0  0  0  0  0  0  0  0999 V3000
M  V30 BEGIN CTAB
M  V30 COUNTS 49 53 0 0 0
M  V30 BEGIN ATOM
M  V30 1 C -0.643126 -8.700566 0.579559 0
M  V30 2 N 0.052621 -7.414052 0.539409 0
M  V30 3 C -0.299900 -6.278446 -0.127184 0
M  V30 4 C 0.640091 -5.291106 0.108197 0
M  V30 5 C 0.604909 -3.919463 -0.441258 0
M  V30 6 C 1.140240 -2.843841 0.274081 0
M  V30 7 N 1.083356 -1.595656 -0.276635 0
M  V30 8 C 0.528536 -1.405402 -1.472706 0
M  V30 9 C 0.325285 -0.293426 -2.273818 0
M  V30 10 C 0.711508 1.095864 -1.969496 0
M  V30 11 C 1.317518 1.862315 -2.914699 0
M  V30 12 S 1.600429 3.523571 -2.048753 0
M  V30 13 C 0.849276 2.907575 -0.542131 0
M  V30 14 C 0.761323 3.835923 0.634958 0
M  V30 15 O 1.212186 4.986956 0.512386 0
M  V30 16 N 0.156959 3.288947 1.795463 0
M  V30 17 C -0.043088 3.962852 3.035239 0 CFG=2
M  V30 18 C 0.463950 3.232636 4.255551 0
M  V30 19 C -0.476100 2.045196 4.296521 0
M  V30 20 C -1.770011 2.512202 3.671319 0
M  V30 21 C -1.526026 3.965842 3.343952 0 CFG=2
M  V30 22 O -2.285581 4.408473 2.265643 0
M  V30 23 C 0.486564 1.674522 -0.752614 0
M  V30 24 C -0.318967 -0.688957 -3.447613 0
M  V30 25 N -0.494198 -2.024193 -3.339240 0
M  V30 26 N 0.006924 -2.444184 -2.172777 0
M  V30 27 C 0.031467 -3.717990 -1.678827 0
M  V30 28 C 1.571980 -5.877255 0.942527 0
M  V30 29 N 1.187456 -7.153697 1.181269 0
M  V30 30 H -0.782482 -8.968058 1.652023 0
M  V30 31 H -1.666557 -8.548421 0.132414 0
M  V30 32 H -0.109578 -9.499770 0.048144 0
M  V30 33 H -1.192307 -6.227386 -0.730624 0
M  V30 34 H 1.592338 -3.028950 1.258579 0
M  V30 35 H 1.579823 1.533512 -3.985045 0
M  V30 36 H -0.191057 2.303928 1.796974 0
M  V30 37 H 0.338079 5.005460 3.031911 0
M  V30 38 H 0.291451 3.896000 5.115952 0
M  V30 39 H 1.489465 2.881997 4.182458 0
M  V30 40 H -0.048808 1.218238 3.684249 0
M  V30 41 H -0.645137 1.740914 5.348021 0
M  V30 42 H -1.974505 1.969384 2.708517 0
M  V30 43 H -2.612236 2.380863 4.383675 0
M  V30 44 H -1.753628 4.531837 4.273454 0
M  V30 45 H -2.044181 3.842599 1.485452 0
M  V30 46 H 0.013919 1.181535 0.089488 0
M  V30 47 H -0.625988 -0.065412 -4.290041 0
M  V30 48 H -0.380970 -4.562693 -2.224787 0
M  V30 49 H 2.439682 -5.347668 1.306462 0
M  V30 END ATOM
M  V30 BEGIN BOND
M  V30 1 1 1 2
M  V30 2 1 2 3
M  V30 3 2 3 4
M  V30 4 1 4 5
M  V30 5 1 5 6
M  V30 6 2 6 7
M  V30 7 1 7 8
M  V30 8 2 8 9
M  V30 9 1 9 10
M  V30 10 2 10 11
M  V30 11 1 11 12
M  V30 12 1 12 13
M  V30 13 1 13 14
M  V30 14 2 14 15
M  V30 15 1 14 16
M  V30 16 1 16 17
M  V30 17 1 17 18
M  V30 18 1 18 19
M  V30 19 1 19 20
M  V30 20 1 20 21
M  V30 21 1 21 22
M  V30 22 2 13 23
M  V30 23 1 9 24
M  V30 24 2 24 25
M  V30 25 1 25 26
M  V30 26 1 26 27
M  V30 27 1 4 28
M  V30 28 2 28 29
M  V30 29 1 29 2
M  V30 30 2 27 5
M  V30 31 1 26 8
M  V30 32 1 23 10
M  V30 33 1 21 17
M  V30 34 1 1 30
M  V30 35 1 1 31
M  V30 36 1 1 32
M  V30 37 1 3 33
M  V30 38 1 6 34
M  V30 39 1 11 35
M  V30 40 1 16 36
M  V30 41 1 17 37 CFG=3
M  V30 42 1 18 38
M  V30 43 1 18 39
M  V30 44 1 19 40
M  V30 45 1 19 41
M  V30 46 1 20 42
M  V30 47 1 20 43
M  V30 48 1 21 44 CFG=1
M  V30 49 1 22 45
M  V30 50 1 23 46
M  V30 51 1 24 47
M  V30 52 1 27 48
M  V30 53 1 28 49
M  V30 END BOND
M  V30 END CTAB
M  END
>  <Dataset>  (716) 
ChEMBL_Kinases

>  <Ligand_Instance>  (716) 
nan

>  <PDB_ID>  (716) 
nan

>  <Standardized_SMILES>  (716) 
Cn1cc(-c2cnc3c(-c4csc(C(=O)N[C@@H]5CCC[C@@H]5O)c4)cnn3c2)cn1

>  <Name>  (716) 
nan

>  <Pocket>  (716) 
nan

>  <ATP_Site>  (716) 
nan

>  <Peripheral>  (716) 
nan

>  <Num_H_Atoms_ProtBoundConf>  (716) 
nan

>  <Num_Resolved_Atoms>  (716) 
nan

>  <Num_Not_Resolved_Atoms>  (716) 
nan

$$$$
CHEMBL460939
     RDKit          3D

  0  0  0  0  0  0  0  0  0  0999 V3000
M  V30 BEGIN CTAB
M  V30 COUNTS 46 50 0 0 0
M  V30 BEGIN ATOM
M  V30 1 O 4.907005 -3.403750 2.368663 0
M  V30 2 C 3.882723 -3.437334 1.649192 0
M  V30 3 O 3.785654 -4.815681 1.699419 0
M  V30 4 C 3.250014 -2.209432 1.097671 0
M  V30 5 C 2.413010 -1.538107 2.153687 0
M  V30 6 N 1.758873 -0.330973 1.698255 0
M  V30 7 C 2.196997 0.943264 1.729848 0
M  V30 8 C 3.408411 1.356826 2.226327 0
M  V30 9 C 3.768337 2.708128 2.212484 0
M  V30 10 C 2.839079 3.578430 1.675239 0
M  V30 11 O 3.195964 4.932629 1.658488 0
M  V30 12 C 1.641461 3.110136 1.192569 0
M  V30 13 C 1.265717 1.802945 1.193574 0
M  V30 14 C 0.220499 1.012596 0.822685 0
M  V30 15 C -0.961867 1.341963 0.241300 0
M  V30 16 C -1.874583 0.357233 -0.044744 0
M  V30 17 C -1.581917 -0.958017 0.261365 0
M  V30 18 C -2.459032 -2.098347 0.012654 0
M  V30 19 C -2.225028 -2.648782 -1.253580 0
M  V30 20 Cl -1.049475 -2.086130 -2.427296 0
M  V30 21 C -2.969745 -3.746708 -1.667214 0
M  V30 22 C -3.933498 -4.291159 -0.835805 0
M  V30 23 C -4.142708 -3.730199 0.403829 0
M  V30 24 C -3.414469 -2.644190 0.827932 0
M  V30 25 Cl -3.586966 -1.844710 2.376246 0
M  V30 26 C -0.377190 -1.302161 0.854772 0
M  V30 27 C 0.524296 -0.293856 1.132649 0
M  V30 28 C -3.093107 0.873988 -0.666257 0
M  V30 29 O -4.105987 0.226813 -1.041139 0
M  V30 30 N -2.852111 2.292617 -0.742933 0
M  V30 31 C -1.572930 2.557286 -0.196089 0
M  V30 32 O -1.230548 3.745881 -0.196835 0
M  V30 33 H 3.272415 -5.268208 2.453000 0
M  V30 34 H 2.620280 -2.456083 0.217102 0
M  V30 35 H 4.071005 -1.541621 0.774141 0
M  V30 36 H 3.079217 -1.228472 2.998502 0
M  V30 37 H 1.692908 -2.257063 2.595510 0
M  V30 38 H 4.138117 0.692309 2.645089 0
M  V30 39 H 4.704929 3.048147 2.594789 0
M  V30 40 H 2.665318 5.564629 1.071149 0
M  V30 41 H 1.007033 3.860367 0.805623 0
M  V30 42 H -2.846392 -4.227408 -2.632472 0
M  V30 43 H -4.549903 -5.145526 -1.095247 0
M  V30 44 H -4.885550 -4.116778 1.094544 0
M  V30 45 H -0.107424 -2.338569 1.113758 0
M  V30 46 H -3.600532 2.906611 -1.164539 0
M  V30 END ATOM
M  V30 BEGIN BOND
M  V30 1 2 1 2
M  V30 2 1 2 3
M  V30 3 1 2 4
M  V30 4 1 4 5
M  V30 5 1 5 6
M  V30 6 1 6 7
M  V30 7 2 7 8
M  V30 8 1 8 9
M  V30 9 2 9 10
M  V30 10 1 10 11
M  V30 11 1 10 12
M  V30 12 2 12 13
M  V30 13 1 13 14
M  V30 14 2 14 15
M  V30 15 1 15 16
M  V30 16 2 16 17
M  V30 17 1 17 18
M  V30 18 2 18 19
M  V30 19 1 19 20
M  V30 20 1 19 21
M  V30 21 2 21 22
M  V30 22 1 22 23
M  V30 23 2 23 24
M  V30 24 1 24 25
M  V30 25 1 17 26
M  V30 26 2 26 27
M  V30 27 1 16 28
M  V30 28 2 28 29
M  V30 29 1 28 30
M  V30 30 1 30 31
M  V30 31 2 31 32
M  V30 32 1 27 6
M  V30 33 1 13 7
M  V30 34 1 27 14
M  V30 35 1 31 15
M  V30 36 1 24 18
M  V30 37 1 3 33
M  V30 38 1 4 34
M  V30 39 1 4 35
M  V30 40 1 5 36
M  V30 41 1 5 37
M  V30 42 1 8 38
M  V30 43 1 9 39
M  V30 44 1 11 40
M  V30 45 1 12 41
M  V30 46 1 21 42
M  V30 47 1 22 43
M  V30 48 1 23 44
M  V30 49 1 26 45
M  V30 50 1 30 46
M  V30 END BOND
M  V30 END CTAB
M  END
>  <Dataset>  (717) 
ChEMBL_Kinases

>  <Ligand_Instance>  (717) 
nan

>  <PDB_ID>  (717) 
nan

>  <Standardized_SMILES>  (717) 
O=C(O)CCn1c2ccc(O)cc2c2c3c(c(-c4c(Cl)cccc4Cl)cc21)C(=O)NC3=O

>  <Name>  (717) 
nan

>  <Pocket>  (717) 
nan

>  <ATP_Site>  (717) 
nan

>  <Peripheral>  (717) 
nan

>  <Num_H_Atoms_ProtBoundConf>  (717) 
nan

>  <Num_Resolved_Atoms>  (717) 
nan

>  <Num_Not_Resolved_Atoms>  (717) 
nan

$$$$
CHEMBL4588064
     RDKit          3D

  0  0  0  0  0  0  0  0  0  0999 V3000
M  V30 BEGIN CTAB
M  V30 COUNTS 39 40 0 0 0
M  V30 BEGIN ATOM
M  V30 1 O 0.433350 -1.327804 0.497507 0
M  V30 2 C 1.436034 -0.592358 0.677946 0
M  V30 3 N 2.632872 -1.303487 0.399411 0
M  V30 4 O 2.386053 -2.577721 0.015098 0
M  V30 5 C 2.253001 -2.545059 -1.385297 0
M  V30 6 C 1.974162 -3.925850 -1.923313 0
M  V30 7 C 1.826485 -3.917577 -3.431359 0
M  V30 8 O 0.765636 -3.078609 -3.752697 0
M  V30 9 C 1.432054 0.795427 1.109590 0
M  V30 10 C 2.610960 1.499677 1.208413 0
M  V30 11 C 2.578383 2.839789 1.599463 0
M  V30 12 C 1.355208 3.448682 1.884911 0
M  V30 13 F 1.354766 4.763524 2.265307 0
M  V30 14 C 0.148372 2.745874 1.789472 0
M  V30 15 F -0.987895 3.386172 2.076236 0
M  V30 16 C 0.231596 1.405481 1.394315 0
M  V30 17 N -1.039547 0.773747 1.356050 0
M  V30 18 C -1.909911 0.259210 2.361614 0
M  V30 19 C -3.132941 0.940638 2.256869 0
M  V30 20 C -4.190428 0.664767 3.109315 0
M  V30 21 C -4.045391 -0.297897 4.083062 0
M  V30 22 I -5.501573 -0.878265 5.475167 0
M  V30 23 C -2.845313 -0.963971 4.183232 0
M  V30 24 C -1.791076 -0.698311 3.343824 0
M  V30 25 F -0.563413 -1.263471 3.330847 0
M  V30 26 H 3.575812 -0.867483 0.489839 0
M  V30 27 H 1.418241 -1.846126 -1.597588 0
M  V30 28 H 3.185580 -2.167992 -1.853255 0
M  V30 29 H 1.092610 -4.393925 -1.490417 0
M  V30 30 H 2.845195 -4.568557 -1.680732 0
M  V30 31 H 1.540822 -4.925194 -3.768871 0
M  V30 32 H 2.740783 -3.516023 -3.877051 0
M  V30 33 H 0.211428 -2.856741 -2.982279 0
M  V30 34 H 3.582091 1.086434 1.001974 0
M  V30 35 H 3.468881 3.417582 1.687392 0
M  V30 36 H -1.304320 0.722377 0.338398 0
M  V30 37 H -3.425779 1.730125 1.549006 0
M  V30 38 H -5.158704 1.142100 3.094140 0
M  V30 39 H -2.597120 -1.749988 4.910575 0
M  V30 END ATOM
M  V30 BEGIN BOND
M  V30 1 2 1 2
M  V30 2 1 2 3
M  V30 3 1 3 4
M  V30 4 1 4 5
M  V30 5 1 5 6
M  V30 6 1 6 7
M  V30 7 1 7 8
M  V30 8 1 2 9
M  V30 9 2 9 10
M  V30 10 1 10 11
M  V30 11 2 11 12
M  V30 12 1 12 13
M  V30 13 1 12 14
M  V30 14 1 14 15
M  V30 15 2 14 16
M  V30 16 1 16 17
M  V30 17 1 17 18
M  V30 18 2 18 19
M  V30 19 1 19 20
M  V30 20 2 20 21
M  V30 21 1 21 22
M  V30 22 1 21 23
M  V30 23 2 23 24
M  V30 24 1 24 25
M  V30 25 1 16 9
M  V30 26 1 24 18
M  V30 27 1 3 26
M  V30 28 1 5 27
M  V30 29 1 5 28
M  V30 30 1 6 29
M  V30 31 1 6 30
M  V30 32 1 7 31
M  V30 33 1 7 32
M  V30 34 1 8 33
M  V30 35 1 10 34
M  V30 36 1 11 35
M  V30 37 1 17 36
M  V30 38 1 19 37
M  V30 39 1 20 38
M  V30 40 1 23 39
M  V30 END BOND
M  V30 END CTAB
M  END
>  <Dataset>  (718) 
ChEMBL_Kinases

>  <Ligand_Instance>  (718) 
nan

>  <PDB_ID>  (718) 
nan

>  <Standardized_SMILES>  (718) 
O=C(NOCCCO)c1ccc(F)c(F)c1Nc1ccc(I)cc1F

>  <Name>  (718) 
nan

>  <Pocket>  (718) 
nan

>  <ATP_Site>  (718) 
nan

>  <Peripheral>  (718) 
nan

>  <Num_H_Atoms_ProtBoundConf>  (718) 
nan

>  <Num_Resolved_Atoms>  (718) 
nan

>  <Num_Not_Resolved_Atoms>  (718) 
nan

$$$$
CHEMBL459874
     RDKit          3D

  0  0  0  0  0  0  0  0  0  0999 V3000
M  V30 BEGIN CTAB
M  V30 COUNTS 54 56 0 0 0
M  V30 BEGIN ATOM
M  V30 1 C 5.166016 -2.875566 3.026988 0
M  V30 2 N 4.101818 -3.154936 2.060281 0
M  V30 3 C 3.905082 -4.472031 1.456753 0
M  V30 4 C 3.239581 -2.068518 1.724429 0
M  V30 5 C 3.462973 -0.851558 2.334648 0
M  V30 6 C 2.613814 0.212368 2.004937 0
M  V30 7 C 1.560588 0.081920 1.088942 0
M  V30 8 C 0.768658 1.287638 0.893701 0
M  V30 9 C 0.408398 1.719147 -0.305202 0
M  V30 10 C -0.404799 2.939831 -0.601364 0
M  V30 11 C -1.137491 2.485823 -1.861380 0
M  V30 12 C -1.078909 3.727587 -2.779146 0
M  V30 13 O -1.567086 3.464732 -4.039431 0
M  V30 14 C -2.583809 2.195344 -1.623976 0
M  V30 15 O -2.878808 1.149088 -0.766192 0
M  V30 16 C -2.576609 -0.179533 -0.891672 0
M  V30 17 O -1.956206 -0.586631 -1.889197 0
M  V30 18 C -2.924564 -1.217621 0.072761 0
M  V30 19 C -2.551144 -2.526828 -0.175898 0
M  V30 20 C -2.897416 -3.504074 0.767391 0
M  V30 21 C -3.585346 -3.248825 1.927247 0
M  V30 22 C -3.907668 -4.349775 2.868516 0
M  V30 23 F -3.793405 -3.972408 4.180953 0
M  V30 24 F -3.049386 -5.397696 2.590775 0
M  V30 25 F -5.183054 -4.802484 2.634939 0
M  V30 26 C -3.936365 -1.953309 2.139263 0
M  V30 27 C -3.620537 -0.949073 1.241943 0
M  V30 28 O -0.382610 1.443295 -2.388428 0
M  V30 29 C 0.731900 1.143380 -1.606125 0
M  V30 30 O 1.859159 0.545494 -1.737303 0
M  V30 31 C 1.381800 -1.170232 0.503037 0
M  V30 32 C 2.204030 -2.227478 0.812685 0
M  V30 33 H 4.736827 -2.424320 3.948855 0
M  V30 34 H 5.672169 -3.800269 3.360864 0
M  V30 35 H 5.877741 -2.143821 2.591780 0
M  V30 36 H 4.250739 -4.517599 0.426110 0
M  V30 37 H 4.310959 -5.279424 2.125604 0
M  V30 38 H 2.793155 -4.675492 1.481838 0
M  V30 39 H 4.256984 -0.658344 3.057517 0
M  V30 40 H 2.812624 1.172765 2.504167 0
M  V30 41 H 0.475076 1.836212 1.794555 0
M  V30 42 H 0.215784 3.820302 -0.741112 0
M  V30 43 H -1.122029 3.108113 0.244124 0
M  V30 44 H -0.062009 4.149541 -2.779589 0
M  V30 45 H -1.737818 4.487959 -2.276717 0
M  V30 46 H -1.459630 2.546146 -4.332248 0
M  V30 47 H -2.994124 3.124680 -1.125031 0
M  V30 48 H -3.116758 2.171393 -2.593998 0
M  V30 49 H -2.005031 -2.825179 -1.066220 0
M  V30 50 H -2.584298 -4.518445 0.532638 0
M  V30 51 H -4.480724 -1.663045 3.026936 0
M  V30 52 H -3.910612 0.093081 1.425651 0
M  V30 53 H 0.554039 -1.234719 -0.189579 0
M  V30 54 H 2.019292 -3.180057 0.327675 0
M  V30 END ATOM
M  V30 BEGIN BOND
M  V30 1 1 1 2
M  V30 2 1 2 3
M  V30 3 1 2 4
M  V30 4 2 4 5
M  V30 5 1 5 6
M  V30 6 2 6 7
M  V30 7 1 7 8
M  V30 8 2 8 9
M  V30 9 1 9 10
M  V30 10 1 10 11
M  V30 11 1 11 12
M  V30 12 1 12 13
M  V30 13 1 11 14
M  V30 14 1 14 15
M  V30 15 1 15 16
M  V30 16 2 16 17
M  V30 17 1 16 18
M  V30 18 2 18 19
M  V30 19 1 19 20
M  V30 20 2 20 21
M  V30 21 1 21 22
M  V30 22 1 22 23
M  V30 23 1 22 24
M  V30 24 1 22 25
M  V30 25 1 21 26
M  V30 26 2 26 27
M  V30 27 1 11 28
M  V30 28 1 28 29
M  V30 29 2 29 30
M  V30 30 1 7 31
M  V30 31 2 31 32
M  V30 32 1 32 4
M  V30 33 1 29 9
M  V30 34 1 27 18
M  V30 35 1 1 33
M  V30 36 1 1 34
M  V30 37 1 1 35
M  V30 38 1 3 36
M  V30 39 1 3 37
M  V30 40 1 3 38
M  V30 41 1 5 39
M  V30 42 1 6 40
M  V30 43 1 8 41
M  V30 44 1 10 42
M  V30 45 1 10 43
M  V30 46 1 12 44
M  V30 47 1 12 45
M  V30 48 1 13 46
M  V30 49 1 14 47
M  V30 50 1 14 48
M  V30 51 1 19 49
M  V30 52 1 20 50
M  V30 53 1 26 51
M  V30 54 1 27 52
M  V30 55 1 31 53
M  V30 56 1 32 54
M  V30 END BOND
M  V30 END CTAB
M  END
>  <Dataset>  (719) 
ChEMBL_Kinases

>  <Ligand_Instance>  (719) 
nan

>  <PDB_ID>  (719) 
nan

>  <Standardized_SMILES>  (719) 
CN(C)c1ccc(/C=C2/CC(CO)(COC(=O)c3ccc(C(F)(F)F)cc3)OC2=O)cc1

>  <Name>  (719) 
nan

>  <Pocket>  (719) 
nan

>  <ATP_Site>  (719) 
nan

>  <Peripheral>  (719) 
nan

>  <Num_H_Atoms_ProtBoundConf>  (719) 
nan

>  <Num_Resolved_Atoms>  (719) 
nan

>  <Num_Not_Resolved_Atoms>  (719) 
nan

$$$$
CHEMBL460989
     RDKit          3D

  0  0  0  0  0  0  0  0  0  0999 V3000
M  V30 BEGIN CTAB
M  V30 COUNTS 52 57 0 0 0
M  V30 BEGIN ATOM
M  V30 1 C 4.009067 -6.780413 1.760083 0
M  V30 2 O 2.889567 -6.155735 2.344967 0
M  V30 3 C 2.405648 -4.949369 1.861302 0
M  V30 4 C 3.009172 -4.311636 0.776484 0
M  V30 5 C 2.466231 -3.128562 0.368325 0
M  V30 6 C 1.431904 -2.457168 0.837000 0
M  V30 7 C 0.854007 -3.096092 1.898131 0
M  V30 8 C 1.290157 -4.315005 2.437642 0
M  V30 9 C -0.307927 -2.676964 2.685420 0
M  V30 10 C -0.877280 -1.361204 2.267339 0
M  V30 11 C -0.257322 -0.750667 1.136789 0
M  V30 12 C 0.829946 -1.220158 0.449424 0
M  V30 13 C 1.349206 -0.558960 -0.585269 0
M  V30 14 C 0.850868 0.638762 -1.052360 0
M  V30 15 C -0.264481 1.121055 -0.346875 0
M  V30 16 C -0.956237 2.310282 -0.607496 0
M  V30 17 C -0.834155 3.326824 -1.526137 0
M  V30 18 C -1.685358 4.409516 -1.542033 0
M  V30 19 C -2.685376 4.451855 -0.594172 0
M  V30 20 C -2.782556 3.420106 0.312212 0
M  V30 21 C -1.943418 2.326631 0.347852 0
M  V30 22 N -1.891121 1.223034 1.165140 0
M  V30 23 C -2.808291 1.010944 2.225878 0
M  V30 24 C -4.096351 0.323479 1.871832 0
M  V30 25 O -4.756629 1.109863 0.920669 0
M  V30 26 C -0.837993 0.450248 0.744994 0
M  V30 27 C 1.564613 1.222818 -2.222087 0
M  V30 28 N 2.601554 0.221328 -2.459558 0
M  V30 29 C 2.432451 -0.784406 -1.482306 0
M  V30 30 O 3.316668 -1.584357 -1.718806 0
M  V30 31 H 3.983016 -6.806593 0.646558 0
M  V30 32 H 4.971557 -6.333070 2.089045 0
M  V30 33 H 4.058725 -7.869963 2.047884 0
M  V30 34 H 3.866370 -4.803379 0.337281 0
M  V30 35 H 2.965927 -2.742920 -0.410703 0
M  V30 36 H 0.892617 -4.883821 3.269354 0
M  V30 37 H -1.097961 -3.486621 2.667243 0
M  V30 38 H -0.017906 -2.602466 3.784085 0
M  V30 39 H -1.957449 -1.318879 2.377642 0
M  V30 40 H -0.596572 -0.660237 3.131726 0
M  V30 41 H -0.037174 3.256720 -2.252206 0
M  V30 42 H -1.572059 5.187765 -2.264889 0
M  V30 43 H -3.366005 5.308334 -0.599429 0
M  V30 44 H -3.585350 3.548109 1.011177 0
M  V30 45 H -3.213488 2.053410 2.476074 0
M  V30 46 H -2.400034 0.821377 3.234608 0
M  V30 47 H -4.802899 0.269915 2.726087 0
M  V30 48 H -4.031824 -0.685239 1.483156 0
M  V30 49 H -5.231398 0.536593 0.269290 0
M  V30 50 H 2.057809 2.140551 -1.913419 0
M  V30 51 H 0.953051 1.258900 -3.127646 0
M  V30 52 H 3.208823 0.478920 -3.273608 0
M  V30 END ATOM
M  V30 BEGIN BOND
M  V30 1 1 1 2
M  V30 2 1 2 3
M  V30 3 2 3 4
M  V30 4 1 4 5
M  V30 5 2 5 6
M  V30 6 1 6 7
M  V30 7 2 7 8
M  V30 8 1 7 9
M  V30 9 1 9 10
M  V30 10 1 10 11
M  V30 11 2 11 12
M  V30 12 1 12 13
M  V30 13 2 13 14
M  V30 14 1 14 15
M  V30 15 1 15 16
M  V30 16 2 16 17
M  V30 17 1 17 18
M  V30 18 2 18 19
M  V30 19 1 19 20
M  V30 20 2 20 21
M  V30 21 1 21 22
M  V30 22 1 22 23
M  V30 23 1 23 24
M  V30 24 1 24 25
M  V30 25 1 22 26
M  V30 26 1 14 27
M  V30 27 1 27 28
M  V30 28 1 28 29
M  V30 29 2 29 30
M  V30 30 1 8 3
M  V30 31 1 26 11
M  V30 32 1 12 6
M  V30 33 1 29 13
M  V30 34 2 26 15
M  V30 35 1 21 16
M  V30 36 1 1 31
M  V30 37 1 1 32
M  V30 38 1 1 33
M  V30 39 1 4 34
M  V30 40 1 5 35
M  V30 41 1 8 36
M  V30 42 1 9 37
M  V30 43 1 9 38
M  V30 44 1 10 39
M  V30 45 1 10 40
M  V30 46 1 17 41
M  V30 47 1 18 42
M  V30 48 1 19 43
M  V30 49 1 20 44
M  V30 50 1 23 45
M  V30 51 1 23 46
M  V30 52 1 24 47
M  V30 53 1 24 48
M  V30 54 1 25 49
M  V30 55 1 27 50
M  V30 56 1 27 51
M  V30 57 1 28 52
M  V30 END BOND
M  V30 END CTAB
M  END
>  <Dataset>  (720) 
ChEMBL_Kinases

>  <Ligand_Instance>  (720) 
nan

>  <PDB_ID>  (720) 
nan

>  <Standardized_SMILES>  (720) 
COc1ccc2c(c1)CCc1c-2c2c(c3c4ccccc4n(CCO)c13)CNC2=O

>  <Name>  (720) 
nan

>  <Pocket>  (720) 
nan

>  <ATP_Site>  (720) 
nan

>  <Peripheral>  (720) 
nan

>  <Num_H_Atoms_ProtBoundConf>  (720) 
nan

>  <Num_Resolved_Atoms>  (720) 
nan

>  <Num_Not_Resolved_Atoms>  (720) 
nan

$$$$
CHEMBL458765
     RDKit          3D

  0  0  0  0  0  0  0  0  0  0999 V3000
M  V30 BEGIN CTAB
M  V30 COUNTS 37 40 0 0 0
M  V30 BEGIN ATOM
M  V30 1 C 1.653289 -4.762244 3.165838 0
M  V30 2 C 2.611264 -3.791565 2.470788 0
M  V30 3 O 1.781787 -2.800787 1.892258 0
M  V30 4 C 2.290862 -1.758711 1.183742 0
M  V30 5 O 3.542639 -1.895249 1.181105 0
M  V30 6 C 1.594571 -0.686590 0.543148 0
M  V30 7 C 0.247012 -0.385706 0.446764 0
M  V30 8 C 0.048742 0.768797 -0.282931 0
M  V30 9 N 1.287461 1.168674 -0.630290 0
M  V30 10 C 1.665455 2.253800 -1.356969 0
M  V30 11 C 2.967708 2.586151 -1.665402 0
M  V30 12 C 3.909677 1.709495 -1.168597 0
M  V30 13 C 3.570712 0.596416 -0.426726 0
M  V30 14 C 2.234708 0.320846 -0.152447 0
M  V30 15 C -1.289325 1.295729 -0.525673 0
M  V30 16 O -1.453497 2.350413 -1.193506 0
M  V30 17 C -2.446309 0.570148 0.025690 0
M  V30 18 C -3.704461 1.086549 -0.216043 0
M  V30 19 C -4.810600 0.410654 0.299616 0
M  V30 20 C -4.550231 -0.737071 1.020443 0
M  V30 21 C -3.313502 -1.289509 1.286957 0
M  V30 22 C -2.240337 -0.583009 0.753961 0
M  V30 23 C -0.900541 -1.106123 0.994115 0
M  V30 24 O -0.759095 -2.145224 1.653547 0
M  V30 25 H 2.151109 -5.453570 3.845683 0
M  V30 26 H 0.854101 -4.136506 3.641842 0
M  V30 27 H 1.141878 -5.292429 2.328620 0
M  V30 28 H 3.231281 -4.329676 1.746322 0
M  V30 29 H 3.257250 -3.359224 3.286535 0
M  V30 30 H 0.881740 2.928773 -1.735231 0
M  V30 31 H 3.188252 3.470565 -2.251351 0
M  V30 32 H 4.955951 1.904577 -1.370056 0
M  V30 33 H 4.342018 -0.067189 -0.054877 0
M  V30 34 H -3.896470 1.974879 -0.774641 0
M  V30 35 H -5.848269 0.705296 0.184838 0
M  V30 36 H -5.398967 -1.291957 1.439484 0
M  V30 37 H -3.200213 -2.185847 1.856414 0
M  V30 END ATOM
M  V30 BEGIN BOND
M  V30 1 1 1 2
M  V30 2 1 2 3
M  V30 3 1 3 4
M  V30 4 2 4 5
M  V30 5 1 4 6
M  V30 6 1 6 7
M  V30 7 2 7 8
M  V30 8 1 8 9
M  V30 9 1 9 10
M  V30 10 2 10 11
M  V30 11 1 11 12
M  V30 12 2 12 13
M  V30 13 1 13 14
M  V30 14 1 8 15
M  V30 15 2 15 16
M  V30 16 1 15 17
M  V30 17 2 17 18
M  V30 18 1 18 19
M  V30 19 2 19 20
M  V30 20 1 20 21
M  V30 21 2 21 22
M  V30 22 1 22 23
M  V30 23 2 23 24
M  V30 24 2 14 6
M  V30 25 1 22 17
M  V30 26 1 23 7
M  V30 27 1 14 9
M  V30 28 1 1 25
M  V30 29 1 1 26
M  V30 30 1 1 27
M  V30 31 1 2 28
M  V30 32 1 2 29
M  V30 33 1 10 30
M  V30 34 1 11 31
M  V30 35 1 12 32
M  V30 36 1 13 33
M  V30 37 1 18 34
M  V30 38 1 19 35
M  V30 39 1 20 36
M  V30 40 1 21 37
M  V30 END BOND
M  V30 END CTAB
M  END
>  <Dataset>  (721) 
ChEMBL_Kinases

>  <Ligand_Instance>  (721) 
nan

>  <PDB_ID>  (721) 
nan

>  <Standardized_SMILES>  (721) 
CCOC(=O)c1c2c(n3ccccc13)C(=O)c1ccccc1C2=O

>  <Name>  (721) 
nan

>  <Pocket>  (721) 
nan

>  <ATP_Site>  (721) 
nan

>  <Peripheral>  (721) 
nan

>  <Num_H_Atoms_ProtBoundConf>  (721) 
nan

>  <Num_Resolved_Atoms>  (721) 
nan

>  <Num_Not_Resolved_Atoms>  (721) 
nan

$$$$
CHEMBL460990
     RDKit          3D

  0  0  0  0  0  0  0  0  0  0999 V3000
M  V30 BEGIN CTAB
M  V30 COUNTS 58 63 0 0 0
M  V30 BEGIN ATOM
M  V30 1 C 6.361894 0.119371 4.380602 0
M  V30 2 C 5.440111 -1.015323 3.956555 0
M  V30 3 C 5.773758 -2.209261 4.861794 0
M  V30 4 O 4.097738 -0.673700 4.060812 0
M  V30 5 C 3.242321 -0.709246 2.989731 0
M  V30 6 C 3.560648 -1.071977 1.699601 0
M  V30 7 C 2.555608 -1.040583 0.770087 0
M  V30 8 C 1.265561 -0.711903 0.871792 0
M  V30 9 C 0.955672 -0.353477 2.151223 0
M  V30 10 C 1.895364 -0.340355 3.211565 0
M  V30 11 C -0.320666 0.076518 2.709627 0
M  V30 12 C -1.404397 0.172775 1.692969 0
M  V30 13 C -1.015802 -0.296610 0.364622 0
M  V30 14 C 0.211936 -0.677249 -0.065733 0
M  V30 15 C 0.481812 -1.032016 -1.338803 0
M  V30 16 C -0.482310 -1.036149 -2.318721 0
M  V30 17 C -1.764657 -0.649522 -1.912221 0
M  V30 18 C -2.903667 -0.554816 -2.692715 0
M  V30 19 C -3.172178 -0.791574 -4.026137 0
M  V30 20 C -4.424512 -0.614394 -4.566082 0
M  V30 21 C -5.418886 -0.185545 -3.717480 0
M  V30 22 C -5.126510 0.038778 -2.413461 0
M  V30 23 C -3.872636 -0.127468 -1.823133 0
M  V30 24 N -3.334081 0.023277 -0.577051 0
M  V30 25 C -4.246614 0.473176 0.430348 0
M  V30 26 C -5.085348 -0.708307 0.926443 0
M  V30 27 O -4.314014 -1.699424 1.422500 0
M  V30 28 C -2.028697 -0.287873 -0.590759 0
M  V30 29 C 0.008981 -1.454667 -3.674700 0
M  V30 30 N 1.428583 -1.716728 -3.415372 0
M  V30 31 C 1.640125 -1.453797 -2.046782 0
M  V30 32 O 2.821690 -1.680257 -1.873529 0
M  V30 33 H 7.374198 -0.099856 4.000207 0
M  V30 34 H 5.965156 1.108397 4.144056 0
M  V30 35 H 6.443630 0.047045 5.494157 0
M  V30 36 H 5.788807 -1.319839 2.960304 0
M  V30 37 H 6.866790 -2.137461 5.093178 0
M  V30 38 H 5.616672 -3.170773 4.340421 0
M  V30 39 H 5.239946 -2.160792 5.815216 0
M  V30 40 H 4.569644 -1.362979 1.467227 0
M  V30 41 H 2.900216 -1.328739 -0.144280 0
M  V30 42 H 1.687404 -0.059755 4.250646 0
M  V30 43 H -0.183006 1.075148 3.253057 0
M  V30 44 H -0.588051 -0.664136 3.536074 0
M  V30 45 H -2.226669 -0.451208 2.145264 0
M  V30 46 H -1.678684 1.269292 1.668534 0
M  V30 47 H -2.407573 -1.128805 -4.705799 0
M  V30 48 H -4.606055 -0.807275 -5.613163 0
M  V30 49 H -6.405458 -0.040165 -4.117346 0
M  V30 50 H -5.948653 0.374569 -1.797838 0
M  V30 51 H -3.835097 0.906158 1.343581 0
M  V30 52 H -5.022651 1.182579 -0.006174 0
M  V30 53 H -5.807300 -1.023895 0.142872 0
M  V30 54 H -5.754784 -0.360183 1.770356 0
M  V30 55 H -4.444687 -2.601635 1.035057 0
M  V30 56 H -0.091541 -0.652266 -4.408347 0
M  V30 57 H -0.446012 -2.420543 -3.943606 0
M  V30 58 H 1.911538 -2.022409 -4.283981 0
M  V30 END ATOM
M  V30 BEGIN BOND
M  V30 1 1 1 2
M  V30 2 1 2 3
M  V30 3 1 2 4
M  V30 4 1 4 5
M  V30 5 2 5 6
M  V30 6 1 6 7
M  V30 7 2 7 8
M  V30 8 1 8 9
M  V30 9 2 9 10
M  V30 10 1 9 11
M  V30 11 1 11 12
M  V30 12 1 12 13
M  V30 13 2 13 14
M  V30 14 1 14 15
M  V30 15 2 15 16
M  V30 16 1 16 17
M  V30 17 1 17 18
M  V30 18 2 18 19
M  V30 19 1 19 20
M  V30 20 2 20 21
M  V30 21 1 21 22
M  V30 22 2 22 23
M  V30 23 1 23 24
M  V30 24 1 24 25
M  V30 25 1 25 26
M  V30 26 1 26 27
M  V30 27 1 24 28
M  V30 28 1 16 29
M  V30 29 1 29 30
M  V30 30 1 30 31
M  V30 31 2 31 32
M  V30 32 1 10 5
M  V30 33 1 28 13
M  V30 34 1 14 8
M  V30 35 1 31 15
M  V30 36 2 28 17
M  V30 37 1 23 18
M  V30 38 1 1 33
M  V30 39 1 1 34
M  V30 40 1 1 35
M  V30 41 1 2 36
M  V30 42 1 3 37
M  V30 43 1 3 38
M  V30 44 1 3 39
M  V30 45 1 6 40
M  V30 46 1 7 41
M  V30 47 1 10 42
M  V30 48 1 11 43
M  V30 49 1 11 44
M  V30 50 1 12 45
M  V30 51 1 12 46
M  V30 52 1 19 47
M  V30 53 1 20 48
M  V30 54 1 21 49
M  V30 55 1 22 50
M  V30 56 1 25 51
M  V30 57 1 25 52
M  V30 58 1 26 53
M  V30 59 1 26 54
M  V30 60 1 27 55
M  V30 61 1 29 56
M  V30 62 1 29 57
M  V30 63 1 30 58
M  V30 END BOND
M  V30 END CTAB
M  END
>  <Dataset>  (722) 
ChEMBL_Kinases

>  <Ligand_Instance>  (722) 
nan

>  <PDB_ID>  (722) 
nan

>  <Standardized_SMILES>  (722) 
CC(C)Oc1ccc2c(c1)CCc1c-2c2c(c3c4ccccc4n(CCO)c13)CNC2=O

>  <Name>  (722) 
nan

>  <Pocket>  (722) 
nan

>  <ATP_Site>  (722) 
nan

>  <Peripheral>  (722) 
nan

>  <Num_H_Atoms_ProtBoundConf>  (722) 
nan

>  <Num_Resolved_Atoms>  (722) 
nan

>  <Num_Not_Resolved_Atoms>  (722) 
nan

$$$$
CHEMBL461116
     RDKit          3D

  0  0  0  0  0  0  0  0  0  0999 V3000
M  V30 BEGIN CTAB
M  V30 COUNTS 61 65 0 0 0
M  V30 BEGIN ATOM
M  V30 1 C 4.974651 1.164639 3.906726 0
M  V30 2 N 5.776562 0.375084 3.021902 0
M  V30 3 C 6.848906 -0.288611 3.751450 0
M  V30 4 C 4.990925 -0.593337 2.311672 0
M  V30 5 C 4.078105 0.095642 1.346817 0
M  V30 6 N 3.291297 -0.906956 0.639181 0
M  V30 7 C 2.358152 -0.394429 -0.334798 0
M  V30 8 O 2.577925 0.852565 -0.214267 0
M  V30 9 C 1.628129 -1.509062 -0.976129 0
M  V30 10 C 0.628362 -1.114380 -2.009014 0
M  V30 11 N -0.442765 -0.268953 -1.544458 0
M  V30 12 C -0.698222 1.061476 -1.467534 0
M  V30 13 C 0.159002 2.047289 -1.916247 0
M  V30 14 C -0.177774 3.379131 -1.807352 0
M  V30 15 C -1.393458 3.700155 -1.238412 0
M  V30 16 O -1.758497 5.035052 -1.115894 0
M  V30 17 C -2.206850 2.680189 -0.809655 0
M  V30 18 C -1.899559 1.357155 -0.905014 0
M  V30 19 C -2.452600 0.151657 -0.601079 0
M  V30 20 C -3.642075 -0.176115 -0.023110 0
M  V30 21 C -3.995421 -1.486234 0.189212 0
M  V30 22 C -3.143081 -2.517881 -0.182369 0
M  V30 23 C -3.468291 -3.906717 0.019500 0
M  V30 24 C -3.100837 -4.531894 1.213538 0
M  V30 25 Cl -2.242450 -3.668692 2.499032 0
M  V30 26 C -3.416450 -5.875249 1.405554 0
M  V30 27 C -4.089785 -6.608499 0.434199 0
M  V30 28 C -4.459306 -5.987481 -0.761558 0
M  V30 29 C -4.143804 -4.637137 -0.958286 0
M  V30 30 Cl -4.589473 -3.818574 -2.445813 0
M  V30 31 C -1.943983 -2.154668 -0.766115 0
M  V30 32 C -1.563298 -0.824338 -0.992156 0
M  V30 33 C -5.320866 -1.634722 0.825931 0
M  V30 34 O -5.895767 -2.710363 1.136081 0
M  V30 35 N -5.758700 -0.277654 0.989088 0
M  V30 36 C -4.756411 0.580275 0.482586 0
M  V30 37 O -5.011323 1.788102 0.563542 0
M  V30 38 H 5.247130 0.897727 4.952457 0
M  V30 39 H 3.909171 0.962470 3.796768 0
M  V30 40 H 5.229443 2.246141 3.790158 0
M  V30 41 H 6.982808 -1.341582 3.448506 0
M  V30 42 H 6.578175 -0.272383 4.846990 0
M  V30 43 H 7.797485 0.243092 3.552325 0
M  V30 44 H 4.356867 -1.196371 2.995088 0
M  V30 45 H 5.675956 -1.228192 1.709264 0
M  V30 46 H 3.426827 0.844698 1.820626 0
M  V30 47 H 4.728753 0.561129 0.566506 0
M  V30 48 H 3.448654 -1.934612 0.878096 0
M  V30 49 H 2.423398 -2.168701 -1.426389 0
M  V30 50 H 1.196754 -2.143509 -0.169376 0
M  V30 51 H 1.192350 -0.567561 -2.799491 0
M  V30 52 H 0.175514 -1.985436 -2.525486 0
M  V30 53 H 1.118602 1.836273 -2.366879 0
M  V30 54 H 0.498479 4.162224 -2.161834 0
M  V30 55 H -1.170732 5.745190 -1.481287 0
M  V30 56 H -3.118478 3.007044 -0.386542 0
M  V30 57 H -3.152887 -6.400910 2.312366 0
M  V30 58 H -4.339616 -7.662333 0.580512 0
M  V30 59 H -4.989728 -6.540532 -1.542917 0
M  V30 60 H -1.282860 -2.980834 -1.053638 0
M  V30 61 H -6.700854 -0.120113 1.432855 0
M  V30 END ATOM
M  V30 BEGIN BOND
M  V30 1 1 1 2
M  V30 2 1 2 3
M  V30 3 1 2 4
M  V30 4 1 4 5
M  V30 5 1 5 6
M  V30 6 1 6 7
M  V30 7 2 7 8
M  V30 8 1 7 9
M  V30 9 1 9 10
M  V30 10 1 10 11
M  V30 11 1 11 12
M  V30 12 2 12 13
M  V30 13 1 13 14
M  V30 14 2 14 15
M  V30 15 1 15 16
M  V30 16 1 15 17
M  V30 17 2 17 18
M  V30 18 1 18 19
M  V30 19 2 19 20
M  V30 20 1 20 21
M  V30 21 2 21 22
M  V30 22 1 22 23
M  V30 23 2 23 24
M  V30 24 1 24 25
M  V30 25 1 24 26
M  V30 26 2 26 27
M  V30 27 1 27 28
M  V30 28 2 28 29
M  V30 29 1 29 30
M  V30 30 1 22 31
M  V30 31 2 31 32
M  V30 32 1 21 33
M  V30 33 2 33 34
M  V30 34 1 33 35
M  V30 35 1 35 36
M  V30 36 2 36 37
M  V30 37 1 32 11
M  V30 38 1 18 12
M  V30 39 1 32 19
M  V30 40 1 36 20
M  V30 41 1 29 23
M  V30 42 1 1 38
M  V30 43 1 1 39
M  V30 44 1 1 40
M  V30 45 1 3 41
M  V30 46 1 3 42
M  V30 47 1 3 43
M  V30 48 1 4 44
M  V30 49 1 4 45
M  V30 50 1 5 46
M  V30 51 1 5 47
M  V30 52 1 6 48
M  V30 53 1 9 49
M  V30 54 1 9 50
M  V30 55 1 10 51
M  V30 56 1 10 52
M  V30 57 1 13 53
M  V30 58 1 14 54
M  V30 59 1 16 55
M  V30 60 1 17 56
M  V30 61 1 26 57
M  V30 62 1 27 58
M  V30 63 1 28 59
M  V30 64 1 31 60
M  V30 65 1 35 61
M  V30 END BOND
M  V30 END CTAB
M  END
>  <Dataset>  (723) 
ChEMBL_Kinases

>  <Ligand_Instance>  (723) 
nan

>  <PDB_ID>  (723) 
nan

>  <Standardized_SMILES>  (723) 
CN(C)CCNC(=O)CCn1c2ccc(O)cc2c2c3c(c(-c4c(Cl)cccc4Cl)cc21)C(=O)NC3=O

>  <Name>  (723) 
nan

>  <Pocket>  (723) 
nan

>  <ATP_Site>  (723) 
nan

>  <Peripheral>  (723) 
nan

>  <Num_H_Atoms_ProtBoundConf>  (723) 
nan

>  <Num_Resolved_Atoms>  (723) 
nan

>  <Num_Not_Resolved_Atoms>  (723) 
nan

$$$$
CHEMBL461125
     RDKit          3D

  0  0  0  0  0  0  0  0  0  0999 V3000
M  V30 BEGIN CTAB
M  V30 COUNTS 48 49 0 0 0
M  V30 BEGIN ATOM
M  V30 1 C 1.546345 -3.817902 2.342776 0
M  V30 2 C 2.244855 -3.765184 0.984151 0
M  V30 3 C 2.781551 -5.133389 0.718579 0
M  V30 4 C 1.280221 -3.377150 -0.105402 0
M  V30 5 C 3.299770 -2.687464 1.080350 0
M  V30 6 C 2.590613 -1.429842 1.395894 0
M  V30 7 O 2.221614 -1.222527 2.601579 0
M  V30 8 O 2.211850 -0.356392 0.622760 0
M  V30 9 C 1.537471 0.766058 1.097511 0
M  V30 10 C 1.258761 1.742907 -0.003505 0
M  V30 11 C 2.454352 2.404960 -0.590736 0
M  V30 12 O 3.236446 1.500032 -1.298674 0
M  V30 13 C 0.278158 2.782011 0.577704 0
M  V30 14 C -0.991764 1.974472 0.434043 0
M  V30 15 C -2.185970 2.188463 0.997473 0
M  V30 16 C -3.422157 1.444038 0.881937 0
M  V30 17 C -4.063176 1.104466 2.068283 0
M  V30 18 C -5.245949 0.425489 2.203098 0
M  V30 19 C -5.843156 0.050104 0.993755 0
M  V30 20 F -7.013569 -0.623313 1.062438 0
M  V30 21 C -5.274418 0.347882 -0.219940 0
M  V30 22 Cl -6.024933 -0.122062 -1.739082 0
M  V30 23 C -4.066990 1.043847 -0.258202 0
M  V30 24 C -0.775040 0.792338 -0.432152 0
M  V30 25 O -1.519489 -0.199614 -0.531362 0
M  V30 26 O 0.455547 1.161793 -1.037735 0
M  V30 27 H 1.093376 -4.809476 2.543341 0
M  V30 28 H 2.271401 -3.569031 3.139128 0
M  V30 29 H 0.758633 -3.052260 2.339739 0
M  V30 30 H 1.920082 -5.737553 0.318396 0
M  V30 31 H 3.574626 -5.182163 -0.023735 0
M  V30 32 H 3.109791 -5.676692 1.638698 0
M  V30 33 H 1.807025 -2.889537 -0.976727 0
M  V30 34 H 0.534694 -2.694210 0.332000 0
M  V30 35 H 0.762385 -4.258371 -0.531122 0
M  V30 36 H 3.915191 -2.588031 0.167743 0
M  V30 37 H 3.962853 -2.967647 1.940365 0
M  V30 38 H 2.099454 1.309676 1.892064 0
M  V30 39 H 0.524190 0.473367 1.503205 0
M  V30 40 H 2.136914 3.237191 -1.234114 0
M  V30 41 H 3.085248 2.815394 0.237806 0
M  V30 42 H 2.710202 0.810557 -1.784565 0
M  V30 43 H 0.196966 3.632604 -0.121531 0
M  V30 44 H 0.502032 3.036429 1.612456 0
M  V30 45 H -2.278217 3.065688 1.658566 0
M  V30 46 H -3.609663 1.391082 3.024902 0
M  V30 47 H -5.683316 0.195627 3.175836 0
M  V30 48 H -3.620784 1.296123 -1.203264 0
M  V30 END ATOM
M  V30 BEGIN BOND
M  V30 1 1 1 2
M  V30 2 1 2 3
M  V30 3 1 2 4
M  V30 4 1 2 5
M  V30 5 1 5 6
M  V30 6 2 6 7
M  V30 7 1 6 8
M  V30 8 1 8 9
M  V30 9 1 9 10
M  V30 10 1 10 11
M  V30 11 1 11 12
M  V30 12 1 10 13
M  V30 13 1 13 14
M  V30 14 2 14 15
M  V30 15 1 15 16
M  V30 16 2 16 17
M  V30 17 1 17 18
M  V30 18 2 18 19
M  V30 19 1 19 20
M  V30 20 1 19 21
M  V30 21 1 21 22
M  V30 22 2 21 23
M  V30 23 1 14 24
M  V30 24 2 24 25
M  V30 25 1 24 26
M  V30 26 1 26 10
M  V30 27 1 23 16
M  V30 28 1 1 27
M  V30 29 1 1 28
M  V30 30 1 1 29
M  V30 31 1 3 30
M  V30 32 1 3 31
M  V30 33 1 3 32
M  V30 34 1 4 33
M  V30 35 1 4 34
M  V30 36 1 4 35
M  V30 37 1 5 36
M  V30 38 1 5 37
M  V30 39 1 9 38
M  V30 40 1 9 39
M  V30 41 1 11 40
M  V30 42 1 11 41
M  V30 43 1 12 42
M  V30 44 1 13 43
M  V30 45 1 13 44
M  V30 46 1 15 45
M  V30 47 1 17 46
M  V30 48 1 18 47
M  V30 49 1 23 48
M  V30 END BOND
M  V30 END CTAB
M  END
>  <Dataset>  (724) 
ChEMBL_Kinases

>  <Ligand_Instance>  (724) 
nan

>  <PDB_ID>  (724) 
nan

>  <Standardized_SMILES>  (724) 
CC(C)(C)CC(=O)OCC1(CO)C/C(=C/c2ccc(F)c(Cl)c2)C(=O)O1

>  <Name>  (724) 
nan

>  <Pocket>  (724) 
nan

>  <ATP_Site>  (724) 
nan

>  <Peripheral>  (724) 
nan

>  <Num_H_Atoms_ProtBoundConf>  (724) 
nan

>  <Num_Resolved_Atoms>  (724) 
nan

>  <Num_Not_Resolved_Atoms>  (724) 
nan

$$$$
CHEMBL4587433
     RDKit          3D

  0  0  0  0  0  0  0  0  0  0999 V3000
M  V30 BEGIN CTAB
M  V30 COUNTS 44 47 0 0 0
M  V30 BEGIN ATOM
M  V30 1 O 4.618548 -4.947252 -3.838665 0
M  V30 2 C 4.660938 -3.695066 -3.644635 0
M  V30 3 N 4.595751 -3.087887 -2.341419 0
M  V30 4 C 4.171991 -1.733414 -2.307269 0
M  V30 5 O 4.067112 -1.059738 -1.228980 0
M  V30 6 C 3.860817 -1.159654 -3.634269 0
M  V30 7 C 3.069250 -0.126764 -3.829825 0
M  V30 8 C 2.351441 0.646080 -2.830048 0
M  V30 9 C 2.493465 2.022598 -3.008767 0
M  V30 10 N 1.911248 2.939785 -2.216481 0
M  V30 11 C 1.141690 2.553743 -1.183852 0
M  V30 12 O 0.548748 3.288762 -0.377839 0
M  V30 13 C 0.967231 1.182230 -0.962560 0
M  V30 14 C 0.173438 0.588417 0.111904 0
M  V30 15 C -0.747031 -0.437722 0.026533 0
M  V30 16 C -1.388261 -0.853205 1.174914 0
M  V30 17 C -1.155303 -0.291730 2.413224 0
M  V30 18 N -1.824376 -0.719848 3.593406 0
M  V30 19 C -1.423783 -0.213122 4.891234 0
M  V30 20 C -1.878487 -1.067211 6.026069 0
M  V30 21 N -3.209610 -1.572949 5.908408 0
M  V30 22 C -3.858568 -1.267534 4.664829 0
M  V30 23 C -2.922592 -1.666829 3.514303 0
M  V30 24 N -0.245536 0.707596 2.438345 0
M  V30 25 C 0.413067 1.157887 1.352508 0
M  V30 26 C 1.568626 0.249334 -1.781660 0
M  V30 27 S 4.802088 -2.239021 -4.723325 0
M  V30 28 H 4.851949 -3.635270 -1.467568 0
M  V30 29 H 2.976772 0.135792 -4.874473 0
M  V30 30 H 3.081119 2.491911 -3.796535 0
M  V30 31 H 1.973838 3.961354 -2.291071 0
M  V30 32 H -0.883539 -0.833752 -0.965340 0
M  V30 33 H -2.099744 -1.662957 1.054742 0
M  V30 34 H -1.808831 0.823766 4.973569 0
M  V30 35 H -0.318336 -0.140486 4.878413 0
M  V30 36 H -1.188811 -1.927829 6.139945 0
M  V30 37 H -1.814678 -0.481183 6.963190 0
M  V30 38 H -3.814419 -1.375636 6.710241 0
M  V30 39 H -4.052774 -0.182217 4.534270 0
M  V30 40 H -4.800868 -1.850186 4.620331 0
M  V30 41 H -2.576321 -2.696897 3.794736 0
M  V30 42 H -3.462206 -1.641114 2.551012 0
M  V30 43 H 1.113675 1.965888 1.518975 0
M  V30 44 H 1.459160 -0.819490 -1.672932 0
M  V30 END ATOM
M  V30 BEGIN BOND
M  V30 1 2 1 2
M  V30 2 1 2 3
M  V30 3 1 3 4
M  V30 4 2 4 5
M  V30 5 1 4 6
M  V30 6 2 6 7
M  V30 7 1 7 8
M  V30 8 2 8 9
M  V30 9 1 9 10
M  V30 10 1 10 11
M  V30 11 2 11 12
M  V30 12 1 11 13
M  V30 13 1 13 14
M  V30 14 2 14 15
M  V30 15 1 15 16
M  V30 16 2 16 17
M  V30 17 1 17 18
M  V30 18 1 18 19
M  V30 19 1 19 20
M  V30 20 1 20 21
M  V30 21 1 21 22
M  V30 22 1 22 23
M  V30 23 1 17 24
M  V30 24 2 24 25
M  V30 25 2 13 26
M  V30 26 1 6 27
M  V30 27 1 27 2
M  V30 28 1 26 8
M  V30 29 1 25 14
M  V30 30 1 23 18
M  V30 31 1 3 28
M  V30 32 1 7 29
M  V30 33 1 9 30
M  V30 34 1 10 31
M  V30 35 1 15 32
M  V30 36 1 16 33
M  V30 37 1 19 34
M  V30 38 1 19 35
M  V30 39 1 20 36
M  V30 40 1 20 37
M  V30 41 1 21 38
M  V30 42 1 22 39
M  V30 43 1 22 40
M  V30 44 1 23 41
M  V30 45 1 23 42
M  V30 46 1 25 43
M  V30 47 1 26 44
M  V30 END BOND
M  V30 END CTAB
M  END
>  <Dataset>  (725) 
ChEMBL_Kinases

>  <Ligand_Instance>  (725) 
nan

>  <PDB_ID>  (725) 
nan

>  <Standardized_SMILES>  (725) 
O=C1NC(=O)/C(=C\c2c[nH]c(=O)c(-c3ccc(N4CCNCC4)nc3)c2)S1

>  <Name>  (725) 
nan

>  <Pocket>  (725) 
nan

>  <ATP_Site>  (725) 
nan

>  <Peripheral>  (725) 
nan

>  <Num_H_Atoms_ProtBoundConf>  (725) 
nan

>  <Num_Resolved_Atoms>  (725) 
nan

>  <Num_Not_Resolved_Atoms>  (725) 
nan

$$$$
CHEMBL4587413
     RDKit          3D

  0  0  0  0  0  0  0  0  0  0999 V3000
M  V30 BEGIN CTAB
M  V30 COUNTS 41 44 0 0 0
M  V30 BEGIN ATOM
M  V30 1 C 1.878249 -3.650890 3.448161 0
M  V30 2 C 0.575412 -4.004395 2.817289 0
M  V30 3 O -0.260888 -4.796903 3.554587 0
M  V30 4 C -0.132399 -2.716681 2.592500 0
M  V30 5 C -0.698069 -1.663758 2.396126 0
M  V30 6 C -1.354316 -0.405316 2.144630 0
M  V30 7 C -0.863405 0.370434 1.104622 0
M  V30 8 C -1.409286 1.599828 0.764842 0
M  V30 9 N -0.839110 2.328110 -0.319541 0
M  V30 10 C -1.376489 3.057917 -1.315285 0
M  V30 11 C -0.383370 3.568262 -2.123822 0
M  V30 12 C 0.815239 3.123771 -1.588793 0
M  V30 13 C 2.115443 3.345691 -2.011569 0
M  V30 14 N 3.145725 2.793319 -1.309035 0
M  V30 15 C 2.822357 2.051829 -0.226079 0
M  V30 16 N 3.754392 1.392318 0.637153 0
M  V30 17 N 1.548786 1.847381 0.169622 0
M  V30 18 C 0.508170 2.371733 -0.492145 0
M  V30 19 C -2.482680 2.035397 1.514174 0
M  V30 20 C -2.968368 1.260955 2.548083 0
M  V30 21 C -2.428215 0.037445 2.889312 0
M  V30 22 F -2.881734 -0.743873 3.896331 0
M  V30 23 C 0.818395 -4.652550 1.435738 0
M  V30 24 N 0.886217 -3.846113 0.200543 0
M  V30 25 C 1.104309 -4.731207 -0.782214 0
M  V30 26 C 1.252401 -6.125294 -0.767966 0
M  V30 27 S 1.039977 -6.300582 1.080770 0
M  V30 28 H 2.166481 -4.449112 4.184527 0
M  V30 29 H 2.714977 -3.576591 2.724784 0
M  V30 30 H 1.829953 -2.707859 4.044088 0
M  V30 31 H -0.936504 -5.172345 2.959777 0
M  V30 32 H -0.021988 0.018068 0.525043 0
M  V30 33 H -2.448068 3.186079 -1.410025 0
M  V30 34 H -0.529838 4.188937 -2.996135 0
M  V30 35 H 2.358082 3.949016 -2.891059 0
M  V30 36 H 3.958939 0.370422 0.696298 0
M  V30 37 H 4.454798 1.574900 1.386606 0
M  V30 38 H -2.927515 3.001547 1.262807 0
M  V30 39 H -3.807609 1.626457 3.116109 0
M  V30 40 H 1.140322 -4.050902 -1.654722 0
M  V30 41 H 1.414059 -6.601497 -1.651051 0
M  V30 END ATOM
M  V30 BEGIN BOND
M  V30 1 1 1 2
M  V30 2 1 2 3
M  V30 3 1 2 4
M  V30 4 3 4 5
M  V30 5 1 5 6
M  V30 6 2 6 7
M  V30 7 1 7 8
M  V30 8 1 8 9
M  V30 9 1 9 10
M  V30 10 2 10 11
M  V30 11 1 11 12
M  V30 12 2 12 13
M  V30 13 1 13 14
M  V30 14 2 14 15
M  V30 15 1 15 16
M  V30 16 1 15 17
M  V30 17 2 17 18
M  V30 18 2 8 19
M  V30 19 1 19 20
M  V30 20 2 20 21
M  V30 21 1 21 22
M  V30 22 1 2 23
M  V30 23 2 23 24
M  V30 24 1 24 25
M  V30 25 2 25 26
M  V30 26 1 26 27
M  V30 27 1 21 6
M  V30 28 1 27 23
M  V30 29 1 18 9
M  V30 30 1 18 12
M  V30 31 1 1 28
M  V30 32 1 1 29
M  V30 33 1 1 30
M  V30 34 1 3 31
M  V30 35 1 7 32
M  V30 36 1 10 33
M  V30 37 1 11 34
M  V30 38 1 13 35
M  V30 39 1 16 36
M  V30 40 1 16 37
M  V30 41 1 19 38
M  V30 42 1 20 39
M  V30 43 1 25 40
M  V30 44 1 26 41
M  V30 END BOND
M  V30 END CTAB
M  END
>  <Dataset>  (726) 
ChEMBL_Kinases

>  <Ligand_Instance>  (726) 
nan

>  <PDB_ID>  (726) 
nan

>  <Standardized_SMILES>  (726) 
CC(O)(C#Cc1cc(-n2ccc3cnc(N)nc32)ccc1F)c1nccs1

>  <Name>  (726) 
nan

>  <Pocket>  (726) 
nan

>  <ATP_Site>  (726) 
nan

>  <Peripheral>  (726) 
nan

>  <Num_H_Atoms_ProtBoundConf>  (726) 
nan

>  <Num_Resolved_Atoms>  (726) 
nan

>  <Num_Not_Resolved_Atoms>  (726) 
nan

$$$$
CHEMBL461126
     RDKit          3D

  0  0  0  0  0  0  0  0  0  0999 V3000
M  V30 BEGIN CTAB
M  V30 COUNTS 48 49 0 0 0
M  V30 BEGIN ATOM
M  V30 1 C 0.537714 -2.431326 2.367940 0
M  V30 2 C 1.343508 -2.976443 1.197796 0
M  V30 3 C 1.075507 -4.471781 1.136825 0
M  V30 4 C 0.974929 -2.374727 -0.112373 0
M  V30 5 C 2.872512 -2.657119 1.464997 0
M  V30 6 C 2.730936 -1.162234 1.707177 0
M  V30 7 O 3.217431 -0.706907 2.755870 0
M  V30 8 O 2.146119 -0.369059 0.787318 0
M  V30 9 C 1.801151 1.029205 1.123136 0
M  V30 10 C 1.369140 1.721540 -0.062118 0
M  V30 11 C 2.475523 2.465889 -0.703501 0
M  V30 12 O 3.195237 1.603396 -1.558464 0
M  V30 13 C 0.194015 2.828823 0.263263 0
M  V30 14 C -0.853458 1.728101 0.306713 0
M  V30 15 C -1.933949 1.757809 1.235287 0
M  V30 16 C -3.111743 0.614822 1.109916 0
M  V30 17 C -2.655380 -0.433880 1.805004 0
M  V30 18 C -3.371216 -1.719622 1.461710 0
M  V30 19 C -4.307164 -1.565833 0.500154 0
M  V30 20 Cl -5.032896 -3.066640 -0.181831 0
M  V30 21 C -4.681884 -0.358988 -0.162539 0
M  V30 22 F -5.496388 -0.342870 -1.156991 0
M  V30 23 C -3.872652 0.708882 0.338512 0
M  V30 24 C -0.688122 0.837683 -0.822902 0
M  V30 25 O -1.486248 0.179729 -1.255740 0
M  V30 26 O 0.592611 1.036740 -1.034042 0
M  V30 27 H -0.286376 -3.090540 2.666290 0
M  V30 28 H 1.178262 -2.173912 3.237066 0
M  V30 29 H 0.138135 -1.437754 1.982230 0
M  V30 30 H -0.032153 -4.585667 1.005104 0
M  V30 31 H 1.529405 -4.930910 0.244326 0
M  V30 32 H 1.309466 -5.002819 2.080211 0
M  V30 33 H 1.864725 -2.092056 -0.712607 0
M  V30 34 H 0.314306 -1.527434 0.117882 0
M  V30 35 H 0.378068 -3.066012 -0.748586 0
M  V30 36 H 3.476051 -3.010772 0.693652 0
M  V30 37 H 3.083586 -3.156813 2.439166 0
M  V30 38 H 2.512256 1.565141 1.699625 0
M  V30 39 H 0.866405 0.901872 1.832644 0
M  V30 40 H 2.149614 3.345409 -1.234750 0
M  V30 41 H 3.198065 2.822579 0.115408 0
M  V30 42 H 2.734612 0.742733 -1.696425 0
M  V30 43 H 0.163813 3.530675 -0.508118 0
M  V30 44 H 0.382864 3.202351 1.291363 0
M  V30 45 H -1.920568 2.420381 2.050320 0
M  V30 46 H -1.956291 -0.560332 2.609582 0
M  V30 47 H -3.086768 -2.628548 1.893248 0
M  V30 48 H -4.288684 1.690025 -0.074020 0
M  V30 END ATOM
M  V30 BEGIN BOND
M  V30 1 1 1 2
M  V30 2 1 2 3
M  V30 3 1 2 4
M  V30 4 1 2 5
M  V30 5 1 5 6
M  V30 6 2 6 7
M  V30 7 1 6 8
M  V30 8 1 8 9
M  V30 9 1 9 10
M  V30 10 1 10 11
M  V30 11 1 11 12
M  V30 12 1 10 13
M  V30 13 1 13 14
M  V30 14 2 14 15
M  V30 15 1 15 16
M  V30 16 2 16 17
M  V30 17 1 17 18
M  V30 18 2 18 19
M  V30 19 1 19 20
M  V30 20 1 19 21
M  V30 21 1 21 22
M  V30 22 2 21 23
M  V30 23 1 14 24
M  V30 24 2 24 25
M  V30 25 1 24 26
M  V30 26 1 26 10
M  V30 27 1 23 16
M  V30 28 1 1 27
M  V30 29 1 1 28
M  V30 30 1 1 29
M  V30 31 1 3 30
M  V30 32 1 3 31
M  V30 33 1 3 32
M  V30 34 1 4 33
M  V30 35 1 4 34
M  V30 36 1 4 35
M  V30 37 1 5 36
M  V30 38 1 5 37
M  V30 39 1 9 38
M  V30 40 1 9 39
M  V30 41 1 11 40
M  V30 42 1 11 41
M  V30 43 1 12 42
M  V30 44 1 13 43
M  V30 45 1 13 44
M  V30 46 1 15 45
M  V30 47 1 17 46
M  V30 48 1 18 47
M  V30 49 1 23 48
M  V30 END BOND
M  V30 END CTAB
M  END
>  <Dataset>  (727) 
ChEMBL_Kinases

>  <Ligand_Instance>  (727) 
nan

>  <PDB_ID>  (727) 
nan

>  <Standardized_SMILES>  (727) 
CC(C)(C)CC(=O)OCC1(CO)C/C(=C/c2ccc(Cl)c(F)c2)C(=O)O1

>  <Name>  (727) 
nan

>  <Pocket>  (727) 
nan

>  <ATP_Site>  (727) 
nan

>  <Peripheral>  (727) 
nan

>  <Num_H_Atoms_ProtBoundConf>  (727) 
nan

>  <Num_Resolved_Atoms>  (727) 
nan

>  <Num_Not_Resolved_Atoms>  (727) 
nan

$$$$
CHEMBL461127
     RDKit          3D

  0  0  0  0  0  0  0  0  0  0999 V3000
M  V30 BEGIN CTAB
M  V30 COUNTS 54 55 0 0 0
M  V30 BEGIN ATOM
M  V30 1 C 1.047030 -1.812695 4.777363 0
M  V30 2 C 1.970863 -0.776937 4.161356 0
M  V30 3 C 1.776289 -0.751605 2.684529 0
M  V30 4 C 2.635368 0.238986 1.948317 0
M  V30 5 C 4.079733 0.072845 2.069822 0
M  V30 6 C 4.783700 -1.131810 1.661195 0
M  V30 7 C 4.747111 -1.599772 0.264076 0
M  V30 8 C 2.077891 0.395864 0.587804 0
M  V30 9 O 1.884070 0.440124 -0.649722 0
M  V30 10 O 0.758988 0.808376 0.626180 0
M  V30 11 C -0.075806 1.051167 -0.477010 0
M  V30 12 C -1.466765 1.496566 -0.003585 0
M  V30 13 C -1.423421 2.734313 0.825382 0
M  V30 14 O -0.595273 2.523204 1.927605 0
M  V30 15 C -2.062983 0.317405 0.735995 0
M  V30 16 C -2.599085 -0.467204 -0.416958 0
M  V30 17 C -2.686241 -1.736360 -0.711183 0
M  V30 18 C -3.250473 -2.338206 -1.912051 0
M  V30 19 C -4.074427 -3.433168 -1.621386 0
M  V30 20 C -4.697354 -4.158852 -2.601349 0
M  V30 21 C -4.527705 -3.825077 -3.935383 0
M  V30 22 Br -5.388704 -4.824150 -5.316169 0
M  V30 23 C -3.705922 -2.734244 -4.218010 0
M  V30 24 C -3.086049 -2.014363 -3.219968 0
M  V30 25 C -3.125841 0.592810 -1.303680 0
M  V30 26 O -4.139936 0.398486 -2.055441 0
M  V30 27 O -2.312665 1.732721 -1.120423 0
M  V30 28 H 1.545485 -2.392017 5.573684 0
M  V30 29 H 0.095264 -1.353876 5.118272 0
M  V30 30 H 0.816760 -2.548851 3.976643 0
M  V30 31 H 3.013313 -1.113941 4.436760 0
M  V30 32 H 1.806649 0.218932 4.624451 0
M  V30 33 H 1.767009 -1.762189 2.268784 0
M  V30 34 H 0.721795 -0.385447 2.525003 0
M  V30 35 H 2.404569 1.224643 2.474587 0
M  V30 36 H 4.544150 0.964563 1.543799 0
M  V30 37 H 4.353609 0.285138 3.148191 0
M  V30 38 H 5.879666 -0.983908 1.921638 0
M  V30 39 H 4.517222 -1.972384 2.376900 0
M  V30 40 H 4.144005 -1.045099 -0.451492 0
M  V30 41 H 4.494596 -2.705848 0.260821 0
M  V30 42 H 5.777540 -1.618874 -0.214873 0
M  V30 43 H 0.374422 1.885497 -1.065603 0
M  V30 44 H -0.164567 0.102290 -1.054080 0
M  V30 45 H -1.039216 3.601802 0.254509 0
M  V30 46 H -2.437675 2.979341 1.166919 0
M  V30 47 H -1.181164 2.253107 2.680284 0
M  V30 48 H -2.859230 0.703805 1.399266 0
M  V30 49 H -1.345069 -0.250512 1.323885 0
M  V30 50 H -2.267831 -2.383393 0.078493 0
M  V30 51 H -4.289903 -3.797517 -0.624152 0
M  V30 52 H -5.339293 -5.008857 -2.410723 0
M  V30 53 H -3.540379 -2.434812 -5.223437 0
M  V30 54 H -2.443163 -1.183470 -3.407135 0
M  V30 END ATOM
M  V30 BEGIN BOND
M  V30 1 1 1 2
M  V30 2 1 2 3
M  V30 3 1 3 4
M  V30 4 1 4 5
M  V30 5 1 5 6
M  V30 6 1 6 7
M  V30 7 1 4 8
M  V30 8 2 8 9
M  V30 9 1 8 10
M  V30 10 1 10 11
M  V30 11 1 11 12
M  V30 12 1 12 13
M  V30 13 1 13 14
M  V30 14 1 12 15
M  V30 15 1 15 16
M  V30 16 2 16 17
M  V30 17 1 17 18
M  V30 18 2 18 19
M  V30 19 1 19 20
M  V30 20 2 20 21
M  V30 21 1 21 22
M  V30 22 1 21 23
M  V30 23 2 23 24
M  V30 24 1 16 25
M  V30 25 2 25 26
M  V30 26 1 25 27
M  V30 27 1 27 12
M  V30 28 1 24 18
M  V30 29 1 1 28
M  V30 30 1 1 29
M  V30 31 1 1 30
M  V30 32 1 2 31
M  V30 33 1 2 32
M  V30 34 1 3 33
M  V30 35 1 3 34
M  V30 36 1 4 35
M  V30 37 1 5 36
M  V30 38 1 5 37
M  V30 39 1 6 38
M  V30 40 1 6 39
M  V30 41 1 7 40
M  V30 42 1 7 41
M  V30 43 1 7 42
M  V30 44 1 11 43
M  V30 45 1 11 44
M  V30 46 1 13 45
M  V30 47 1 13 46
M  V30 48 1 14 47
M  V30 49 1 15 48
M  V30 50 1 15 49
M  V30 51 1 17 50
M  V30 52 1 19 51
M  V30 53 1 20 52
M  V30 54 1 23 53
M  V30 55 1 24 54
M  V30 END BOND
M  V30 END CTAB
M  END
>  <Dataset>  (728) 
ChEMBL_Kinases

>  <Ligand_Instance>  (728) 
nan

>  <PDB_ID>  (728) 
nan

>  <Standardized_SMILES>  (728) 
CCCC(CCC)C(=O)OCC1(CO)C/C(=C/c2ccc(Br)cc2)C(=O)O1

>  <Name>  (728) 
nan

>  <Pocket>  (728) 
nan

>  <ATP_Site>  (728) 
nan

>  <Peripheral>  (728) 
nan

>  <Num_H_Atoms_ProtBoundConf>  (728) 
nan

>  <Num_Resolved_Atoms>  (728) 
nan

>  <Num_Not_Resolved_Atoms>  (728) 
nan

$$$$
CHEMBL4587191
     RDKit          3D

  0  0  0  0  0  0  0  0  0  0999 V3000
M  V30 BEGIN CTAB
M  V30 COUNTS 39 42 0 0 0
M  V30 BEGIN ATOM
M  V30 1 C -1.717933 -6.066464 1.766513 0
M  V30 2 C -0.232711 -6.010718 1.874566 0
M  V30 3 N 0.618982 -7.012333 2.202382 0
M  V30 4 N 1.878900 -6.575985 2.193976 0
M  V30 5 C 1.913599 -5.254911 1.857038 0
M  V30 6 C 0.588825 -4.923180 1.662541 0
M  V30 7 C 0.180797 -3.591255 1.286355 0
M  V30 8 C 0.851719 -2.455913 1.049695 0
M  V30 9 C 0.168062 -1.341922 0.706927 0
M  V30 10 N 0.597963 -0.096055 0.423062 0
M  V30 11 C -0.219588 0.903412 0.099641 0
M  V30 12 C 0.442100 2.202311 -0.183062 0 CFG=1
M  V30 13 C -0.537586 3.361854 -0.141354 0
M  V30 14 C 0.148980 4.626028 0.328447 0
M  V30 15 C 1.604601 4.692145 0.019220 0
M  V30 16 C 2.374524 3.418726 0.200360 0
M  V30 17 N 1.511693 2.423763 0.783567 0
M  V30 18 N -1.558081 0.810042 0.013054 0
M  V30 19 C -2.079876 -0.400270 0.280317 0
M  V30 20 O -3.306393 -0.676729 0.250065 0
M  V30 21 C -1.236021 -1.436943 0.615662 0
M  V30 22 S -1.554227 -3.177462 1.036965 0
M  V30 23 H -2.016762 -6.039624 0.703314 0
M  V30 24 H -2.043408 -7.071067 2.143757 0
M  V30 25 H -2.174155 -5.261522 2.379157 0
M  V30 26 H 2.695200 -7.195373 2.420577 0
M  V30 27 H 2.802655 -4.639987 1.772139 0
M  V30 28 H 1.926319 -2.494002 1.148020 0
M  V30 29 H 0.917204 2.218441 -1.183589 0
M  V30 30 H -1.300335 3.124468 0.625560 0
M  V30 31 H -1.061857 3.536797 -1.093241 0
M  V30 32 H -0.083682 4.827746 1.398907 0
M  V30 33 H -0.331421 5.472676 -0.218307 0
M  V30 34 H 2.036056 5.447760 0.742735 0
M  V30 35 H 1.816893 5.078147 -1.004106 0
M  V30 36 H 2.776536 3.028299 -0.771060 0
M  V30 37 H 3.228062 3.572625 0.896206 0
M  V30 38 H 1.173690 2.772602 1.697664 0
M  V30 39 H -2.212358 1.563066 -0.237558 0
M  V30 END ATOM
M  V30 BEGIN BOND
M  V30 1 1 1 2
M  V30 2 2 2 3
M  V30 3 1 3 4
M  V30 4 1 4 5
M  V30 5 2 5 6
M  V30 6 1 6 7
M  V30 7 2 7 8
M  V30 8 1 8 9
M  V30 9 1 9 10
M  V30 10 2 10 11
M  V30 11 1 11 12
M  V30 12 1 12 13
M  V30 13 1 13 14
M  V30 14 1 14 15
M  V30 15 1 15 16
M  V30 16 1 16 17
M  V30 17 1 11 18
M  V30 18 1 18 19
M  V30 19 2 19 20
M  V30 20 1 19 21
M  V30 21 1 21 22
M  V30 22 1 6 2
M  V30 23 1 22 7
M  V30 24 2 21 9
M  V30 25 1 17 12
M  V30 26 1 1 23
M  V30 27 1 1 24
M  V30 28 1 1 25
M  V30 29 1 4 26
M  V30 30 1 5 27
M  V30 31 1 8 28
M  V30 32 1 12 29 CFG=3
M  V30 33 1 13 30
M  V30 34 1 13 31
M  V30 35 1 14 32
M  V30 36 1 14 33
M  V30 37 1 15 34
M  V30 38 1 15 35
M  V30 39 1 16 36
M  V30 40 1 16 37
M  V30 41 1 17 38
M  V30 42 1 18 39
M  V30 END BOND
M  V30 END CTAB
M  END
>  <Dataset>  (729) 
ChEMBL_Kinases

>  <Ligand_Instance>  (729) 
nan

>  <PDB_ID>  (729) 
nan

>  <Standardized_SMILES>  (729) 
Cc1n[nH]cc1-c1cc2nc([C@H]3CCCCN3)[nH]c(=O)c2s1

>  <Name>  (729) 
nan

>  <Pocket>  (729) 
nan

>  <ATP_Site>  (729) 
nan

>  <Peripheral>  (729) 
nan

>  <Num_H_Atoms_ProtBoundConf>  (729) 
nan

>  <Num_Resolved_Atoms>  (729) 
nan

>  <Num_Not_Resolved_Atoms>  (729) 
nan

$$$$
CHEMBL4587158
     RDKit          3D

  0  0  0  0  0  0  0  0  0  0999 V3000
M  V30 BEGIN CTAB
M  V30 COUNTS 55 57 0 0 0
M  V30 BEGIN ATOM
M  V30 1 C -4.534453 -4.605053 -1.226872 0
M  V30 2 N -3.166196 -4.261789 -1.060684 0
M  V30 3 C -1.829565 -3.924944 -0.898542 0
M  V30 4 N -1.155910 -2.774374 -0.935293 0
M  V30 5 C 0.158655 -2.669808 -0.731871 0
M  V30 6 N 0.654099 -1.352589 -0.827733 0
M  V30 7 C 0.679997 -0.456977 0.270633 0
M  V30 8 C 0.176956 -0.854472 1.489642 0
M  V30 9 N 0.185968 -0.014365 2.567778 0
M  V30 10 C 0.704917 1.240010 2.426694 0
M  V30 11 C 0.722099 2.125183 3.528796 0
M  V30 12 N 0.738826 2.831994 4.440783 0
M  V30 13 C 1.228970 1.729095 1.257053 0
M  V30 14 O 1.773624 2.884759 0.897576 0
M  V30 15 C 2.087374 4.097264 1.417204 0 CFG=1
M  V30 16 C 3.555705 4.483296 1.236227 0
M  V30 17 C 1.257081 5.131110 0.624563 0
M  V30 18 N 1.537239 6.442894 1.114100 0
M  V30 19 C 1.073285 6.710288 2.438398 0
M  V30 20 C 1.271893 7.457753 0.143885 0
M  V30 21 C 1.202570 0.837232 0.169889 0
M  V30 22 N 0.835276 -3.781864 -0.476848 0
M  V30 23 C 0.262918 -4.983700 -0.417378 0
M  V30 24 C -1.116128 -5.086415 -0.632170 0
M  V30 25 C -1.508498 -6.491740 -0.540407 0
M  V30 26 C -2.263660 -7.249509 -1.430803 0
M  V30 27 N -2.377101 -8.497131 -0.922290 0
M  V30 28 N -1.738133 -8.561340 0.230683 0
M  V30 29 C -1.738156 -9.819338 0.941727 0
M  V30 30 C -1.206130 -7.370791 0.485804 0
M  V30 31 H -5.253361 -4.172211 -0.496150 0
M  V30 32 H -4.958294 -4.464755 -2.253735 0
M  V30 33 H -4.629610 -5.719745 -1.059687 0
M  V30 34 H -3.494776 -3.254817 -1.254225 0
M  V30 35 H 1.004102 -1.076408 -1.770145 0
M  V30 36 H -0.251077 -1.829821 1.683034 0
M  V30 37 H 1.865598 4.313530 2.465913 0
M  V30 38 H 3.656437 5.511390 1.605927 0
M  V30 39 H 3.796199 4.397553 0.171021 0
M  V30 40 H 4.181583 3.853201 1.892818 0
M  V30 41 H 0.202390 4.809562 0.713820 0
M  V30 42 H 1.622546 5.055221 -0.418837 0
M  V30 43 H 1.930737 6.635730 3.145877 0
M  V30 44 H 0.720040 7.775466 2.450504 0
M  V30 45 H 0.282595 6.024268 2.786602 0
M  V30 46 H 2.209180 8.017206 -0.079326 0
M  V30 47 H 0.511106 8.208046 0.438416 0
M  V30 48 H 0.890744 6.960416 -0.779835 0
M  V30 49 H 1.574544 1.043513 -0.847027 0
M  V30 50 H 0.974611 -5.774320 -0.198157 0
M  V30 51 H -2.674101 -6.871069 -2.362241 0
M  V30 52 H -2.750935 -10.222403 1.073894 0
M  V30 53 H -1.208698 -9.695170 1.903546 0
M  V30 54 H -1.102814 -10.513649 0.333789 0
M  V30 55 H -0.627186 -7.166348 1.380906 0
M  V30 END ATOM
M  V30 BEGIN BOND
M  V30 1 1 1 2
M  V30 2 1 2 3
M  V30 3 2 3 4
M  V30 4 1 4 5
M  V30 5 1 5 6
M  V30 6 1 6 7
M  V30 7 2 7 8
M  V30 8 1 8 9
M  V30 9 2 9 10
M  V30 10 1 10 11
M  V30 11 3 11 12
M  V30 12 1 10 13
M  V30 13 1 13 14
M  V30 14 1 14 15
M  V30 15 1 15 16
M  V30 16 1 15 17
M  V30 17 1 17 18
M  V30 18 1 18 19
M  V30 19 1 18 20
M  V30 20 2 13 21
M  V30 21 2 5 22
M  V30 22 1 22 23
M  V30 23 2 23 24
M  V30 24 1 24 25
M  V30 25 1 25 26
M  V30 26 2 26 27
M  V30 27 1 27 28
M  V30 28 1 28 29
M  V30 29 1 28 30
M  V30 30 1 24 3
M  V30 31 2 30 25
M  V30 32 1 21 7
M  V30 33 1 1 31
M  V30 34 1 1 32
M  V30 35 1 1 33
M  V30 36 1 2 34
M  V30 37 1 6 35
M  V30 38 1 8 36
M  V30 39 1 15 37 CFG=1
M  V30 40 1 16 38
M  V30 41 1 16 39
M  V30 42 1 16 40
M  V30 43 1 17 41
M  V30 44 1 17 42
M  V30 45 1 19 43
M  V30 46 1 19 44
M  V30 47 1 19 45
M  V30 48 1 20 46
M  V30 49 1 20 47
M  V30 50 1 20 48
M  V30 51 1 21 49
M  V30 52 1 23 50
M  V30 53 1 26 51
M  V30 54 1 29 52
M  V30 55 1 29 53
M  V30 56 1 29 54
M  V30 57 1 30 55
M  V30 END BOND
M  V30 END CTAB
M  END
>  <Dataset>  (730) 
ChEMBL_Kinases

>  <Ligand_Instance>  (730) 
nan

>  <PDB_ID>  (730) 
nan

>  <Standardized_SMILES>  (730) 
CNc1nc(Nc2cnc(C#N)c(O[C@@H](C)CN(C)C)c2)ncc1-c1cnn(C)c1

>  <Name>  (730) 
nan

>  <Pocket>  (730) 
nan

>  <ATP_Site>  (730) 
nan

>  <Peripheral>  (730) 
nan

>  <Num_H_Atoms_ProtBoundConf>  (730) 
nan

>  <Num_Resolved_Atoms>  (730) 
nan

>  <Num_Not_Resolved_Atoms>  (730) 
nan

$$$$
CHEMBL4587139
     RDKit          3D

  0  0  0  0  0  0  0  0  0  0999 V3000
M  V30 BEGIN CTAB
M  V30 COUNTS 53 56 0 0 0
M  V30 BEGIN ATOM
M  V30 1 C -1.555966 -1.650008 0.968492 0
M  V30 2 N -1.090093 -2.783135 0.204310 0
M  V30 3 C 0.139641 -2.699706 -0.454755 0
M  V30 4 N 0.885380 -1.601403 -0.415754 0
M  V30 5 C 2.059896 -1.464262 -1.040861 0
M  V30 6 N 2.855325 -0.293242 -1.000147 0
M  V30 7 C 2.620605 0.931648 -0.337120 0
M  V30 8 C 3.572291 1.950474 -0.462375 0
M  V30 9 N 3.431901 3.138257 0.129252 0
M  V30 10 C 2.361811 3.426034 0.884038 0
M  V30 11 C 2.221182 4.699302 1.513793 0
M  V30 12 N 2.124254 5.734019 2.012962 0
M  V30 13 C 1.348889 2.525615 1.096014 0
M  V30 14 O 0.214792 2.560585 1.780308 0
M  V30 15 C -0.528506 3.372071 2.563334 0
M  V30 16 C -0.772445 2.833857 3.970381 0
M  V30 17 C -1.570237 1.583951 3.981526 0
M  V30 18 C -2.672222 1.500614 2.993999 0
M  V30 19 N -2.648109 2.398560 1.908615 0
M  V30 20 C -1.944967 3.614421 2.049156 0
M  V30 21 C 1.553112 1.296879 0.449222 0
M  V30 22 N 2.477227 -2.529469 -1.743272 0
M  V30 23 C 1.775503 -3.667370 -1.824685 0
M  V30 24 C 0.566849 -3.790458 -1.173162 0
M  V30 25 C -0.095545 -5.066059 -1.313335 0
M  V30 26 C -0.217857 -5.510521 -2.636954 0
M  V30 27 C -0.814952 -6.718886 -3.006691 0
M  V30 28 C -1.308744 -7.510546 -1.996758 0
M  V30 29 C -1.208289 -7.109859 -0.681023 0
M  V30 30 C -0.612316 -5.910735 -0.353703 0
M  V30 31 H -2.456573 -1.859482 1.578956 0
M  V30 32 H -1.684901 -0.776272 0.293919 0
M  V30 33 H -0.780742 -1.336160 1.719974 0
M  V30 34 H -1.738855 -3.596170 0.205711 0
M  V30 35 H 3.764101 -0.349234 -1.552453 0
M  V30 36 H 4.487697 1.835761 -1.051735 0
M  V30 37 H -0.086478 4.373339 2.716294 0
M  V30 38 H 0.171822 2.704121 4.511571 0
M  V30 39 H -1.354264 3.637230 4.497787 0
M  V30 40 H -0.854991 0.728561 3.903755 0
M  V30 41 H -1.990530 1.491054 5.026952 0
M  V30 42 H -3.662840 1.612774 3.512813 0
M  V30 43 H -2.694834 0.462804 2.596612 0
M  V30 44 H -2.738284 2.010047 0.955355 0
M  V30 45 H -1.972866 4.159669 1.099450 0
M  V30 46 H -2.436331 4.251412 2.816250 0
M  V30 47 H 0.816816 0.492907 0.539542 0
M  V30 48 H 2.227086 -4.459347 -2.429287 0
M  V30 49 H 0.159568 -4.917643 -3.485749 0
M  V30 50 H -0.879018 -7.004907 -4.039506 0
M  V30 51 H -1.788341 -8.468928 -2.214540 0
M  V30 52 H -1.591074 -7.717318 0.143044 0
M  V30 53 H -0.498512 -5.548825 0.658080 0
M  V30 END ATOM
M  V30 BEGIN BOND
M  V30 1 1 1 2
M  V30 2 1 2 3
M  V30 3 2 3 4
M  V30 4 1 4 5
M  V30 5 1 5 6
M  V30 6 1 6 7
M  V30 7 2 7 8
M  V30 8 1 8 9
M  V30 9 2 9 10
M  V30 10 1 10 11
M  V30 11 3 11 12
M  V30 12 1 10 13
M  V30 13 1 13 14
M  V30 14 1 14 15
M  V30 15 1 15 16
M  V30 16 1 16 17
M  V30 17 1 17 18
M  V30 18 1 18 19
M  V30 19 1 19 20
M  V30 20 2 13 21
M  V30 21 2 5 22
M  V30 22 1 22 23
M  V30 23 2 23 24
M  V30 24 1 24 25
M  V30 25 2 25 26
M  V30 26 1 26 27
M  V30 27 2 27 28
M  V30 28 1 28 29
M  V30 29 2 29 30
M  V30 30 1 24 3
M  V30 31 1 30 25
M  V30 32 1 21 7
M  V30 33 1 20 15
M  V30 34 1 1 31
M  V30 35 1 1 32
M  V30 36 1 1 33
M  V30 37 1 2 34
M  V30 38 1 6 35
M  V30 39 1 8 36
M  V30 40 1 15 37
M  V30 41 1 16 38
M  V30 42 1 16 39
M  V30 43 1 17 40
M  V30 44 1 17 41
M  V30 45 1 18 42
M  V30 46 1 18 43
M  V30 47 1 19 44
M  V30 48 1 20 45
M  V30 49 1 20 46
M  V30 50 1 21 47
M  V30 51 1 23 48
M  V30 52 1 26 49
M  V30 53 1 27 50
M  V30 54 1 28 51
M  V30 55 1 29 52
M  V30 56 1 30 53
M  V30 END BOND
M  V30 END CTAB
M  END
>  <Dataset>  (731) 
ChEMBL_Kinases

>  <Ligand_Instance>  (731) 
nan

>  <PDB_ID>  (731) 
nan

>  <Standardized_SMILES>  (731) 
CNc1nc(Nc2cnc(C#N)c(OC3CCCNC3)c2)ncc1-c1ccccc1

>  <Name>  (731) 
nan

>  <Pocket>  (731) 
nan

>  <ATP_Site>  (731) 
nan

>  <Peripheral>  (731) 
nan

>  <Num_H_Atoms_ProtBoundConf>  (731) 
nan

>  <Num_Resolved_Atoms>  (731) 
nan

>  <Num_Not_Resolved_Atoms>  (731) 
nan

$$$$
CHEMBL46094
     RDKit          3D

  0  0  0  0  0  0  0  0  0  0999 V3000
M  V30 BEGIN CTAB
M  V30 COUNTS 65 69 0 0 0
M  V30 BEGIN ATOM
M  V30 1 C 2.657613 -1.960735 0.360004 0
M  V30 2 C 1.360106 -1.188942 0.472374 0
M  V30 3 C 0.686390 -0.350659 -0.355573 0
M  V30 4 C -0.558687 0.161374 0.211837 0
M  V30 5 C -0.811495 1.643132 0.061275 0
M  V30 6 O -1.868956 1.918588 0.557048 0
M  V30 7 C 0.170380 2.488564 -0.607844 0 CFG=1
M  V30 8 C 1.456902 2.180442 0.144867 0
M  V30 9 C 1.613564 1.537740 1.334599 0
M  V30 10 C 3.030083 1.311796 1.791909 0
M  V30 11 O 3.930884 1.817921 0.883202 0
M  V30 12 C 0.499613 1.062829 2.192285 0 CFG=1
M  V30 13 O -0.289006 2.120927 2.642906 0
M  V30 14 C -0.331615 -0.068971 1.624507 0 CFG=1
M  V30 15 O -1.477849 -0.192079 2.404777 0
M  V30 16 C 0.556309 -1.289827 1.734364 0 CFG=1
M  V30 17 O -0.096554 -2.499682 1.872609 0
M  V30 18 C 0.143400 -3.390475 2.881083 0
M  V30 19 O 0.997525 -3.201616 3.805897 0
M  V30 20 C -0.605229 -4.642917 2.932633 0
M  V30 21 C -0.377780 -5.555750 3.942808 0
M  V30 22 C -1.018626 -6.775201 4.103807 0
M  V30 23 C -1.974835 -7.057265 3.124552 0
M  V30 24 C -2.230310 -6.166078 2.096287 0
M  V30 25 C -1.557233 -4.954702 1.982243 0
M  V30 26 C 0.201531 2.004351 -2.017183 0 CFG=1
M  V30 27 C -0.477477 0.889136 -2.535226 0 CFG=1
M  V30 28 C -1.459628 0.012397 -2.001188 0
M  V30 29 C -1.676022 -0.339975 -0.573683 0 CFG=1
M  V30 30 C -2.040600 -1.807557 -0.331083 0
M  V30 31 C -0.932525 2.321167 -2.885204 0
M  V30 32 C -2.185644 2.892301 -2.347775 0
M  V30 33 C -0.587392 2.887590 -4.262880 0
M  V30 34 H 3.172955 -1.959077 1.332942 0
M  V30 35 H 2.507565 -2.968598 -0.062538 0
M  V30 36 H 3.324141 -1.434032 -0.370355 0
M  V30 37 H 1.246205 -0.248724 -1.278840 0
M  V30 38 H -0.039925 3.568288 -0.554532 0
M  V30 39 H 2.380878 2.507290 -0.309119 0
M  V30 40 H 3.108739 1.957354 2.718992 0
M  V30 41 H 3.209672 0.293868 2.132799 0
M  V30 42 H 4.095223 2.761197 1.051288 0
M  V30 43 H 0.944552 0.632073 3.141332 0
M  V30 44 H -0.661688 1.917480 3.552043 0
M  V30 45 H -1.313424 -0.068107 3.359134 0
M  V30 46 H 1.278267 -1.202761 2.573681 0
M  V30 47 H 0.371581 -5.332117 4.708174 0
M  V30 48 H -0.797650 -7.434455 4.904706 0
M  V30 49 H -2.514902 -8.000951 3.193612 0
M  V30 50 H -2.967698 -6.379707 1.338045 0
M  V30 51 H -1.776459 -4.291584 1.180481 0
M  V30 52 H 1.215363 2.260845 -2.395158 0
M  V30 53 H 0.038132 0.437288 -3.452663 0
M  V30 54 H -2.473586 0.306573 -2.429011 0
M  V30 55 H -1.400240 -1.028696 -2.468629 0
M  V30 56 H -2.638110 0.143543 -0.207978 0
M  V30 57 H -2.896637 -1.982693 -1.049043 0
M  V30 58 H -1.255655 -2.509904 -0.616308 0
M  V30 59 H -2.479499 -1.911790 0.657284 0
M  V30 60 H -2.934713 2.221647 -1.942352 0
M  V30 61 H -1.903242 3.651503 -1.570806 0
M  V30 62 H -2.750110 3.519208 -3.101132 0
M  V30 63 H -1.286925 2.508313 -5.026527 0
M  V30 64 H 0.466712 2.664638 -4.485066 0
M  V30 65 H -0.697421 3.986460 -4.159901 0
M  V30 END ATOM
M  V30 BEGIN BOND
M  V30 1 1 1 2
M  V30 2 2 2 3
M  V30 3 1 3 4
M  V30 4 1 4 5
M  V30 5 2 5 6
M  V30 6 1 5 7
M  V30 7 1 7 8
M  V30 8 2 8 9
M  V30 9 1 9 10
M  V30 10 1 10 11
M  V30 11 1 9 12
M  V30 12 1 12 13
M  V30 13 1 12 14
M  V30 14 1 14 15 CFG=1
M  V30 15 1 14 16
M  V30 16 1 16 17
M  V30 17 1 17 18
M  V30 18 2 18 19
M  V30 19 1 18 20
M  V30 20 2 20 21
M  V30 21 1 21 22
M  V30 22 2 22 23
M  V30 23 1 23 24
M  V30 24 2 24 25
M  V30 25 1 7 26
M  V30 26 1 26 27
M  V30 27 1 27 28
M  V30 28 1 28 29
M  V30 29 1 29 30
M  V30 30 1 27 31
M  V30 31 1 31 32
M  V30 32 1 31 33
M  V30 33 1 16 2
M  V30 34 1 25 20
M  V30 35 1 31 26
M  V30 36 1 14 4
M  V30 37 1 29 4
M  V30 38 1 1 34
M  V30 39 1 1 35
M  V30 40 1 1 36
M  V30 41 1 3 37
M  V30 42 1 7 38 CFG=3
M  V30 43 1 8 39
M  V30 44 1 10 40
M  V30 45 1 10 41
M  V30 46 1 11 42
M  V30 47 1 12 43 CFG=1
M  V30 48 1 13 44
M  V30 49 1 15 45
M  V30 50 1 16 46 CFG=1
M  V30 51 1 21 47
M  V30 52 1 22 48
M  V30 53 1 23 49
M  V30 54 1 24 50
M  V30 55 1 25 51
M  V30 56 1 26 52 CFG=3
M  V30 57 1 27 53 CFG=3
M  V30 58 1 28 54
M  V30 59 1 28 55
M  V30 60 1 29 56 CFG=1
M  V30 61 1 30 57
M  V30 62 1 30 58
M  V30 63 1 30 59
M  V30 64 1 32 60
M  V30 65 1 32 61
M  V30 66 1 32 62
M  V30 67 1 33 63
M  V30 68 1 33 64
M  V30 69 1 33 65
M  V30 END BOND
M  V30 END CTAB
M  END
>  <Dataset>  (732) 
ChEMBL_Kinases

>  <Ligand_Instance>  (732) 
nan

>  <PDB_ID>  (732) 
nan

>  <Standardized_SMILES>  (732) 
CC1=CC23C(=O)[C@@H](C=C(CO)[C@@H](O)[C@]2(O)[C@H]1OC(=O)c1ccccc1)[C@H]1[C@@H](C[C@H]3C)C1(C)C

>  <Name>  (732) 
nan

>  <Pocket>  (732) 
nan

>  <ATP_Site>  (732) 
nan

>  <Peripheral>  (732) 
nan

>  <Num_H_Atoms_ProtBoundConf>  (732) 
nan

>  <Num_Resolved_Atoms>  (732) 
nan

>  <Num_Not_Resolved_Atoms>  (732) 
nan

$$$$
CHEMBL4590420
     RDKit          3D

  0  0  0  0  0  0  0  0  0  0999 V3000
M  V30 BEGIN CTAB
M  V30 COUNTS 44 47 0 0 0
M  V30 BEGIN ATOM
M  V30 1 C 2.415645 -5.039562 2.034206 0
M  V30 2 N 2.240566 -4.215139 0.839703 0
M  V30 3 C 1.896520 -2.911526 0.855320 0
M  V30 4 C 1.842112 -2.527732 -0.468308 0
M  V30 5 C 1.507457 -1.192858 -0.952304 0
M  V30 6 C 1.479894 -0.907511 -2.301429 0
M  V30 7 C 1.146951 0.401764 -2.642986 0
M  V30 8 N 1.132270 0.636043 -3.975939 0
M  V30 9 C 0.820744 1.873440 -4.387546 0
M  V30 10 C 0.532169 2.843387 -3.452960 0
M  V30 11 N 0.560559 2.559674 -2.139422 0
M  V30 12 C 0.860817 1.356581 -1.664639 0
M  V30 13 C 0.907189 1.000719 -0.321914 0
M  V30 14 O 0.597312 2.068294 0.495921 0
M  V30 15 C 0.590309 1.905407 1.879154 0
M  V30 16 C -0.399737 0.873996 2.346229 0 CFG=1
M  V30 17 C -0.385138 0.719510 3.851492 0
M  V30 18 C -1.646532 0.079769 4.365432 0
M  V30 19 C -2.387248 -0.676410 3.285224 0
M  V30 20 N -2.639793 0.083422 2.099876 0
M  V30 21 C -1.823372 1.258279 1.978959 0
M  V30 22 N 1.228459 -0.257755 -0.028952 0
M  V30 23 C 2.152732 -3.597995 -1.278887 0
M  V30 24 N 2.385464 -4.597405 -0.411778 0
M  V30 25 H 2.342859 -4.428688 2.934098 0
M  V30 26 H 1.614070 -5.805538 2.095965 0
M  V30 27 H 3.388174 -5.564456 1.971145 0
M  V30 28 H 1.703952 -2.296796 1.721976 0
M  V30 29 H 1.705949 -1.666002 -3.043436 0
M  V30 30 H 0.773121 2.193556 -5.428109 0
M  V30 31 H 0.279015 3.843616 -3.747839 0
M  V30 32 H 0.326986 2.860475 2.418007 0
M  V30 33 H 1.599581 1.614757 2.255458 0
M  V30 34 H -0.212135 -0.088235 1.836571 0
M  V30 35 H 0.512378 0.176090 4.168101 0
M  V30 36 H -0.341964 1.741489 4.292426 0
M  V30 37 H -1.346557 -0.680425 5.117797 0
M  V30 38 H -2.327915 0.779733 4.891059 0
M  V30 39 H -3.393759 -0.939378 3.711490 0
M  V30 40 H -1.900331 -1.667908 3.101567 0
M  V30 41 H -2.427085 -0.517089 1.270822 0
M  V30 42 H -2.216619 2.012190 2.706218 0
M  V30 43 H -1.894879 1.650216 0.952252 0
M  V30 44 H 2.197692 -3.624817 -2.352430 0
M  V30 END ATOM
M  V30 BEGIN BOND
M  V30 1 1 1 2
M  V30 2 1 2 3
M  V30 3 2 3 4
M  V30 4 1 4 5
M  V30 5 2 5 6
M  V30 6 1 6 7
M  V30 7 2 7 8
M  V30 8 1 8 9
M  V30 9 2 9 10
M  V30 10 1 10 11
M  V30 11 2 11 12
M  V30 12 1 12 13
M  V30 13 1 13 14
M  V30 14 1 14 15
M  V30 15 1 15 16
M  V30 16 1 16 17
M  V30 17 1 17 18
M  V30 18 1 18 19
M  V30 19 1 19 20
M  V30 20 1 20 21
M  V30 21 2 13 22
M  V30 22 1 4 23
M  V30 23 2 23 24
M  V30 24 1 24 2
M  V30 25 1 22 5
M  V30 26 1 12 7
M  V30 27 1 21 16
M  V30 28 1 1 25
M  V30 29 1 1 26
M  V30 30 1 1 27
M  V30 31 1 3 28
M  V30 32 1 6 29
M  V30 33 1 9 30
M  V30 34 1 10 31
M  V30 35 1 15 32
M  V30 36 1 15 33
M  V30 37 1 16 34 CFG=3
M  V30 38 1 17 35
M  V30 39 1 17 36
M  V30 40 1 18 37
M  V30 41 1 18 38
M  V30 42 1 19 39
M  V30 43 1 19 40
M  V30 44 1 20 41
M  V30 45 1 21 42
M  V30 46 1 21 43
M  V30 47 1 23 44
M  V30 END BOND
M  V30 END CTAB
M  END
>  <Dataset>  (733) 
ChEMBL_Kinases

>  <Ligand_Instance>  (733) 
nan

>  <PDB_ID>  (733) 
nan

>  <Standardized_SMILES>  (733) 
Cn1cc(-c2cc3nccnc3c(OC[C@H]3CCCNC3)n2)cn1

>  <Name>  (733) 
nan

>  <Pocket>  (733) 
nan

>  <ATP_Site>  (733) 
nan

>  <Peripheral>  (733) 
nan

>  <Num_H_Atoms_ProtBoundConf>  (733) 
nan

>  <Num_Resolved_Atoms>  (733) 
nan

>  <Num_Not_Resolved_Atoms>  (733) 
nan

$$$$
CHEMBL4590309
     RDKit          3D

  0  0  0  0  0  0  0  0  0  0999 V3000
M  V30 BEGIN CTAB
M  V30 COUNTS 42 44 0 0 0
M  V30 BEGIN ATOM
M  V30 1 C -2.476626 -1.571161 1.434599 0
M  V30 2 N -1.098794 -1.117159 1.528257 0
M  V30 3 C -0.325551 -0.280953 0.642360 0
M  V30 4 C 0.829935 -0.823223 0.083430 0
M  V30 5 C 1.632031 -0.100120 -0.773932 0
M  V30 6 C 2.849200 -0.630080 -1.380332 0
M  V30 7 C 3.562544 0.199209 -2.222351 0
M  V30 8 C 4.739701 -0.241715 -2.839364 0
M  V30 9 N 5.212310 -1.493861 -2.628088 0
M  V30 10 C 4.510763 -2.310026 -1.799742 0
M  V30 11 C 3.332391 -1.904538 -1.166767 0
M  V30 12 N 1.291189 1.163983 -1.080408 0
M  V30 13 C 0.166828 1.731384 -0.553504 0
M  V30 14 C -0.174538 3.030270 -0.874459 0
M  V30 15 N -1.292112 3.533218 -0.324667 0
M  V30 16 C -2.100310 2.864468 0.513667 0
M  V30 17 C -1.776431 1.550973 0.852821 0
M  V30 18 C -0.633883 1.004584 0.304490 0
M  V30 19 C -0.571068 -1.682184 2.756829 0
M  V30 20 C 0.869859 -1.296492 2.998772 0
M  V30 21 C -1.369228 -1.235540 3.963580 0
M  V30 22 C -0.590150 -3.211695 2.735773 0
M  V30 23 H -2.946393 -1.292666 0.448881 0
M  V30 24 H -2.516245 -2.697524 1.441616 0
M  V30 25 H -3.101154 -1.182828 2.263394 0
M  V30 26 H 1.086291 -1.821817 0.334371 0
M  V30 27 H 3.286725 1.226348 -2.472161 0
M  V30 28 H 5.331068 0.379560 -3.509144 0
M  V30 29 H 4.864140 -3.325001 -1.608162 0
M  V30 30 H 2.783712 -2.564315 -0.509768 0
M  V30 31 H 0.435085 3.637379 -1.550617 0
M  V30 32 H -2.997734 3.289955 0.945922 0
M  V30 33 H -2.417829 0.997470 1.527864 0
M  V30 34 H 1.114535 -0.336303 2.484689 0
M  V30 35 H 1.589633 -2.103076 2.746408 0
M  V30 36 H 1.044315 -1.102477 4.089480 0
M  V30 37 H -0.771790 -1.430342 4.878435 0
M  V30 38 H -2.326799 -1.768594 4.067056 0
M  V30 39 H -1.507707 -0.125489 3.919728 0
M  V30 40 H -1.585452 -3.610300 3.010726 0
M  V30 41 H 0.107248 -3.522902 3.565210 0
M  V30 42 H -0.194816 -3.618962 1.786822 0
M  V30 END ATOM
M  V30 BEGIN BOND
M  V30 1 1 1 2
M  V30 2 1 2 3
M  V30 3 2 3 4
M  V30 4 1 4 5
M  V30 5 1 5 6
M  V30 6 2 6 7
M  V30 7 1 7 8
M  V30 8 2 8 9
M  V30 9 1 9 10
M  V30 10 2 10 11
M  V30 11 2 5 12
M  V30 12 1 12 13
M  V30 13 2 13 14
M  V30 14 1 14 15
M  V30 15 2 15 16
M  V30 16 1 16 17
M  V30 17 2 17 18
M  V30 18 1 2 19
M  V30 19 1 19 20
M  V30 20 1 19 21
M  V30 21 1 19 22
M  V30 22 1 18 3
M  V30 23 1 11 6
M  V30 24 1 18 13
M  V30 25 1 1 23
M  V30 26 1 1 24
M  V30 27 1 1 25
M  V30 28 1 4 26
M  V30 29 1 7 27
M  V30 30 1 8 28
M  V30 31 1 10 29
M  V30 32 1 11 30
M  V30 33 1 14 31
M  V30 34 1 16 32
M  V30 35 1 17 33
M  V30 36 1 20 34
M  V30 37 1 20 35
M  V30 38 1 20 36
M  V30 39 1 21 37
M  V30 40 1 21 38
M  V30 41 1 21 39
M  V30 42 1 22 40
M  V30 43 1 22 41
M  V30 44 1 22 42
M  V30 END BOND
M  V30 END CTAB
M  END
>  <Dataset>  (734) 
ChEMBL_Kinases

>  <Ligand_Instance>  (734) 
nan

>  <PDB_ID>  (734) 
nan

>  <Standardized_SMILES>  (734) 
CN(c1cc(-c2ccncc2)nc2cnccc12)C(C)(C)C

>  <Name>  (734) 
nan

>  <Pocket>  (734) 
nan

>  <ATP_Site>  (734) 
nan

>  <Peripheral>  (734) 
nan

>  <Num_H_Atoms_ProtBoundConf>  (734) 
nan

>  <Num_Resolved_Atoms>  (734) 
nan

>  <Num_Not_Resolved_Atoms>  (734) 
nan

$$$$
CHEMBL4590290
     RDKit          3D

  0  0  0  0  0  0  0  0  0  0999 V3000
M  V30 BEGIN CTAB
M  V30 COUNTS 42 45 0 0 0
M  V30 BEGIN ATOM
M  V30 1 O 0.910162 -2.445560 0.734978 0
M  V30 2 C -0.045502 -2.531683 -0.058388 0
M  V30 3 N 0.944127 -2.195953 -0.957423 0
M  V30 4 C 2.322291 -1.898601 -0.898990 0
M  V30 5 C 3.463211 -2.493833 -1.324768 0
M  V30 6 C 4.631954 -1.823060 -1.037081 0
M  V30 7 C 4.573453 -0.626854 -0.356530 0
M  V30 8 C 3.377623 -0.095131 0.037381 0
M  V30 9 N 2.219771 -0.715387 -0.222554 0
M  V30 10 C 3.213375 1.152942 0.758521 0
M  V30 11 N 4.208020 1.895045 1.268696 0
M  V30 12 N 3.727729 2.984930 1.876637 0
M  V30 13 C 2.388858 2.871586 1.712154 0
M  V30 14 N 2.057496 1.742989 1.022287 0
M  V30 15 C 0.718495 1.283920 0.652916 0
M  V30 16 C -0.322354 2.286393 1.003080 0
M  V30 17 C -1.695376 1.880766 0.595263 0
M  V30 18 C -2.239657 0.630849 1.203139 0
M  V30 19 O -1.544350 -0.515414 0.874828 0
M  V30 20 C -1.823673 -1.776370 1.300895 0
M  V30 21 C -2.841966 -2.064516 2.176876 0
M  V30 22 C -3.024698 -3.378107 2.537637 0
M  V30 23 F -4.037394 -3.662744 3.408013 0
M  V30 24 C -2.288286 -4.458227 2.112434 0
M  V30 25 C -1.265570 -4.178946 1.234277 0
M  V30 26 C -1.087258 -2.883700 0.878257 0
M  V30 27 H 0.842204 -2.104350 -1.975079 0
M  V30 28 H 3.118335 -3.373938 -1.801415 0
M  V30 29 H 5.488381 -2.354893 -1.404649 0
M  V30 30 H 5.491370 -0.128277 -0.146588 0
M  V30 31 H 1.752799 3.658747 2.130315 0
M  V30 32 H 0.552899 0.303602 1.164771 0
M  V30 33 H 0.674601 1.082576 -0.433583 0
M  V30 34 H -0.032134 3.265378 0.522916 0
M  V30 35 H -0.342818 2.528659 2.092424 0
M  V30 36 H -1.831771 1.864570 -0.513710 0
M  V30 37 H -2.378598 2.710099 0.969007 0
M  V30 38 H -3.317154 0.527453 0.880648 0
M  V30 39 H -2.279133 0.823914 2.311981 0
M  V30 40 H -3.483533 -1.291671 2.575090 0
M  V30 41 H -2.396942 -5.499097 2.368861 0
M  V30 42 H -0.534093 -4.790652 0.758187 0
M  V30 END ATOM
M  V30 BEGIN BOND
M  V30 1 2 1 2
M  V30 2 1 2 3
M  V30 3 1 3 4
M  V30 4 1 4 5
M  V30 5 2 5 6
M  V30 6 1 6 7
M  V30 7 2 7 8
M  V30 8 1 8 9
M  V30 9 1 8 10
M  V30 10 2 10 11
M  V30 11 1 11 12
M  V30 12 2 12 13
M  V30 13 1 13 14
M  V30 14 1 14 15
M  V30 15 1 15 16
M  V30 16 1 16 17
M  V30 17 1 17 18
M  V30 18 1 18 19
M  V30 19 1 19 20
M  V30 20 2 20 21
M  V30 21 1 21 22
M  V30 22 1 22 23
M  V30 23 2 22 24
M  V30 24 1 24 25
M  V30 25 2 25 26
M  V30 26 1 26 2
M  V30 27 2 9 4
M  V30 28 1 14 10
M  V30 29 1 26 20
M  V30 30 1 3 27
M  V30 31 1 5 28
M  V30 32 1 6 29
M  V30 33 1 7 30
M  V30 34 1 13 31
M  V30 35 1 15 32
M  V30 36 1 15 33
M  V30 37 1 16 34
M  V30 38 1 16 35
M  V30 39 1 17 36
M  V30 40 1 17 37
M  V30 41 1 18 38
M  V30 42 1 18 39
M  V30 43 1 21 40
M  V30 44 1 24 41
M  V30 45 1 25 42
M  V30 END BOND
M  V30 END CTAB
M  END
>  <Dataset>  (735) 
ChEMBL_Kinases

>  <Ligand_Instance>  (735) 
nan

>  <PDB_ID>  (735) 
nan

>  <Standardized_SMILES>  (735) 
O=C1Nc2cccc(n2)-c2nncn2CCCCOc2cc(F)ccc21

>  <Name>  (735) 
nan

>  <Pocket>  (735) 
nan

>  <ATP_Site>  (735) 
nan

>  <Peripheral>  (735) 
nan

>  <Num_H_Atoms_ProtBoundConf>  (735) 
nan

>  <Num_Resolved_Atoms>  (735) 
nan

>  <Num_Not_Resolved_Atoms>  (735) 
nan

$$$$
CHEMBL459889
     RDKit          3D

  0  0  0  0  0  0  0  0  0  0999 V3000
M  V30 BEGIN CTAB
M  V30 COUNTS 46 50 0 0 0
M  V30 BEGIN ATOM
M  V30 1 O -3.440268 2.018459 2.560824 0
M  V30 2 C -3.663994 1.062345 1.741258 0
M  V30 3 O -4.732778 0.292144 2.232299 0
M  V30 4 C -3.217956 0.467858 0.472942 0
M  V30 5 C -2.072736 1.160079 -0.203288 0
M  V30 6 N -0.847807 1.215542 0.547423 0
M  V30 7 C -0.211371 2.056213 1.382482 0
M  V30 8 C -0.679155 3.303320 1.742339 0
M  V30 9 C 0.019618 4.130456 2.596471 0
M  V30 10 C 1.237239 3.640276 3.085571 0
M  V30 11 O 1.925614 4.467013 3.933847 0
M  V30 12 C 1.648827 2.388045 2.688103 0
M  V30 13 C 0.979773 1.551715 1.846686 0
M  V30 14 C 1.110680 0.322570 1.276714 0
M  V30 15 C 2.109150 -0.591637 1.405578 0
M  V30 16 C 2.027781 -1.783235 0.724504 0
M  V30 17 C 0.941705 -2.051805 -0.084571 0
M  V30 18 C 0.817785 -3.303777 -0.823781 0
M  V30 19 C 1.337428 -3.401676 -2.119011 0
M  V30 20 C 1.253279 -4.568459 -2.881183 0
M  V30 21 C 0.627364 -5.659848 -2.314902 0
M  V30 22 C 0.100896 -5.589015 -1.025958 0
M  V30 23 C 0.193166 -4.420478 -0.281329 0
M  V30 24 Cl -0.471188 -4.338062 1.339483 0
M  V30 25 C -0.043563 -1.093307 -0.181820 0
M  V30 26 C -0.006739 0.136512 0.492166 0
M  V30 27 C 3.177059 -2.664702 0.963511 0
M  V30 28 O 3.387304 -3.808150 0.487013 0
M  V30 29 N 3.992334 -1.905892 1.866149 0
M  V30 30 C 3.349488 -0.672005 2.124848 0
M  V30 31 O 3.929117 0.093240 2.886230 0
M  V30 32 H -5.228802 0.551621 3.065854 0
M  V30 33 H -3.008503 -0.615387 0.647468 0
M  V30 34 H -4.108629 0.440091 -0.226414 0
M  V30 35 H -1.888958 0.764406 -1.228274 0
M  V30 36 H -2.417040 2.233097 -0.335257 0
M  V30 37 H -1.630263 3.704456 1.368773 0
M  V30 38 H -0.356677 5.087059 2.861845 0
M  V30 39 H 2.489936 4.033217 4.652042 0
M  V30 40 H 2.582040 2.122254 3.119645 0
M  V30 41 H 1.820129 -2.513189 -2.517252 0
M  V30 42 H 1.658779 -4.622799 -3.873781 0
M  V30 43 H 0.554876 -6.582921 -2.904042 0
M  V30 44 H -0.380273 -6.447421 -0.606579 0
M  V30 45 H -0.880812 -1.329281 -0.820879 0
M  V30 46 H 4.904442 -2.325413 2.204151 0
M  V30 END ATOM
M  V30 BEGIN BOND
M  V30 1 2 1 2
M  V30 2 1 2 3
M  V30 3 1 2 4
M  V30 4 1 4 5
M  V30 5 1 5 6
M  V30 6 1 6 7
M  V30 7 2 7 8
M  V30 8 1 8 9
M  V30 9 2 9 10
M  V30 10 1 10 11
M  V30 11 1 10 12
M  V30 12 2 12 13
M  V30 13 1 13 14
M  V30 14 2 14 15
M  V30 15 1 15 16
M  V30 16 2 16 17
M  V30 17 1 17 18
M  V30 18 2 18 19
M  V30 19 1 19 20
M  V30 20 2 20 21
M  V30 21 1 21 22
M  V30 22 2 22 23
M  V30 23 1 23 24
M  V30 24 1 17 25
M  V30 25 2 25 26
M  V30 26 1 16 27
M  V30 27 2 27 28
M  V30 28 1 27 29
M  V30 29 1 29 30
M  V30 30 2 30 31
M  V30 31 1 26 6
M  V30 32 1 13 7
M  V30 33 1 26 14
M  V30 34 1 30 15
M  V30 35 1 23 18
M  V30 36 1 3 32
M  V30 37 1 4 33
M  V30 38 1 4 34
M  V30 39 1 5 35
M  V30 40 1 5 36
M  V30 41 1 8 37
M  V30 42 1 9 38
M  V30 43 1 11 39
M  V30 44 1 12 40
M  V30 45 1 19 41
M  V30 46 1 20 42
M  V30 47 1 21 43
M  V30 48 1 22 44
M  V30 49 1 25 45
M  V30 50 1 29 46
M  V30 END BOND
M  V30 END CTAB
M  END
>  <Dataset>  (736) 
ChEMBL_Kinases

>  <Ligand_Instance>  (736) 
nan

>  <PDB_ID>  (736) 
nan

>  <Standardized_SMILES>  (736) 
O=C(O)CCn1c2ccc(O)cc2c2c3c(c(-c4ccccc4Cl)cc21)C(=O)NC3=O

>  <Name>  (736) 
nan

>  <Pocket>  (736) 
nan

>  <ATP_Site>  (736) 
nan

>  <Peripheral>  (736) 
nan

>  <Num_H_Atoms_ProtBoundConf>  (736) 
nan

>  <Num_Resolved_Atoms>  (736) 
nan

>  <Num_Not_Resolved_Atoms>  (736) 
nan

$$$$
CHEMBL4590185
     RDKit          3D

  0  0  0  0  0  0  0  0  0  0999 V3000
M  V30 BEGIN CTAB
M  V30 COUNTS 60 66 0 0 0
M  V30 BEGIN ATOM
M  V30 1 C 5.211364 -2.817031 0.158061 0
M  V30 2 O 4.386231 -1.724148 -0.178868 0
M  V30 3 C 4.666088 -0.433463 0.262746 0
M  V30 4 C 5.778546 -0.229173 1.047396 0
M  V30 5 C 6.049611 1.049987 1.480249 0
M  V30 6 C 5.197600 2.085330 1.113765 0
M  V30 7 C 4.063505 1.950822 0.329795 0
M  V30 8 C 3.879954 0.643886 -0.050981 0
M  V30 9 C 3.448778 3.262840 0.189676 0 CFG=1
M  V30 10 C 2.698439 3.741042 -0.968020 0
M  V30 11 C 2.026959 3.586766 0.347949 0 CFG=1
M  V30 12 C 0.940685 2.630300 0.538522 0
M  V30 13 C 0.501244 1.622194 -0.291559 0
M  V30 14 C -0.530406 0.748255 -0.035919 0
M  V30 15 C -1.217668 0.852420 1.147300 0
M  V30 16 C -2.269303 0.199187 1.758797 0
M  V30 17 C -2.971671 -0.928376 1.148256 0
M  V30 18 C -3.396021 -0.992621 -0.165465 0
M  V30 19 C -4.052949 -2.111492 -0.640705 0
M  V30 20 C -4.314592 -3.212667 0.172207 0
M  V30 21 N -4.976776 -4.389176 -0.234934 0
M  V30 22 C -5.232488 -5.513748 0.646994 0
M  V30 23 C -4.371522 -6.662049 0.186138 0
M  V30 24 O -4.034019 -6.466825 -1.148705 0
M  V30 25 C -5.141854 -6.083935 -1.902877 0
M  V30 26 C -5.491638 -4.669299 -1.537140 0
M  V30 27 N -3.899218 -3.149065 1.457124 0
M  V30 28 C -3.251824 -2.045487 1.924023 0
M  V30 29 N -2.479852 0.802973 2.965223 0
M  V30 30 N -1.622976 1.790757 3.139286 0
M  V30 31 C -0.846176 1.834174 2.039690 0
M  V30 32 C 0.196220 2.679976 1.726621 0
M  V30 33 C 4.390843 4.169350 0.921301 0
M  V30 34 O 4.214880 5.433877 0.975281 0
M  V30 35 N 5.447974 3.428421 1.508551 0
M  V30 36 H 6.276192 -2.588010 -0.061498 0
M  V30 37 H 4.847083 -3.682254 -0.442465 0
M  V30 38 H 5.064146 -3.118999 1.225047 0
M  V30 39 H 6.408454 -1.067344 1.304104 0
M  V30 40 H 6.931392 1.134278 2.086861 0
M  V30 41 H 3.037509 0.388000 -0.674788 0
M  V30 42 H 2.952331 4.774463 -1.336823 0
M  V30 43 H 2.548390 3.017011 -1.795003 0
M  V30 44 H 1.835597 4.560732 0.901237 0
M  V30 45 H 1.054917 1.551770 -1.242018 0
M  V30 46 H -0.800585 -0.002735 -0.739241 0
M  V30 47 H -3.194842 -0.148662 -0.785702 0
M  V30 48 H -4.378534 -2.159818 -1.650064 0
M  V30 49 H -6.304810 -5.760468 0.721567 0
M  V30 50 H -4.808472 -5.216068 1.650957 0
M  V30 51 H -4.895667 -7.647912 0.321961 0
M  V30 52 H -3.410708 -6.740605 0.748811 0
M  V30 53 H -5.961852 -6.774224 -1.607049 0
M  V30 54 H -4.871948 -6.190111 -2.972065 0
M  V30 55 H -6.563860 -4.441714 -1.659696 0
M  V30 56 H -4.936473 -4.022892 -2.267949 0
M  V30 57 H -2.934770 -2.044067 2.976956 0
M  V30 58 H -1.583280 2.411170 3.995318 0
M  V30 59 H 0.470580 3.455053 2.459557 0
M  V30 60 H 6.177917 3.884441 2.077075 0
M  V30 END ATOM
M  V30 BEGIN BOND
M  V30 1 1 1 2
M  V30 2 1 2 3
M  V30 3 2 3 4
M  V30 4 1 4 5
M  V30 5 2 5 6
M  V30 6 1 6 7
M  V30 7 2 7 8
M  V30 8 1 7 9
M  V30 9 1 9 10 CFG=3
M  V30 10 1 10 11
M  V30 11 1 11 12
M  V30 12 2 12 13
M  V30 13 1 13 14
M  V30 14 2 14 15
M  V30 15 1 15 16
M  V30 16 1 16 17
M  V30 17 2 17 18
M  V30 18 1 18 19
M  V30 19 2 19 20
M  V30 20 1 20 21
M  V30 21 1 21 22
M  V30 22 1 22 23
M  V30 23 1 23 24
M  V30 24 1 24 25
M  V30 25 1 25 26
M  V30 26 1 20 27
M  V30 27 2 27 28
M  V30 28 2 16 29
M  V30 29 1 29 30
M  V30 30 1 30 31
M  V30 31 2 31 32
M  V30 32 1 9 33
M  V30 33 2 33 34
M  V30 34 1 33 35
M  V30 35 1 8 3
M  V30 36 1 11 9
M  V30 37 1 32 12
M  V30 38 1 35 6
M  V30 39 1 31 15
M  V30 40 1 28 17
M  V30 41 1 26 21
M  V30 42 1 1 36
M  V30 43 1 1 37
M  V30 44 1 1 38
M  V30 45 1 4 39
M  V30 46 1 5 40
M  V30 47 1 8 41
M  V30 48 1 10 42
M  V30 49 1 10 43
M  V30 50 1 11 44 CFG=1
M  V30 51 1 13 45
M  V30 52 1 14 46
M  V30 53 1 18 47
M  V30 54 1 19 48
M  V30 55 1 22 49
M  V30 56 1 22 50
M  V30 57 1 23 51
M  V30 58 1 23 52
M  V30 59 1 25 53
M  V30 60 1 25 54
M  V30 61 1 26 55
M  V30 62 1 26 56
M  V30 63 1 28 57
M  V30 64 1 30 58
M  V30 65 1 32 59
M  V30 66 1 35 60
M  V30 END BOND
M  V30 END CTAB
M  END
>  <Dataset>  (737) 
ChEMBL_Kinases

>  <Ligand_Instance>  (737) 
nan

>  <PDB_ID>  (737) 
nan

>  <Standardized_SMILES>  (737) 
COc1ccc2c(c1)[C@]1(C[C@H]1c1ccc3c(-c4ccc(N5CCOCC5)nc4)n[nH]c3c1)C(=O)N2

>  <Name>  (737) 
nan

>  <Pocket>  (737) 
nan

>  <ATP_Site>  (737) 
nan

>  <Peripheral>  (737) 
nan

>  <Num_H_Atoms_ProtBoundConf>  (737) 
nan

>  <Num_Resolved_Atoms>  (737) 
nan

>  <Num_Not_Resolved_Atoms>  (737) 
nan

$$$$
CHEMBL4590158
     RDKit          3D

  0  0  0  0  0  0  0  0  0  0999 V3000
M  V30 BEGIN CTAB
M  V30 COUNTS 55 59 0 0 0
M  V30 BEGIN ATOM
M  V30 1 O 2.116964 1.783950 0.541325 0
M  V30 2 C 1.835971 2.886694 1.070043 0
M  V30 3 C 3.053074 2.589060 1.897472 0
M  V30 4 C 3.620179 1.282741 1.474324 0
M  V30 5 C 4.576797 1.256328 0.468214 0
M  V30 6 C 5.081414 0.028005 0.100501 0
M  V30 7 C 4.706592 -1.175198 0.657623 0
M  V30 8 C 3.740582 -1.091738 1.666046 0
M  V30 9 N 3.299363 -2.308524 2.294572 0 CHG=1 VAL=4
M  V30 10 O 3.770249 -3.400988 1.944484 0
M  V30 11 O 2.344612 -2.183339 3.284613 0 CHG=-1 VAL=1
M  V30 12 C 3.196428 0.105525 2.079594 0
M  V30 13 N 1.035307 4.037576 1.190603 0
M  V30 14 C -0.025071 3.968365 0.240590 0
M  V30 15 C -1.236944 3.364480 0.582058 0
M  V30 16 C -2.233933 3.321059 -0.374218 0
M  V30 17 O -3.383085 2.680470 0.133334 0
M  V30 18 C -3.475393 1.306175 -0.018757 0
M  V30 19 C -4.025192 0.583833 -1.056368 0
M  V30 20 C -4.070017 -0.789413 -1.119018 0
M  V30 21 C -3.538568 -1.544704 -0.091960 0
M  V30 22 N -3.494185 -2.858108 0.013610 0
M  V30 23 C -3.046481 -3.507225 0.878503 0
M  V30 24 N -3.010047 -4.976116 0.967647 0
M  V30 25 C -1.901617 -5.715713 0.441400 0
M  V30 26 O -0.932677 -5.121395 -0.110371 0
M  V30 27 C -1.919197 -7.196952 0.560289 0
M  V30 28 C -1.020772 -7.991788 -0.290880 0
M  V30 29 C -0.597079 -7.754914 1.124387 0
M  V30 30 S -2.419324 -2.139049 2.054026 0
M  V30 31 C -2.990956 -0.805642 0.941594 0
M  V30 32 C -2.940709 0.565255 1.014751 0
M  V30 33 C -2.055693 3.853257 -1.633765 0
M  V30 34 C -0.847552 4.444102 -1.943246 0
M  V30 35 C 0.168379 4.505426 -1.015929 0
M  V30 36 F 1.330694 5.095647 -1.373726 0
M  V30 37 H 2.776738 2.512880 2.959057 0
M  V30 38 H 3.819819 3.383283 1.770707 0
M  V30 39 H 4.937008 2.151553 -0.032068 0
M  V30 40 H 5.837795 -0.012163 -0.692451 0
M  V30 41 H 5.109335 -2.130690 0.361046 0
M  V30 42 H 2.450357 0.168507 2.858369 0
M  V30 43 H 1.358229 4.701545 1.927633 0
M  V30 44 H -1.290142 2.975229 1.586119 0
M  V30 45 H -4.440436 1.215463 -1.859227 0
M  V30 46 H -4.541988 -1.178897 -2.013966 0
M  V30 47 H -3.781414 -5.509667 1.411071 0
M  V30 48 H -2.797787 -7.659866 1.053136 0
M  V30 49 H -1.242182 -9.036237 -0.564160 0
M  V30 50 H -0.432299 -7.444971 -1.058340 0
M  V30 51 H 0.235772 -7.065895 1.310153 0
M  V30 52 H -0.629427 -8.610871 1.808236 0
M  V30 53 H -2.462938 0.902871 1.920552 0
M  V30 54 H -2.916732 3.750121 -2.280340 0
M  V30 55 H -0.756743 4.849727 -2.951645 0
M  V30 END ATOM
M  V30 BEGIN BOND
M  V30 1 2 1 2
M  V30 2 1 2 3
M  V30 3 1 3 4
M  V30 4 2 4 5
M  V30 5 1 5 6
M  V30 6 2 6 7
M  V30 7 1 7 8
M  V30 8 1 8 9
M  V30 9 2 9 10
M  V30 10 1 9 11
M  V30 11 2 8 12
M  V30 12 1 2 13
M  V30 13 1 13 14
M  V30 14 2 14 15
M  V30 15 1 15 16
M  V30 16 1 16 17
M  V30 17 1 17 18
M  V30 18 2 18 19
M  V30 19 1 19 20
M  V30 20 2 20 21
M  V30 21 1 21 22
M  V30 22 2 22 23
M  V30 23 1 23 24
M  V30 24 1 24 25
M  V30 25 2 25 26
M  V30 26 1 25 27
M  V30 27 1 27 28
M  V30 28 1 28 29
M  V30 29 1 23 30
M  V30 30 1 30 31
M  V30 31 2 31 32
M  V30 32 2 16 33
M  V30 33 1 33 34
M  V30 34 2 34 35
M  V30 35 1 35 36
M  V30 36 1 12 4
M  V30 37 1 35 14
M  V30 38 1 32 18
M  V30 39 1 31 21
M  V30 40 1 29 27
M  V30 41 1 3 37
M  V30 42 1 3 38
M  V30 43 1 5 39
M  V30 44 1 6 40
M  V30 45 1 7 41
M  V30 46 1 12 42
M  V30 47 1 13 43
M  V30 48 1 15 44
M  V30 49 1 19 45
M  V30 50 1 20 46
M  V30 51 1 24 47
M  V30 52 1 27 48
M  V30 53 1 28 49
M  V30 54 1 28 50
M  V30 55 1 29 51
M  V30 56 1 29 52
M  V30 57 1 32 53
M  V30 58 1 33 54
M  V30 59 1 34 55
M  V30 END BOND
M  V30 END CTAB
M  END
>  <Dataset>  (738) 
ChEMBL_Kinases

>  <Ligand_Instance>  (738) 
nan

>  <PDB_ID>  (738) 
nan

>  <Standardized_SMILES>  (738) 
O=C(Cc1cccc([N+](=O)[O-])c1)Nc1cc(Oc2ccc3nc(NC(=O)C4CC4)sc3c2)ccc1F

>  <Name>  (738) 
nan

>  <Pocket>  (738) 
nan

>  <ATP_Site>  (738) 
nan

>  <Peripheral>  (738) 
nan

>  <Num_H_Atoms_ProtBoundConf>  (738) 
nan

>  <Num_Resolved_Atoms>  (738) 
nan

>  <Num_Not_Resolved_Atoms>  (738) 
nan

$$$$
CHEMBL4590146
     RDKit          3D

  0  0  0  0  0  0  0  0  0  0999 V3000
M  V30 BEGIN CTAB
M  V30 COUNTS 47 50 0 0 0
M  V30 BEGIN ATOM
M  V30 1 C 3.370917 -5.706630 -2.215163 0
M  V30 2 S 3.981719 -4.410918 -3.235036 0
M  V30 3 O 3.666700 -4.713744 -4.667232 0
M  V30 4 O 5.476929 -4.349588 -3.065479 0
M  V30 5 N 3.280743 -2.886656 -2.873486 0
M  V30 6 C 1.835949 -3.023098 -3.123818 0
M  V30 7 C 1.141496 -1.734537 -2.832459 0
M  V30 8 C 1.041169 -0.843943 -3.904305 0
M  V30 9 C 0.401489 0.368490 -3.673687 0
M  V30 10 C -0.136512 0.727677 -2.434964 0
M  V30 11 C 0.004488 -0.206871 -1.430532 0
M  V30 12 C -0.542776 0.118527 -0.099742 0
M  V30 13 C -0.592312 1.408021 0.401510 0
M  V30 14 C -1.113338 1.681794 1.651878 0
M  V30 15 C -1.579527 0.600050 2.369022 0
M  V30 16 C -2.146631 0.565006 3.627915 0
M  V30 17 N -2.424369 1.600097 4.571499 0
M  V30 18 C -1.288169 1.738612 5.413254 0
M  V30 19 O -0.132798 1.477739 5.837531 0
M  V30 20 C -1.069021 2.671387 6.549145 0
M  V30 21 C -2.155447 2.860312 7.571525 0
M  V30 22 C -1.718338 3.979574 6.652894 0
M  V30 23 N -2.449075 -0.712918 3.917522 0
M  V30 24 N -2.101927 -1.502787 2.901477 0
M  V30 25 C -1.568501 -0.716161 1.945822 0
M  V30 26 C -1.032588 -0.929261 0.680698 0
M  V30 27 C 0.622809 -1.433059 -1.567835 0
M  V30 28 H 4.163526 -6.479701 -2.133106 0
M  V30 29 H 3.225366 -5.347247 -1.159067 0
M  V30 30 H 2.425544 -6.167875 -2.608527 0
M  V30 31 H 3.454264 -2.572619 -1.907430 0
M  V30 32 H 1.500842 -3.747531 -2.346396 0
M  V30 33 H 1.639976 -3.427838 -4.113101 0
M  V30 34 H 1.447721 -1.095261 -4.871211 0
M  V30 35 H 0.302142 1.092946 -4.485190 0
M  V30 36 H -0.622924 1.676790 -2.301862 0
M  V30 37 H -0.206576 2.204411 -0.221914 0
M  V30 38 H -1.155369 2.685594 2.049870 0
M  V30 39 H -3.190817 2.264628 4.816707 0
M  V30 40 H -0.066990 2.524925 7.005767 0
M  V30 41 H -1.901822 3.014356 8.634092 0
M  V30 42 H -3.143867 2.386152 7.406658 0
M  V30 43 H -2.425197 4.267209 5.858259 0
M  V30 44 H -1.112980 4.814660 7.112734 0
M  V30 45 H -2.216327 -2.533931 2.844381 0
M  V30 46 H -1.027041 -1.977088 0.350965 0
M  V30 47 H 0.727536 -2.153966 -0.777986 0
M  V30 END ATOM
M  V30 BEGIN BOND
M  V30 1 1 1 2
M  V30 2 2 2 3
M  V30 3 2 2 4
M  V30 4 1 2 5
M  V30 5 1 5 6
M  V30 6 1 6 7
M  V30 7 2 7 8
M  V30 8 1 8 9
M  V30 9 2 9 10
M  V30 10 1 10 11
M  V30 11 1 11 12
M  V30 12 2 12 13
M  V30 13 1 13 14
M  V30 14 2 14 15
M  V30 15 1 15 16
M  V30 16 1 16 17
M  V30 17 1 17 18
M  V30 18 2 18 19
M  V30 19 1 18 20
M  V30 20 1 20 21
M  V30 21 1 21 22
M  V30 22 2 16 23
M  V30 23 1 23 24
M  V30 24 1 24 25
M  V30 25 2 25 26
M  V30 26 2 11 27
M  V30 27 1 27 7
M  V30 28 1 26 12
M  V30 29 1 25 15
M  V30 30 1 22 20
M  V30 31 1 1 28
M  V30 32 1 1 29
M  V30 33 1 1 30
M  V30 34 1 5 31
M  V30 35 1 6 32
M  V30 36 1 6 33
M  V30 37 1 8 34
M  V30 38 1 9 35
M  V30 39 1 10 36
M  V30 40 1 13 37
M  V30 41 1 14 38
M  V30 42 1 17 39
M  V30 43 1 20 40
M  V30 44 1 21 41
M  V30 45 1 21 42
M  V30 46 1 22 43
M  V30 47 1 22 44
M  V30 48 1 24 45
M  V30 49 1 26 46
M  V30 50 1 27 47
M  V30 END BOND
M  V30 END CTAB
M  END
>  <Dataset>  (739) 
ChEMBL_Kinases

>  <Ligand_Instance>  (739) 
nan

>  <PDB_ID>  (739) 
nan

>  <Standardized_SMILES>  (739) 
CS(=O)(=O)NCc1cccc(-c2ccc3c(NC(=O)C4CC4)n[nH]c3c2)c1

>  <Name>  (739) 
nan

>  <Pocket>  (739) 
nan

>  <ATP_Site>  (739) 
nan

>  <Peripheral>  (739) 
nan

>  <Num_H_Atoms_ProtBoundConf>  (739) 
nan

>  <Num_Resolved_Atoms>  (739) 
nan

>  <Num_Not_Resolved_Atoms>  (739) 
nan

$$$$
CHEMBL4590109
     RDKit          3D

  0  0  0  0  0  0  0  0  0  0999 V3000
M  V30 BEGIN CTAB
M  V30 COUNTS 49 53 0 0 0
M  V30 BEGIN ATOM
M  V30 1 O 0.906068 0.152782 2.949736 0
M  V30 2 N 1.938072 -0.539334 2.799667 0 CHG=1 VAL=4
M  V30 3 O 1.326686 -1.587507 3.444594 0 CHG=-1 VAL=1
M  V30 4 C 3.252947 -0.493002 2.295681 0
M  V30 5 C 4.137775 -1.224234 3.050712 0
M  V30 6 C 5.479572 -1.195927 2.689998 0
M  V30 7 C 5.851382 -0.449842 1.613072 0
M  V30 8 C 4.897902 0.268299 0.890117 0
M  V30 9 C 3.536063 0.274325 1.207274 0
M  V30 10 S 2.467392 1.128051 0.155174 0
M  V30 11 O 3.258015 2.095371 -0.694308 0
M  V30 12 O 1.574405 2.019783 1.020155 0
M  V30 13 N 1.545118 0.159762 -0.885013 0
M  V30 14 C 0.639844 -0.767934 -0.313416 0
M  V30 15 C -0.513861 -1.021579 -1.319523 0
M  V30 16 C -1.320365 0.212358 -1.263415 0
M  V30 17 C -0.417816 1.255600 -1.733230 0
M  V30 18 S -1.332871 2.698094 -1.744790 0
M  V30 19 C -2.897767 1.976021 -1.137326 0
M  V30 20 N -4.173088 2.437704 -0.820440 0
M  V30 21 C -5.087951 1.598026 -0.354081 0
M  V30 22 N -4.744197 0.310881 -0.200104 0
M  V30 23 C -3.537071 -0.209495 -0.482943 0
M  V30 24 N -3.577062 -1.574421 -0.127789 0
M  V30 25 C -2.970521 -2.349591 0.930615 0
M  V30 26 C -2.174444 -3.484543 0.900499 0
M  V30 27 C -1.645926 -4.042625 2.017432 0
M  V30 28 C -1.874526 -3.502194 3.267535 0
M  V30 29 F -1.292167 -4.148922 4.288997 0
M  V30 30 C -2.671564 -2.357276 3.345406 0
M  V30 31 C -3.201334 -1.804157 2.194733 0
M  V30 32 Br -4.239002 -0.247150 2.647475 0
M  V30 33 C -2.573363 0.613354 -0.965843 0
M  V30 34 C 1.005921 0.865240 -2.022265 0
M  V30 35 H 3.869605 -1.819794 3.898732 0
M  V30 36 H 6.220631 -1.742847 3.240665 0
M  V30 37 H 6.882898 -0.403603 1.307279 0
M  V30 38 H 5.259084 0.851815 0.027841 0
M  V30 39 H 0.103880 -0.359835 0.567874 0
M  V30 40 H 1.137074 -1.739095 -0.136949 0
M  V30 41 H -0.072699 -1.177648 -2.342043 0
M  V30 42 H -0.988197 -1.943927 -1.064375 0
M  V30 43 H -6.015695 2.113775 -0.169191 0
M  V30 44 H -4.135633 -2.293749 -0.662094 0
M  V30 45 H -2.068031 -3.832149 -0.141319 0
M  V30 46 H -1.051679 -4.925245 1.800300 0
M  V30 47 H -2.772104 -2.035542 4.366879 0
M  V30 48 H 1.514382 1.847262 -2.160137 0
M  V30 49 H 1.137124 0.287214 -2.932244 0
M  V30 END ATOM
M  V30 BEGIN BOND
M  V30 1 2 1 2
M  V30 2 1 2 3
M  V30 3 1 2 4
M  V30 4 2 4 5
M  V30 5 1 5 6
M  V30 6 2 6 7
M  V30 7 1 7 8
M  V30 8 2 8 9
M  V30 9 1 9 10
M  V30 10 2 10 11
M  V30 11 2 10 12
M  V30 12 1 10 13
M  V30 13 1 13 14
M  V30 14 1 14 15
M  V30 15 1 15 16
M  V30 16 2 16 17
M  V30 17 1 17 18
M  V30 18 1 18 19
M  V30 19 2 19 20
M  V30 20 1 20 21
M  V30 21 2 21 22
M  V30 22 1 22 23
M  V30 23 1 23 24
M  V30 24 1 24 25
M  V30 25 2 25 26
M  V30 26 1 26 27
M  V30 27 2 27 28
M  V30 28 1 28 29
M  V30 29 1 28 30
M  V30 30 2 30 31
M  V30 31 1 31 32
M  V30 32 2 23 33
M  V30 33 1 17 34
M  V30 34 1 9 4
M  V30 35 1 34 13
M  V30 36 1 33 16
M  V30 37 1 33 19
M  V30 38 1 31 25
M  V30 39 1 5 35
M  V30 40 1 6 36
M  V30 41 1 7 37
M  V30 42 1 8 38
M  V30 43 1 14 39
M  V30 44 1 14 40
M  V30 45 1 15 41
M  V30 46 1 15 42
M  V30 47 1 21 43
M  V30 48 1 24 44
M  V30 49 1 26 45
M  V30 50 1 27 46
M  V30 51 1 30 47
M  V30 52 1 34 48
M  V30 53 1 34 49
M  V30 END BOND
M  V30 END CTAB
M  END
>  <Dataset>  (740) 
ChEMBL_Kinases

>  <Ligand_Instance>  (740) 
nan

>  <PDB_ID>  (740) 
nan

>  <Standardized_SMILES>  (740) 
O=[N+]([O-])c1ccccc1S(=O)(=O)N1CCc2c(sc3ncnc(Nc4ccc(F)cc4Br)c23)C1

>  <Name>  (740) 
nan

>  <Pocket>  (740) 
nan

>  <ATP_Site>  (740) 
nan

>  <Peripheral>  (740) 
nan

>  <Num_H_Atoms_ProtBoundConf>  (740) 
nan

>  <Num_Resolved_Atoms>  (740) 
nan

>  <Num_Not_Resolved_Atoms>  (740) 
nan

$$$$
CHEMBL460071
     RDKit          3D

  0  0  0  0  0  0  0  0  0  0999 V3000
M  V30 BEGIN CTAB
M  V30 COUNTS 54 56 0 0 0
M  V30 BEGIN ATOM
M  V30 1 C 1.731002 -4.859945 7.006770 0
M  V30 2 C 2.460003 -4.201417 5.888365 0
M  V30 3 C 3.771500 -4.277297 5.503915 0
M  V30 4 C 4.207197 -3.560739 4.413439 0
M  V30 5 C 3.404802 -2.742931 3.646607 0
M  V30 6 C 3.909397 -1.999612 2.500284 0
M  V30 7 O 5.100262 -2.051714 2.174350 0
M  V30 8 O 3.018976 -1.227903 1.776929 0
M  V30 9 C 3.371869 -0.452624 0.637668 0
M  V30 10 C 2.070577 0.191766 0.187492 0
M  V30 11 C 1.533419 1.154695 1.219010 0
M  V30 12 O 1.202863 0.568707 2.423457 0
M  V30 13 C 2.233286 0.964419 -1.111253 0
M  V30 14 C 0.799912 0.927875 -1.590536 0
M  V30 15 C 0.005367 1.852408 -2.160100 0
M  V30 16 C -1.370379 1.486831 -2.507990 0
M  V30 17 C -2.031767 1.738702 -3.691863 0
M  V30 18 C -3.342579 1.337694 -3.832866 0
M  V30 19 C -4.071048 0.686324 -2.861933 0
M  V30 20 N -5.414731 0.274126 -3.019856 0
M  V30 21 C -6.146792 -0.406904 -1.974010 0
M  V30 22 C -6.155911 0.504126 -4.250052 0
M  V30 23 C -3.415387 0.432367 -1.676741 0
M  V30 24 C -2.083446 0.825986 -1.498299 0
M  V30 25 C 0.467446 -0.485531 -1.295075 0
M  V30 26 O -0.307939 -1.169445 -2.062730 0
M  V30 27 O 1.131641 -0.820252 -0.125261 0
M  V30 28 C 2.082330 -2.677711 4.049905 0
M  V30 29 C 1.601471 -3.384696 5.145121 0
M  V30 30 H 1.515681 -4.190955 7.846138 0
M  V30 31 H 0.768766 -5.290522 6.597739 0
M  V30 32 H 2.277784 -5.752911 7.401355 0
M  V30 33 H 4.346527 -4.920985 6.125754 0
M  V30 34 H 5.255758 -3.663568 4.157423 0
M  V30 35 H 4.044401 0.405647 0.906281 0
M  V30 36 H 3.860350 -1.015691 -0.151711 0
M  V30 37 H 2.341129 1.897976 1.395251 0
M  V30 38 H 0.682247 1.692803 0.743811 0
M  V30 39 H 1.985410 0.589361 3.038934 0
M  V30 40 H 2.920740 0.460931 -1.799501 0
M  V30 41 H 2.534385 1.989637 -0.854813 0
M  V30 42 H 0.478563 2.809365 -2.311228 0
M  V30 43 H -1.452857 2.249224 -4.444442 0
M  V30 44 H -3.798566 1.562097 -4.773238 0
M  V30 45 H -5.515731 -1.153261 -1.414479 0
M  V30 46 H -6.983988 -1.017793 -2.377571 0
M  V30 47 H -6.496641 0.333450 -1.237951 0
M  V30 48 H -5.479476 0.472283 -5.144962 0
M  V30 49 H -6.726164 1.456633 -4.186185 0
M  V30 50 H -6.884436 -0.335477 -4.442559 0
M  V30 51 H -3.895836 -0.081806 -0.827819 0
M  V30 52 H -1.628388 0.600185 -0.519811 0
M  V30 53 H 1.444690 -2.024723 3.437033 0
M  V30 54 H 0.533266 -3.222658 5.330505 0
M  V30 END ATOM
M  V30 BEGIN BOND
M  V30 1 1 1 2
M  V30 2 2 2 3
M  V30 3 1 3 4
M  V30 4 2 4 5
M  V30 5 1 5 6
M  V30 6 2 6 7
M  V30 7 1 6 8
M  V30 8 1 8 9
M  V30 9 1 9 10
M  V30 10 1 10 11
M  V30 11 1 11 12
M  V30 12 1 10 13
M  V30 13 1 13 14
M  V30 14 2 14 15
M  V30 15 1 15 16
M  V30 16 2 16 17
M  V30 17 1 17 18
M  V30 18 2 18 19
M  V30 19 1 19 20
M  V30 20 1 20 21
M  V30 21 1 20 22
M  V30 22 1 19 23
M  V30 23 2 23 24
M  V30 24 1 14 25
M  V30 25 2 25 26
M  V30 26 1 25 27
M  V30 27 1 5 28
M  V30 28 2 28 29
M  V30 29 1 29 2
M  V30 30 1 27 10
M  V30 31 1 24 16
M  V30 32 1 1 30
M  V30 33 1 1 31
M  V30 34 1 1 32
M  V30 35 1 3 33
M  V30 36 1 4 34
M  V30 37 1 9 35
M  V30 38 1 9 36
M  V30 39 1 11 37
M  V30 40 1 11 38
M  V30 41 1 12 39
M  V30 42 1 13 40
M  V30 43 1 13 41
M  V30 44 1 15 42
M  V30 45 1 17 43
M  V30 46 1 18 44
M  V30 47 1 21 45
M  V30 48 1 21 46
M  V30 49 1 21 47
M  V30 50 1 22 48
M  V30 51 1 22 49
M  V30 52 1 22 50
M  V30 53 1 23 51
M  V30 54 1 24 52
M  V30 55 1 28 53
M  V30 56 1 29 54
M  V30 END BOND
M  V30 END CTAB
M  END
>  <Dataset>  (741) 
ChEMBL_Kinases

>  <Ligand_Instance>  (741) 
nan

>  <PDB_ID>  (741) 
nan

>  <Standardized_SMILES>  (741) 
Cc1ccc(C(=O)OCC2(CO)C/C(=C/c3ccc(N(C)C)cc3)C(=O)O2)cc1

>  <Name>  (741) 
nan

>  <Pocket>  (741) 
nan

>  <ATP_Site>  (741) 
nan

>  <Peripheral>  (741) 
nan

>  <Num_H_Atoms_ProtBoundConf>  (741) 
nan

>  <Num_Resolved_Atoms>  (741) 
nan

>  <Num_Not_Resolved_Atoms>  (741) 
nan

$$$$
CHEMBL460079
     RDKit          3D

  0  0  0  0  0  0  0  0  0  0999 V3000
M  V30 BEGIN CTAB
M  V30 COUNTS 58 63 0 0 0
M  V30 BEGIN ATOM
M  V30 1 O 2.818546 1.614956 4.266730 0
M  V30 2 C 1.784130 0.904285 4.193036 0
M  V30 3 N 0.697461 0.791658 5.118956 0
M  V30 4 C -0.240999 -0.133851 4.607742 0
M  V30 5 O -1.234082 -0.340139 5.290300 0
M  V30 6 C 0.205755 -0.646635 3.342227 0
M  V30 7 C 1.407254 -0.024317 3.106302 0
M  V30 8 C 2.138391 -0.278843 1.960464 0
M  V30 9 C 3.416790 0.367411 1.684284 0
M  V30 10 C 3.256755 1.549601 0.984116 0
M  V30 11 C 4.336852 2.327259 0.616038 0
M  V30 12 C 5.611272 1.882067 0.974455 0
M  V30 13 C 5.782045 0.697670 1.676745 0
M  V30 14 C 4.682194 -0.064942 2.034529 0
M  V30 15 Cl 4.731949 -1.573518 2.915951 0
M  V30 16 C 1.625599 -1.180114 1.054996 0
M  V30 17 C 0.404222 -1.834738 1.259988 0
M  V30 18 C -0.266250 -1.530455 2.422953 0
M  V30 19 C -1.410442 -2.264097 2.424823 0
M  V30 20 C -2.505807 -2.478077 3.204565 0
M  V30 21 C -3.548529 -3.329091 2.922677 0
M  V30 22 O -4.648785 -3.528047 3.731092 0
M  V30 23 C -3.502737 -4.055538 1.726671 0
M  V30 24 C -2.409961 -3.867422 0.908591 0
M  V30 25 C -1.394581 -2.990824 1.258561 0
M  V30 26 N -0.295146 -2.749690 0.522289 0
M  V30 27 C 0.230227 -3.202233 -0.745194 0
M  V30 28 C -0.194070 -2.325289 -1.915797 0
M  V30 29 C -1.675149 -2.285364 -2.065087 0
M  V30 30 N -2.176368 -1.483166 -3.136216 0
M  V30 31 C -2.118619 -0.080887 -3.319119 0
M  V30 32 C -2.647245 0.529699 -4.462747 0
M  V30 33 C -2.588227 1.897128 -4.612471 0
M  V30 34 C -2.016779 2.715601 -3.661887 0
M  V30 35 C -1.484720 2.153114 -2.520574 0
M  V30 36 C -1.560261 0.782701 -2.402045 0
M  V30 37 H 0.728849 1.365016 5.994506 0
M  V30 38 H 2.312013 1.983219 0.658160 0
M  V30 39 H 4.288299 3.252387 0.074098 0
M  V30 40 H 6.492276 2.446140 0.715083 0
M  V30 41 H 6.745450 0.311455 1.976585 0
M  V30 42 H 2.206614 -1.371764 0.161235 0
M  V30 43 H -2.641149 -1.979376 4.131858 0
M  V30 44 H -5.529266 -3.044291 3.634487 0
M  V30 45 H -4.292999 -4.738856 1.452475 0
M  V30 46 H -2.407250 -4.444856 -0.003731 0
M  V30 47 H 1.326374 -3.298538 -0.700787 0
M  V30 48 H -0.145219 -4.245166 -0.909107 0
M  V30 49 H 0.204726 -2.886102 -2.820156 0
M  V30 50 H 0.334253 -1.375589 -1.936843 0
M  V30 51 H -2.049535 -3.323561 -2.080126 0
M  V30 52 H -2.110120 -1.835665 -1.120120 0
M  V30 53 H -2.664169 -2.030567 -3.907351 0
M  V30 54 H -3.095439 -0.089948 -5.212606 0
M  V30 55 H -3.019944 2.313063 -5.530469 0
M  V30 56 H -1.979981 3.788147 -3.797956 0
M  V30 57 H -1.038280 2.790067 -1.777469 0
M  V30 58 H -1.131581 0.411056 -1.482442 0
M  V30 END ATOM
M  V30 BEGIN BOND
M  V30 1 2 1 2
M  V30 2 1 2 3
M  V30 3 1 3 4
M  V30 4 2 4 5
M  V30 5 1 4 6
M  V30 6 2 6 7
M  V30 7 1 7 8
M  V30 8 1 8 9
M  V30 9 2 9 10
M  V30 10 1 10 11
M  V30 11 2 11 12
M  V30 12 1 12 13
M  V30 13 2 13 14
M  V30 14 1 14 15
M  V30 15 2 8 16
M  V30 16 1 16 17
M  V30 17 2 17 18
M  V30 18 1 18 19
M  V30 19 2 19 20
M  V30 20 1 20 21
M  V30 21 1 21 22
M  V30 22 2 21 23
M  V30 23 1 23 24
M  V30 24 2 24 25
M  V30 25 1 25 26
M  V30 26 1 26 27
M  V30 27 1 27 28
M  V30 28 1 28 29
M  V30 29 1 29 30
M  V30 30 1 30 31
M  V30 31 2 31 32
M  V30 32 1 32 33
M  V30 33 2 33 34
M  V30 34 1 34 35
M  V30 35 2 35 36
M  V30 36 1 7 2
M  V30 37 1 14 9
M  V30 38 1 26 17
M  V30 39 1 36 31
M  V30 40 1 18 6
M  V30 41 1 25 19
M  V30 42 1 3 37
M  V30 43 1 10 38
M  V30 44 1 11 39
M  V30 45 1 12 40
M  V30 46 1 13 41
M  V30 47 1 16 42
M  V30 48 1 20 43
M  V30 49 1 22 44
M  V30 50 1 23 45
M  V30 51 1 24 46
M  V30 52 1 27 47
M  V30 53 1 27 48
M  V30 54 1 28 49
M  V30 55 1 28 50
M  V30 56 1 29 51
M  V30 57 1 29 52
M  V30 58 1 30 53
M  V30 59 1 32 54
M  V30 60 1 33 55
M  V30 61 1 34 56
M  V30 62 1 35 57
M  V30 63 1 36 58
M  V30 END BOND
M  V30 END CTAB
M  END
>  <Dataset>  (742) 
ChEMBL_Kinases

>  <Ligand_Instance>  (742) 
nan

>  <PDB_ID>  (742) 
nan

>  <Standardized_SMILES>  (742) 
O=C1NC(=O)c2c1c(-c1ccccc1Cl)cc1c2c2cc(O)ccc2n1CCCNc1ccccc1

>  <Name>  (742) 
nan

>  <Pocket>  (742) 
nan

>  <ATP_Site>  (742) 
nan

>  <Peripheral>  (742) 
nan

>  <Num_H_Atoms_ProtBoundConf>  (742) 
nan

>  <Num_Resolved_Atoms>  (742) 
nan

>  <Num_Not_Resolved_Atoms>  (742) 
nan

$$$$
CHEMBL460091
     RDKit          3D

  0  0  0  0  0  0  0  0  0  0999 V3000
M  V30 BEGIN CTAB
M  V30 COUNTS 51 55 0 0 0
M  V30 BEGIN ATOM
M  V30 1 O 0.261618 -0.292909 3.892749 0
M  V30 2 C 1.060597 0.393929 3.200191 0
M  V30 3 N 2.105400 1.036706 3.757787 0
M  V30 4 C 2.930693 1.760512 2.960213 0
M  V30 5 C 4.070578 2.454442 3.610664 0
M  V30 6 C 5.288407 1.625039 3.670485 0
M  V30 7 C 6.164151 1.704001 2.616111 0
M  V30 8 C 7.324584 0.947234 2.618613 0
M  V30 9 C 7.568695 0.118701 3.706707 0
M  V30 10 C 6.706830 0.008164 4.797708 0
M  V30 11 C 5.567452 0.789737 4.732634 0
M  V30 12 N 2.747260 1.863784 1.624022 0
M  V30 13 C 1.716458 1.243152 0.996366 0
M  V30 14 N 1.274868 1.151880 -0.272938 0
M  V30 15 C 0.179250 0.370323 -0.241609 0
M  V30 16 C -0.591087 0.033333 -1.437404 0
M  V30 17 C -0.183641 0.535664 -2.662043 0
M  V30 18 C -0.956960 0.176735 -3.744299 0
M  V30 19 N -2.043647 -0.609224 -3.651531 0
M  V30 20 C -2.473765 -1.117890 -2.482615 0
M  V30 21 C -3.654061 -1.968266 -2.400723 0
M  V30 22 C -4.149887 -2.509501 -1.311796 0
M  V30 23 C -5.331282 -3.359661 -1.235600 0
M  V30 24 C -5.766949 -3.877692 -0.035470 0
M  V30 25 C -6.882234 -4.683817 0.056855 0
M  V30 26 C -7.615455 -5.009444 -1.053449 0
M  V30 27 C -7.207466 -4.506653 -2.278596 0
M  V30 28 C -6.084753 -3.703011 -2.326538 0
M  V30 29 C -1.710453 -0.768207 -1.388005 0
M  V30 30 C -0.103993 -0.054553 1.043190 0
M  V30 31 C 0.881428 0.505441 1.834093 0
M  V30 32 H 2.248945 0.959910 4.780375 0
M  V30 33 H 4.256948 3.394206 3.020532 0
M  V30 34 H 3.784801 2.772970 4.628114 0
M  V30 35 H 5.974015 2.349860 1.767766 0
M  V30 36 H 8.062093 0.952551 1.830073 0
M  V30 37 H 8.470248 -0.502959 3.763434 0
M  V30 38 H 6.928029 -0.644746 5.624672 0
M  V30 39 H 4.856173 0.739799 5.565933 0
M  V30 40 H 1.748619 1.626389 -1.068903 0
M  V30 41 H 0.681168 1.171205 -2.793510 0
M  V30 42 H -0.715650 0.521047 -4.737790 0
M  V30 43 H -4.177540 -2.178069 -3.323520 0
M  V30 44 H -3.621292 -2.295380 -0.392995 0
M  V30 45 H -5.194068 -3.628078 0.859565 0
M  V30 46 H -7.129720 -5.034141 1.059838 0
M  V30 47 H -8.481577 -5.649197 -0.903108 0
M  V30 48 H -7.799992 -4.775371 -3.143895 0
M  V30 49 H -5.833615 -3.355525 -3.298438 0
M  V30 50 H -1.965962 -1.118331 -0.418824 0
M  V30 51 H -0.936554 -0.690794 1.309571 0
M  V30 END ATOM
M  V30 BEGIN BOND
M  V30 1 2 1 2
M  V30 2 1 2 3
M  V30 3 1 3 4
M  V30 4 1 4 5
M  V30 5 1 5 6
M  V30 6 2 6 7
M  V30 7 1 7 8
M  V30 8 2 8 9
M  V30 9 1 9 10
M  V30 10 2 10 11
M  V30 11 2 4 12
M  V30 12 1 12 13
M  V30 13 1 13 14
M  V30 14 1 14 15
M  V30 15 1 15 16
M  V30 16 2 16 17
M  V30 17 1 17 18
M  V30 18 2 18 19
M  V30 19 1 19 20
M  V30 20 1 20 21
M  V30 21 2 21 22
M  V30 22 1 22 23
M  V30 23 2 23 24
M  V30 24 1 24 25
M  V30 25 2 25 26
M  V30 26 1 26 27
M  V30 27 2 27 28
M  V30 28 2 20 29
M  V30 29 2 15 30
M  V30 30 1 30 31
M  V30 31 1 31 2
M  V30 32 1 11 6
M  V30 33 2 31 13
M  V30 34 1 29 16
M  V30 35 1 28 23
M  V30 36 1 3 32
M  V30 37 1 5 33
M  V30 38 1 5 34
M  V30 39 1 7 35
M  V30 40 1 8 36
M  V30 41 1 9 37
M  V30 42 1 10 38
M  V30 43 1 11 39
M  V30 44 1 14 40
M  V30 45 1 17 41
M  V30 46 1 18 42
M  V30 47 1 21 43
M  V30 48 1 22 44
M  V30 49 1 24 45
M  V30 50 1 25 46
M  V30 51 1 26 47
M  V30 52 1 27 48
M  V30 53 1 28 49
M  V30 54 1 29 50
M  V30 55 1 30 51
M  V30 END BOND
M  V30 END CTAB
M  END
>  <Dataset>  (743) 
ChEMBL_Kinases

>  <Ligand_Instance>  (743) 
nan

>  <PDB_ID>  (743) 
nan

>  <Standardized_SMILES>  (743) 
O=c1[nH]c(Cc2ccccc2)nc2[nH]c(-c3ccnc(/C=C/c4ccccc4)c3)cc12

>  <Name>  (743) 
nan

>  <Pocket>  (743) 
nan

>  <ATP_Site>  (743) 
nan

>  <Peripheral>  (743) 
nan

>  <Num_H_Atoms_ProtBoundConf>  (743) 
nan

>  <Num_Resolved_Atoms>  (743) 
nan

>  <Num_Not_Resolved_Atoms>  (743) 
nan

$$$$
CHEMBL460422
     RDKit          3D

  0  0  0  0  0  0  0  0  0  0999 V3000
M  V30 BEGIN CTAB
M  V30 COUNTS 60 63 0 0 0
M  V30 BEGIN ATOM
M  V30 1 C 1.692548 1.181145 3.943768 0
M  V30 2 C 1.509819 -0.167080 3.284939 0
M  V30 3 C 2.599767 -0.454250 2.255762 0
M  V30 4 C 2.360295 -1.788760 1.650071 0
M  V30 5 C 1.049902 -1.986033 0.957116 0
M  V30 6 S 0.671714 -0.942058 -0.414183 0
M  V30 7 C 0.390934 0.764102 -0.085987 0
M  V30 8 N 1.161411 1.863003 -0.041344 0
M  V30 9 C 0.729412 3.099240 0.234194 0
M  V30 10 C 1.703148 4.075896 0.223466 0
M  V30 11 C 1.243540 5.367062 0.512231 0
M  V30 12 C -0.080145 5.644397 0.786614 0
M  V30 13 C -0.991235 4.599364 0.775533 0
M  V30 14 C -0.608421 3.304033 0.499447 0
M  V30 15 C -1.451660 2.210209 0.468262 0
M  V30 16 O -2.633975 2.484963 0.717982 0
M  V30 17 N -0.933618 0.977699 0.178399 0
M  V30 18 C -2.004173 0.005913 0.205537 0
M  V30 19 C -2.751544 -0.239955 -0.952235 0
M  V30 20 C -3.754555 -1.155212 -0.908968 0
M  V30 21 C -4.087433 -1.873596 0.237062 0
M  V30 22 C -3.340817 -1.620043 1.372910 0
M  V30 23 C -2.318149 -0.694884 1.350751 0
M  V30 24 C 1.102601 -3.407099 0.431057 0
M  V30 25 O 2.100303 -4.167385 0.603005 0
M  V30 26 N 0.157979 -4.165777 -0.304267 0
M  V30 27 C 0.602136 -5.495270 -0.611321 0
M  V30 28 C 1.167012 -5.508853 -2.006111 0
M  V30 29 S 0.239140 -4.405634 -3.012902 0
M  V30 30 O 1.098485 -3.218674 -3.340768 0
M  V30 31 O -0.063654 -5.066287 -4.351064 0
M  V30 32 C -1.286385 -3.890802 -2.266475 0
M  V30 33 C -1.158294 -3.766988 -0.765572 0
M  V30 34 H 1.265230 1.954912 3.300211 0
M  V30 35 H 1.112069 1.163099 4.881782 0
M  V30 36 H 2.764814 1.382477 4.149218 0
M  V30 37 H 1.502529 -0.954591 4.040678 0
M  V30 38 H 0.561166 -0.171778 2.749218 0
M  V30 39 H 3.538318 -0.515490 2.880081 0
M  V30 40 H 2.743585 0.356658 1.548521 0
M  V30 41 H 2.394178 -2.588747 2.451519 0
M  V30 42 H 3.195783 -2.044531 0.941900 0
M  V30 43 H 0.259891 -1.941022 1.767605 0
M  V30 44 H 2.739748 3.856902 0.007981 0
M  V30 45 H 1.945466 6.192121 0.524661 0
M  V30 46 H -0.430183 6.635585 1.007390 0
M  V30 47 H -2.054262 4.731517 0.981858 0
M  V30 48 H -2.528713 0.294486 -1.865125 0
M  V30 49 H -4.383717 -1.406284 -1.761119 0
M  V30 50 H -4.884526 -2.604086 0.280826 0
M  V30 51 H -3.546883 -2.148049 2.307778 0
M  V30 52 H -1.765035 -0.536210 2.267466 0
M  V30 53 H -0.296003 -6.155694 -0.639923 0
M  V30 54 H 1.311222 -5.902064 0.136113 0
M  V30 55 H 1.108119 -6.544181 -2.435731 0
M  V30 56 H 2.212764 -5.196783 -1.964497 0
M  V30 57 H -1.627425 -2.970686 -2.751754 0
M  V30 58 H -2.042794 -4.677085 -2.468247 0
M  V30 59 H -1.901537 -4.388938 -0.227390 0
M  V30 60 H -1.353216 -2.728892 -0.473061 0
M  V30 END ATOM
M  V30 BEGIN BOND
M  V30 1 1 1 2
M  V30 2 1 2 3
M  V30 3 1 3 4
M  V30 4 1 4 5
M  V30 5 1 5 6
M  V30 6 1 6 7
M  V30 7 2 7 8
M  V30 8 1 8 9
M  V30 9 2 9 10
M  V30 10 1 10 11
M  V30 11 2 11 12
M  V30 12 1 12 13
M  V30 13 2 13 14
M  V30 14 1 14 15
M  V30 15 2 15 16
M  V30 16 1 15 17
M  V30 17 1 17 18
M  V30 18 2 18 19
M  V30 19 1 19 20
M  V30 20 2 20 21
M  V30 21 1 21 22
M  V30 22 2 22 23
M  V30 23 1 5 24
M  V30 24 2 24 25
M  V30 25 1 24 26
M  V30 26 1 26 27
M  V30 27 1 27 28
M  V30 28 1 28 29
M  V30 29 2 29 30
M  V30 30 2 29 31
M  V30 31 1 29 32
M  V30 32 1 32 33
M  V30 33 1 17 7
M  V30 34 1 23 18
M  V30 35 1 33 26
M  V30 36 1 14 9
M  V30 37 1 1 34
M  V30 38 1 1 35
M  V30 39 1 1 36
M  V30 40 1 2 37
M  V30 41 1 2 38
M  V30 42 1 3 39
M  V30 43 1 3 40
M  V30 44 1 4 41
M  V30 45 1 4 42
M  V30 46 1 5 43
M  V30 47 1 10 44
M  V30 48 1 11 45
M  V30 49 1 12 46
M  V30 50 1 13 47
M  V30 51 1 19 48
M  V30 52 1 20 49
M  V30 53 1 21 50
M  V30 54 1 22 51
M  V30 55 1 23 52
M  V30 56 1 27 53
M  V30 57 1 27 54
M  V30 58 1 28 55
M  V30 59 1 28 56
M  V30 60 1 32 57
M  V30 61 1 32 58
M  V30 62 1 33 59
M  V30 63 1 33 60
M  V30 END BOND
M  V30 END CTAB
M  END
>  <Dataset>  (744) 
ChEMBL_Kinases

>  <Ligand_Instance>  (744) 
nan

>  <PDB_ID>  (744) 
nan

>  <Standardized_SMILES>  (744) 
CCCCC(Sc1nc2ccccc2c(=O)n1-c1ccccc1)C(=O)N1CCS(=O)(=O)CC1

>  <Name>  (744) 
nan

>  <Pocket>  (744) 
nan

>  <ATP_Site>  (744) 
nan

>  <Peripheral>  (744) 
nan

>  <Num_H_Atoms_ProtBoundConf>  (744) 
nan

>  <Num_Resolved_Atoms>  (744) 
nan

>  <Num_Not_Resolved_Atoms>  (744) 
nan

$$$$
CHEMBL4589689
     RDKit          3D

  0  0  0  0  0  0  0  0  0  0999 V3000
M  V30 BEGIN CTAB
M  V30 COUNTS 39 42 0 0 0
M  V30 BEGIN ATOM
M  V30 1 C -0.446856 -6.237421 0.937654 0
M  V30 2 C 0.761162 -5.815914 1.662946 0
M  V30 3 N 1.655807 -6.643623 2.261569 0
M  V30 4 N 2.599463 -5.903347 2.805966 0
M  V30 5 C 2.401120 -4.577469 2.611633 0
M  V30 6 C 1.238049 -4.569297 1.891001 0
M  V30 7 C 0.592401 -3.339265 1.424862 0
M  V30 8 C 0.906345 -1.977264 1.545803 0
M  V30 9 C 0.074052 -1.070598 0.981496 0
M  V30 10 N 0.206970 0.265033 0.990747 0
M  V30 11 C -0.668190 1.058724 0.405067 0
M  V30 12 C -0.459351 2.529493 0.451819 0 CFG=2
M  V30 13 C -1.151384 3.215861 -0.707220 0
M  V30 14 C -0.457651 4.564324 -0.712423 0
M  V30 15 C 0.816162 4.347259 0.083496 0
M  V30 16 N 0.921290 2.882699 0.174753 0
M  V30 17 C 1.805450 2.502998 1.253299 0
M  V30 18 N -1.763509 0.659294 -0.251565 0
M  V30 19 C -2.024029 -0.650078 -0.341256 0
M  V30 20 O -2.940068 -1.288902 -0.873710 0
M  V30 21 C -1.111882 -1.491691 0.269837 0
M  V30 22 S -0.985007 -3.371427 0.449836 0
M  V30 23 H -0.410046 -5.798231 -0.083511 0
M  V30 24 H -1.348280 -5.826811 1.439829 0
M  V30 25 H -0.503082 -7.344343 0.899717 0
M  V30 26 H 3.408819 -6.314858 3.329317 0
M  V30 27 H 2.963981 -3.726653 2.914272 0
M  V30 28 H 1.803981 -1.778349 2.090943 0
M  V30 29 H -0.816305 2.890980 1.424256 0
M  V30 30 H -0.953010 2.628064 -1.610829 0
M  V30 31 H -2.222671 3.297003 -0.450327 0
M  V30 32 H -1.111988 5.327646 -0.250052 0
M  V30 33 H -0.226715 4.858945 -1.769662 0
M  V30 34 H 0.665697 4.754738 1.110825 0
M  V30 35 H 1.707904 4.795940 -0.378850 0
M  V30 36 H 1.224966 2.106218 2.104936 0
M  V30 37 H 2.399644 3.408423 1.544543 0
M  V30 38 H 2.523818 1.758441 0.848138 0
M  V30 39 H -2.490093 1.232654 -0.733042 0
M  V30 END ATOM
M  V30 BEGIN BOND
M  V30 1 1 1 2
M  V30 2 2 2 3
M  V30 3 1 3 4
M  V30 4 1 4 5
M  V30 5 2 5 6
M  V30 6 1 6 7
M  V30 7 2 7 8
M  V30 8 1 8 9
M  V30 9 1 9 10
M  V30 10 2 10 11
M  V30 11 1 11 12
M  V30 12 1 12 13
M  V30 13 1 13 14
M  V30 14 1 14 15
M  V30 15 1 15 16
M  V30 16 1 16 17
M  V30 17 1 11 18
M  V30 18 1 18 19
M  V30 19 2 19 20
M  V30 20 1 19 21
M  V30 21 1 21 22
M  V30 22 1 6 2
M  V30 23 1 22 7
M  V30 24 2 21 9
M  V30 25 1 16 12
M  V30 26 1 1 23
M  V30 27 1 1 24
M  V30 28 1 1 25
M  V30 29 1 4 26
M  V30 30 1 5 27
M  V30 31 1 8 28
M  V30 32 1 12 29 CFG=1
M  V30 33 1 13 30
M  V30 34 1 13 31
M  V30 35 1 14 32
M  V30 36 1 14 33
M  V30 37 1 15 34
M  V30 38 1 15 35
M  V30 39 1 17 36
M  V30 40 1 17 37
M  V30 41 1 17 38
M  V30 42 1 18 39
M  V30 END BOND
M  V30 END CTAB
M  END
>  <Dataset>  (745) 
ChEMBL_Kinases

>  <Ligand_Instance>  (745) 
nan

>  <PDB_ID>  (745) 
nan

>  <Standardized_SMILES>  (745) 
Cc1n[nH]cc1-c1cc2nc([C@@H]3CCCN3C)[nH]c(=O)c2s1

>  <Name>  (745) 
nan

>  <Pocket>  (745) 
nan

>  <ATP_Site>  (745) 
nan

>  <Peripheral>  (745) 
nan

>  <Num_H_Atoms_ProtBoundConf>  (745) 
nan

>  <Num_Resolved_Atoms>  (745) 
nan

>  <Num_Not_Resolved_Atoms>  (745) 
nan

$$$$
CHEMBL4589674
     RDKit          3D

  0  0  0  0  0  0  0  0  0  0999 V3000
M  V30 BEGIN CTAB
M  V30 COUNTS 49 52 0 0 0
M  V30 BEGIN ATOM
M  V30 1 C -2.245534 -6.422252 2.355787 0
M  V30 2 N -1.300392 -5.839835 1.455566 0
M  V30 3 C -0.546172 -5.304819 0.712972 0
M  V30 4 C 0.545333 -5.115672 -0.113699 0
M  V30 5 C 0.660567 -3.854088 -0.732869 0
M  V30 6 C 1.815177 -3.212153 -0.935873 0
M  V30 7 N 2.015327 -1.947981 -1.509501 0
M  V30 8 C 0.719576 -1.387510 -1.884094 0
M  V30 9 C 0.437351 -0.125359 -2.366754 0
M  V30 10 C 1.114364 1.146668 -2.456878 0
M  V30 11 C 1.697948 2.033470 -3.450482 0
M  V30 12 S 2.136507 3.344242 -2.439288 0
M  V30 13 C 1.839120 3.342148 -0.879142 0
M  V30 14 C 1.554703 3.330478 0.598313 0
M  V30 15 O 1.894021 4.507163 0.446278 0
M  V30 16 N 1.140790 2.552475 1.637609 0
M  V30 17 C 0.993308 3.289281 2.875797 0
M  V30 18 C 0.511619 2.314333 3.963050 0
M  V30 19 C -0.730039 1.562900 3.600111 0
M  V30 20 N -0.587150 0.722063 2.439391 0
M  V30 21 C -1.840656 2.553498 3.221898 0
M  V30 22 F -2.075562 3.425477 4.266326 0
M  V30 23 C 1.346795 2.076902 -1.384825 0
M  V30 24 C -0.990060 0.027841 -2.506296 0
M  V30 25 N -1.514181 -1.184215 -2.099589 0
M  V30 26 N -0.490717 -1.925914 -1.751691 0
M  V30 27 C -0.292334 -3.109878 -1.177395 0
M  V30 28 C 0.573821 -6.293717 0.370771 0
M  V30 29 N -0.287455 -6.986305 1.248289 0
M  V30 30 H -1.832439 -6.465462 3.406780 0
M  V30 31 H -3.146664 -5.747132 2.476133 0
M  V30 32 H -2.619385 -7.388012 2.065004 0
M  V30 33 H -1.312574 -4.380595 0.926830 0
M  V30 34 H 2.774535 -3.665186 -0.644997 0
M  V30 35 H 1.810856 1.918349 -4.480176 0
M  V30 36 H 1.061195 1.619239 1.256369 0
M  V30 37 H 0.196506 4.082831 2.759373 0
M  V30 38 H 1.898549 3.737957 3.182012 0
M  V30 39 H 0.398182 2.855027 4.892010 0
M  V30 40 H 1.349813 1.585893 4.059445 0
M  V30 41 H -1.105831 0.970831 4.447726 0
M  V30 42 H -0.552179 -0.274562 2.667280 0
M  V30 43 H -1.454493 0.826935 1.837098 0
M  V30 44 H -2.753040 1.917484 3.162207 0
M  V30 45 H -1.670654 2.996841 2.250094 0
M  V30 46 H 0.871986 1.291877 -0.583514 0
M  V30 47 H -1.602528 0.816295 -2.834474 0
M  V30 48 H -1.322855 -3.587280 -1.001307 0
M  V30 49 H 1.507845 -6.738022 -0.102073 0
M  V30 END ATOM
M  V30 BEGIN BOND
M  V30 1 1 1 2
M  V30 2 1 2 3
M  V30 3 2 3 4
M  V30 4 1 4 5
M  V30 5 1 5 6
M  V30 6 2 6 7
M  V30 7 1 7 8
M  V30 8 2 8 9
M  V30 9 1 9 10
M  V30 10 2 10 11
M  V30 11 1 11 12
M  V30 12 1 12 13
M  V30 13 1 13 14
M  V30 14 2 14 15
M  V30 15 1 14 16
M  V30 16 1 16 17
M  V30 17 1 17 18
M  V30 18 1 18 19
M  V30 19 1 19 20
M  V30 20 1 19 21
M  V30 21 1 21 22
M  V30 22 2 13 23
M  V30 23 1 9 24
M  V30 24 2 24 25
M  V30 25 1 25 26
M  V30 26 1 26 27
M  V30 27 1 4 28
M  V30 28 2 28 29
M  V30 29 1 29 2
M  V30 30 2 27 5
M  V30 31 1 26 8
M  V30 32 1 23 10
M  V30 33 1 1 30
M  V30 34 1 1 31
M  V30 35 1 1 32
M  V30 36 1 3 33
M  V30 37 1 6 34
M  V30 38 1 11 35
M  V30 39 1 16 36
M  V30 40 1 17 37
M  V30 41 1 17 38
M  V30 42 1 18 39
M  V30 43 1 18 40
M  V30 44 1 19 41
M  V30 45 1 20 42
M  V30 46 1 20 43
M  V30 47 1 21 44
M  V30 48 1 21 45
M  V30 49 1 23 46
M  V30 50 1 24 47
M  V30 51 1 27 48
M  V30 52 1 28 49
M  V30 END BOND
M  V30 END CTAB
M  END
>  <Dataset>  (746) 
ChEMBL_Kinases

>  <Ligand_Instance>  (746) 
nan

>  <PDB_ID>  (746) 
nan

>  <Standardized_SMILES>  (746) 
Cn1cc(-c2cnc3c(-c4csc(C(=O)NCCC(N)CF)c4)cnn3c2)cn1

>  <Name>  (746) 
nan

>  <Pocket>  (746) 
nan

>  <ATP_Site>  (746) 
nan

>  <Peripheral>  (746) 
nan

>  <Num_H_Atoms_ProtBoundConf>  (746) 
nan

>  <Num_Resolved_Atoms>  (746) 
nan

>  <Num_Not_Resolved_Atoms>  (746) 
nan

$$$$
CHEMBL4589576
     RDKit          3D

  0  0  0  0  0  0  0  0  0  0999 V3000
M  V30 BEGIN CTAB
M  V30 COUNTS 62 66 0 0 0
M  V30 BEGIN ATOM
M  V30 1 C 3.817224 -1.444230 1.213668 0
M  V30 2 N 4.957617 -0.521444 1.065905 0
M  V30 3 N 6.174188 -1.020955 0.956278 0
M  V30 4 C 7.018856 0.006123 0.834609 0
M  V30 5 C 6.222435 1.123532 0.880175 0
M  V30 6 Cl 7.065659 2.638028 0.742981 0
M  V30 7 C 4.899066 0.816430 1.027581 0
M  V30 8 C 3.759375 1.688759 1.115166 0
M  V30 9 C 2.468119 1.245861 1.265304 0
M  V30 10 C 1.550865 2.306600 1.321394 0
M  V30 11 C 0.095452 2.381571 1.469324 0
M  V30 12 O -0.532008 3.468049 1.495613 0
M  V30 13 N -0.609937 1.153248 1.585920 0
M  V30 14 C -2.025124 0.919261 1.740333 0 CFG=2
M  V30 15 C -2.263395 0.060366 2.965872 0
M  V30 16 N -1.315175 -1.038130 2.852248 0
M  V30 17 C -1.864301 -1.986077 1.896452 0 CFG=2
M  V30 18 C -0.770800 -2.694503 1.128615 0
M  V30 19 C -1.291008 -3.677517 0.144031 0
M  V30 20 O -2.368266 -4.161260 -0.286874 0
M  V30 21 N -0.198871 -4.296610 -0.569608 0
M  V30 22 C -0.364735 -5.292618 -1.591506 0
M  V30 23 C 0.534123 -5.311060 -2.782960 0
M  V30 24 C 0.631704 -6.387156 -1.762498 0
M  V30 25 C -2.870304 -1.330907 0.982942 0
M  V30 26 C -2.437637 0.047878 0.546822 0 CFG=1
M  V30 27 C -3.577522 0.728669 -0.119747 0
M  V30 28 C -4.756745 0.985919 0.556139 0
M  V30 29 C -5.862883 1.614713 0.007112 0
M  V30 30 C -5.784255 2.016732 -1.317323 0
M  V30 31 Cl -7.135005 2.818664 -2.091209 0
M  V30 32 C -4.625415 1.786217 -2.049314 0
M  V30 33 Cl -4.501226 2.289720 -3.740073 0
M  V30 34 C -3.539370 1.149767 -1.452290 0
M  V30 35 O 2.304492 3.384357 1.203775 0
M  V30 36 C 3.564720 3.037517 1.085913 0
M  V30 37 Cl 4.770374 4.271424 0.915930 0
M  V30 38 H 3.384173 -1.313627 2.202898 0
M  V30 39 H 4.217374 -2.501392 1.218081 0
M  V30 40 H 3.150342 -1.402410 0.348255 0
M  V30 41 H 8.075273 -0.198458 0.731500 0
M  V30 42 H 1.968001 0.310549 1.351923 0
M  V30 43 H -0.114278 0.214687 1.568557 0
M  V30 44 H -2.629893 1.829449 1.796001 0
M  V30 45 H -1.923192 0.630109 3.879241 0
M  V30 46 H -3.293208 -0.233651 3.123593 0
M  V30 47 H -1.129298 -1.490703 3.770028 0
M  V30 48 H -2.401994 -2.755719 2.485275 0
M  V30 49 H -0.163988 -3.232386 1.900862 0
M  V30 50 H -0.077936 -1.997476 0.629245 0
M  V30 51 H 0.836119 -4.092403 -0.426501 0
M  V30 52 H -1.417500 -5.605572 -1.835714 0
M  V30 53 H 1.302570 -4.501618 -2.853598 0
M  V30 54 H 0.131500 -5.592210 -3.773423 0
M  V30 55 H 1.533710 -6.437851 -1.110463 0
M  V30 56 H 0.309424 -7.407087 -2.067836 0
M  V30 57 H -2.953241 -1.940700 0.071997 0
M  V30 58 H -3.845689 -1.306714 1.483652 0
M  V30 59 H -1.639861 -0.017767 -0.217594 0
M  V30 60 H -4.891621 0.699792 1.596385 0
M  V30 61 H -6.762067 1.798781 0.559135 0
M  V30 62 H -2.606189 0.945197 -1.984490 0
M  V30 END ATOM
M  V30 BEGIN BOND
M  V30 1 1 1 2
M  V30 2 1 2 3
M  V30 3 2 3 4
M  V30 4 1 4 5
M  V30 5 1 5 6
M  V30 6 2 5 7
M  V30 7 1 7 8
M  V30 8 1 8 9
M  V30 9 2 9 10
M  V30 10 1 10 11
M  V30 11 2 11 12
M  V30 12 1 11 13
M  V30 13 1 13 14
M  V30 14 1 14 15
M  V30 15 1 15 16
M  V30 16 1 16 17
M  V30 17 1 17 18
M  V30 18 1 18 19
M  V30 19 2 19 20
M  V30 20 1 19 21
M  V30 21 1 21 22
M  V30 22 1 22 23
M  V30 23 1 23 24
M  V30 24 1 17 25
M  V30 25 1 25 26
M  V30 26 1 26 27
M  V30 27 2 27 28
M  V30 28 1 28 29
M  V30 29 2 29 30
M  V30 30 1 30 31
M  V30 31 1 30 32
M  V30 32 1 32 33
M  V30 33 2 32 34
M  V30 34 1 10 35
M  V30 35 1 35 36
M  V30 36 1 36 37
M  V30 37 1 7 2
M  V30 38 2 36 8
M  V30 39 1 26 14
M  V30 40 1 34 27
M  V30 41 1 24 22
M  V30 42 1 1 38
M  V30 43 1 1 39
M  V30 44 1 1 40
M  V30 45 1 4 41
M  V30 46 1 9 42
M  V30 47 1 13 43
M  V30 48 1 14 44 CFG=1
M  V30 49 1 15 45
M  V30 50 1 15 46
M  V30 51 1 16 47
M  V30 52 1 17 48 CFG=1
M  V30 53 1 18 49
M  V30 54 1 18 50
M  V30 55 1 21 51
M  V30 56 1 22 52
M  V30 57 1 23 53
M  V30 58 1 23 54
M  V30 59 1 24 55
M  V30 60 1 24 56
M  V30 61 1 25 57
M  V30 62 1 25 58
M  V30 63 1 26 59 CFG=3
M  V30 64 1 28 60
M  V30 65 1 29 61
M  V30 66 1 34 62
M  V30 END BOND
M  V30 END CTAB
M  END
>  <Dataset>  (747) 
ChEMBL_Kinases

>  <Ligand_Instance>  (747) 
nan

>  <PDB_ID>  (747) 
nan

>  <Standardized_SMILES>  (747) 
Cn1ncc(Cl)c1-c1cc(C(=O)N[C@@H]2CN[C@H](CC(=O)NC3CC3)C[C@H]2c2ccc(Cl)c(Cl)c2)oc1Cl

>  <Name>  (747) 
nan

>  <Pocket>  (747) 
nan

>  <ATP_Site>  (747) 
nan

>  <Peripheral>  (747) 
nan

>  <Num_H_Atoms_ProtBoundConf>  (747) 
nan

>  <Num_Resolved_Atoms>  (747) 
nan

>  <Num_Not_Resolved_Atoms>  (747) 
nan

$$$$
CHEMBL4589539
     RDKit          3D

  0  0  0  0  0  0  0  0  0  0999 V3000
M  V30 BEGIN CTAB
M  V30 COUNTS 45 48 0 0 0
M  V30 BEGIN ATOM
M  V30 1 F 1.127010 2.834540 3.357136 0
M  V30 2 C 1.908987 1.790803 2.868426 0
M  V30 3 F 2.508168 1.053450 3.849141 0
M  V30 4 F 2.914550 2.363242 2.073265 0
M  V30 5 C 1.085304 0.920450 1.945972 0
M  V30 6 C 1.926973 -0.196420 1.442394 0
M  V30 7 C 3.127101 0.178817 0.686396 0
M  V30 8 C 3.060918 0.391973 -0.694179 0
M  V30 9 C 4.117558 0.728043 -1.485861 0
M  V30 10 C 5.364538 0.878634 -0.917671 0
M  V30 11 C 5.509960 0.687903 0.420666 0
M  V30 12 C 4.421637 0.348682 1.193669 0
M  V30 13 N -0.077488 0.457654 2.685919 0
M  V30 14 C -1.061208 -0.350547 2.052037 0
M  V30 15 N -0.975693 -0.712511 0.763674 0
M  V30 16 C -1.890988 -1.469204 0.138104 0
M  V30 17 C -1.756141 -1.837887 -1.267005 0
M  V30 18 C -0.680196 -1.424814 -2.023395 0
M  V30 19 C -0.565686 -1.784905 -3.364077 0
M  V30 20 N -1.521653 -2.555200 -3.949844 0
M  V30 21 C -2.585535 -2.978492 -3.248282 0
M  V30 22 C -2.696915 -2.620774 -1.920933 0
M  V30 23 N -2.997866 -1.932969 0.786618 0
M  V30 24 C -3.158987 -1.614289 2.083354 0
M  V30 25 C -4.263892 -2.063631 2.775386 0
M  V30 26 N -4.437254 -1.750127 4.081739 0
M  V30 27 C -3.504545 -0.980330 4.715597 0
M  V30 28 C -2.409008 -0.543954 4.000809 0
M  V30 29 C -2.189706 -0.835109 2.676869 0
M  V30 30 H 0.696204 1.586157 1.162251 0
M  V30 31 H 1.372566 -0.954809 0.846459 0
M  V30 32 H 2.306481 -0.793724 2.325994 0
M  V30 33 H 2.128779 0.291978 -1.191565 0
M  V30 34 H 4.018292 0.882777 -2.549328 0
M  V30 35 H 6.208089 1.144884 -1.537203 0
M  V30 36 H 6.456005 0.787889 0.938942 0
M  V30 37 H 4.518411 0.191413 2.268546 0
M  V30 38 H -0.156094 0.739527 3.683180 0
M  V30 39 H 0.035220 -0.819802 -1.496665 0
M  V30 40 H 0.296955 -1.439268 -3.925405 0
M  V30 41 H -3.363571 -3.597416 -3.700104 0
M  V30 42 H -3.580461 -2.984757 -1.377113 0
M  V30 43 H -4.976588 -2.677010 2.212591 0
M  V30 44 H -3.688597 -0.757913 5.758205 0
M  V30 45 H -1.742801 0.044039 4.575432 0
M  V30 END ATOM
M  V30 BEGIN BOND
M  V30 1 1 1 2
M  V30 2 1 2 3
M  V30 3 1 2 4
M  V30 4 1 2 5
M  V30 5 1 5 6
M  V30 6 1 6 7
M  V30 7 2 7 8
M  V30 8 1 8 9
M  V30 9 2 9 10
M  V30 10 1 10 11
M  V30 11 2 11 12
M  V30 12 1 5 13
M  V30 13 1 13 14
M  V30 14 2 14 15
M  V30 15 1 15 16
M  V30 16 1 16 17
M  V30 17 2 17 18
M  V30 18 1 18 19
M  V30 19 2 19 20
M  V30 20 1 20 21
M  V30 21 2 21 22
M  V30 22 2 16 23
M  V30 23 1 23 24
M  V30 24 2 24 25
M  V30 25 1 25 26
M  V30 26 2 26 27
M  V30 27 1 27 28
M  V30 28 2 28 29
M  V30 29 1 12 7
M  V30 30 1 29 14
M  V30 31 1 22 17
M  V30 32 1 29 24
M  V30 33 1 5 30
M  V30 34 1 6 31
M  V30 35 1 6 32
M  V30 36 1 8 33
M  V30 37 1 9 34
M  V30 38 1 10 35
M  V30 39 1 11 36
M  V30 40 1 12 37
M  V30 41 1 13 38
M  V30 42 1 18 39
M  V30 43 1 19 40
M  V30 44 1 21 41
M  V30 45 1 22 42
M  V30 46 1 25 43
M  V30 47 1 27 44
M  V30 48 1 28 45
M  V30 END BOND
M  V30 END CTAB
M  END
>  <Dataset>  (748) 
ChEMBL_Kinases

>  <Ligand_Instance>  (748) 
nan

>  <PDB_ID>  (748) 
nan

>  <Standardized_SMILES>  (748) 
FC(F)(F)C(Cc1ccccc1)Nc1nc(-c2ccncc2)nc2cnccc12

>  <Name>  (748) 
nan

>  <Pocket>  (748) 
nan

>  <ATP_Site>  (748) 
nan

>  <Peripheral>  (748) 
nan

>  <Num_H_Atoms_ProtBoundConf>  (748) 
nan

>  <Num_Resolved_Atoms>  (748) 
nan

>  <Num_Not_Resolved_Atoms>  (748) 
nan

$$$$
CHEMBL4589422
     RDKit          3D

  0  0  0  0  0  0  0  0  0  0999 V3000
M  V30 BEGIN CTAB
M  V30 COUNTS 59 63 0 0 0
M  V30 BEGIN ATOM
M  V30 1 C 4.578359 -2.547465 2.129670 0
M  V30 2 C 3.868535 -1.245485 2.218878 0
M  V30 3 C 3.453540 -0.770006 3.444974 0
M  V30 4 C 2.790591 0.436721 3.566278 0
M  V30 5 C 2.321321 0.992123 4.880822 0
M  V30 6 C 2.545372 1.173378 2.417452 0
M  V30 7 C 2.970589 0.679962 1.186612 0
M  V30 8 O 2.655141 1.528900 0.113787 0
M  V30 9 C 1.407092 1.291275 -0.491551 0
M  V30 10 C 0.971708 2.054087 -1.557297 0
M  V30 11 C -0.260301 1.834712 -2.170025 0
M  V30 12 C -1.083452 0.816288 -1.698391 0
M  V30 13 C -0.575113 0.087288 -0.617412 0
M  V30 14 C -1.318788 -1.020987 -0.002667 0
M  V30 15 C -2.537222 -0.769046 0.599196 0
M  V30 16 C -3.345811 0.428672 0.796505 0
M  V30 17 C -4.622734 0.539809 0.267393 0
M  V30 18 C -5.379053 1.679214 0.460763 0
M  V30 19 C -4.836646 2.707998 1.193363 0
M  V30 20 F -5.545030 3.861490 1.415022 0
M  V30 21 C -3.577739 2.662957 1.745430 0
M  V30 22 C -2.849126 1.496872 1.526910 0
M  V30 23 N -2.962903 -1.960566 1.060566 0
M  V30 24 N -2.065868 -2.886730 0.762859 0
M  V30 25 N -1.038463 -2.352337 0.108735 0
M  V30 26 C 0.190937 -2.846557 -0.451057 0
M  V30 27 C 0.202668 -4.352240 -0.285943 0
M  V30 28 C -0.912766 -4.940768 -1.113730 0
M  V30 29 N -0.712215 -4.586208 -2.498015 0
M  V30 30 C -0.731910 -3.152644 -2.703388 0
M  V30 31 C 0.383804 -2.543702 -1.905138 0
M  V30 32 N 0.631798 0.297468 -0.012330 0
M  V30 33 C 3.631976 -0.524419 1.067837 0
M  V30 34 H 3.901293 -3.334129 2.544586 0
M  V30 35 H 5.499547 -2.450870 2.759834 0
M  V30 36 H 4.831088 -2.797629 1.097801 0
M  V30 37 H 3.647161 -1.348546 4.338577 0
M  V30 38 H 1.219616 1.097545 4.808136 0
M  V30 39 H 2.605857 0.308283 5.697494 0
M  V30 40 H 2.759529 2.008440 4.974381 0
M  V30 41 H 2.022505 2.121326 2.529728 0
M  V30 42 H 1.594555 2.855302 -1.944716 0
M  V30 43 H -0.621689 2.412184 -2.998004 0
M  V30 44 H -2.045232 0.548727 -2.079494 0
M  V30 45 H -5.035113 -0.280269 -0.307355 0
M  V30 46 H -6.373170 1.751971 0.042500 0
M  V30 47 H -3.153878 3.473307 2.320892 0
M  V30 48 H -1.849083 1.424180 1.948069 0
M  V30 49 H 1.086928 -2.471659 0.105172 0
M  V30 50 H 1.152293 -4.717461 -0.755460 0
M  V30 51 H 0.143821 -4.655395 0.772776 0
M  V30 52 H -0.784813 -6.062744 -1.080583 0
M  V30 53 H -1.919395 -4.685089 -0.786156 0
M  V30 54 H 0.113688 -5.061364 -2.908909 0
M  V30 55 H -1.732545 -2.778114 -2.459647 0
M  V30 56 H -0.479126 -2.988634 -3.780827 0
M  V30 57 H 0.594348 -1.504583 -2.155232 0
M  V30 58 H 1.312367 -3.110909 -2.207901 0
M  V30 59 H 3.930027 -0.838860 0.077779 0
M  V30 END ATOM
M  V30 BEGIN BOND
M  V30 1 1 1 2
M  V30 2 2 2 3
M  V30 3 1 3 4
M  V30 4 1 4 5
M  V30 5 2 4 6
M  V30 6 1 6 7
M  V30 7 1 7 8
M  V30 8 1 8 9
M  V30 9 2 9 10
M  V30 10 1 10 11
M  V30 11 2 11 12
M  V30 12 1 12 13
M  V30 13 1 13 14
M  V30 14 2 14 15
M  V30 15 1 15 16
M  V30 16 2 16 17
M  V30 17 1 17 18
M  V30 18 2 18 19
M  V30 19 1 19 20
M  V30 20 1 19 21
M  V30 21 2 21 22
M  V30 22 1 15 23
M  V30 23 2 23 24
M  V30 24 1 24 25
M  V30 25 1 25 26
M  V30 26 1 26 27
M  V30 27 1 27 28
M  V30 28 1 28 29
M  V30 29 1 29 30
M  V30 30 1 30 31
M  V30 31 2 13 32
M  V30 32 2 7 33
M  V30 33 1 33 2
M  V30 34 1 32 9
M  V30 35 1 25 14
M  V30 36 1 31 26
M  V30 37 1 22 16
M  V30 38 1 1 34
M  V30 39 1 1 35
M  V30 40 1 1 36
M  V30 41 1 3 37
M  V30 42 1 5 38
M  V30 43 1 5 39
M  V30 44 1 5 40
M  V30 45 1 6 41
M  V30 46 1 10 42
M  V30 47 1 11 43
M  V30 48 1 12 44
M  V30 49 1 17 45
M  V30 50 1 18 46
M  V30 51 1 21 47
M  V30 52 1 22 48
M  V30 53 1 26 49
M  V30 54 1 27 50
M  V30 55 1 27 51
M  V30 56 1 28 52
M  V30 57 1 28 53
M  V30 58 1 29 54
M  V30 59 1 30 55
M  V30 60 1 30 56
M  V30 61 1 31 57
M  V30 62 1 31 58
M  V30 63 1 33 59
M  V30 END BOND
M  V30 END CTAB
M  END
>  <Dataset>  (749) 
ChEMBL_Kinases

>  <Ligand_Instance>  (749) 
nan

>  <PDB_ID>  (749) 
nan

>  <Standardized_SMILES>  (749) 
Cc1cc(C)cc(Oc2cccc(-c3c(-c4ccc(F)cc4)nnn3C3CCNCC3)n2)c1

>  <Name>  (749) 
nan

>  <Pocket>  (749) 
nan

>  <ATP_Site>  (749) 
nan

>  <Peripheral>  (749) 
nan

>  <Num_H_Atoms_ProtBoundConf>  (749) 
nan

>  <Num_Resolved_Atoms>  (749) 
nan

>  <Num_Not_Resolved_Atoms>  (749) 
nan

$$$$
CHEMBL4589352
     RDKit          3D

  0  0  0  0  0  0  0  0  0  0999 V3000
M  V30 BEGIN CTAB
M  V30 COUNTS 47 51 0 0 0
M  V30 BEGIN ATOM
M  V30 1 F 3.494230 -1.949875 -0.721719 0
M  V30 2 C 4.290663 -0.987803 -0.149375 0
M  V30 3 C 5.517809 -1.184464 0.428142 0
M  V30 4 C 6.180031 -0.084396 0.970055 0
M  V30 5 Cl 7.733631 -0.479536 1.672172 0
M  V30 6 C 5.660319 1.186155 0.951529 0
M  V30 7 C 4.414352 1.340824 0.357019 0
M  V30 8 C 3.727963 0.250302 -0.194844 0
M  V30 9 N 2.557345 0.774728 -0.667895 0
M  V30 10 C 1.442915 1.497736 -1.068397 0
M  V30 11 N 1.703286 2.271259 -2.126205 0
M  V30 12 C 0.801848 3.080734 -2.675355 0
M  V30 13 N -0.411120 3.086300 -2.108933 0
M  V30 14 C -0.719676 2.339538 -1.063075 0
M  V30 15 S -2.207522 2.089349 -0.076983 0
M  V30 16 C -1.495400 0.894697 1.024026 0
M  V30 17 C -0.233386 0.746406 0.618189 0
M  V30 18 C 0.200482 1.478272 -0.457885 0
M  V30 19 C 0.533776 -0.239714 1.447267 0
M  V30 20 C -0.150404 -0.300064 2.788374 0
M  V30 21 N -1.514161 -0.795684 2.666128 0
M  V30 22 C -1.480031 -1.976475 1.845574 0
M  V30 23 C -2.842336 -2.617352 1.731598 0
M  V30 24 C -3.227998 -3.578953 2.668180 0
M  V30 25 C -4.470012 -4.169377 2.574674 0
M  V30 26 C -5.357244 -3.819886 1.551657 0
M  V30 27 C -4.959085 -2.870562 0.637583 0
M  V30 28 C -3.707086 -2.257186 0.708870 0
M  V30 29 C -2.292019 0.279612 2.116200 0
M  V30 30 H 5.821517 -2.216333 0.383872 0
M  V30 31 H 6.317585 1.904456 1.416507 0
M  V30 32 H 4.158202 2.409343 0.432045 0
M  V30 33 H 2.150938 -0.116256 -1.120461 0
M  V30 34 H 0.846411 3.750025 -3.508352 0
M  V30 35 H 0.710231 -1.192077 0.961913 0
M  V30 36 H 1.560092 0.190918 1.686075 0
M  V30 37 H -0.226741 0.740280 3.178563 0
M  V30 38 H 0.452844 -0.895075 3.506615 0
M  V30 39 H -0.729210 -2.661262 2.285042 0
M  V30 40 H -1.181560 -1.806004 0.798104 0
M  V30 41 H -2.579060 -3.884190 3.479531 0
M  V30 42 H -4.859304 -4.925502 3.250206 0
M  V30 43 H -6.344838 -4.235346 1.412064 0
M  V30 44 H -5.574678 -2.531474 -0.196838 0
M  V30 45 H -3.421748 -1.501998 -0.039944 0
M  V30 46 H -3.306407 -0.009838 1.825400 0
M  V30 47 H -2.395357 1.031475 2.924685 0
M  V30 END ATOM
M  V30 BEGIN BOND
M  V30 1 1 1 2
M  V30 2 2 2 3
M  V30 3 1 3 4
M  V30 4 1 4 5
M  V30 5 2 4 6
M  V30 6 1 6 7
M  V30 7 2 7 8
M  V30 8 1 8 9
M  V30 9 1 9 10
M  V30 10 2 10 11
M  V30 11 1 11 12
M  V30 12 2 12 13
M  V30 13 1 13 14
M  V30 14 1 14 15
M  V30 15 1 15 16
M  V30 16 2 16 17
M  V30 17 1 17 18
M  V30 18 1 17 19
M  V30 19 1 19 20
M  V30 20 1 20 21
M  V30 21 1 21 22
M  V30 22 1 22 23
M  V30 23 2 23 24
M  V30 24 1 24 25
M  V30 25 2 25 26
M  V30 26 1 26 27
M  V30 27 2 27 28
M  V30 28 1 21 29
M  V30 29 1 8 2
M  V30 30 1 18 10
M  V30 31 1 28 23
M  V30 32 2 18 14
M  V30 33 1 29 16
M  V30 34 1 3 30
M  V30 35 1 6 31
M  V30 36 1 7 32
M  V30 37 1 9 33
M  V30 38 1 12 34
M  V30 39 1 19 35
M  V30 40 1 19 36
M  V30 41 1 20 37
M  V30 42 1 20 38
M  V30 43 1 22 39
M  V30 44 1 22 40
M  V30 45 1 24 41
M  V30 46 1 25 42
M  V30 47 1 26 43
M  V30 48 1 27 44
M  V30 49 1 28 45
M  V30 50 1 29 46
M  V30 51 1 29 47
M  V30 END BOND
M  V30 END CTAB
M  END
>  <Dataset>  (750) 
ChEMBL_Kinases

>  <Ligand_Instance>  (750) 
nan

>  <PDB_ID>  (750) 
nan

>  <Standardized_SMILES>  (750) 
Fc1cc(Cl)ccc1Nc1ncnc2sc3c(c12)CCN(Cc1ccccc1)C3

>  <Name>  (750) 
nan

>  <Pocket>  (750) 
nan

>  <ATP_Site>  (750) 
nan

>  <Peripheral>  (750) 
nan

>  <Num_H_Atoms_ProtBoundConf>  (750) 
nan

>  <Num_Resolved_Atoms>  (750) 
nan

>  <Num_Not_Resolved_Atoms>  (750) 
nan

$$$$
CHEMBL4589249
     RDKit          3D

  0  0  0  0  0  0  0  0  0  0999 V3000
M  V30 BEGIN CTAB
M  V30 COUNTS 46 48 0 0 0
M  V30 BEGIN ATOM
M  V30 1 C 0.619457 -3.366769 2.296739 0
M  V30 2 O 0.879743 -2.884511 1.024043 0
M  V30 3 C 2.054922 -2.394332 0.521162 0
M  V30 4 C 3.191012 -2.328528 1.292435 0
M  V30 5 C 4.337089 -1.829688 0.739985 0
M  V30 6 F 5.488465 -1.748957 1.473364 0
M  V30 7 C 4.350496 -1.401877 -0.562683 0
M  V30 8 C 3.213892 -1.454581 -1.370795 0
M  V30 9 C 2.057112 -1.959044 -0.814597 0
M  V30 10 C 0.749469 -2.072426 -1.519960 0
M  V30 11 C 0.031080 -0.873046 -1.408477 0
M  V30 12 C -1.221667 -0.765836 -1.974753 0
M  V30 13 N -2.132462 0.328230 -1.948278 0
M  V30 14 C -2.453291 1.038334 -0.755935 0
M  V30 15 C -1.946338 0.662353 0.470965 0
M  V30 16 C -2.158364 1.297197 1.698849 0
M  V30 17 C -1.430096 0.678238 2.866807 0
M  V30 18 S 0.139538 1.497367 3.057408 0 CFG=2 VAL=6
M  V30 19 C 1.103107 0.837773 4.387804 0
M  V30 20 N -0.106045 3.021323 3.400633 0
M  V30 21 O 0.927713 1.511297 1.773799 0
M  V30 22 C -2.966125 2.414851 1.675570 0
M  V30 23 C -3.467180 2.776361 0.452128 0
M  V30 24 N -3.233708 2.140518 -0.700677 0
M  V30 25 N -1.732456 -1.835316 -2.635415 0
M  V30 26 C -1.030601 -2.971957 -2.731264 0
M  V30 27 C 0.224563 -3.155750 -2.189611 0
M  V30 28 F 1.010076 -4.229604 -2.214736 0
M  V30 29 H 1.529684 -3.668867 2.851797 0
M  V30 30 H 0.076824 -2.590218 2.891907 0
M  V30 31 H -0.055465 -4.273214 2.297481 0
M  V30 32 H 3.213978 -2.660469 2.335437 0
M  V30 33 H 5.251133 -1.004268 -1.039626 0
M  V30 34 H 3.131756 -1.138155 -2.407271 0
M  V30 35 H 0.393554 0.019250 -0.916768 0
M  V30 36 H -2.587166 0.638298 -2.823458 0
M  V30 37 H -1.345834 -0.246302 0.506341 0
M  V30 38 H -2.017160 0.843649 3.768977 0
M  V30 39 H -1.285398 -0.396355 2.706340 0
M  V30 40 H 2.113797 1.293807 4.321757 0
M  V30 41 H 0.653174 1.194668 5.337518 0
M  V30 42 H 1.152119 -0.243620 4.351369 0
M  V30 43 H 0.794633 3.548634 3.544990 0
M  V30 44 H -3.103574 2.871013 2.643166 0
M  V30 45 H -4.103090 3.672966 0.476169 0
M  V30 46 H -1.424070 -3.838912 -3.262735 0
M  V30 END ATOM
M  V30 BEGIN BOND
M  V30 1 1 1 2
M  V30 2 1 2 3
M  V30 3 2 3 4
M  V30 4 1 4 5
M  V30 5 1 5 6
M  V30 6 2 5 7
M  V30 7 1 7 8
M  V30 8 2 8 9
M  V30 9 1 9 10
M  V30 10 2 10 11
M  V30 11 1 11 12
M  V30 12 1 12 13
M  V30 13 1 13 14
M  V30 14 2 14 15
M  V30 15 1 15 16
M  V30 16 1 16 17
M  V30 17 1 18 17 CFG=3
M  V30 18 1 18 19
M  V30 19 2 18 20
M  V30 20 2 18 21
M  V30 21 2 16 22
M  V30 22 1 22 23
M  V30 23 2 23 24
M  V30 24 2 12 25
M  V30 25 1 25 26
M  V30 26 2 26 27
M  V30 27 1 27 28
M  V30 28 1 9 3
M  V30 29 1 27 10
M  V30 30 1 24 14
M  V30 31 1 1 29
M  V30 32 1 1 30
M  V30 33 1 1 31
M  V30 34 1 4 32
M  V30 35 1 7 33
M  V30 36 1 8 34
M  V30 37 1 11 35
M  V30 38 1 13 36
M  V30 39 1 15 37
M  V30 40 1 17 38
M  V30 41 1 17 39
M  V30 42 1 19 40
M  V30 43 1 19 41
M  V30 44 1 19 42
M  V30 45 1 20 43
M  V30 46 1 22 44
M  V30 47 1 23 45
M  V30 48 1 26 46
M  V30 END BOND
M  V30 END CTAB
M  END
>  <Dataset>  (751) 
ChEMBL_Kinases

>  <Ligand_Instance>  (751) 
nan

>  <PDB_ID>  (751) 
nan

>  <Standardized_SMILES>  (751) 
COc1cc(F)ccc1-c1cc(Nc2cc(C[S@](C)(=N)=O)ccn2)ncc1F

>  <Name>  (751) 
nan

>  <Pocket>  (751) 
nan

>  <ATP_Site>  (751) 
nan

>  <Peripheral>  (751) 
nan

>  <Num_H_Atoms_ProtBoundConf>  (751) 
nan

>  <Num_Resolved_Atoms>  (751) 
nan

>  <Num_Not_Resolved_Atoms>  (751) 
nan

$$$$
CHEMBL460421
     RDKit          3D

  0  0  0  0  0  0  0  0  0  0999 V3000
M  V30 BEGIN CTAB
M  V30 COUNTS 69 73 0 0 0
M  V30 BEGIN ATOM
M  V30 1 C -4.009441 -2.347783 0.885937 0
M  V30 2 C -4.108976 -1.048594 1.655884 0
M  V30 3 C -2.738609 -0.495801 1.972180 0
M  V30 4 C -2.024515 -0.251161 0.659720 0
M  V30 5 C -0.647033 0.301948 0.874680 0
M  V30 6 S 0.171450 0.578535 -0.729930 0
M  V30 7 C -0.635714 1.870781 -1.662500 0
M  V30 8 N -0.104514 3.092814 -1.380203 0
M  V30 9 C -0.587275 4.204609 -1.995170 0
M  V30 10 C -0.053118 5.468103 -1.717454 0
M  V30 11 C -0.543911 6.595759 -2.342735 0
M  V30 12 C -1.581998 6.430293 -3.252794 0
M  V30 13 C -2.100585 5.159928 -3.515356 0
M  V30 14 C -1.617010 4.049465 -2.899363 0
M  V30 15 C -2.144371 2.804651 -3.174445 0
M  V30 16 O -3.082014 2.644000 -3.994644 0
M  V30 17 N -1.641415 1.731791 -2.547523 0
M  V30 18 C -2.089040 0.412799 -2.738547 0
M  V30 19 C -1.384871 -0.742028 -3.014092 0
M  V30 20 C -2.041652 -1.946335 -3.164053 0
M  V30 21 C -3.405976 -2.044485 -3.046854 0
M  V30 22 C -4.134888 -0.895476 -2.769912 0
M  V30 23 C -3.483089 0.333016 -2.615153 0
M  V30 24 C 0.203405 -0.510779 1.772645 0
M  V30 25 O 0.686970 -0.087337 2.877170 0
M  V30 26 N 0.628879 -1.852244 1.592473 0
M  V30 27 C 1.479965 -2.367432 2.677235 0
M  V30 28 C 2.867301 -2.424698 2.074638 0
M  V30 29 N 2.876771 -2.930855 0.723766 0
M  V30 30 C 4.124831 -2.810380 0.056096 0
M  V30 31 C 5.216538 -2.234127 0.666285 0
M  V30 32 C 6.461025 -2.088060 0.064319 0
M  V30 33 C 6.635018 -2.542536 -1.225818 0
M  V30 34 C 5.568836 -3.129935 -1.883795 0
M  V30 35 C 4.363460 -3.242099 -1.226460 0
M  V30 36 C 1.703789 -3.494221 0.156320 0
M  V30 37 C 0.407675 -2.860126 0.544157 0
M  V30 38 H -4.675762 -3.104176 1.367238 0
M  V30 39 H -4.305534 -2.206533 -0.189751 0
M  V30 40 H -2.972932 -2.735103 0.871033 0
M  V30 41 H -4.753797 -1.145607 2.549669 0
M  V30 42 H -4.589651 -0.297144 0.972557 0
M  V30 43 H -2.847689 0.467864 2.486394 0
M  V30 44 H -2.224857 -1.247883 2.603870 0
M  V30 45 H -2.099988 -1.087834 -0.034231 0
M  V30 46 H -2.609535 0.583750 0.171192 0
M  V30 47 H -0.787033 1.315447 1.315725 0
M  V30 48 H 0.748889 5.467316 -0.993366 0
M  V30 49 H -0.097117 7.549729 -2.093922 0
M  V30 50 H -1.969037 7.319895 -3.746381 0
M  V30 51 H -2.904836 5.079687 -4.228566 0
M  V30 52 H -0.317428 -0.567615 -3.088296 0
M  V30 53 H -1.399773 -2.791864 -3.378241 0
M  V30 54 H -3.900463 -2.988225 -3.166407 0
M  V30 55 H -5.220549 -0.966080 -2.675337 0
M  V30 56 H -4.162823 1.173034 -2.398364 0
M  V30 57 H 1.474124 -1.739556 3.565795 0
M  V30 58 H 1.172918 -3.412355 2.886014 0
M  V30 59 H 3.597894 -2.974554 2.700062 0
M  V30 60 H 3.245674 -1.365052 2.023142 0
M  V30 61 H 5.184257 -1.848172 1.673568 0
M  V30 62 H 7.308654 -1.632742 0.556918 0
M  V30 63 H 7.595022 -2.435070 -1.703786 0
M  V30 64 H 5.712599 -3.484744 -2.897142 0
M  V30 65 H 3.590735 -3.706143 -1.796952 0
M  V30 66 H 1.683284 -4.598094 0.370886 0
M  V30 67 H 1.766583 -3.459887 -0.971478 0
M  V30 68 H -0.223746 -3.627365 1.045844 0
M  V30 69 H -0.176373 -2.482926 -0.300279 0
M  V30 END ATOM
M  V30 BEGIN BOND
M  V30 1 1 1 2
M  V30 2 1 2 3
M  V30 3 1 3 4
M  V30 4 1 4 5
M  V30 5 1 5 6
M  V30 6 1 6 7
M  V30 7 2 7 8
M  V30 8 1 8 9
M  V30 9 2 9 10
M  V30 10 1 10 11
M  V30 11 2 11 12
M  V30 12 1 12 13
M  V30 13 2 13 14
M  V30 14 1 14 15
M  V30 15 2 15 16
M  V30 16 1 15 17
M  V30 17 1 17 18
M  V30 18 2 18 19
M  V30 19 1 19 20
M  V30 20 2 20 21
M  V30 21 1 21 22
M  V30 22 2 22 23
M  V30 23 1 5 24
M  V30 24 2 24 25
M  V30 25 1 24 26
M  V30 26 1 26 27
M  V30 27 1 27 28
M  V30 28 1 28 29
M  V30 29 1 29 30
M  V30 30 2 30 31
M  V30 31 1 31 32
M  V30 32 2 32 33
M  V30 33 1 33 34
M  V30 34 2 34 35
M  V30 35 1 29 36
M  V30 36 1 36 37
M  V30 37 1 17 7
M  V30 38 1 23 18
M  V30 39 1 37 26
M  V30 40 1 14 9
M  V30 41 1 35 30
M  V30 42 1 1 38
M  V30 43 1 1 39
M  V30 44 1 1 40
M  V30 45 1 2 41
M  V30 46 1 2 42
M  V30 47 1 3 43
M  V30 48 1 3 44
M  V30 49 1 4 45
M  V30 50 1 4 46
M  V30 51 1 5 47
M  V30 52 1 10 48
M  V30 53 1 11 49
M  V30 54 1 12 50
M  V30 55 1 13 51
M  V30 56 1 19 52
M  V30 57 1 20 53
M  V30 58 1 21 54
M  V30 59 1 22 55
M  V30 60 1 23 56
M  V30 61 1 27 57
M  V30 62 1 27 58
M  V30 63 1 28 59
M  V30 64 1 28 60
M  V30 65 1 31 61
M  V30 66 1 32 62
M  V30 67 1 33 63
M  V30 68 1 34 64
M  V30 69 1 35 65
M  V30 70 1 36 66
M  V30 71 1 36 67
M  V30 72 1 37 68
M  V30 73 1 37 69
M  V30 END BOND
M  V30 END CTAB
M  END
>  <Dataset>  (752) 
ChEMBL_Kinases

>  <Ligand_Instance>  (752) 
nan

>  <PDB_ID>  (752) 
nan

>  <Standardized_SMILES>  (752) 
CCCCC(Sc1nc2ccccc2c(=O)n1-c1ccccc1)C(=O)N1CCN(c2ccccc2)CC1

>  <Name>  (752) 
nan

>  <Pocket>  (752) 
nan

>  <ATP_Site>  (752) 
nan

>  <Peripheral>  (752) 
nan

>  <Num_H_Atoms_ProtBoundConf>  (752) 
nan

>  <Num_Resolved_Atoms>  (752) 
nan

>  <Num_Not_Resolved_Atoms>  (752) 
nan

$$$$
CHEMBL4589122
     RDKit          3D

  0  0  0  0  0  0  0  0  0  0999 V3000
M  V30 BEGIN CTAB
M  V30 COUNTS 74 77 0 0 0
M  V30 BEGIN ATOM
M  V30 1 C 2.983137 -7.600588 5.218137 0
M  V30 2 N 2.789622 -8.000256 3.850702 0
M  V30 3 C 2.024991 -9.194094 3.696346 0
M  V30 4 C 2.345931 -6.897013 3.015286 0
M  V30 5 C 3.449201 -5.883686 2.864922 0
M  V30 6 C 2.982027 -4.756618 1.996618 0
M  V30 7 C 3.453863 -4.278913 0.783236 0
M  V30 8 C 2.483917 -3.168431 0.583382 0
M  V30 9 O 1.522801 -2.699842 1.190184 0
M  V30 10 N 2.948543 -2.632317 -0.665167 0
M  V30 11 C 2.349152 -1.482069 -1.319679 0
M  V30 12 C 3.053829 -0.345557 -0.894258 0
M  V30 13 C 2.716774 0.939377 -1.339491 0
M  V30 14 C 1.636621 1.011108 -2.231185 0
M  V30 15 C 1.000696 -0.143733 -2.597862 0
M  V30 16 N -0.110082 -0.025590 -3.516296 0
M  V30 17 C -1.103317 -1.006929 -3.879821 0
M  V30 18 C -2.336818 -0.313627 -4.395927 0
M  V30 19 C -2.693285 0.964040 -3.709432 0
M  V30 20 N -3.480298 0.800855 -2.501765 0
M  V30 21 C -3.751962 2.065399 -1.839163 0
M  V30 22 O -3.373199 3.181632 -2.189738 0
M  V30 23 C -4.578116 1.933311 -0.609650 0
M  V30 24 N -5.378672 0.899049 -0.252151 0
M  V30 25 N -6.023818 1.151446 0.871739 0
M  V30 26 C -5.649495 2.367148 1.267679 0
M  V30 27 C -4.752569 2.895230 0.383960 0
M  V30 28 N -4.117862 4.155290 0.519308 0
M  V30 29 C -2.912094 3.837205 1.239356 0
M  V30 30 O -3.127046 2.563065 1.331110 0
M  V30 31 C -1.745654 4.523844 1.766575 0
M  V30 32 C -1.448586 5.871405 1.830464 0
M  V30 33 Cl -2.663912 6.932905 1.223173 0
M  V30 34 C -0.279709 6.324083 2.345113 0
M  V30 35 C 0.614246 5.378991 2.807992 0
M  V30 36 C 0.367380 4.033827 2.766733 0
M  V30 37 C -0.831017 3.613955 2.237248 0
M  V30 38 Cl -1.029220 1.846967 2.247361 0
M  V30 39 C -1.545441 1.931094 -3.538266 0
M  V30 40 C -0.346412 1.249118 -4.214441 0
M  V30 41 C 1.285933 -1.408633 -2.197951 0
M  V30 42 H 2.579258 -6.575122 5.427711 0
M  V30 43 H 2.486012 -8.283597 5.928665 0
M  V30 44 H 4.088271 -7.638791 5.430525 0
M  V30 45 H 1.698232 -9.394343 2.668880 0
M  V30 46 H 2.604507 -10.075271 4.085778 0
M  V30 47 H 1.107973 -9.132746 4.354477 0
M  V30 48 H 1.973923 -7.287661 2.054537 0
M  V30 49 H 1.450163 -6.467431 3.547705 0
M  V30 50 H 3.760280 -5.560815 3.875730 0
M  V30 51 H 4.294988 -6.426418 2.389447 0
M  V30 52 H 2.131028 -4.423267 2.652237 0
M  V30 53 H 4.194532 -5.008805 0.780637 0
M  V30 54 H 3.701865 -2.848909 -1.353489 0
M  V30 55 H 3.899189 -0.324461 -0.210405 0
M  V30 56 H 3.242093 1.815641 -1.027840 0
M  V30 57 H 1.411512 2.017429 -2.541295 0
M  V30 58 H -1.271737 -1.633162 -2.983427 0
M  V30 59 H -0.793426 -1.716503 -4.668653 0
M  V30 60 H -2.204778 -0.194413 -5.502262 0
M  V30 61 H -3.172990 -1.056029 -4.255915 0
M  V30 62 H -3.354555 1.543557 -4.400566 0
M  V30 63 H -3.866887 -0.095790 -2.074656 0
M  V30 64 H -6.635747 0.358089 1.137732 0
M  V30 65 H -6.082800 2.747228 2.180051 0
M  V30 66 H -4.140276 5.174578 0.330290 0
M  V30 67 H -0.080436 7.387369 2.381812 0
M  V30 68 H 1.549385 5.721313 3.220510 0
M  V30 69 H 1.125322 3.352342 3.152791 0
M  V30 70 H -1.235551 2.130536 -2.523376 0
M  V30 71 H -1.672869 2.887114 -4.066036 0
M  V30 72 H 0.531351 1.892593 -4.266695 0
M  V30 73 H -0.659849 1.001138 -5.242422 0
M  V30 74 H 0.848148 -2.333050 -2.435396 0
M  V30 END ATOM
M  V30 BEGIN BOND
M  V30 1 1 1 2
M  V30 2 1 2 3
M  V30 3 1 2 4
M  V30 4 1 4 5
M  V30 5 1 5 6
M  V30 6 2 6 7
M  V30 7 1 7 8
M  V30 8 2 8 9
M  V30 9 1 8 10
M  V30 10 1 10 11
M  V30 11 2 11 12
M  V30 12 1 12 13
M  V30 13 2 13 14
M  V30 14 1 14 15
M  V30 15 1 15 16
M  V30 16 1 16 17
M  V30 17 1 17 18
M  V30 18 1 18 19
M  V30 19 1 19 20
M  V30 20 1 20 21
M  V30 21 2 21 22
M  V30 22 1 21 23
M  V30 23 2 23 24
M  V30 24 1 24 25
M  V30 25 1 25 26
M  V30 26 2 26 27
M  V30 27 1 27 28
M  V30 28 1 28 29
M  V30 29 2 29 30
M  V30 30 1 29 31
M  V30 31 2 31 32
M  V30 32 1 32 33
M  V30 33 1 32 34
M  V30 34 2 34 35
M  V30 35 1 35 36
M  V30 36 2 36 37
M  V30 37 1 37 38
M  V30 38 1 19 39
M  V30 39 1 39 40
M  V30 40 2 15 41
M  V30 41 1 41 11
M  V30 42 1 40 16
M  V30 43 1 27 23
M  V30 44 1 37 31
M  V30 45 1 1 42
M  V30 46 1 1 43
M  V30 47 1 1 44
M  V30 48 1 3 45
M  V30 49 1 3 46
M  V30 50 1 3 47
M  V30 51 1 4 48
M  V30 52 1 4 49
M  V30 53 1 5 50
M  V30 54 1 5 51
M  V30 55 1 6 52
M  V30 56 1 7 53
M  V30 57 1 10 54
M  V30 58 1 12 55
M  V30 59 1 13 56
M  V30 60 1 14 57
M  V30 61 1 17 58
M  V30 62 1 17 59
M  V30 63 1 18 60
M  V30 64 1 18 61
M  V30 65 1 19 62
M  V30 66 1 20 63
M  V30 67 1 25 64
M  V30 68 1 26 65
M  V30 69 1 28 66
M  V30 70 1 34 67
M  V30 71 1 35 68
M  V30 72 1 36 69
M  V30 73 1 39 70
M  V30 74 1 39 71
M  V30 75 1 40 72
M  V30 76 1 40 73
M  V30 77 1 41 74
M  V30 END BOND
M  V30 END CTAB
M  END
>  <Dataset>  (753) 
ChEMBL_Kinases

>  <Ligand_Instance>  (753) 
nan

>  <PDB_ID>  (753) 
nan

>  <Standardized_SMILES>  (753) 
CN(C)CC/C=C/C(=O)Nc1cccc(N2CCC(NC(=O)c3n[nH]cc3NC(=O)c3c(Cl)cccc3Cl)CC2)c1

>  <Name>  (753) 
nan

>  <Pocket>  (753) 
nan

>  <ATP_Site>  (753) 
nan

>  <Peripheral>  (753) 
nan

>  <Num_H_Atoms_ProtBoundConf>  (753) 
nan

>  <Num_Resolved_Atoms>  (753) 
nan

>  <Num_Not_Resolved_Atoms>  (753) 
nan

$$$$
CHEMBL4589113
     RDKit          3D

  0  0  0  0  0  0  0  0  0  0999 V3000
M  V30 BEGIN CTAB
M  V30 COUNTS 47 49 0 0 0
M  V30 BEGIN ATOM
M  V30 1 C 1.575261 -2.213140 1.828209 0
M  V30 2 C 1.074246 -2.441289 0.416159 0
M  V30 3 C 1.678708 -3.768785 -0.060279 0
M  V30 4 C 1.475185 -1.333749 -0.525007 0
M  V30 5 C 2.989480 -1.202611 -0.607940 0
M  V30 6 S 3.459173 0.090220 -1.706139 0
M  V30 7 C 2.830408 1.664101 -1.200852 0
M  V30 8 O 4.962526 0.176862 -1.712744 0
M  V30 9 O 2.966860 -0.188978 -3.079199 0
M  V30 10 N -0.360452 -2.588538 0.385800 0
M  V30 11 C -1.191273 -1.548011 0.909977 0
M  V30 12 N -0.680999 -0.425054 1.444840 0
M  V30 13 C -1.407685 0.582019 1.955651 0
M  V30 14 C -0.780557 1.770775 2.518308 0
M  V30 15 C -1.544752 2.792615 3.041008 0
M  V30 16 C -0.933746 3.920841 3.575216 0
M  V30 17 N 0.405058 4.069998 3.608747 0
M  V30 18 C 1.185488 3.085302 3.103738 0
M  V30 19 C 0.583511 1.960177 2.570757 0
M  V30 20 N -2.748955 0.497762 1.949815 0
M  V30 21 C -3.376156 -0.599447 1.430603 0
M  V30 22 C -4.755392 -0.703739 1.415970 0
M  V30 23 N -5.363178 -1.796958 0.898247 0
M  V30 24 C -4.592678 -2.794489 0.390875 0
M  V30 25 C -3.221157 -2.665675 0.417661 0
M  V30 26 C -2.557317 -1.577868 0.931333 0
M  V30 27 H 2.574506 -2.685508 1.906251 0
M  V30 28 H 0.901900 -2.757984 2.521404 0
M  V30 29 H 1.622604 -1.156603 2.089107 0
M  V30 30 H 2.688692 -3.937525 0.323768 0
M  V30 31 H 1.666029 -3.734405 -1.184777 0
M  V30 32 H 0.978370 -4.564354 0.267564 0
M  V30 33 H 1.044485 -1.602544 -1.512747 0
M  V30 34 H 1.000927 -0.404174 -0.193143 0
M  V30 35 H 3.361078 -2.157551 -1.037423 0
M  V30 36 H 3.447272 -1.123381 0.383141 0
M  V30 37 H 1.747517 1.774387 -1.314967 0
M  V30 38 H 3.279739 2.411498 -1.917852 0
M  V30 39 H 3.207304 1.959418 -0.194199 0
M  V30 40 H -0.764301 -3.452527 -0.019343 0
M  V30 41 H -2.621077 2.686185 3.020610 0
M  V30 42 H -1.621146 4.660471 3.957429 0
M  V30 43 H 2.273118 3.166033 3.111218 0
M  V30 44 H 1.241896 1.205732 2.181568 0
M  V30 45 H -5.265850 0.150317 1.846268 0
M  V30 46 H -5.125995 -3.638185 -0.007005 0
M  V30 47 H -2.718589 -3.505909 -0.006028 0
M  V30 END ATOM
M  V30 BEGIN BOND
M  V30 1 1 1 2
M  V30 2 1 2 3
M  V30 3 1 2 4
M  V30 4 1 4 5
M  V30 5 1 5 6
M  V30 6 1 6 7
M  V30 7 2 6 8
M  V30 8 2 6 9
M  V30 9 1 2 10
M  V30 10 1 10 11
M  V30 11 2 11 12
M  V30 12 1 12 13
M  V30 13 1 13 14
M  V30 14 2 14 15
M  V30 15 1 15 16
M  V30 16 2 16 17
M  V30 17 1 17 18
M  V30 18 2 18 19
M  V30 19 2 13 20
M  V30 20 1 20 21
M  V30 21 2 21 22
M  V30 22 1 22 23
M  V30 23 2 23 24
M  V30 24 1 24 25
M  V30 25 2 25 26
M  V30 26 1 26 11
M  V30 27 1 19 14
M  V30 28 1 26 21
M  V30 29 1 1 27
M  V30 30 1 1 28
M  V30 31 1 1 29
M  V30 32 1 3 30
M  V30 33 1 3 31
M  V30 34 1 3 32
M  V30 35 1 4 33
M  V30 36 1 4 34
M  V30 37 1 5 35
M  V30 38 1 5 36
M  V30 39 1 7 37
M  V30 40 1 7 38
M  V30 41 1 7 39
M  V30 42 1 10 40
M  V30 43 1 15 41
M  V30 44 1 16 42
M  V30 45 1 18 43
M  V30 46 1 19 44
M  V30 47 1 22 45
M  V30 48 1 24 46
M  V30 49 1 25 47
M  V30 END BOND
M  V30 END CTAB
M  END
>  <Dataset>  (754) 
ChEMBL_Kinases

>  <Ligand_Instance>  (754) 
nan

>  <PDB_ID>  (754) 
nan

>  <Standardized_SMILES>  (754) 
CC(C)(CCS(C)(=O)=O)Nc1nc(-c2ccncc2)nc2cnccc12

>  <Name>  (754) 
nan

>  <Pocket>  (754) 
nan

>  <ATP_Site>  (754) 
nan

>  <Peripheral>  (754) 
nan

>  <Num_H_Atoms_ProtBoundConf>  (754) 
nan

>  <Num_Resolved_Atoms>  (754) 
nan

>  <Num_Not_Resolved_Atoms>  (754) 
nan

$$$$
CHEMBL4589029
     RDKit          3D

  0  0  0  0  0  0  0  0  0  0999 V3000
M  V30 BEGIN CTAB
M  V30 COUNTS 29 31 0 0 0
M  V30 BEGIN ATOM
M  V30 1 C -2.297843 -1.943840 1.504052 0
M  V30 2 C -1.024085 -2.647530 1.728840 0
M  V30 3 N -0.714390 -3.659712 2.594263 0
M  V30 4 N 0.559923 -4.010369 2.455285 0
M  V30 5 C 1.170268 -3.278603 1.513457 0
M  V30 6 C 2.423657 -3.168354 0.928874 0
M  V30 7 C 2.690738 -2.250915 -0.065838 0
M  V30 8 N 1.658475 -1.463818 -0.439256 0
M  V30 9 C 0.420170 -1.526536 0.091698 0
M  V30 10 N -0.411156 -0.561975 -0.538701 0
M  V30 11 C -0.026815 0.724177 -0.004440 0
M  V30 12 C -0.176470 1.831414 -0.847829 0
M  V30 13 C 0.142505 3.117665 -0.510653 0
M  V30 14 C 0.646336 3.382371 0.732052 0
M  V30 15 Cl 1.097159 4.983196 1.284635 0
M  V30 16 C 0.804782 2.310424 1.584370 0
M  V30 17 C 0.482074 1.023504 1.239473 0
M  V30 18 C 0.163403 -2.445054 1.083546 0
M  V30 19 H -2.530193 -2.015261 0.421440 0
M  V30 20 H -3.057983 -2.481154 2.108712 0
M  V30 21 H -2.321653 -0.898602 1.837632 0
M  V30 22 H 1.099231 -4.752127 2.969456 0
M  V30 23 H 3.180371 -3.834948 1.288824 0
M  V30 24 H 3.686340 -2.180183 -0.516188 0
M  V30 25 H -1.183300 -0.563194 -1.249382 0
M  V30 26 H -0.577061 1.707385 -1.866424 0
M  V30 27 H 0.027628 3.963105 -1.173141 0
M  V30 28 H 1.203463 2.445100 2.602681 0
M  V30 29 H 0.587322 0.141436 1.891256 0
M  V30 END ATOM
M  V30 BEGIN BOND
M  V30 1 1 1 2
M  V30 2 2 2 3
M  V30 3 1 3 4
M  V30 4 1 4 5
M  V30 5 2 5 6
M  V30 6 1 6 7
M  V30 7 2 7 8
M  V30 8 1 8 9
M  V30 9 1 9 10
M  V30 10 1 10 11
M  V30 11 2 11 12
M  V30 12 1 12 13
M  V30 13 2 13 14
M  V30 14 1 14 15
M  V30 15 1 14 16
M  V30 16 2 16 17
M  V30 17 2 9 18
M  V30 18 1 18 2
M  V30 19 1 18 5
M  V30 20 1 17 11
M  V30 21 1 1 19
M  V30 22 1 1 20
M  V30 23 1 1 21
M  V30 24 1 4 22
M  V30 25 1 6 23
M  V30 26 1 7 24
M  V30 27 1 10 25
M  V30 28 1 12 26
M  V30 29 1 13 27
M  V30 30 1 16 28
M  V30 31 1 17 29
M  V30 END BOND
M  V30 END CTAB
M  END
>  <Dataset>  (755) 
ChEMBL_Kinases

>  <Ligand_Instance>  (755) 
nan

>  <PDB_ID>  (755) 
nan

>  <Standardized_SMILES>  (755) 
Cc1n[nH]c2ccnc(Nc3ccc(Cl)cc3)c12

>  <Name>  (755) 
nan

>  <Pocket>  (755) 
nan

>  <ATP_Site>  (755) 
nan

>  <Peripheral>  (755) 
nan

>  <Num_H_Atoms_ProtBoundConf>  (755) 
nan

>  <Num_Resolved_Atoms>  (755) 
nan

>  <Num_Not_Resolved_Atoms>  (755) 
nan

$$$$
CHEMBL4589022
     RDKit          3D

  0  0  0  0  0  0  0  0  0  0999 V3000
M  V30 BEGIN CTAB
M  V30 COUNTS 45 48 0 0 0
M  V30 BEGIN ATOM
M  V30 1 C 1.839293 -3.567726 3.365458 0
M  V30 2 C 2.197886 -2.130308 3.702896 0
M  V30 3 C 0.938305 -1.508787 4.313198 0
M  V30 4 N 2.628097 -1.414711 2.516207 0
M  V30 5 C 2.002727 -1.468550 1.326384 0
M  V30 6 C 2.656836 -0.678662 0.403905 0
M  V30 7 C 2.452385 -0.344912 -0.999939 0
M  V30 8 N 3.488272 -0.378296 -1.889106 0
M  V30 9 N 3.054588 -0.035595 -3.089391 0
M  V30 10 C 1.743202 0.238864 -3.073644 0
M  V30 11 C 0.788407 0.632642 -3.982232 0
M  V30 12 C -0.514198 0.816149 -3.530652 0
M  V30 13 N -0.841556 0.614504 -2.232208 0
M  V30 14 C 0.088071 0.229957 -1.342378 0
M  V30 15 O -0.293570 0.036203 -0.022673 0
M  V30 16 C -1.615337 0.234056 0.384273 0
M  V30 17 C -2.256414 -0.991679 0.981712 0
M  V30 18 C -3.422924 -0.519924 1.827984 0
M  V30 19 O -4.063735 0.595603 1.289665 0
M  V30 20 C -3.237023 1.692148 1.460070 0
M  V30 21 C -1.754118 1.329266 1.426116 0
M  V30 22 C 1.380411 0.042518 -1.766222 0
M  V30 23 C 3.724897 -0.149170 1.142488 0
M  V30 24 N 3.674210 -0.613255 2.404293 0
M  V30 25 H 1.127567 -3.992821 4.103011 0
M  V30 26 H 1.377933 -3.609658 2.361271 0
M  V30 27 H 2.760020 -4.212558 3.381635 0
M  V30 28 H 2.992463 -2.062918 4.459675 0
M  V30 29 H 1.144391 -0.457743 4.555340 0
M  V30 30 H 0.069561 -1.635670 3.630447 0
M  V30 31 H 0.729408 -2.127873 5.218712 0
M  V30 32 H 1.122737 -2.024004 1.056499 0
M  V30 33 H 3.657638 0.016324 -3.948968 0
M  V30 34 H 1.117349 0.773038 -4.989090 0
M  V30 35 H -1.198752 1.127441 -4.320887 0
M  V30 36 H -2.281679 0.553519 -0.463350 0
M  V30 37 H -2.593615 -1.680383 0.174477 0
M  V30 38 H -1.534634 -1.501439 1.657385 0
M  V30 39 H -4.187388 -1.329073 1.886758 0
M  V30 40 H -3.064226 -0.222151 2.838575 0
M  V30 41 H -3.517671 2.207933 2.414599 0
M  V30 42 H -3.472121 2.436518 0.657013 0
M  V30 43 H -1.441667 0.939716 2.415924 0
M  V30 44 H -1.173387 2.240695 1.123079 0
M  V30 45 H 4.536196 0.527765 0.891834 0
M  V30 END ATOM
M  V30 BEGIN BOND
M  V30 1 1 1 2
M  V30 2 1 2 3
M  V30 3 1 2 4
M  V30 4 1 4 5
M  V30 5 2 5 6
M  V30 6 1 6 7
M  V30 7 2 7 8
M  V30 8 1 8 9
M  V30 9 1 9 10
M  V30 10 2 10 11
M  V30 11 1 11 12
M  V30 12 2 12 13
M  V30 13 1 13 14
M  V30 14 1 14 15
M  V30 15 1 15 16
M  V30 16 1 16 17
M  V30 17 1 17 18
M  V30 18 1 18 19
M  V30 19 1 19 20
M  V30 20 1 20 21
M  V30 21 2 14 22
M  V30 22 1 6 23
M  V30 23 2 23 24
M  V30 24 1 24 4
M  V30 25 1 22 7
M  V30 26 1 22 10
M  V30 27 1 21 16
M  V30 28 1 1 25
M  V30 29 1 1 26
M  V30 30 1 1 27
M  V30 31 1 2 28
M  V30 32 1 3 29
M  V30 33 1 3 30
M  V30 34 1 3 31
M  V30 35 1 5 32
M  V30 36 1 9 33
M  V30 37 1 11 34
M  V30 38 1 12 35
M  V30 39 1 16 36
M  V30 40 1 17 37
M  V30 41 1 17 38
M  V30 42 1 18 39
M  V30 43 1 18 40
M  V30 44 1 20 41
M  V30 45 1 20 42
M  V30 46 1 21 43
M  V30 47 1 21 44
M  V30 48 1 23 45
M  V30 END BOND
M  V30 END CTAB
M  END
>  <Dataset>  (756) 
ChEMBL_Kinases

>  <Ligand_Instance>  (756) 
nan

>  <PDB_ID>  (756) 
nan

>  <Standardized_SMILES>  (756) 
CC(C)n1cc(-c2n[nH]c3ccnc(OC4CCOCC4)c23)cn1

>  <Name>  (756) 
nan

>  <Pocket>  (756) 
nan

>  <ATP_Site>  (756) 
nan

>  <Peripheral>  (756) 
nan

>  <Num_H_Atoms_ProtBoundConf>  (756) 
nan

>  <Num_Resolved_Atoms>  (756) 
nan

>  <Num_Not_Resolved_Atoms>  (756) 
nan

$$$$
CHEMBL460210
     RDKit          3D

  0  0  0  0  0  0  0  0  0  0999 V3000
M  V30 BEGIN CTAB
M  V30 COUNTS 64 67 0 0 0
M  V30 BEGIN ATOM
M  V30 1 C 0.592591 -2.872110 4.175535 0
M  V30 2 C 1.947060 -2.365838 3.753627 0
M  V30 3 C 3.019081 -3.133639 4.503761 0
M  V30 4 C 2.183598 -2.570107 2.275651 0
M  V30 5 C 1.109549 -1.809127 1.480827 0
M  V30 6 S 1.272635 -0.082170 1.921114 0
M  V30 7 C 0.132959 0.998119 1.119651 0
M  V30 8 N 0.595067 1.488122 -0.068025 0
M  V30 9 C -0.130344 2.330163 -0.829885 0
M  V30 10 C 0.328529 2.829646 -2.030340 0
M  V30 11 C -0.428704 3.691230 -2.797314 0
M  V30 12 C -1.663847 4.042684 -2.330465 0
M  V30 13 C -2.153480 3.553663 -1.121192 0
M  V30 14 C -1.374624 2.703910 -0.391696 0
M  V30 15 C -1.843872 2.217801 0.795640 0
M  V30 16 O -2.981097 2.529583 1.244722 0
M  V30 17 N -1.098696 1.378538 1.536348 0
M  V30 18 C -1.484587 0.812967 2.783103 0
M  V30 19 C -0.794116 1.420457 3.837708 0
M  V30 20 C -1.034041 1.002723 5.150029 0
M  V30 21 C -1.939233 0.001318 5.432932 0
M  V30 22 C -2.598510 -0.571330 4.365899 0
M  V30 23 Cl -3.764262 -1.848862 4.632041 0
M  V30 24 C -2.390902 -0.188902 3.059991 0
M  V30 25 C 1.222282 -2.104373 0.052076 0
M  V30 26 O 2.216975 -2.900526 -0.036988 0
M  V30 27 N 0.756961 -1.927806 -1.259780 0
M  V30 28 C 1.434873 -2.609749 -2.311092 0
M  V30 29 C 0.532730 -3.367845 -3.258370 0
M  V30 30 C -0.644868 -2.573750 -3.741610 0
M  V30 31 C -0.304175 -1.416811 -4.573684 0
M  V30 32 N -1.553639 -0.791303 -4.934107 0
M  V30 33 O 0.677820 -0.802106 -5.065743 0
M  V30 34 C -1.360522 -2.060658 -2.513040 0
M  V30 35 C -0.346315 -1.144511 -1.816244 0
M  V30 36 H 0.609661 -3.089225 5.262159 0
M  V30 37 H -0.222076 -2.181043 3.891076 0
M  V30 38 H 0.411886 -3.845949 3.679831 0
M  V30 39 H 1.993418 -1.288230 3.998197 0
M  V30 40 H 3.329355 -4.018675 3.909866 0
M  V30 41 H 3.818229 -2.436956 4.759801 0
M  V30 42 H 2.589274 -3.540759 5.445262 0
M  V30 43 H 2.079843 -3.679399 2.105521 0
M  V30 44 H 3.199529 -2.295846 1.984328 0
M  V30 45 H 0.144584 -2.267779 1.839631 0
M  V30 46 H 1.327625 2.510474 -2.351162 0
M  V30 47 H -0.043669 4.066401 -3.732943 0
M  V30 48 H -2.244396 4.719785 -2.945476 0
M  V30 49 H -3.138920 3.879542 -0.822786 0
M  V30 50 H -0.061124 2.211108 3.773203 0
M  V30 51 H -0.529858 1.434301 6.017484 0
M  V30 52 H -2.122068 -0.319239 6.450492 0
M  V30 53 H -2.853662 -0.574829 2.180684 0
M  V30 54 H 2.159054 -3.347580 -1.913982 0
M  V30 55 H 2.028736 -1.907583 -2.959124 0
M  V30 56 H 1.144992 -3.671418 -4.128233 0
M  V30 57 H 0.139761 -4.244149 -2.713488 0
M  V30 58 H -1.326438 -3.263464 -4.253749 0
M  V30 59 H -2.488778 -0.858654 -5.427655 0
M  V30 60 H -2.207888 0.036796 -4.913675 0
M  V30 61 H -2.259272 -1.478420 -2.713987 0
M  V30 62 H -1.570054 -2.900012 -1.792139 0
M  V30 63 H 0.098604 -0.432721 -2.528657 0
M  V30 64 H -0.928758 -0.661255 -1.007840 0
M  V30 END ATOM
M  V30 BEGIN BOND
M  V30 1 1 1 2
M  V30 2 1 2 3
M  V30 3 1 2 4
M  V30 4 1 4 5
M  V30 5 1 5 6
M  V30 6 1 6 7
M  V30 7 2 7 8
M  V30 8 1 8 9
M  V30 9 2 9 10
M  V30 10 1 10 11
M  V30 11 2 11 12
M  V30 12 1 12 13
M  V30 13 2 13 14
M  V30 14 1 14 15
M  V30 15 2 15 16
M  V30 16 1 15 17
M  V30 17 1 17 18
M  V30 18 2 18 19
M  V30 19 1 19 20
M  V30 20 2 20 21
M  V30 21 1 21 22
M  V30 22 1 22 23
M  V30 23 2 22 24
M  V30 24 1 5 25
M  V30 25 2 25 26
M  V30 26 1 25 27
M  V30 27 1 27 28
M  V30 28 1 28 29
M  V30 29 1 29 30
M  V30 30 1 30 31
M  V30 31 1 31 32
M  V30 32 2 31 33
M  V30 33 1 30 34
M  V30 34 1 34 35
M  V30 35 1 17 7
M  V30 36 1 24 18
M  V30 37 1 35 27
M  V30 38 1 14 9
M  V30 39 1 1 36
M  V30 40 1 1 37
M  V30 41 1 1 38
M  V30 42 1 2 39
M  V30 43 1 3 40
M  V30 44 1 3 41
M  V30 45 1 3 42
M  V30 46 1 4 43
M  V30 47 1 4 44
M  V30 48 1 5 45
M  V30 49 1 10 46
M  V30 50 1 11 47
M  V30 51 1 12 48
M  V30 52 1 13 49
M  V30 53 1 19 50
M  V30 54 1 20 51
M  V30 55 1 21 52
M  V30 56 1 24 53
M  V30 57 1 28 54
M  V30 58 1 28 55
M  V30 59 1 29 56
M  V30 60 1 29 57
M  V30 61 1 30 58
M  V30 62 1 32 59
M  V30 63 1 32 60
M  V30 64 1 34 61
M  V30 65 1 34 62
M  V30 66 1 35 63
M  V30 67 1 35 64
M  V30 END BOND
M  V30 END CTAB
M  END
>  <Dataset>  (757) 
ChEMBL_Kinases

>  <Ligand_Instance>  (757) 
nan

>  <PDB_ID>  (757) 
nan

>  <Standardized_SMILES>  (757) 
CC(C)CC(Sc1nc2ccccc2c(=O)n1-c1cccc(Cl)c1)C(=O)N1CCC(C(N)=O)CC1

>  <Name>  (757) 
nan

>  <Pocket>  (757) 
nan

>  <ATP_Site>  (757) 
nan

>  <Peripheral>  (757) 
nan

>  <Num_H_Atoms_ProtBoundConf>  (757) 
nan

>  <Num_Resolved_Atoms>  (757) 
nan

>  <Num_Not_Resolved_Atoms>  (757) 
nan

$$$$
CHEMBL4573944
     RDKit          3D

  0  0  0  0  0  0  0  0  0  0999 V3000
M  V30 BEGIN CTAB
M  V30 COUNTS 55 58 0 0 0
M  V30 BEGIN ATOM
M  V30 1 C 4.670316 -1.859971 -2.046501 0
M  V30 2 C 3.743474 -1.097873 -1.155856 0
M  V30 3 C 2.409326 -1.502251 -1.000743 0
M  V30 4 C 1.708864 -0.685965 -0.147247 0
M  V30 5 C 2.189764 0.394379 0.498301 0
M  V30 6 C 3.497194 0.719722 0.293089 0
M  V30 7 C 4.308958 -0.006261 -0.530885 0
M  V30 8 C 4.067333 1.815657 0.920429 0
M  V30 9 O 5.269371 2.111180 0.729064 0
M  V30 10 N 3.284282 2.540066 1.734018 0
M  V30 11 C 1.996186 2.237198 1.949424 0
M  V30 12 C 1.235670 3.015258 2.795718 0
M  V30 13 C 1.901865 4.175824 3.438690 0
M  V30 14 C -0.082353 2.656767 2.979708 0
M  V30 15 C -0.640654 1.542623 2.334476 0
M  V30 16 O -1.993447 1.448883 2.729368 0
M  V30 17 C 0.157051 0.766270 1.476652 0
M  V30 18 C -0.751235 -0.245264 1.028306 0
M  V30 19 C -1.621870 -0.254476 -0.090694 0
M  V30 20 C -2.479711 -1.307876 -0.282527 0
M  V30 21 C -2.499761 -2.357501 0.606892 0
M  V30 22 C -3.458320 -3.443243 0.313099 0 CFG=1
M  V30 23 C -4.858049 -3.160118 0.824699 0
M  V30 24 N -3.488176 -3.868929 -1.048781 0
M  V30 25 C -2.193809 -4.149573 -1.594537 0
M  V30 26 C -4.383018 -3.163298 -1.909305 0
M  V30 27 C -1.677069 -2.404354 1.712820 0
M  V30 28 C -0.802280 -1.328283 1.906849 0
M  V30 29 C 1.443465 1.155683 1.326882 0
M  V30 30 H 4.048620 -2.487878 -2.705923 0
M  V30 31 H 5.377399 -2.490396 -1.505296 0
M  V30 32 H 5.157999 -1.099346 -2.694116 0
M  V30 33 H 2.163597 -2.378043 -1.573631 0
M  V30 34 H 0.768942 -1.126873 -0.154273 0
M  V30 35 H 5.326880 0.272341 -0.671691 0
M  V30 36 H 3.697396 3.361184 2.208912 0
M  V30 37 H 2.286473 4.888995 2.653652 0
M  V30 38 H 1.095164 4.736498 3.970544 0
M  V30 39 H 2.679241 3.895042 4.155128 0
M  V30 40 H -0.575889 3.334614 3.658894 0
M  V30 41 H -2.123260 1.180431 3.713775 0
M  V30 42 H -1.480262 0.637502 -0.685252 0
M  V30 43 H -3.070174 -1.165613 -1.170909 0
M  V30 44 H -3.119801 -4.342571 0.907692 0
M  V30 45 H -5.552433 -3.749395 0.178472 0
M  V30 46 H -5.092258 -2.072759 0.839915 0
M  V30 47 H -5.010051 -3.555731 1.853532 0
M  V30 48 H -2.333193 -4.188373 -2.708497 0
M  V30 49 H -1.868708 -5.143882 -1.225218 0
M  V30 50 H -1.438109 -3.367626 -1.322181 0
M  V30 51 H -5.071306 -2.467269 -1.408341 0
M  V30 52 H -5.059380 -3.947194 -2.361832 0
M  V30 53 H -3.887861 -2.712917 -2.811999 0
M  V30 54 H -1.730869 -3.245973 2.377171 0
M  V30 55 H -0.196439 -1.449981 2.797307 0
M  V30 END ATOM
M  V30 BEGIN BOND
M  V30 1 1 1 2
M  V30 2 2 2 3
M  V30 3 1 3 4
M  V30 4 2 4 5
M  V30 5 1 5 6
M  V30 6 2 6 7
M  V30 7 1 6 8
M  V30 8 2 8 9
M  V30 9 1 8 10
M  V30 10 1 10 11
M  V30 11 2 11 12
M  V30 12 1 12 13
M  V30 13 1 12 14
M  V30 14 2 14 15
M  V30 15 1 15 16
M  V30 16 1 15 17
M  V30 17 1 17 18
M  V30 18 2 18 19
M  V30 19 1 19 20
M  V30 20 2 20 21
M  V30 21 1 21 22
M  V30 22 1 22 23
M  V30 23 1 22 24
M  V30 24 1 24 25
M  V30 25 1 24 26
M  V30 26 1 21 27
M  V30 27 2 27 28
M  V30 28 2 17 29
M  V30 29 1 7 2
M  V30 30 1 29 11
M  V30 31 1 29 5
M  V30 32 1 28 18
M  V30 33 1 1 30
M  V30 34 1 1 31
M  V30 35 1 1 32
M  V30 36 1 3 33
M  V30 37 1 4 34
M  V30 38 1 7 35
M  V30 39 1 10 36
M  V30 40 1 13 37
M  V30 41 1 13 38
M  V30 42 1 13 39
M  V30 43 1 14 40
M  V30 44 1 16 41
M  V30 45 1 19 42
M  V30 46 1 20 43
M  V30 47 1 22 44 CFG=1
M  V30 48 1 23 45
M  V30 49 1 23 46
M  V30 50 1 23 47
M  V30 51 1 25 48
M  V30 52 1 25 49
M  V30 53 1 25 50
M  V30 54 1 26 51
M  V30 55 1 26 52
M  V30 56 1 26 53
M  V30 57 1 27 54
M  V30 58 1 28 55
M  V30 END BOND
M  V30 END CTAB
M  END
>  <Dataset>  (758) 
ChEMBL_Kinases

>  <Ligand_Instance>  (758) 
nan

>  <PDB_ID>  (758) 
nan

>  <Standardized_SMILES>  (758) 
Cc1ccc2c(c1)c(=O)[nH]c1c(C)cc(O)c(-c3ccc([C@@H](C)N(C)C)cc3)c12

>  <Name>  (758) 
nan

>  <Pocket>  (758) 
nan

>  <ATP_Site>  (758) 
nan

>  <Peripheral>  (758) 
nan

>  <Num_H_Atoms_ProtBoundConf>  (758) 
nan

>  <Num_Resolved_Atoms>  (758) 
nan

>  <Num_Not_Resolved_Atoms>  (758) 
nan

$$$$
CHEMBL4573899
     RDKit          3D

  0  0  0  0  0  0  0  0  0  0999 V3000
M  V30 BEGIN CTAB
M  V30 COUNTS 48 53 0 0 0
M  V30 BEGIN ATOM
M  V30 1 C -2.475762 -6.464708 1.703422 0
M  V30 2 C -2.677505 -6.029332 0.425797 0
M  V30 3 C -1.982991 -4.917727 -0.030310 0
M  V30 4 C -1.112432 -4.304063 0.847949 0
M  V30 5 C -0.402803 -3.133252 0.317126 0
M  V30 6 N 0.451148 -3.121637 -0.745335 0
M  V30 7 C 0.894852 -1.840929 -0.910745 0
M  V30 8 C 1.763046 -1.268761 -1.820715 0
M  V30 9 C 2.018013 0.104416 -1.722160 0
M  V30 10 C 1.389822 0.817930 -0.721629 0
M  V30 11 N 1.626486 2.215367 -0.592696 0
M  V30 12 C 2.501139 3.018413 -1.431761 0
M  V30 13 C 2.474191 4.391620 -0.796679 0
M  V30 14 C 0.984116 4.420999 -0.422832 0
M  V30 15 C 1.059478 3.118021 0.380342 0
M  V30 16 C 2.177299 3.499630 1.317845 0
M  V30 17 N 3.080497 4.283936 0.492382 0
M  V30 18 N 0.549808 0.212419 0.143009 0
M  V30 19 N 0.300464 -1.107802 0.053597 0
M  V30 20 C -0.507511 -1.850204 0.837002 0
M  V30 21 C -1.298890 -1.423639 1.954563 0
M  V30 22 C -0.839315 -0.854973 3.137559 0
M  V30 23 C -1.632882 -0.465127 4.173357 0
M  V30 24 N -2.949394 -0.626763 4.077547 0
M  V30 25 C -3.478842 -1.161775 2.984228 0
M  V30 26 C -2.690663 -1.560871 1.928784 0
M  V30 27 C -0.940262 -4.779625 2.131755 0
M  V30 28 C -1.624229 -5.883187 2.597363 0
M  V30 29 H -3.035679 -7.346480 2.044088 0
M  V30 30 H -3.379499 -6.549713 -0.234928 0
M  V30 31 H -2.186638 -4.622211 -1.052216 0
M  V30 32 H 2.224132 -1.881113 -2.582135 0
M  V30 33 H 2.700698 0.557582 -2.436758 0
M  V30 34 H 2.068445 3.149630 -2.449134 0
M  V30 35 H 3.531159 2.664871 -1.481517 0
M  V30 36 H 2.779102 5.207752 -1.413855 0
M  V30 37 H 0.749501 5.274145 0.221649 0
M  V30 38 H 0.345608 4.308084 -1.311966 0
M  V30 39 H 0.138113 2.831386 0.838548 0
M  V30 40 H 2.663297 2.572322 1.670601 0
M  V30 41 H 1.826417 4.049749 2.212317 0
M  V30 42 H 4.022308 3.826634 0.447475 0
M  V30 43 H 0.244817 -0.725935 3.207664 0
M  V30 44 H -1.179477 -0.029572 5.058880 0
M  V30 45 H -4.558838 -1.254552 2.994956 0
M  V30 46 H -3.159203 -1.994935 1.049749 0
M  V30 47 H -0.248865 -4.271651 2.791052 0
M  V30 48 H -1.458250 -6.221583 3.611489 0
M  V30 END ATOM
M  V30 BEGIN BOND
M  V30 1 2 1 2
M  V30 2 1 2 3
M  V30 3 2 3 4
M  V30 4 1 4 5
M  V30 5 1 5 6
M  V30 6 2 6 7
M  V30 7 1 7 8
M  V30 8 2 8 9
M  V30 9 1 9 10
M  V30 10 1 10 11
M  V30 11 1 11 12
M  V30 12 1 12 13
M  V30 13 1 13 14
M  V30 14 1 14 15
M  V30 15 1 15 16
M  V30 16 1 16 17
M  V30 17 2 10 18
M  V30 18 1 18 19
M  V30 19 1 19 20
M  V30 20 1 20 21
M  V30 21 2 21 22
M  V30 22 1 22 23
M  V30 23 2 23 24
M  V30 24 1 24 25
M  V30 25 2 25 26
M  V30 26 1 4 27
M  V30 27 2 27 28
M  V30 28 1 28 1
M  V30 29 2 20 5
M  V30 30 1 26 21
M  V30 31 1 19 7
M  V30 32 1 15 11
M  V30 33 1 17 13
M  V30 34 1 1 29
M  V30 35 1 2 30
M  V30 36 1 3 31
M  V30 37 1 8 32
M  V30 38 1 9 33
M  V30 39 1 12 34
M  V30 40 1 12 35
M  V30 41 1 13 36
M  V30 42 1 14 37
M  V30 43 1 14 38
M  V30 44 1 15 39
M  V30 45 1 16 40
M  V30 46 1 16 41
M  V30 47 1 17 42
M  V30 48 1 22 43
M  V30 49 1 23 44
M  V30 50 1 25 45
M  V30 51 1 26 46
M  V30 52 1 27 47
M  V30 53 1 28 48
M  V30 END BOND
M  V30 END CTAB
M  END
>  <Dataset>  (759) 
ChEMBL_Kinases

>  <Ligand_Instance>  (759) 
nan

>  <PDB_ID>  (759) 
nan

>  <Standardized_SMILES>  (759) 
c1ccc(-c2nc3ccc(N4CC5CC4CN5)nn3c2-c2ccncc2)cc1

>  <Name>  (759) 
nan

>  <Pocket>  (759) 
nan

>  <ATP_Site>  (759) 
nan

>  <Peripheral>  (759) 
nan

>  <Num_H_Atoms_ProtBoundConf>  (759) 
nan

>  <Num_Resolved_Atoms>  (759) 
nan

>  <Num_Not_Resolved_Atoms>  (759) 
nan

$$$$
CHEMBL4634587
     RDKit          3D

  0  0  0  0  0  0  0  0  0  0999 V3000
M  V30 BEGIN CTAB
M  V30 COUNTS 48 51 0 0 0
M  V30 BEGIN ATOM
M  V30 1 N 2.623692 -5.264897 1.469477 0
M  V30 2 C 2.084977 -4.294019 0.592516 0
M  V30 3 C 2.651242 -3.971479 -0.622592 0
M  V30 4 C 2.061857 -3.011614 -1.418644 0
M  V30 5 C 0.895000 -2.323425 -1.066585 0
M  V30 6 C 0.448508 -1.377588 -2.048497 0
M  V30 7 C 0.304584 -1.899514 -3.339041 0
M  V30 8 N -0.137829 -1.098248 -4.351798 0
M  V30 9 C -0.445155 0.205817 -4.138122 0
M  V30 10 C -0.322186 0.778932 -2.882131 0
M  V30 11 C -0.609141 2.096306 -2.593222 0
M  V30 12 C -0.439167 2.568548 -1.283972 0
M  V30 13 C 0.018591 1.730336 -0.252572 0
M  V30 14 O 0.081311 2.455320 0.875962 0
M  V30 15 C 0.443449 2.161205 2.180788 0
M  V30 16 C -0.446768 1.140295 2.777317 0
M  V30 17 C -0.057362 0.807979 4.229472 0
M  V30 18 C -0.843168 -0.454368 4.536414 0
M  V30 19 N -2.260240 -0.210250 4.542165 0
M  V30 20 C -2.746896 0.469924 3.380062 0
M  V30 21 C -1.889324 1.573913 2.872610 0
M  V30 22 C 0.279664 0.435109 -0.630704 0
M  V30 23 C 0.126542 -0.066937 -1.896264 0
M  V30 24 C 0.358974 -2.673051 0.153007 0
M  V30 25 C 0.934310 -3.627655 0.958626 0
M  V30 26 H 2.578749 -5.030753 2.502797 0
M  V30 27 H 3.020002 -6.128758 1.033520 0
M  V30 28 H 3.552427 -4.488322 -0.917814 0
M  V30 29 H 2.591538 -2.830708 -2.363138 0
M  V30 30 H 0.512339 -2.917200 -3.651185 0
M  V30 31 H -0.796595 0.841584 -4.941927 0
M  V30 32 H -0.952589 2.665915 -3.437775 0
M  V30 33 H -0.715465 3.625382 -1.255207 0
M  V30 34 H 0.461102 3.117326 2.763407 0
M  V30 35 H 1.497019 1.779264 2.260994 0
M  V30 36 H -0.331950 0.177502 2.257112 0
M  V30 37 H -0.466262 1.588313 4.894108 0
M  V30 38 H 1.009114 0.622290 4.349794 0
M  V30 39 H -0.567155 -0.935085 5.478252 0
M  V30 40 H -0.567999 -1.168006 3.706951 0
M  V30 41 H -2.726757 -1.153955 4.571787 0
M  V30 42 H -3.714740 0.953832 3.704963 0
M  V30 43 H -3.050896 -0.187384 2.545107 0
M  V30 44 H -1.938538 2.422522 3.577061 0
M  V30 45 H -2.282211 1.851272 1.862163 0
M  V30 46 H 0.640187 -0.146718 0.182187 0
M  V30 47 H -0.540132 -2.153863 0.418215 0
M  V30 48 H 0.417375 -3.822300 1.909084 0
M  V30 END ATOM
M  V30 BEGIN BOND
M  V30 1 1 1 2
M  V30 2 2 2 3
M  V30 3 1 3 4
M  V30 4 2 4 5
M  V30 5 1 5 6
M  V30 6 2 6 7
M  V30 7 1 7 8
M  V30 8 2 8 9
M  V30 9 1 9 10
M  V30 10 2 10 11
M  V30 11 1 11 12
M  V30 12 2 12 13
M  V30 13 1 13 14
M  V30 14 1 14 15
M  V30 15 1 15 16
M  V30 16 1 16 17
M  V30 17 1 17 18
M  V30 18 1 18 19
M  V30 19 1 19 20
M  V30 20 1 20 21
M  V30 21 1 13 22
M  V30 22 2 22 23
M  V30 23 1 5 24
M  V30 24 2 24 25
M  V30 25 1 25 2
M  V30 26 1 23 6
M  V30 27 1 23 10
M  V30 28 1 21 16
M  V30 29 1 1 26
M  V30 30 1 1 27
M  V30 31 1 3 28
M  V30 32 1 4 29
M  V30 33 1 7 30
M  V30 34 1 9 31
M  V30 35 1 11 32
M  V30 36 1 12 33
M  V30 37 1 15 34
M  V30 38 1 15 35
M  V30 39 1 16 36
M  V30 40 1 17 37
M  V30 41 1 17 38
M  V30 42 1 18 39
M  V30 43 1 18 40
M  V30 44 1 19 41
M  V30 45 1 20 42
M  V30 46 1 20 43
M  V30 47 1 21 44
M  V30 48 1 21 45
M  V30 49 1 22 46
M  V30 50 1 24 47
M  V30 51 1 25 48
M  V30 END BOND
M  V30 END CTAB
M  END
>  <Dataset>  (760) 
ChEMBL_Kinases

>  <Ligand_Instance>  (760) 
nan

>  <PDB_ID>  (760) 
nan

>  <Standardized_SMILES>  (760) 
Nc1ccc(-c2cncc3ccc(OCC4CCNCC4)cc23)cc1

>  <Name>  (760) 
nan

>  <Pocket>  (760) 
nan

>  <ATP_Site>  (760) 
nan

>  <Peripheral>  (760) 
nan

>  <Num_H_Atoms_ProtBoundConf>  (760) 
nan

>  <Num_Resolved_Atoms>  (760) 
nan

>  <Num_Not_Resolved_Atoms>  (760) 
nan

$$$$
CHEMBL4573735
     RDKit          3D

  0  0  0  0  0  0  0  0  0  0999 V3000
M  V30 BEGIN CTAB
M  V30 COUNTS 40 42 0 0 0
M  V30 BEGIN ATOM
M  V30 1 C -0.558133 -4.469677 1.454987 0
M  V30 2 C -0.000918 -3.074722 1.161794 0
M  V30 3 C 1.048566 -2.702178 2.185646 0
M  V30 4 C 0.631290 -3.089464 -0.200988 0
M  V30 5 N -1.119466 -2.150521 1.196430 0
M  V30 6 C -0.945870 -0.766989 0.949877 0
M  V30 7 C 0.255571 -0.169222 0.658497 0
M  V30 8 C 0.439456 1.176176 0.414868 0
M  V30 9 C 1.758261 1.726031 0.111885 0
M  V30 10 C 1.900188 3.076711 -0.125775 0
M  V30 11 C 3.186052 3.483814 -0.400765 0
M  V30 12 N 4.226775 2.663260 -0.440744 0
M  V30 13 C 4.065202 1.329974 -0.202630 0
M  V30 14 N 5.063172 0.315129 -0.204785 0
M  V30 15 N 2.833447 0.918053 0.064277 0
M  V30 16 N -0.629130 1.991908 0.460123 0
M  V30 17 C -1.848337 1.502486 0.737176 0
M  V30 18 C -2.921051 2.364951 0.775686 0
M  V30 19 N -4.174273 1.901407 1.054213 0
M  V30 20 C -4.360059 0.571009 1.295790 0
M  V30 21 C -3.267950 -0.261000 1.249270 0
M  V30 22 C -1.986348 0.151673 0.974177 0
M  V30 23 H -1.534644 -4.503976 0.918329 0
M  V30 24 H -0.798597 -4.538697 2.524454 0
M  V30 25 H 0.157386 -5.233266 1.122615 0
M  V30 26 H 1.096644 -3.531044 2.943124 0
M  V30 27 H 2.030402 -2.675485 1.710284 0
M  V30 28 H 0.773069 -1.776653 2.720382 0
M  V30 29 H 1.729106 -2.954909 -0.121353 0
M  V30 30 H 0.452667 -4.090338 -0.682695 0
M  V30 31 H 0.134445 -2.342384 -0.854232 0
M  V30 32 H -2.046009 -2.531478 1.406265 0
M  V30 33 H 1.157054 -0.751759 0.602698 0
M  V30 34 H 1.028924 3.710262 -0.083834 0
M  V30 35 H 3.353312 4.540250 -0.595865 0
M  V30 36 H 5.703966 0.016469 0.563855 0
M  V30 37 H 5.007467 -0.075138 -1.179600 0
M  V30 38 H -2.743122 3.418111 0.579403 0
M  V30 39 H -5.369539 0.263476 1.509687 0
M  V30 40 H -3.525496 -1.280692 1.453300 0
M  V30 END ATOM
M  V30 BEGIN BOND
M  V30 1 1 1 2
M  V30 2 1 2 3
M  V30 3 1 2 4
M  V30 4 1 2 5
M  V30 5 1 5 6
M  V30 6 2 6 7
M  V30 7 1 7 8
M  V30 8 1 8 9
M  V30 9 2 9 10
M  V30 10 1 10 11
M  V30 11 2 11 12
M  V30 12 1 12 13
M  V30 13 1 13 14
M  V30 14 2 13 15
M  V30 15 2 8 16
M  V30 16 1 16 17
M  V30 17 2 17 18
M  V30 18 1 18 19
M  V30 19 2 19 20
M  V30 20 1 20 21
M  V30 21 2 21 22
M  V30 22 1 22 6
M  V30 23 1 15 9
M  V30 24 1 22 17
M  V30 25 1 1 23
M  V30 26 1 1 24
M  V30 27 1 1 25
M  V30 28 1 3 26
M  V30 29 1 3 27
M  V30 30 1 3 28
M  V30 31 1 4 29
M  V30 32 1 4 30
M  V30 33 1 4 31
M  V30 34 1 5 32
M  V30 35 1 7 33
M  V30 36 1 10 34
M  V30 37 1 11 35
M  V30 38 1 14 36
M  V30 39 1 14 37
M  V30 40 1 18 38
M  V30 41 1 20 39
M  V30 42 1 21 40
M  V30 END BOND
M  V30 END CTAB
M  END
>  <Dataset>  (761) 
ChEMBL_Kinases

>  <Ligand_Instance>  (761) 
nan

>  <PDB_ID>  (761) 
nan

>  <Standardized_SMILES>  (761) 
CC(C)(C)Nc1cc(-c2ccnc(N)n2)nc2cnccc12

>  <Name>  (761) 
nan

>  <Pocket>  (761) 
nan

>  <ATP_Site>  (761) 
nan

>  <Peripheral>  (761) 
nan

>  <Num_H_Atoms_ProtBoundConf>  (761) 
nan

>  <Num_Resolved_Atoms>  (761) 
nan

>  <Num_Not_Resolved_Atoms>  (761) 
nan

$$$$
CHEMBL4573681
     RDKit          3D

  0  0  0  0  0  0  0  0  0  0999 V3000
M  V30 BEGIN CTAB
M  V30 COUNTS 43 45 0 0 0
M  V30 BEGIN ATOM
M  V30 1 C -1.238643 -7.776996 1.475113 0
M  V30 2 C -2.188199 -6.889738 1.260535 0
M  V30 3 C -2.613518 -5.595605 0.786927 0
M  V30 4 O -3.849711 -5.430287 0.924275 0
M  V30 5 C -1.631723 -4.679724 0.236988 0
M  V30 6 C -0.273385 -4.816368 0.067060 0
M  V30 7 C 0.526023 -3.848046 -0.474349 0
M  V30 8 C 0.034130 -2.634026 -0.902949 0
M  V30 9 N 0.614347 -1.585000 -1.441638 0
M  V30 10 C 0.088136 -0.567296 -1.781866 0
M  V30 11 N 0.813415 0.597540 -2.393588 0
M  V30 12 C 1.237831 1.464448 -1.360186 0
M  V30 13 O 1.066152 1.334894 -0.118067 0
M  V30 14 N 1.960893 2.666374 -1.664095 0
M  V30 15 C 2.452683 3.636473 -0.724778 0
M  V30 16 C 2.147943 3.302265 0.683825 0
M  V30 17 C 3.011360 2.552092 1.442442 0
M  V30 18 C 2.737585 2.228778 2.772509 0
M  V30 19 C 1.555647 2.676596 3.354788 0
M  V30 20 O 1.416709 2.280660 4.678671 0
M  V30 21 C 0.248368 2.683751 5.365020 0
M  V30 22 C 0.683665 3.431647 2.595833 0
M  V30 23 C 0.985478 3.732982 1.283735 0
M  V30 24 S -1.678017 -0.805275 -1.385966 0
M  V30 25 C -1.343089 -2.538757 -0.712440 0
M  V30 26 C -2.225082 -3.504585 -0.158249 0
M  V30 27 H -0.177832 -7.957653 1.373599 0
M  V30 28 H -0.182625 -7.949187 1.370844 0
M  V30 29 H -2.765696 -7.685319 1.692131 0
M  V30 30 H 0.100205 -5.783696 0.411630 0
M  V30 31 H 1.571462 -4.104739 -0.541354 0
M  V30 32 H 1.004188 0.793857 -3.380952 0
M  V30 33 H 2.178419 2.906552 -2.667573 0
M  V30 34 H 2.164175 4.685559 -0.995043 0
M  V30 35 H 3.572537 3.635658 -0.815175 0
M  V30 36 H 3.914005 2.215510 0.982495 0
M  V30 37 H 3.490061 1.631406 3.275717 0
M  V30 38 H 0.095564 2.138018 6.313713 0
M  V30 39 H 0.294723 3.779760 5.606947 0
M  V30 40 H -0.629045 2.543177 4.719086 0
M  V30 41 H -0.213208 3.741760 3.120833 0
M  V30 42 H 0.261949 4.336419 0.718574 0
M  V30 43 H -3.242915 -3.223260 -0.106229 0
M  V30 END ATOM
M  V30 BEGIN BOND
M  V30 1 2 1 2
M  V30 2 1 2 3
M  V30 3 2 3 4
M  V30 4 1 3 5
M  V30 5 2 5 6
M  V30 6 1 6 7
M  V30 7 2 7 8
M  V30 8 1 8 9
M  V30 9 2 9 10
M  V30 10 1 10 11
M  V30 11 1 11 12
M  V30 12 2 12 13
M  V30 13 1 12 14
M  V30 14 1 14 15
M  V30 15 1 15 16
M  V30 16 2 16 17
M  V30 17 1 17 18
M  V30 18 2 18 19
M  V30 19 1 19 20
M  V30 20 1 20 21
M  V30 21 1 19 22
M  V30 22 2 22 23
M  V30 23 1 10 24
M  V30 24 1 24 25
M  V30 25 2 25 26
M  V30 26 1 26 5
M  V30 27 1 25 8
M  V30 28 1 23 16
M  V30 29 1 1 27
M  V30 30 1 1 28
M  V30 31 1 2 29
M  V30 32 1 6 30
M  V30 33 1 7 31
M  V30 34 1 11 32
M  V30 35 1 14 33
M  V30 36 1 15 34
M  V30 37 1 15 35
M  V30 38 1 17 36
M  V30 39 1 18 37
M  V30 40 1 21 38
M  V30 41 1 21 39
M  V30 42 1 21 40
M  V30 43 1 22 41
M  V30 44 1 23 42
M  V30 45 1 26 43
M  V30 END BOND
M  V30 END CTAB
M  END
>  <Dataset>  (762) 
ChEMBL_Kinases

>  <Ligand_Instance>  (762) 
nan

>  <PDB_ID>  (762) 
nan

>  <Standardized_SMILES>  (762) 
C=CC(=O)c1ccc2nc(NC(=O)NCc3ccc(OC)cc3)sc2c1

>  <Name>  (762) 
nan

>  <Pocket>  (762) 
nan

>  <ATP_Site>  (762) 
nan

>  <Peripheral>  (762) 
nan

>  <Num_H_Atoms_ProtBoundConf>  (762) 
nan

>  <Num_Resolved_Atoms>  (762) 
nan

>  <Num_Not_Resolved_Atoms>  (762) 
nan

$$$$
CHEMBL4634634
     RDKit          3D

  0  0  0  0  0  0  0  0  0  0999 V3000
M  V30 BEGIN CTAB
M  V30 COUNTS 50 53 0 0 0
M  V30 BEGIN ATOM
M  V30 1 C 0.389129 -6.335799 3.604657 0
M  V30 2 C 1.222781 -5.102814 3.842171 0 CFG=2
M  V30 3 C 0.648843 -3.933700 4.596691 0
M  V30 4 C 0.827034 -3.810376 3.101503 0 CFG=1
M  V30 5 C 1.933706 -2.992219 2.575108 0
M  V30 6 O 3.005884 -2.767309 3.201331 0
M  V30 7 N 1.928330 -2.361885 1.308341 0
M  V30 8 C 3.084379 -1.584084 0.912495 0
M  V30 9 C 2.661026 -0.112242 0.966886 0
M  V30 10 N 1.404354 0.030586 0.294268 0
M  V30 11 C 0.969030 1.371915 0.068307 0
M  V30 12 C 1.742181 2.437599 0.488506 0
M  V30 13 N 1.365502 3.730370 0.293773 0
M  V30 14 C 0.203144 4.005169 -0.327622 0
M  V30 15 C -0.267298 5.343782 -0.572306 0
M  V30 16 N -0.634178 6.423426 -0.778816 0
M  V30 17 C -0.585163 2.955858 -0.755855 0
M  V30 18 C -1.870247 3.115521 -1.443662 0
M  V30 19 C -2.256343 3.958234 -2.489175 0
M  V30 20 N -3.565681 3.717766 -2.764482 0
M  V30 21 N -4.017637 2.769649 -1.946386 0
M  V30 22 C -5.342602 2.182633 -1.862295 0
M  V30 23 C -3.010041 2.373904 -1.121484 0
M  V30 24 N -0.174114 1.690190 -0.542542 0
M  V30 25 C 0.521841 -1.020277 -0.184359 0
M  V30 26 C 0.894468 -2.374367 0.295580 0 CFG=1
M  V30 27 C 1.362881 -3.152452 -0.941813 0
M  V30 28 H 1.084848 -7.149512 3.276927 0
M  V30 29 H -0.351624 -6.141021 2.796040 0
M  V30 30 H -0.123553 -6.630016 4.565430 0
M  V30 31 H 2.323443 -5.254975 3.983083 0
M  V30 32 H -0.378335 -4.017199 4.999682 0
M  V30 33 H 1.332490 -3.302681 5.204540 0
M  V30 34 H -0.053778 -3.930721 2.457282 0
M  V30 35 H 3.927429 -1.771309 1.594857 0
M  V30 36 H 3.346546 -1.817539 -0.142467 0
M  V30 37 H 2.655326 0.192452 2.030781 0
M  V30 38 H 3.459885 0.498290 0.460472 0
M  V30 39 H 2.688076 2.309324 0.994717 0
M  V30 40 H -1.566770 4.660151 -2.951426 0
M  V30 41 H -5.338761 1.076508 -2.039258 0
M  V30 42 H -6.010218 2.603929 -2.625082 0
M  V30 43 H -5.746818 2.311927 -0.825942 0
M  V30 44 H -3.050317 1.616749 -0.338594 0
M  V30 45 H -0.489663 -0.744393 0.216662 0
M  V30 46 H 0.405369 -0.924188 -1.289865 0
M  V30 47 H 0.011895 -2.886547 0.707273 0
M  V30 48 H 0.438946 -3.476390 -1.464339 0
M  V30 49 H 2.020889 -3.992582 -0.649362 0
M  V30 50 H 1.875008 -2.430773 -1.610967 0
M  V30 END ATOM
M  V30 BEGIN BOND
M  V30 1 1 1 2
M  V30 2 1 2 3
M  V30 3 1 3 4
M  V30 4 1 4 5
M  V30 5 2 5 6
M  V30 6 1 5 7
M  V30 7 1 7 8
M  V30 8 1 8 9
M  V30 9 1 9 10
M  V30 10 1 10 11
M  V30 11 2 11 12
M  V30 12 1 12 13
M  V30 13 2 13 14
M  V30 14 1 14 15
M  V30 15 3 15 16
M  V30 16 1 14 17
M  V30 17 1 17 18
M  V30 18 1 18 19
M  V30 19 2 19 20
M  V30 20 1 20 21
M  V30 21 1 21 22
M  V30 22 1 21 23
M  V30 23 2 17 24
M  V30 24 1 10 25
M  V30 25 1 25 26
M  V30 26 1 26 27
M  V30 27 1 4 2
M  V30 28 1 26 7
M  V30 29 1 24 11
M  V30 30 2 23 18
M  V30 31 1 1 28
M  V30 32 1 1 29
M  V30 33 1 1 30
M  V30 34 1 2 31 CFG=1
M  V30 35 1 3 32
M  V30 36 1 3 33
M  V30 37 1 4 34 CFG=3
M  V30 38 1 8 35
M  V30 39 1 8 36
M  V30 40 1 9 37
M  V30 41 1 9 38
M  V30 42 1 12 39
M  V30 43 1 19 40
M  V30 44 1 22 41
M  V30 45 1 22 42
M  V30 46 1 22 43
M  V30 47 1 23 44
M  V30 48 1 25 45
M  V30 49 1 25 46
M  V30 50 1 26 47 CFG=1
M  V30 51 1 27 48
M  V30 52 1 27 49
M  V30 53 1 27 50
M  V30 END BOND
M  V30 END CTAB
M  END
>  <Dataset>  (763) 
ChEMBL_Kinases

>  <Ligand_Instance>  (763) 
nan

>  <PDB_ID>  (763) 
nan

>  <Standardized_SMILES>  (763) 
C[C@@H]1C[C@H]1C(=O)N1CCN(c2cnc(C#N)c(-c3cnn(C)c3)n2)C[C@H]1C

>  <Name>  (763) 
nan

>  <Pocket>  (763) 
nan

>  <ATP_Site>  (763) 
nan

>  <Peripheral>  (763) 
nan

>  <Num_H_Atoms_ProtBoundConf>  (763) 
nan

>  <Num_Resolved_Atoms>  (763) 
nan

>  <Num_Not_Resolved_Atoms>  (763) 
nan

$$$$
CHEMBL4634663
     RDKit          3D

  0  0  0  0  0  0  0  0  0  0999 V3000
M  V30 BEGIN CTAB
M  V30 COUNTS 77 81 0 0 0
M  V30 BEGIN ATOM
M  V30 1 C 0.877345 -7.242473 4.542839 0
M  V30 2 C 1.005608 -6.483959 3.180403 0
M  V30 3 C 0.723995 -7.504320 2.144146 0
M  V30 4 C 0.854256 -7.124988 0.717095 0
M  V30 5 N 0.070172 -6.050584 0.255495 0
M  V30 6 C 0.012422 -4.650425 0.434152 0
M  V30 7 O 0.962256 -4.438579 1.190016 0
M  V30 8 C -1.003751 -3.846207 -0.215032 0
M  V30 9 C -1.999615 -4.446208 -0.925084 0
M  V30 10 N -2.974169 -3.781721 -1.537097 0
M  V30 11 C -3.046409 -2.462203 -1.498512 0
M  V30 12 C -4.114711 -1.861041 -2.181917 0
M  V30 13 C -4.187378 -0.486763 -2.144559 0
M  V30 14 C -3.202981 0.162858 -1.439434 0
M  V30 15 C -3.306121 1.611059 -1.424787 0
M  V30 16 C -4.302154 2.326504 -2.045514 0
M  V30 17 C -4.467391 3.685077 -2.078297 0
M  V30 18 Cl -5.773398 4.488294 -2.900087 0
M  V30 19 C -3.515482 4.445534 -1.403533 0
M  V30 20 O -3.596126 5.837382 -1.378739 0
M  V30 21 C -2.478961 3.816933 -0.751077 0
M  V30 22 Cl -1.314982 4.819951 0.080563 0
M  V30 23 C -2.395441 2.441668 -0.773625 0
M  V30 24 N -2.190281 -0.452343 -0.794382 0
M  V30 25 C -2.060906 -1.789972 -0.790773 0
M  V30 26 C -1.047618 -2.472434 -0.153840 0
M  V30 27 N -0.054529 -1.757725 0.542740 0
M  V30 28 C 0.513974 -0.517254 1.005079 0 CFG=1
M  V30 29 C -0.259914 0.212789 2.031182 0
M  V30 30 C 0.252469 1.587674 2.226809 0
M  V30 31 C 1.680225 1.832317 1.768726 0 CFG=2
M  V30 32 C 1.738045 2.709496 0.571997 0
M  V30 33 N 3.040373 2.997428 0.006099 0
M  V30 34 C 2.867146 4.109282 -0.959015 0
M  V30 35 C 2.033708 3.740524 -2.135111 0
M  V30 36 O 2.442625 2.595579 -2.787097 0
M  V30 37 C 3.661575 2.228331 -2.281927 0
M  V30 38 C 3.525514 1.901112 -0.813321 0
M  V30 39 C 2.530254 0.639502 1.870779 0
M  V30 40 C 1.942228 -0.627120 1.412298 0
M  V30 41 H 1.521871 -6.759932 5.287445 0
M  V30 42 H -0.177940 -7.203424 4.877642 0
M  V30 43 H 1.232341 -8.273113 4.380520 0
M  V30 44 H 0.227417 -5.674779 3.221731 0
M  V30 45 H 1.979043 -6.044360 3.131920 0
M  V30 46 H -0.314737 -7.964996 2.323059 0
M  V30 47 H 1.380439 -8.410681 2.371884 0
M  V30 48 H 0.659423 -8.067610 0.128836 0
M  V30 49 H 1.954716 -6.869916 0.499233 0
M  V30 50 H -0.667885 -6.458632 -0.408626 0
M  V30 51 H -2.134518 -5.503407 -1.081896 0
M  V30 52 H -4.821463 -2.494365 -2.699026 0
M  V30 53 H -5.026034 -0.115328 -2.688342 0
M  V30 54 H -5.077214 1.825240 -2.589778 0
M  V30 55 H -4.477491 6.284518 -1.087200 0
M  V30 56 H -1.595121 1.915941 -0.279378 0
M  V30 57 H 0.660241 -2.358847 0.981781 0
M  V30 58 H 0.516752 0.146191 0.083673 0
M  V30 59 H -1.352486 0.290202 1.778104 0
M  V30 60 H -0.272352 -0.315264 3.025274 0
M  V30 61 H -0.371399 2.304043 1.663978 0
M  V30 62 H 0.087023 1.857662 3.297316 0
M  V30 63 H 2.071852 2.518946 2.607935 0
M  V30 64 H 1.348633 3.751736 0.840403 0
M  V30 65 H 1.016094 2.431687 -0.252223 0
M  V30 66 H 3.881800 4.379043 -1.292070 0
M  V30 67 H 2.376827 4.973577 -0.425116 0
M  V30 68 H 2.091419 4.561096 -2.905867 0
M  V30 69 H 0.961295 3.617171 -1.907842 0
M  V30 70 H 3.999344 1.256206 -2.771215 0
M  V30 71 H 4.492922 2.926163 -2.479196 0
M  V30 72 H 4.547402 1.652065 -0.469442 0
M  V30 73 H 2.910435 0.992409 -0.766584 0
M  V30 74 H 3.523263 0.803803 1.437949 0
M  V30 75 H 2.795571 0.458635 2.982189 0
M  V30 76 H 2.494057 -1.083668 0.538814 0
M  V30 77 H 1.978327 -1.453982 2.182127 0
M  V30 END ATOM
M  V30 BEGIN BOND
M  V30 1 1 1 2
M  V30 2 1 2 3
M  V30 3 1 3 4
M  V30 4 1 4 5
M  V30 5 1 5 6
M  V30 6 2 6 7
M  V30 7 1 6 8
M  V30 8 2 8 9
M  V30 9 1 9 10
M  V30 10 2 10 11
M  V30 11 1 11 12
M  V30 12 2 12 13
M  V30 13 1 13 14
M  V30 14 1 14 15
M  V30 15 2 15 16
M  V30 16 1 16 17
M  V30 17 1 17 18
M  V30 18 2 17 19
M  V30 19 1 19 20
M  V30 20 1 19 21
M  V30 21 1 21 22
M  V30 22 2 21 23
M  V30 23 2 14 24
M  V30 24 1 24 25
M  V30 25 2 25 26
M  V30 26 1 26 27
M  V30 27 1 27 28
M  V30 28 1 28 29
M  V30 29 1 29 30
M  V30 30 1 30 31
M  V30 31 1 31 32
M  V30 32 1 32 33
M  V30 33 1 33 34
M  V30 34 1 34 35
M  V30 35 1 35 36
M  V30 36 1 36 37
M  V30 37 1 37 38
M  V30 38 1 31 39
M  V30 39 1 39 40
M  V30 40 1 26 8
M  V30 41 1 40 28
M  V30 42 1 25 11
M  V30 43 1 38 33
M  V30 44 1 23 15
M  V30 45 1 1 41
M  V30 46 1 1 42
M  V30 47 1 1 43
M  V30 48 1 2 44
M  V30 49 1 2 45
M  V30 50 1 3 46
M  V30 51 1 3 47
M  V30 52 1 4 48
M  V30 53 1 4 49
M  V30 54 1 5 50
M  V30 55 1 9 51
M  V30 56 1 12 52
M  V30 57 1 13 53
M  V30 58 1 16 54
M  V30 59 1 20 55
M  V30 60 1 23 56
M  V30 61 1 27 57
M  V30 62 1 28 58 CFG=3
M  V30 63 1 29 59
M  V30 64 1 29 60
M  V30 65 1 30 61
M  V30 66 1 30 62
M  V30 67 1 31 63 CFG=1
M  V30 68 1 32 64
M  V30 69 1 32 65
M  V30 70 1 34 66
M  V30 71 1 34 67
M  V30 72 1 35 68
M  V30 73 1 35 69
M  V30 74 1 37 70
M  V30 75 1 37 71
M  V30 76 1 38 72
M  V30 77 1 38 73
M  V30 78 1 39 74
M  V30 79 1 39 75
M  V30 80 1 40 76
M  V30 81 1 40 77
M  V30 END BOND
M  V30 END CTAB
M  END
>  <Dataset>  (764) 
ChEMBL_Kinases

>  <Ligand_Instance>  (764) 
nan

>  <PDB_ID>  (764) 
nan

>  <Standardized_SMILES>  (764) 
CCCCNC(=O)c1cnc2ccc(-c3cc(Cl)c(O)c(Cl)c3)nc2c1N[C@H]1CC[C@H](CN2CCOCC2)CC1

>  <Name>  (764) 
nan

>  <Pocket>  (764) 
nan

>  <ATP_Site>  (764) 
nan

>  <Peripheral>  (764) 
nan

>  <Num_H_Atoms_ProtBoundConf>  (764) 
nan

>  <Num_Resolved_Atoms>  (764) 
nan

>  <Num_Not_Resolved_Atoms>  (764) 
nan

$$$$
CHEMBL4573547
     RDKit          3D

  0  0  0  0  0  0  0  0  0  0999 V3000
M  V30 BEGIN CTAB
M  V30 COUNTS 48 50 0 0 0
M  V30 BEGIN ATOM
M  V30 1 C -1.775729 -5.315707 3.812375 0
M  V30 2 C -0.598668 -4.798549 4.650621 0
M  V30 3 O 0.068323 -3.873402 3.824813 0
M  V30 4 C 1.187051 -3.162030 4.171496 0
M  V30 5 O 1.702897 -3.319733 5.331166 0
M  V30 6 C 1.808091 -2.221080 3.241589 0
M  V30 7 C 2.931333 -1.492215 3.562246 0
M  V30 8 C 3.515179 -0.604080 2.683367 0
M  V30 9 C 2.969063 -0.412644 1.407204 0
M  V30 10 N 3.553759 0.499261 0.487074 0
M  V30 11 C 3.195400 0.790415 -0.835657 0
M  V30 12 C 3.886948 1.726598 -1.572392 0
M  V30 13 C 3.567827 2.040033 -2.871975 0
M  V30 14 N 2.547477 1.419074 -3.456257 0
M  V30 15 C 1.832057 0.488560 -2.777303 0
M  V30 16 S 0.489597 -0.292618 -3.618664 0
M  V30 17 C -1.054749 0.629283 -3.377692 0
M  V30 18 C -1.432185 0.533789 -1.963670 0
M  V30 19 O -0.409622 -0.180231 -1.836199 0
M  V30 20 C -2.478835 1.020074 -1.098238 0
M  V30 21 C -3.481211 1.810013 -1.584091 0
M  V30 22 C -4.413730 2.198002 -0.624978 0
M  V30 23 C -4.340725 1.827277 0.684048 0
M  V30 24 C -5.357250 2.283970 1.594212 0
M  V30 25 N -6.173490 2.670278 2.325701 0
M  V30 26 C -3.306186 1.029030 1.116103 0
M  V30 27 C -2.342548 0.609873 0.198889 0
M  V30 28 N 2.195877 0.232391 -1.519161 0
M  V30 29 C 1.844469 -1.161373 1.124820 0
M  V30 30 C 1.243896 -2.056064 1.990177 0
M  V30 31 H -1.391589 -6.003858 3.025848 0
M  V30 32 H -2.287976 -4.479166 3.284151 0
M  V30 33 H -2.462215 -5.919366 4.440467 0
M  V30 34 H 0.004402 -5.701769 4.892861 0
M  V30 35 H -0.958816 -4.373861 5.587937 0
M  V30 36 H 3.395984 -1.605822 4.546869 0
M  V30 37 H 4.411222 -0.034103 2.960681 0
M  V30 38 H 4.388995 1.036069 0.874752 0
M  V30 39 H 4.739954 2.271807 -1.142273 0
M  V30 40 H 4.140856 2.780401 -3.409416 0
M  V30 41 H -0.836373 1.689762 -3.689877 0
M  V30 42 H -1.852473 0.281165 -4.056742 0
M  V30 43 H -3.535475 2.103396 -2.630990 0
M  V30 44 H -5.245976 2.834773 -0.948296 0
M  V30 45 H -3.293351 0.763788 2.158775 0
M  V30 46 H -1.564769 -0.011161 0.607871 0
M  V30 47 H 1.350814 -1.090139 0.182716 0
M  V30 48 H 0.366492 -2.627326 1.739769 0
M  V30 END ATOM
M  V30 BEGIN BOND
M  V30 1 1 1 2
M  V30 2 1 2 3
M  V30 3 1 3 4
M  V30 4 2 4 5
M  V30 5 1 4 6
M  V30 6 2 6 7
M  V30 7 1 7 8
M  V30 8 2 8 9
M  V30 9 1 9 10
M  V30 10 1 10 11
M  V30 11 2 11 12
M  V30 12 1 12 13
M  V30 13 2 13 14
M  V30 14 1 14 15
M  V30 15 1 15 16
M  V30 16 1 16 17
M  V30 17 1 17 18
M  V30 18 2 18 19
M  V30 19 1 18 20
M  V30 20 2 20 21
M  V30 21 1 21 22
M  V30 22 2 22 23
M  V30 23 1 23 24
M  V30 24 3 24 25
M  V30 25 1 23 26
M  V30 26 2 26 27
M  V30 27 2 15 28
M  V30 28 1 9 29
M  V30 29 2 29 30
M  V30 30 1 30 6
M  V30 31 1 28 11
M  V30 32 1 27 20
M  V30 33 1 1 31
M  V30 34 1 1 32
M  V30 35 1 1 33
M  V30 36 1 2 34
M  V30 37 1 2 35
M  V30 38 1 7 36
M  V30 39 1 8 37
M  V30 40 1 10 38
M  V30 41 1 12 39
M  V30 42 1 13 40
M  V30 43 1 17 41
M  V30 44 1 17 42
M  V30 45 1 21 43
M  V30 46 1 22 44
M  V30 47 1 26 45
M  V30 48 1 27 46
M  V30 49 1 29 47
M  V30 50 1 30 48
M  V30 END BOND
M  V30 END CTAB
M  END
>  <Dataset>  (765) 
ChEMBL_Kinases

>  <Ligand_Instance>  (765) 
nan

>  <PDB_ID>  (765) 
nan

>  <Standardized_SMILES>  (765) 
CCOC(=O)c1ccc(Nc2ccnc(SCC(=O)c3ccc(C#N)cc3)n2)cc1

>  <Name>  (765) 
nan

>  <Pocket>  (765) 
nan

>  <ATP_Site>  (765) 
nan

>  <Peripheral>  (765) 
nan

>  <Num_H_Atoms_ProtBoundConf>  (765) 
nan

>  <Num_Resolved_Atoms>  (765) 
nan

>  <Num_Not_Resolved_Atoms>  (765) 
nan

$$$$
CHEMBL4634672
     RDKit          3D

  0  0  0  0  0  0  0  0  0  0999 V3000
M  V30 BEGIN CTAB
M  V30 COUNTS 44 47 0 0 0
M  V30 BEGIN ATOM
M  V30 1 O 1.119814 -3.364387 0.098718 0
M  V30 2 C 1.512574 -4.479022 0.611930 0
M  V30 3 C 2.289288 -4.264106 -0.617304 0
M  V30 4 S 1.836530 -2.756547 -1.477247 0
M  V30 5 C 2.234270 -1.314202 -0.504153 0
M  V30 6 N 2.771952 -0.983374 0.690851 0
M  V30 7 N 2.789779 0.330560 0.829497 0
M  V30 8 C 2.252193 0.828530 -0.302930 0
M  V30 9 C 2.115969 2.315660 -0.488848 0
M  V30 10 N 0.842143 2.826316 -0.103228 0
M  V30 11 C 0.336617 3.298920 1.047811 0
M  V30 12 C 1.118628 3.385136 2.292745 0
M  V30 13 F 2.403062 3.812580 2.144994 0
M  V30 14 F 1.147110 2.204471 2.998653 0
M  V30 15 F 0.481817 4.305308 3.141781 0
M  V30 16 N -0.961150 3.669923 0.885663 0
M  V30 17 C -1.305005 3.428411 -0.414063 0
M  V30 18 C -2.519328 3.650860 -1.025080 0
M  V30 19 C -2.609745 3.317877 -2.364549 0
M  V30 20 C -1.516339 2.792591 -3.017969 0
M  V30 21 C -0.311353 2.592428 -2.333634 0
M  V30 22 C -0.168904 2.907312 -0.999090 0
M  V30 23 O 1.924016 -0.161914 -1.092442 0
M  V30 24 N 1.156540 -5.210227 1.762767 0
M  V30 25 C 0.151146 -4.698642 2.630573 0
M  V30 26 C -1.195678 -4.933062 2.562731 0
M  V30 27 C -1.966471 -4.323275 3.525556 0
M  V30 28 C -1.418347 -3.521383 4.504287 0
M  V30 29 C -0.047024 -3.295749 4.555497 0
M  V30 30 C 0.778251 -3.897240 3.593838 0
M  V30 31 H 2.135991 -5.106020 -1.344076 0
M  V30 32 H 3.371211 -4.269738 -0.362664 0
M  V30 33 H 2.895330 2.851855 0.090329 0
M  V30 34 H 2.355789 2.555930 -1.560639 0
M  V30 35 H -3.356263 4.072348 -0.458330 0
M  V30 36 H -3.563684 3.492102 -2.845988 0
M  V30 37 H -1.610510 2.534579 -4.084447 0
M  V30 38 H 0.540479 2.179045 -2.855987 0
M  V30 39 H 1.839462 -6.006680 1.588931 0
M  V30 40 H -1.540164 -5.574403 1.764603 0
M  V30 41 H -3.047392 -4.504199 3.482998 0
M  V30 42 H -2.023990 -3.041821 5.261909 0
M  V30 43 H 0.345854 -2.653319 5.348192 0
M  V30 44 H 1.813416 -3.664253 3.715404 0
M  V30 END ATOM
M  V30 BEGIN BOND
M  V30 1 2 1 2
M  V30 2 1 2 3
M  V30 3 1 3 4
M  V30 4 1 4 5
M  V30 5 2 5 6
M  V30 6 1 6 7
M  V30 7 2 7 8
M  V30 8 1 8 9
M  V30 9 1 9 10
M  V30 10 1 10 11
M  V30 11 1 11 12
M  V30 12 1 12 13
M  V30 13 1 12 14
M  V30 14 1 12 15
M  V30 15 2 11 16
M  V30 16 1 16 17
M  V30 17 2 17 18
M  V30 18 1 18 19
M  V30 19 2 19 20
M  V30 20 1 20 21
M  V30 21 2 21 22
M  V30 22 1 8 23
M  V30 23 1 2 24
M  V30 24 1 24 25
M  V30 25 2 25 26
M  V30 26 1 26 27
M  V30 27 2 27 28
M  V30 28 1 28 29
M  V30 29 2 29 30
M  V30 30 1 23 5
M  V30 31 1 30 25
M  V30 32 1 22 10
M  V30 33 1 22 17
M  V30 34 1 3 31
M  V30 35 1 3 32
M  V30 36 1 9 33
M  V30 37 1 9 34
M  V30 38 1 18 35
M  V30 39 1 19 36
M  V30 40 1 20 37
M  V30 41 1 21 38
M  V30 42 1 24 39
M  V30 43 1 26 40
M  V30 44 1 27 41
M  V30 45 1 28 42
M  V30 46 1 29 43
M  V30 47 1 30 44
M  V30 END BOND
M  V30 END CTAB
M  END
>  <Dataset>  (766) 
ChEMBL_Kinases

>  <Ligand_Instance>  (766) 
nan

>  <PDB_ID>  (766) 
nan

>  <Standardized_SMILES>  (766) 
O=C(CSc1nnc(Cn2c(C(F)(F)F)nc3ccccc32)o1)Nc1ccccc1

>  <Name>  (766) 
nan

>  <Pocket>  (766) 
nan

>  <ATP_Site>  (766) 
nan

>  <Peripheral>  (766) 
nan

>  <Num_H_Atoms_ProtBoundConf>  (766) 
nan

>  <Num_Resolved_Atoms>  (766) 
nan

>  <Num_Not_Resolved_Atoms>  (766) 
nan

$$$$
CHEMBL4634851
     RDKit          3D

  0  0  0  0  0  0  0  0  0  0999 V3000
M  V30 BEGIN CTAB
M  V30 COUNTS 61 63 0 0 0
M  V30 BEGIN ATOM
M  V30 1 C 3.014646 -2.413410 -1.358854 0
M  V30 2 C 2.736695 -2.488375 0.113505 0
M  V30 3 C 3.764671 -3.332663 0.794794 0
M  V30 4 C 1.334677 -2.970038 0.393012 0
M  V30 5 C 0.437372 -2.068786 0.962711 0
M  V30 6 C -0.827040 -2.537921 1.217578 0
M  V30 7 N -1.751463 -1.601530 1.781751 0
M  V30 8 C -1.918708 -0.215518 1.512761 0
M  V30 9 N -0.923065 0.686146 1.481068 0
M  V30 10 C -1.073781 2.001386 1.233153 0
M  V30 11 N 0.098383 2.821452 1.231845 0
M  V30 12 C 0.429319 3.865305 2.193399 0
M  V30 13 C 0.163713 5.152358 1.459564 0
M  V30 14 C 0.509417 5.163574 0.021863 0
M  V30 15 C 1.330757 4.049597 -0.492537 0 CFG=2
M  V30 16 N 1.060386 3.815918 -1.904738 0
M  V30 17 C 1.161964 2.735100 0.214558 0
M  V30 18 N -2.316058 2.427256 1.001436 0
M  V30 19 C -3.377875 1.619015 1.006668 0
M  V30 20 C -3.182967 0.259383 1.267596 0
M  V30 21 C -4.371231 -0.540800 1.240945 0
M  V30 22 N -5.732867 -0.319871 1.040123 0
M  V30 23 O -4.200852 -1.792656 1.450222 0
M  V30 24 C -1.198029 -3.852525 0.919358 0
M  V30 25 C -0.303161 -4.735432 0.355443 0
M  V30 26 C -0.800690 -6.089728 0.077458 0
M  V30 27 C -0.981764 -6.168596 -1.445175 0
M  V30 28 C 0.138636 -7.151517 0.542101 0
M  V30 29 C 0.982795 -4.291303 0.088249 0
M  V30 30 H 2.318976 -1.699067 -1.868013 0
M  V30 31 H 4.037638 -1.969207 -1.454380 0
M  V30 32 H 3.042538 -3.405255 -1.836621 0
M  V30 33 H 2.831975 -1.446602 0.501808 0
M  V30 34 H 3.795952 -3.176864 1.894861 0
M  V30 35 H 4.756072 -2.958149 0.419798 0
M  V30 36 H 3.637127 -4.371304 0.505318 0
M  V30 37 H 0.766648 -1.066280 1.172098 0
M  V30 38 H -2.294073 -2.151140 2.515306 0
M  V30 39 H -0.234343 3.801828 3.074210 0
M  V30 40 H 1.514032 3.805266 2.492955 0
M  V30 41 H -0.924101 5.389532 1.623395 0
M  V30 42 H 0.680252 5.979462 2.034510 0
M  V30 43 H 0.986408 6.139942 -0.206393 0
M  V30 44 H -0.446378 5.174154 -0.565431 0
M  V30 45 H 2.407866 4.313052 -0.433016 0
M  V30 46 H 0.601997 4.662065 -2.338279 0
M  V30 47 H 1.915971 3.529911 -2.429600 0
M  V30 48 H 0.907708 1.893065 -0.465612 0
M  V30 49 H 2.080704 2.422862 0.756291 0
M  V30 50 H -4.347665 2.101292 0.794647 0
M  V30 51 H -6.378844 0.261685 0.474346 0
M  V30 52 H -6.521265 -0.776498 1.522665 0
M  V30 53 H -2.226006 -4.119837 1.162386 0
M  V30 54 H -1.791136 -6.199697 0.558254 0
M  V30 55 H -0.183138 -5.585236 -1.927471 0
M  V30 56 H -1.947134 -5.647216 -1.669111 0
M  V30 57 H -0.993738 -7.209146 -1.785166 0
M  V30 58 H 1.032425 -7.225444 -0.137817 0
M  V30 59 H 0.423293 -7.018537 1.591507 0
M  V30 60 H -0.371428 -8.147216 0.416157 0
M  V30 61 H 1.689972 -4.987855 -0.358029 0
M  V30 END ATOM
M  V30 BEGIN BOND
M  V30 1 1 1 2
M  V30 2 1 2 3
M  V30 3 1 2 4
M  V30 4 2 4 5
M  V30 5 1 5 6
M  V30 6 1 6 7
M  V30 7 1 7 8
M  V30 8 2 8 9
M  V30 9 1 9 10
M  V30 10 1 10 11
M  V30 11 1 11 12
M  V30 12 1 12 13
M  V30 13 1 13 14
M  V30 14 1 14 15
M  V30 15 1 15 16
M  V30 16 1 15 17
M  V30 17 2 10 18
M  V30 18 1 18 19
M  V30 19 2 19 20
M  V30 20 1 20 21
M  V30 21 1 21 22
M  V30 22 2 21 23
M  V30 23 2 6 24
M  V30 24 1 24 25
M  V30 25 1 25 26
M  V30 26 1 26 27
M  V30 27 1 26 28
M  V30 28 2 25 29
M  V30 29 1 29 4
M  V30 30 1 20 8
M  V30 31 1 17 11
M  V30 32 1 1 30
M  V30 33 1 1 31
M  V30 34 1 1 32
M  V30 35 1 2 33
M  V30 36 1 3 34
M  V30 37 1 3 35
M  V30 38 1 3 36
M  V30 39 1 5 37
M  V30 40 1 7 38
M  V30 41 1 12 39
M  V30 42 1 12 40
M  V30 43 1 13 41
M  V30 44 1 13 42
M  V30 45 1 14 43
M  V30 46 1 14 44
M  V30 47 1 15 45 CFG=3
M  V30 48 1 16 46
M  V30 49 1 16 47
M  V30 50 1 17 48
M  V30 51 1 17 49
M  V30 52 1 19 50
M  V30 53 1 22 51
M  V30 54 1 22 52
M  V30 55 1 24 53
M  V30 56 1 26 54
M  V30 57 1 27 55
M  V30 58 1 27 56
M  V30 59 1 27 57
M  V30 60 1 28 58
M  V30 61 1 28 59
M  V30 62 1 28 60
M  V30 63 1 29 61
M  V30 END BOND
M  V30 END CTAB
M  END
>  <Dataset>  (767) 
ChEMBL_Kinases

>  <Ligand_Instance>  (767) 
nan

>  <PDB_ID>  (767) 
nan

>  <Standardized_SMILES>  (767) 
CC(C)c1cc(Nc2nc(N3CCC[C@H](N)C3)ncc2C(N)=O)cc(C(C)C)c1

>  <Name>  (767) 
nan

>  <Pocket>  (767) 
nan

>  <ATP_Site>  (767) 
nan

>  <Peripheral>  (767) 
nan

>  <Num_H_Atoms_ProtBoundConf>  (767) 
nan

>  <Num_Resolved_Atoms>  (767) 
nan

>  <Num_Not_Resolved_Atoms>  (767) 
nan

$$$$
CHEMBL4634857
     RDKit          3D

  0  0  0  0  0  0  0  0  0  0999 V3000
M  V30 BEGIN CTAB
M  V30 COUNTS 66 69 0 0 0
M  V30 BEGIN ATOM
M  V30 1 C 0.729257 1.326302 6.304019 0
M  V30 2 O 0.772377 0.043102 6.859205 0
M  V30 3 C 1.096871 -1.095968 6.132004 0
M  V30 4 C 1.388667 -0.940444 4.795131 0
M  V30 5 C 1.725469 -1.982426 3.957897 0
M  V30 6 C 2.046542 -1.918734 2.538859 0
M  V30 7 C 3.190241 -2.608195 2.122812 0
M  V30 8 N 3.547317 -2.585703 0.824878 0
M  V30 9 C 2.813576 -1.904743 -0.080813 0
M  V30 10 C 1.673768 -1.210068 0.297813 0
M  V30 11 C 0.987292 -0.521985 -0.789760 0
M  V30 12 C 0.503511 0.769745 -0.789757 0
M  V30 13 C -0.122824 1.267258 -1.912836 0
M  V30 14 C -0.313539 0.559797 -3.075933 0
M  V30 15 N -0.965996 1.110413 -4.206978 0
M  V30 16 C -1.623923 2.399883 -4.279647 0
M  V30 17 C -3.071495 2.246663 -4.722670 0 CFG=1
M  V30 18 C -3.688389 3.589797 -4.957051 0
M  V30 19 N -3.166897 1.468181 -5.942696 0
M  V30 20 C -2.522106 0.163592 -5.747484 0 CFG=1
M  V30 21 C -2.711584 -0.643526 -7.009586 0
M  V30 22 C -1.071340 0.465529 -5.480453 0
M  V30 23 C 0.162722 -0.729979 -3.093145 0
M  V30 24 C 0.803208 -1.260586 -1.965540 0
M  V30 25 C 1.292677 -1.221562 1.620414 0
M  V30 26 C 0.086229 -0.498232 2.014592 0
M  V30 27 C 1.762390 -3.240612 4.529179 0
M  V30 28 C 1.481741 -3.466325 5.859982 0
M  V30 29 O 1.458201 -4.611230 6.626352 0
M  V30 30 C 1.727977 -5.913857 6.238587 0
M  V30 31 C 1.145030 -2.365366 6.661400 0
M  V30 32 O 0.827579 -2.392849 8.034799 0
M  V30 33 C -0.532978 -2.570377 8.444436 0
M  V30 34 H -0.035512 1.304246 5.492948 0
M  V30 35 H 0.339797 2.034625 7.072684 0
M  V30 36 H 1.704303 1.653476 5.880702 0
M  V30 37 H 1.366169 0.037950 4.342195 0
M  V30 38 H 3.853175 -3.184088 2.745047 0
M  V30 39 H 3.161613 -1.928289 -1.119176 0
M  V30 40 H 0.652363 1.330895 0.118876 0
M  V30 41 H -0.459313 2.287811 -1.798351 0
M  V30 42 H -1.127960 3.101015 -4.987226 0
M  V30 43 H -1.667476 2.897035 -3.293734 0
M  V30 44 H -3.664859 1.697362 -3.955650 0
M  V30 45 H -4.608877 3.700792 -4.329852 0
M  V30 46 H -3.996485 3.767108 -6.021153 0
M  V30 47 H -3.040865 4.450014 -4.684192 0
M  V30 48 H -2.734970 1.976910 -6.744747 0
M  V30 49 H -3.047253 -0.324720 -4.909932 0
M  V30 50 H -3.780427 -0.516268 -7.313601 0
M  V30 51 H -2.515250 -1.714459 -6.799304 0
M  V30 52 H -2.046742 -0.261493 -7.800209 0
M  V30 53 H -0.760318 1.166875 -6.315011 0
M  V30 54 H -0.408443 -0.409807 -5.625827 0
M  V30 55 H 0.078244 -1.377919 -3.925093 0
M  V30 56 H 1.169491 -2.283363 -2.006504 0
M  V30 57 H -0.613164 -0.445487 1.128202 0
M  V30 58 H -0.524114 -1.092557 2.758473 0
M  V30 59 H 0.225045 0.541003 2.319117 0
M  V30 60 H 2.004968 -4.184561 4.042934 0
M  V30 61 H 2.824175 -6.093929 6.260715 0
M  V30 62 H 1.160672 -6.618117 6.879378 0
M  V30 63 H 1.358441 -6.098132 5.187927 0
M  V30 64 H -0.741339 -1.893234 9.295161 0
M  V30 65 H -0.804661 -3.615486 8.607813 0
M  V30 66 H -1.195219 -2.207008 7.606618 0
M  V30 END ATOM
M  V30 BEGIN BOND
M  V30 1 1 1 2
M  V30 2 1 2 3
M  V30 3 2 3 4
M  V30 4 1 4 5
M  V30 5 1 5 6
M  V30 6 2 6 7
M  V30 7 1 7 8
M  V30 8 2 8 9
M  V30 9 1 9 10
M  V30 10 1 10 11
M  V30 11 2 11 12
M  V30 12 1 12 13
M  V30 13 2 13 14
M  V30 14 1 14 15
M  V30 15 1 15 16
M  V30 16 1 16 17
M  V30 17 1 17 18
M  V30 18 1 17 19
M  V30 19 1 19 20
M  V30 20 1 20 21
M  V30 21 1 20 22
M  V30 22 1 14 23
M  V30 23 2 23 24
M  V30 24 2 10 25
M  V30 25 1 25 26
M  V30 26 2 5 27
M  V30 27 1 27 28
M  V30 28 1 28 29
M  V30 29 1 29 30
M  V30 30 2 28 31
M  V30 31 1 31 32
M  V30 32 1 32 33
M  V30 33 1 31 3
M  V30 34 1 25 6
M  V30 35 1 24 11
M  V30 36 1 22 15
M  V30 37 1 1 34
M  V30 38 1 1 35
M  V30 39 1 1 36
M  V30 40 1 4 37
M  V30 41 1 7 38
M  V30 42 1 9 39
M  V30 43 1 12 40
M  V30 44 1 13 41
M  V30 45 1 16 42
M  V30 46 1 16 43
M  V30 47 1 17 44 CFG=1
M  V30 48 1 18 45
M  V30 49 1 18 46
M  V30 50 1 18 47
M  V30 51 1 19 48
M  V30 52 1 20 49 CFG=1
M  V30 53 1 21 50
M  V30 54 1 21 51
M  V30 55 1 21 52
M  V30 56 1 22 53
M  V30 57 1 22 54
M  V30 58 1 23 55
M  V30 59 1 24 56
M  V30 60 1 26 57
M  V30 61 1 26 58
M  V30 62 1 26 59
M  V30 63 1 27 60
M  V30 64 1 30 61
M  V30 65 1 30 62
M  V30 66 1 30 63
M  V30 67 1 33 64
M  V30 68 1 33 65
M  V30 69 1 33 66
M  V30 END BOND
M  V30 END CTAB
M  END
>  <Dataset>  (768) 
ChEMBL_Kinases

>  <Ligand_Instance>  (768) 
nan

>  <PDB_ID>  (768) 
nan

>  <Standardized_SMILES>  (768) 
COc1cc(-c2cncc(-c3ccc(N4C[C@@H](C)N[C@@H](C)C4)cc3)c2C)cc(OC)c1OC

>  <Name>  (768) 
nan

>  <Pocket>  (768) 
nan

>  <ATP_Site>  (768) 
nan

>  <Peripheral>  (768) 
nan

>  <Num_H_Atoms_ProtBoundConf>  (768) 
nan

>  <Num_Resolved_Atoms>  (768) 
nan

>  <Num_Not_Resolved_Atoms>  (768) 
nan

$$$$
CHEMBL462371
     RDKit          3D

  0  0  0  0  0  0  0  0  0  0999 V3000
M  V30 BEGIN CTAB
M  V30 COUNTS 41 44 0 0 0
M  V30 BEGIN ATOM
M  V30 1 O 6.169533 0.001789 -2.189054 0
M  V30 2 C 5.854101 -0.473660 -1.066956 0
M  V30 3 N 6.796497 -0.991177 -0.257677 0
M  V30 4 C 6.511782 -1.511231 0.950354 0
M  V30 5 C 7.518786 -2.092157 1.875036 0
M  V30 6 F 7.625227 -3.466019 1.724727 0
M  V30 7 F 8.728864 -1.468120 1.639800 0
M  V30 8 F 7.123860 -1.809186 3.180344 0
M  V30 9 N 5.216349 -1.519106 1.382468 0
M  V30 10 C 4.206089 -1.023578 0.642158 0
M  V30 11 N 2.878155 -0.880111 0.759614 0
M  V30 12 C 2.342365 -0.292695 -0.330130 0
M  V30 13 C 0.944667 0.037772 -0.592094 0
M  V30 14 C 0.592635 0.652664 -1.798973 0
M  V30 15 C -0.761697 0.941046 -1.984681 0
M  V30 16 N -1.705994 0.644350 -1.046035 0
M  V30 17 C -1.357632 0.053493 0.110447 0
M  V30 18 C -2.357992 -0.269959 1.124339 0
M  V30 19 C -3.627956 0.010908 0.927787 0
M  V30 20 C -4.675895 -0.273917 1.874011 0
M  V30 21 C -4.485130 -0.870935 3.094032 0
M  V30 22 C -5.471070 -1.153983 4.016390 0
M  V30 23 C -6.771127 -0.800081 3.672447 0
M  V30 24 C -7.052491 -0.186552 2.445933 0
M  V30 25 C -5.985268 0.050343 1.596646 0
M  V30 26 C -0.026337 -0.240618 0.315809 0
M  V30 27 C 3.404255 -0.055912 -1.178899 0
M  V30 28 C 4.562613 -0.507230 -0.580928 0
M  V30 29 H 7.807119 -1.008577 -0.544181 0
M  V30 30 H 2.376639 -1.194193 1.594790 0
M  V30 31 H 1.300665 0.898429 -2.552792 0
M  V30 32 H -1.037150 1.417214 -2.918409 0
M  V30 33 H -2.040424 -0.744759 2.041510 0
M  V30 34 H -3.870135 0.485293 -0.012653 0
M  V30 35 H -3.493202 -1.160922 3.399311 0
M  V30 36 H -5.272661 -1.627123 4.968177 0
M  V30 37 H -7.624804 -0.980692 4.332723 0
M  V30 38 H -8.059875 0.084953 2.185241 0
M  V30 39 H -6.244378 0.532131 0.645757 0
M  V30 40 H 0.242114 -0.724381 1.268037 0
M  V30 41 H 3.271739 0.420439 -2.159346 0
M  V30 END ATOM
M  V30 BEGIN BOND
M  V30 1 2 1 2
M  V30 2 1 2 3
M  V30 3 1 3 4
M  V30 4 1 4 5
M  V30 5 1 5 6
M  V30 6 1 5 7
M  V30 7 1 5 8
M  V30 8 2 4 9
M  V30 9 1 9 10
M  V30 10 1 10 11
M  V30 11 1 11 12
M  V30 12 1 12 13
M  V30 13 2 13 14
M  V30 14 1 14 15
M  V30 15 2 15 16
M  V30 16 1 16 17
M  V30 17 1 17 18
M  V30 18 2 18 19
M  V30 19 1 19 20
M  V30 20 2 20 21
M  V30 21 1 21 22
M  V30 22 2 22 23
M  V30 23 1 23 24
M  V30 24 2 24 25
M  V30 25 2 17 26
M  V30 26 2 12 27
M  V30 27 1 27 28
M  V30 28 1 28 2
M  V30 29 2 28 10
M  V30 30 1 26 13
M  V30 31 1 25 20
M  V30 32 1 3 29
M  V30 33 1 11 30
M  V30 34 1 14 31
M  V30 35 1 15 32
M  V30 36 1 18 33
M  V30 37 1 19 34
M  V30 38 1 21 35
M  V30 39 1 22 36
M  V30 40 1 23 37
M  V30 41 1 24 38
M  V30 42 1 25 39
M  V30 43 1 26 40
M  V30 44 1 27 41
M  V30 END BOND
M  V30 END CTAB
M  END
>  <Dataset>  (769) 
ChEMBL_Kinases

>  <Ligand_Instance>  (769) 
nan

>  <PDB_ID>  (769) 
nan

>  <Standardized_SMILES>  (769) 
O=c1[nH]c(C(F)(F)F)nc2[nH]c(-c3ccnc(/C=C/c4ccccc4)c3)cc12

>  <Name>  (769) 
nan

>  <Pocket>  (769) 
nan

>  <ATP_Site>  (769) 
nan

>  <Peripheral>  (769) 
nan

>  <Num_H_Atoms_ProtBoundConf>  (769) 
nan

>  <Num_Resolved_Atoms>  (769) 
nan

>  <Num_Not_Resolved_Atoms>  (769) 
nan

$$$$
CHEMBL4573380
     RDKit          3D

  0  0  0  0  0  0  0  0  0  0999 V3000
M  V30 BEGIN CTAB
M  V30 COUNTS 54 58 0 0 0
M  V30 BEGIN ATOM
M  V30 1 N 5.649525 -2.482479 -4.627922 0
M  V30 2 C 5.447360 -2.118342 -3.549435 0
M  V30 3 C 5.204548 -1.653762 -2.223178 0
M  V30 4 C 5.113295 -2.593354 -1.201239 0
M  V30 5 C 4.880946 -2.179726 0.083024 0
M  V30 6 C 4.742511 -0.849614 0.338992 0
M  V30 7 C 4.821768 0.138717 -0.629540 0
M  V30 8 C 4.656147 1.536535 -0.232244 0
M  V30 9 C 3.242141 1.987724 -0.285631 0
M  V30 10 O 3.127438 0.795471 -0.658893 0
M  V30 11 N 2.852423 3.308627 0.058908 0
M  V30 12 C 1.422756 3.441503 -0.092039 0
M  V30 13 C 0.667218 3.134388 1.043970 0
M  V30 14 C -0.703310 3.268253 0.873150 0
M  V30 15 O -1.446227 2.953968 2.029237 0
M  V30 16 C -1.879679 1.660282 2.268150 0
M  V30 17 C -1.189192 0.689815 2.963733 0
M  V30 18 C -1.635305 -0.592609 3.191951 0
M  V30 19 C -2.866087 -0.983325 2.704691 0
M  V30 20 N -3.467157 -2.148961 2.812192 0
M  V30 21 C -4.494365 -2.498465 2.413298 0
M  V30 22 N -5.135601 -3.807485 2.551752 0
M  V30 23 C -4.760904 -4.650732 1.454825 0
M  V30 24 O -3.986323 -4.197860 0.574587 0
M  V30 25 C -5.296832 -6.032511 1.389240 0
M  V30 26 C -5.301918 -6.787339 0.097586 0
M  V30 27 C -4.227600 -7.086207 1.063255 0
M  V30 28 S -5.074776 -0.882431 1.544750 0
M  V30 29 C -3.560558 -0.012741 2.007011 0
M  V30 30 C -3.111072 1.284479 1.775317 0
M  V30 31 C -1.276263 3.665391 -0.299844 0
M  V30 32 C -0.467499 3.956406 -1.393933 0
M  V30 33 C 0.900133 3.840650 -1.281165 0
M  V30 34 F 1.744076 4.106715 -2.301376 0
M  V30 35 C 5.057090 -0.319332 -1.911591 0
M  V30 36 H 5.231430 -3.651625 -1.455866 0
M  V30 37 H 4.824216 -2.971193 0.816366 0
M  V30 38 H 4.557657 -0.578918 1.388003 0
M  V30 39 H 5.066528 1.653248 0.786098 0
M  V30 40 H 5.244521 2.158543 -0.952304 0
M  V30 41 H 3.648493 3.917759 0.348062 0
M  V30 42 H 1.142049 2.821180 1.964843 0
M  V30 43 H -0.213614 1.010941 3.345789 0
M  V30 44 H -0.952968 -1.232668 3.766089 0
M  V30 45 H -5.760166 -4.089051 3.314086 0
M  V30 46 H -5.983492 -6.338729 2.227272 0
M  V30 47 H -6.096421 -7.530204 -0.099486 0
M  V30 48 H -5.070703 -6.149468 -0.800777 0
M  V30 49 H -4.268037 -8.049363 1.602463 0
M  V30 50 H -3.210157 -6.719384 0.763204 0
M  V30 51 H -3.781944 1.889946 1.219210 0
M  V30 52 H -2.351887 3.748175 -0.362061 0
M  V30 53 H -0.908874 4.267805 -2.314665 0
M  V30 54 H 5.125622 0.427904 -2.699215 0
M  V30 END ATOM
M  V30 BEGIN BOND
M  V30 1 3 1 2
M  V30 2 1 2 3
M  V30 3 2 3 4
M  V30 4 1 4 5
M  V30 5 2 5 6
M  V30 6 1 6 7
M  V30 7 1 7 8
M  V30 8 1 8 9
M  V30 9 2 9 10
M  V30 10 1 9 11
M  V30 11 1 11 12
M  V30 12 2 12 13
M  V30 13 1 13 14
M  V30 14 1 14 15
M  V30 15 1 15 16
M  V30 16 2 16 17
M  V30 17 1 17 18
M  V30 18 2 18 19
M  V30 19 1 19 20
M  V30 20 2 20 21
M  V30 21 1 21 22
M  V30 22 1 22 23
M  V30 23 2 23 24
M  V30 24 1 23 25
M  V30 25 1 25 26
M  V30 26 1 26 27
M  V30 27 1 21 28
M  V30 28 1 28 29
M  V30 29 2 29 30
M  V30 30 2 14 31
M  V30 31 1 31 32
M  V30 32 2 32 33
M  V30 33 1 33 34
M  V30 34 2 7 35
M  V30 35 1 35 3
M  V30 36 1 33 12
M  V30 37 1 30 16
M  V30 38 1 29 19
M  V30 39 1 27 25
M  V30 40 1 4 36
M  V30 41 1 5 37
M  V30 42 1 6 38
M  V30 43 1 8 39
M  V30 44 1 8 40
M  V30 45 1 11 41
M  V30 46 1 13 42
M  V30 47 1 17 43
M  V30 48 1 18 44
M  V30 49 1 22 45
M  V30 50 1 25 46
M  V30 51 1 26 47
M  V30 52 1 26 48
M  V30 53 1 27 49
M  V30 54 1 27 50
M  V30 55 1 30 51
M  V30 56 1 31 52
M  V30 57 1 32 53
M  V30 58 1 35 54
M  V30 END BOND
M  V30 END CTAB
M  END
>  <Dataset>  (770) 
ChEMBL_Kinases

>  <Ligand_Instance>  (770) 
nan

>  <PDB_ID>  (770) 
nan

>  <Standardized_SMILES>  (770) 
N#Cc1cccc(CC(=O)Nc2cc(Oc3ccc4nc(NC(=O)C5CC5)sc4c3)ccc2F)c1

>  <Name>  (770) 
nan

>  <Pocket>  (770) 
nan

>  <ATP_Site>  (770) 
nan

>  <Peripheral>  (770) 
nan

>  <Num_H_Atoms_ProtBoundConf>  (770) 
nan

>  <Num_Resolved_Atoms>  (770) 
nan

>  <Num_Not_Resolved_Atoms>  (770) 
nan

$$$$
CHEMBL4634867
     RDKit          3D

  0  0  0  0  0  0  0  0  0  0999 V3000
M  V30 BEGIN CTAB
M  V30 COUNTS 43 46 0 0 0
M  V30 BEGIN ATOM
M  V30 1 O 1.238176 -0.789309 0.394711 0
M  V30 2 C 1.145230 0.452563 0.606539 0
M  V30 3 N 2.180652 1.179514 -0.044160 0
M  V30 4 C 3.063434 0.301536 -0.774706 0
M  V30 5 C 4.138698 1.137321 -1.440993 0
M  V30 6 C 3.560921 2.144604 -2.402981 0
M  V30 7 C 4.741000 2.306513 -3.363381 0
M  V30 8 O 5.243821 1.036229 -3.491588 0
M  V30 9 C 5.007759 0.313070 -2.353083 0
M  V30 10 C 0.106051 1.078465 1.418692 0
M  V30 11 N -0.133899 2.363585 1.740120 0
M  V30 12 N -1.208558 2.446792 2.513792 0
M  V30 13 C -1.694044 1.207660 2.713426 0
M  V30 14 C -2.783452 0.705673 3.428894 0
M  V30 15 C -3.061297 -0.652120 3.467006 0
M  V30 16 C -2.239635 -1.544900 2.778133 0
M  V30 17 C -2.512593 -2.979895 2.803772 0
M  V30 18 C -2.470565 -3.760522 1.665579 0
M  V30 19 C -2.736014 -5.127560 1.722884 0
M  V30 20 C -3.050899 -5.744562 2.928555 0
M  V30 21 C -3.098920 -4.976029 4.089298 0
M  V30 22 F -3.397106 -5.516336 5.280873 0
M  V30 23 C -2.827845 -3.623808 3.981174 0
M  V30 24 F -2.880906 -2.891892 5.130913 0
M  V30 25 C -1.168536 -1.017568 2.078656 0
M  V30 26 C -0.878845 0.328556 2.030753 0
M  V30 27 H 2.205772 2.236984 0.062082 0
M  V30 28 H 2.569026 -0.278304 -1.572067 0
M  V30 29 H 3.612264 -0.407855 -0.105896 0
M  V30 30 H 4.790083 1.640799 -0.697326 0
M  V30 31 H 3.329978 3.085174 -1.871760 0
M  V30 32 H 2.687519 1.721280 -2.915216 0
M  V30 33 H 5.456233 3.048388 -3.002570 0
M  V30 34 H 4.308004 2.674127 -4.328982 0
M  V30 35 H 5.962490 -0.010840 -1.905948 0
M  V30 36 H 4.454834 -0.640003 -2.597173 0
M  V30 37 H -1.595134 3.346287 2.894179 0
M  V30 38 H -3.437167 1.385392 3.973375 0
M  V30 39 H -3.925131 -1.000763 4.040115 0
M  V30 40 H -2.223983 -3.296006 0.700271 0
M  V30 41 H -2.697759 -5.730828 0.808391 0
M  V30 42 H -3.249225 -6.787679 2.946752 0
M  V30 43 H -0.555469 -1.743111 1.557683 0
M  V30 END ATOM
M  V30 BEGIN BOND
M  V30 1 2 1 2
M  V30 2 1 2 3
M  V30 3 1 3 4
M  V30 4 1 4 5
M  V30 5 1 5 6
M  V30 6 1 6 7
M  V30 7 1 7 8
M  V30 8 1 8 9
M  V30 9 1 2 10
M  V30 10 2 10 11
M  V30 11 1 11 12
M  V30 12 1 12 13
M  V30 13 2 13 14
M  V30 14 1 14 15
M  V30 15 2 15 16
M  V30 16 1 16 17
M  V30 17 2 17 18
M  V30 18 1 18 19
M  V30 19 2 19 20
M  V30 20 1 20 21
M  V30 21 1 21 22
M  V30 22 2 21 23
M  V30 23 1 23 24
M  V30 24 1 16 25
M  V30 25 2 25 26
M  V30 26 1 9 5
M  V30 27 1 26 10
M  V30 28 1 26 13
M  V30 29 1 23 17
M  V30 30 1 3 27
M  V30 31 1 4 28
M  V30 32 1 4 29
M  V30 33 1 5 30
M  V30 34 1 6 31
M  V30 35 1 6 32
M  V30 36 1 7 33
M  V30 37 1 7 34
M  V30 38 1 9 35
M  V30 39 1 9 36
M  V30 40 1 12 37
M  V30 41 1 14 38
M  V30 42 1 15 39
M  V30 43 1 18 40
M  V30 44 1 19 41
M  V30 45 1 20 42
M  V30 46 1 25 43
M  V30 END BOND
M  V30 END CTAB
M  END
>  <Dataset>  (771) 
ChEMBL_Kinases

>  <Ligand_Instance>  (771) 
nan

>  <PDB_ID>  (771) 
nan

>  <Standardized_SMILES>  (771) 
O=C(NCC1CCOC1)c1n[nH]c2ccc(-c3cccc(F)c3F)cc12

>  <Name>  (771) 
nan

>  <Pocket>  (771) 
nan

>  <ATP_Site>  (771) 
nan

>  <Peripheral>  (771) 
nan

>  <Num_H_Atoms_ProtBoundConf>  (771) 
nan

>  <Num_Resolved_Atoms>  (771) 
nan

>  <Num_Not_Resolved_Atoms>  (771) 
nan

$$$$
CHEMBL4634900
     RDKit          3D

  0  0  0  0  0  0  0  0  0  0999 V3000
M  V30 BEGIN CTAB
M  V30 COUNTS 58 61 0 0 0
M  V30 BEGIN ATOM
M  V30 1 C 1.878203 -3.742424 4.110423 0
M  V30 2 O 1.584572 -2.926232 3.008125 0
M  V30 3 C 1.469602 -1.518212 3.228922 0
M  V30 4 N 1.489067 -0.437849 3.982790 0
M  V30 5 N 1.235307 0.651146 3.247444 0
M  V30 6 C 1.261405 1.861042 3.995676 0
M  V30 7 C 2.370965 2.132710 4.783965 0
M  V30 8 N 2.307767 3.309345 5.412130 0
M  V30 9 C 1.292490 4.176192 5.320525 0
M  V30 10 C 0.148173 3.930320 4.526089 0
M  V30 11 N -0.818166 4.946225 4.535719 0
M  V30 12 C -0.524298 6.133564 5.351322 0
M  V30 13 C -2.077637 4.932608 3.810058 0
M  V30 14 C 0.208564 2.725220 3.880355 0
M  V30 15 C 1.065520 0.090793 1.988613 0
M  V30 16 C 1.203787 -1.377787 1.861855 0
M  V30 17 C 0.920090 -1.227658 0.403091 0
M  V30 18 O 1.194333 -2.504454 0.418495 0
M  V30 19 N 0.578729 -0.637738 -0.870947 0
M  V30 20 C 0.715237 -1.833414 -1.697463 0
M  V30 21 C 1.976815 -2.031292 -2.206748 0
M  V30 22 C 2.212253 -3.135616 -3.023222 0
M  V30 23 C 1.083457 -3.951582 -3.238995 0
M  V30 24 C -0.157510 -3.735494 -2.722834 0
M  V30 25 C -1.155591 -4.722205 -3.091439 0
M  V30 26 N -0.985230 -5.849467 -2.341048 0
M  V30 27 N -1.920046 -6.737673 -2.714882 0
M  V30 28 C -2.629758 -6.104402 -3.691042 0
M  V30 29 N -2.183145 -4.863324 -3.944361 0
M  V30 30 C -2.532575 -3.799867 -4.824306 0
M  V30 31 C -2.508248 -2.425013 -4.195541 0
M  V30 32 C -1.677208 -3.809767 -6.099474 0
M  V30 33 N -0.366966 -2.646202 -1.923972 0
M  V30 34 H 2.588251 -4.539724 3.753708 0
M  V30 35 H 2.358197 -3.135395 4.882154 0
M  V30 36 H 0.954690 -4.217025 4.520646 0
M  V30 37 H 3.152336 1.395885 4.817630 0
M  V30 38 H 1.514624 5.023263 5.928794 0
M  V30 39 H -1.310895 6.906376 5.234942 0
M  V30 40 H 0.480415 6.493269 4.980623 0
M  V30 41 H -0.414119 5.770662 6.381611 0
M  V30 42 H -1.902715 4.951384 2.708354 0
M  V30 43 H -2.739965 4.093331 4.131183 0
M  V30 44 H -2.648376 5.851174 4.112564 0
M  V30 45 H -0.692551 2.545903 3.265503 0
M  V30 46 H 0.862087 1.109666 1.504554 0
M  V30 47 H 0.459846 0.209570 -0.388378 0
M  V30 48 H 2.785424 -1.320913 -1.968882 0
M  V30 49 H 3.222066 -3.222112 -3.384731 0
M  V30 50 H 1.407439 -4.774067 -3.893535 0
M  V30 51 H -3.475745 -6.508444 -4.242558 0
M  V30 52 H -3.576608 -3.957369 -5.170315 0
M  V30 53 H -2.841513 -2.415793 -3.161142 0
M  V30 54 H -3.203807 -1.723354 -4.741287 0
M  V30 55 H -1.504776 -1.990831 -4.387801 0
M  V30 56 H -0.602867 -3.765436 -5.840097 0
M  V30 57 H -1.940248 -2.955076 -6.752688 0
M  V30 58 H -1.846538 -4.734286 -6.682912 0
M  V30 END ATOM
M  V30 BEGIN BOND
M  V30 1 1 1 2
M  V30 2 1 2 3
M  V30 3 2 3 4
M  V30 4 1 4 5
M  V30 5 1 5 6
M  V30 6 2 6 7
M  V30 7 1 7 8
M  V30 8 2 8 9
M  V30 9 1 9 10
M  V30 10 1 10 11
M  V30 11 1 11 12
M  V30 12 1 11 13
M  V30 13 2 10 14
M  V30 14 1 5 15
M  V30 15 2 15 16
M  V30 16 1 16 17
M  V30 17 2 17 18
M  V30 18 1 17 19
M  V30 19 1 19 20
M  V30 20 2 20 21
M  V30 21 1 21 22
M  V30 22 2 22 23
M  V30 23 1 23 24
M  V30 24 1 24 25
M  V30 25 2 25 26
M  V30 26 1 26 27
M  V30 27 2 27 28
M  V30 28 1 28 29
M  V30 29 1 29 30
M  V30 30 1 30 31
M  V30 31 1 30 32
M  V30 32 2 24 33
M  V30 33 1 16 3
M  V30 34 1 33 20
M  V30 35 1 14 6
M  V30 36 1 29 25
M  V30 37 1 1 34
M  V30 38 1 1 35
M  V30 39 1 1 36
M  V30 40 1 7 37
M  V30 41 1 9 38
M  V30 42 1 12 39
M  V30 43 1 12 40
M  V30 44 1 12 41
M  V30 45 1 13 42
M  V30 46 1 13 43
M  V30 47 1 13 44
M  V30 48 1 14 45
M  V30 49 1 15 46
M  V30 50 1 19 47
M  V30 51 1 21 48
M  V30 52 1 22 49
M  V30 53 1 23 50
M  V30 54 1 28 51
M  V30 55 1 30 52
M  V30 56 1 31 53
M  V30 57 1 31 54
M  V30 58 1 31 55
M  V30 59 1 32 56
M  V30 60 1 32 57
M  V30 61 1 32 58
M  V30 END BOND
M  V30 END CTAB
M  END
>  <Dataset>  (772) 
ChEMBL_Kinases

>  <Ligand_Instance>  (772) 
nan

>  <PDB_ID>  (772) 
nan

>  <Standardized_SMILES>  (772) 
COc1nn(-c2cncc(N(C)C)c2)cc1C(=O)Nc1cccc(-c2nncn2C(C)C)n1

>  <Name>  (772) 
nan

>  <Pocket>  (772) 
nan

>  <ATP_Site>  (772) 
nan

>  <Peripheral>  (772) 
nan

>  <Num_H_Atoms_ProtBoundConf>  (772) 
nan

>  <Num_Resolved_Atoms>  (772) 
nan

>  <Num_Not_Resolved_Atoms>  (772) 
nan

$$$$
CHEMBL4573138
     RDKit          3D

  0  0  0  0  0  0  0  0  0  0999 V3000
M  V30 BEGIN CTAB
M  V30 COUNTS 63 66 0 0 0
M  V30 BEGIN ATOM
M  V30 1 C 0.754477 -4.958024 4.514959 0
M  V30 2 O 0.494047 -3.734351 3.915090 0
M  V30 3 C 1.375535 -2.987006 3.147822 0
M  V30 4 C 2.676837 -3.364543 2.864646 0
M  V30 5 C 3.486074 -2.560666 2.093028 0
M  V30 6 N 4.730639 -3.009035 1.893822 0
M  V30 7 C 5.583940 -2.245472 1.149211 0
M  V30 8 N 5.131810 -1.100176 0.662815 0
M  V30 9 C 3.902765 -0.577177 0.811194 0
M  V30 10 C 3.427548 0.699966 0.210259 0
M  V30 11 C 3.195670 1.791626 1.166148 0
M  V30 12 C 1.981612 2.665779 0.950480 0
M  V30 13 N 1.049835 2.112126 0.027252 0
M  V30 14 C -0.326066 1.932014 0.291660 0
M  V30 15 O -0.384232 2.427903 1.472785 0
M  V30 16 C -1.466487 1.393551 -0.382030 0
M  V30 17 C -2.552495 1.895192 -1.062817 0
M  V30 18 C -3.503902 1.026380 -1.581496 0
M  V30 19 C -3.446583 -0.336756 -1.464983 0
M  V30 20 C -4.541315 -1.152324 -2.069721 0
M  V30 21 C -5.732753 -1.286793 -1.162922 0
M  V30 22 C -4.891986 -0.567980 -3.409087 0
M  V30 23 C -4.018549 -2.562408 -2.298536 0
M  V30 24 C -2.354540 -0.876020 -0.779222 0
M  V30 25 C -1.388194 -0.005691 -0.253454 0
M  V30 26 C 1.648846 1.736008 -1.207747 0
M  V30 27 C 2.508248 0.512515 -0.962062 0
M  V30 28 C 3.074641 -1.359810 1.560403 0
M  V30 29 C 1.778321 -1.027019 1.866835 0
M  V30 30 C 0.897804 -1.764423 2.630305 0
M  V30 31 O -0.313606 -1.436429 2.913015 0
M  V30 32 C -1.471646 -0.832462 3.021817 0
M  V30 33 H 0.507957 -5.828908 3.900429 0
M  V30 34 H 0.279797 -5.071887 5.511461 0
M  V30 35 H 1.856650 -5.030179 4.702673 0
M  V30 36 H 3.061196 -4.315313 3.261984 0
M  V30 37 H 6.631585 -2.496607 0.912660 0
M  V30 38 H 4.383687 1.045650 -0.332793 0
M  V30 39 H 3.160957 1.342794 2.181039 0
M  V30 40 H 4.030648 2.518632 1.278530 0
M  V30 41 H 1.458001 2.766742 1.927952 0
M  V30 42 H 2.218937 3.698120 0.642491 0
M  V30 43 H -2.483041 2.968790 -1.086992 0
M  V30 44 H -4.272403 1.621769 -2.076405 0
M  V30 45 H -5.999048 -2.340053 -0.959920 0
M  V30 46 H -5.536526 -0.804102 -0.167839 0
M  V30 47 H -6.641019 -0.849896 -1.638583 0
M  V30 48 H -5.571510 -1.239474 -3.987176 0
M  V30 49 H -3.938283 -0.413762 -3.953793 0
M  V30 50 H -5.363222 0.419581 -3.246147 0
M  V30 51 H -3.897990 -3.093975 -1.331745 0
M  V30 52 H -3.145960 -2.620215 -2.945929 0
M  V30 53 H -4.850815 -3.117586 -2.820838 0
M  V30 54 H -2.348606 -1.945636 -0.714334 0
M  V30 55 H -0.636459 -0.616729 0.235302 0
M  V30 56 H 2.348050 2.530231 -1.535383 0
M  V30 57 H 0.972828 1.522718 -2.037447 0
M  V30 58 H 1.859502 -0.387812 -0.906016 0
M  V30 59 H 3.037679 0.379408 -1.927232 0
M  V30 60 H 1.415724 -0.118132 1.478257 0
M  V30 61 H -1.374968 0.273690 2.841123 0
M  V30 62 H -1.920268 -1.001730 4.045193 0
M  V30 63 H -2.204836 -1.177195 2.240298 0
M  V30 END ATOM
M  V30 BEGIN BOND
M  V30 1 1 1 2
M  V30 2 1 2 3
M  V30 3 2 3 4
M  V30 4 1 4 5
M  V30 5 2 5 6
M  V30 6 1 6 7
M  V30 7 2 7 8
M  V30 8 1 8 9
M  V30 9 1 9 10
M  V30 10 1 10 11
M  V30 11 1 11 12
M  V30 12 1 12 13
M  V30 13 1 13 14
M  V30 14 2 14 15
M  V30 15 1 14 16
M  V30 16 2 16 17
M  V30 17 1 17 18
M  V30 18 2 18 19
M  V30 19 1 19 20
M  V30 20 1 20 21
M  V30 21 1 20 22
M  V30 22 1 20 23
M  V30 23 1 19 24
M  V30 24 2 24 25
M  V30 25 1 13 26
M  V30 26 1 26 27
M  V30 27 2 9 28
M  V30 28 1 28 29
M  V30 29 2 29 30
M  V30 30 1 30 31
M  V30 31 1 31 32
M  V30 32 1 30 3
M  V30 33 1 28 5
M  V30 34 1 27 10
M  V30 35 1 25 16
M  V30 36 1 1 33
M  V30 37 1 1 34
M  V30 38 1 1 35
M  V30 39 1 4 36
M  V30 40 1 7 37
M  V30 41 1 10 38
M  V30 42 1 11 39
M  V30 43 1 11 40
M  V30 44 1 12 41
M  V30 45 1 12 42
M  V30 46 1 17 43
M  V30 47 1 18 44
M  V30 48 1 21 45
M  V30 49 1 21 46
M  V30 50 1 21 47
M  V30 51 1 22 48
M  V30 52 1 22 49
M  V30 53 1 22 50
M  V30 54 1 23 51
M  V30 55 1 23 52
M  V30 56 1 23 53
M  V30 57 1 24 54
M  V30 58 1 25 55
M  V30 59 1 26 56
M  V30 60 1 26 57
M  V30 61 1 27 58
M  V30 62 1 27 59
M  V30 63 1 29 60
M  V30 64 1 32 61
M  V30 65 1 32 62
M  V30 66 1 32 63
M  V30 END BOND
M  V30 END CTAB
M  END
>  <Dataset>  (773) 
ChEMBL_Kinases

>  <Ligand_Instance>  (773) 
nan

>  <PDB_ID>  (773) 
nan

>  <Standardized_SMILES>  (773) 
COc1cc2ncnc(C3CCN(C(=O)c4ccc(C(C)(C)C)cc4)CC3)c2cc1OC

>  <Name>  (773) 
nan

>  <Pocket>  (773) 
nan

>  <ATP_Site>  (773) 
nan

>  <Peripheral>  (773) 
nan

>  <Num_H_Atoms_ProtBoundConf>  (773) 
nan

>  <Num_Resolved_Atoms>  (773) 
nan

>  <Num_Not_Resolved_Atoms>  (773) 
nan

$$$$
CHEMBL4572928
     RDKit          3D

  0  0  0  0  0  0  0  0  0  0999 V3000
M  V30 BEGIN CTAB
M  V30 COUNTS 36 39 0 0 0
M  V30 BEGIN ATOM
M  V30 1 C -0.420251 -2.971879 1.718768 0
M  V30 2 C -0.680608 -1.737173 2.565036 0
M  V30 3 N -1.515138 -0.707523 1.988498 0
M  V30 4 C -0.907529 -0.124869 0.850621 0
M  V30 5 N 0.285744 -0.562943 0.471065 0
M  V30 6 C 0.937647 -0.051432 -0.617132 0
M  V30 7 C 2.246861 -0.595852 -0.957042 0
M  V30 8 C 2.819217 -1.598708 -0.203053 0
M  V30 9 C 4.066126 -2.018058 -0.643013 0
M  V30 10 N 4.718716 -1.516340 -1.723999 0
M  V30 11 C 4.128270 -0.542410 -2.430285 0
M  V30 12 C 2.887932 -0.069290 -2.058690 0
M  V30 13 N 0.359530 0.914240 -1.317197 0
M  V30 14 C -0.834943 1.436143 -1.035115 0
M  V30 15 C -1.390391 2.428896 -1.784166 0
M  V30 16 N -2.617045 2.915807 -1.437233 0
M  V30 17 C -3.254299 2.393869 -0.347794 0
M  V30 18 C -2.670307 1.394826 0.387271 0
M  V30 19 Cl -3.633151 0.869602 1.723540 0
M  V30 20 C -1.435570 0.877564 0.069941 0
M  V30 21 C -0.717874 -1.949719 4.062503 0
M  V30 22 C 0.484811 -1.327448 3.412806 0
M  V30 23 H -0.735760 -2.734153 0.671037 0
M  V30 24 H -1.121352 -3.784737 2.037815 0
M  V30 25 H 0.628433 -3.276700 1.752451 0
M  V30 26 H -2.303566 -0.759061 2.629750 0
M  V30 27 H 2.344065 -2.018644 0.648884 0
M  V30 28 H 4.553651 -2.816357 -0.066756 0
M  V30 29 H 4.606814 -0.100243 -3.310554 0
M  V30 30 H 2.434105 0.716631 -2.645592 0
M  V30 31 H -0.859580 2.822269 -2.643080 0
M  V30 32 H -4.230645 2.851606 -0.154034 0
M  V30 33 H -1.360105 -1.274721 4.679344 0
M  V30 34 H -0.649464 -2.997642 4.450946 0
M  V30 35 H 0.669395 -0.261375 3.651476 0
M  V30 36 H 1.379927 -1.951046 3.397966 0
M  V30 END ATOM
M  V30 BEGIN BOND
M  V30 1 1 1 2
M  V30 2 1 2 3
M  V30 3 1 3 4
M  V30 4 2 4 5
M  V30 5 1 5 6
M  V30 6 1 6 7
M  V30 7 2 7 8
M  V30 8 1 8 9
M  V30 9 2 9 10
M  V30 10 1 10 11
M  V30 11 2 11 12
M  V30 12 2 6 13
M  V30 13 1 13 14
M  V30 14 2 14 15
M  V30 15 1 15 16
M  V30 16 2 16 17
M  V30 17 1 17 18
M  V30 18 1 18 19
M  V30 19 2 18 20
M  V30 20 1 2 21
M  V30 21 1 21 22
M  V30 22 1 22 2
M  V30 23 1 20 4
M  V30 24 1 12 7
M  V30 25 1 20 14
M  V30 26 1 1 23
M  V30 27 1 1 24
M  V30 28 1 1 25
M  V30 29 1 3 26
M  V30 30 1 8 27
M  V30 31 1 9 28
M  V30 32 1 11 29
M  V30 33 1 12 30
M  V30 34 1 15 31
M  V30 35 1 17 32
M  V30 36 1 21 33
M  V30 37 1 21 34
M  V30 38 1 22 35
M  V30 39 1 22 36
M  V30 END BOND
M  V30 END CTAB
M  END
>  <Dataset>  (774) 
ChEMBL_Kinases

>  <Ligand_Instance>  (774) 
nan

>  <PDB_ID>  (774) 
nan

>  <Standardized_SMILES>  (774) 
CC1(Nc2nc(-c3ccncc3)nc3cncc(Cl)c23)CC1

>  <Name>  (774) 
nan

>  <Pocket>  (774) 
nan

>  <ATP_Site>  (774) 
nan

>  <Peripheral>  (774) 
nan

>  <Num_H_Atoms_ProtBoundConf>  (774) 
nan

>  <Num_Resolved_Atoms>  (774) 
nan

>  <Num_Not_Resolved_Atoms>  (774) 
nan

$$$$
CHEMBL4572858
     RDKit          3D

  0  0  0  0  0  0  0  0  0  0999 V3000
M  V30 BEGIN CTAB
M  V30 COUNTS 52 56 0 0 0
M  V30 BEGIN ATOM
M  V30 1 C -0.513020 -4.418961 4.152329 0
M  V30 2 C 0.884402 -4.419549 3.613008 0
M  V30 3 C 1.454919 -3.583648 2.677597 0
M  V30 4 C 2.777505 -3.967352 2.495116 0
M  V30 5 N 3.725609 -3.377213 1.624025 0
M  V30 6 C 3.498837 -2.276950 0.767901 0
M  V30 7 N 4.486189 -1.814791 0.002780 0
M  V30 8 C 4.259628 -0.769257 -0.807144 0
M  V30 9 C 3.055726 -0.107896 -0.922279 0
M  V30 10 C 2.078097 -0.620013 -0.118364 0
M  V30 11 C 0.703672 0.004741 -0.145915 0
M  V30 12 S 0.084826 0.896181 1.300230 0
M  V30 13 C -1.542562 1.281062 0.406293 0
M  V30 14 C -2.786015 2.041866 0.843239 0
M  V30 15 C -2.465045 3.392975 1.378953 0
M  V30 16 C -1.835802 3.363261 2.717190 0
M  V30 17 N -1.564131 2.125264 3.310314 0
M  V30 18 C -2.397342 1.024716 3.073487 0
M  V30 19 C -3.393626 1.214669 1.958935 0
M  V30 20 N -1.355462 0.771048 -0.607049 0
M  V30 21 C -0.331124 0.100252 -1.071537 0
M  V30 22 C -0.160778 -0.524239 -2.378101 0
M  V30 23 C 0.646873 -0.212120 -3.443920 0
M  V30 24 C 0.623946 -0.984719 -4.584966 0
M  V30 25 C -0.203135 -2.084529 -4.690279 0
M  V30 26 F -0.148531 -2.782934 -5.865658 0
M  V30 27 C -1.027716 -2.430257 -3.644001 0
M  V30 28 C -0.993522 -1.639965 -2.497058 0
M  V30 29 N 2.306105 -1.666999 0.692280 0
M  V30 30 O 2.954596 -4.986375 3.298510 0
M  V30 31 N 1.879683 -5.256754 3.944805 0
M  V30 32 H -1.196417 -4.912683 3.416633 0
M  V30 33 H -0.510223 -5.048670 5.075426 0
M  V30 34 H -0.848488 -3.405251 4.432047 0
M  V30 35 H 0.899987 -2.791425 2.214171 0
M  V30 36 H 4.694847 -3.816754 1.627539 0
M  V30 37 H 5.123159 -0.445345 -1.407278 0
M  V30 38 H 2.929514 0.725779 -1.583247 0
M  V30 39 H -3.527368 2.099467 0.015010 0
M  V30 40 H -1.868914 3.922615 0.603737 0
M  V30 41 H -3.422242 3.947272 1.453414 0
M  V30 42 H -2.392680 3.987735 3.477488 0
M  V30 43 H -0.855979 3.920147 2.623194 0
M  V30 44 H -0.790944 2.035055 3.952072 0
M  V30 45 H -2.959531 0.753001 4.010696 0
M  V30 46 H -1.797419 0.122111 2.837750 0
M  V30 47 H -3.721704 0.256210 1.505836 0
M  V30 48 H -4.310983 1.727443 2.366495 0
M  V30 49 H 1.243660 0.666661 -3.248927 0
M  V30 50 H 1.314186 -0.626535 -5.355031 0
M  V30 51 H -1.645843 -3.285733 -3.775257 0
M  V30 52 H -1.695081 -2.019157 -1.738797 0
M  V30 END ATOM
M  V30 BEGIN BOND
M  V30 1 1 1 2
M  V30 2 1 2 3
M  V30 3 2 3 4
M  V30 4 1 4 5
M  V30 5 1 5 6
M  V30 6 2 6 7
M  V30 7 1 7 8
M  V30 8 2 8 9
M  V30 9 1 9 10
M  V30 10 1 10 11
M  V30 11 1 11 12
M  V30 12 1 12 13
M  V30 13 1 13 14
M  V30 14 1 14 15
M  V30 15 1 15 16
M  V30 16 1 16 17
M  V30 17 1 17 18
M  V30 18 1 18 19
M  V30 19 2 13 20
M  V30 20 1 20 21
M  V30 21 1 21 22
M  V30 22 2 22 23
M  V30 23 1 23 24
M  V30 24 2 24 25
M  V30 25 1 25 26
M  V30 26 1 25 27
M  V30 27 2 27 28
M  V30 28 2 10 29
M  V30 29 1 4 30
M  V30 30 1 30 31
M  V30 31 2 31 2
M  V30 32 1 29 6
M  V30 33 2 21 11
M  V30 34 1 28 22
M  V30 35 1 19 14
M  V30 36 1 1 32
M  V30 37 1 1 33
M  V30 38 1 1 34
M  V30 39 1 3 35
M  V30 40 1 5 36
M  V30 41 1 8 37
M  V30 42 1 9 38
M  V30 43 1 14 39
M  V30 44 1 15 40
M  V30 45 1 15 41
M  V30 46 1 16 42
M  V30 47 1 16 43
M  V30 48 1 17 44
M  V30 49 1 18 45
M  V30 50 1 18 46
M  V30 51 1 19 47
M  V30 52 1 19 48
M  V30 53 1 23 49
M  V30 54 1 24 50
M  V30 55 1 27 51
M  V30 56 1 28 52
M  V30 END BOND
M  V30 END CTAB
M  END
>  <Dataset>  (775) 
ChEMBL_Kinases

>  <Ligand_Instance>  (775) 
nan

>  <PDB_ID>  (775) 
nan

>  <Standardized_SMILES>  (775) 
Cc1cc(Nc2nccc(-c3sc(C4CCNCC4)nc3-c3ccc(F)cc3)n2)on1

>  <Name>  (775) 
nan

>  <Pocket>  (775) 
nan

>  <ATP_Site>  (775) 
nan

>  <Peripheral>  (775) 
nan

>  <Num_H_Atoms_ProtBoundConf>  (775) 
nan

>  <Num_Resolved_Atoms>  (775) 
nan

>  <Num_Not_Resolved_Atoms>  (775) 
nan

$$$$
CHEMBL4572769
     RDKit          3D

  0  0  0  0  0  0  0  0  0  0999 V3000
M  V30 BEGIN CTAB
M  V30 COUNTS 77 80 0 0 0
M  V30 BEGIN ATOM
M  V30 1 C -0.118011 -0.271526 7.941776 0
M  V30 2 O 0.299870 -1.243031 7.000383 0
M  V30 3 C 0.898431 -0.794038 5.831933 0
M  V30 4 C 1.142922 0.526116 5.467244 0
M  V30 5 C 1.761930 0.775277 4.237491 0
M  V30 6 C 2.146815 -0.217187 3.358584 0
M  V30 7 S 2.915200 0.353194 1.946191 0
M  V30 8 O 3.959217 1.371771 2.373130 0
M  V30 9 O 3.713690 -0.805992 1.363645 0
M  V30 10 N 1.910378 1.006831 0.711734 0
M  V30 11 C 1.116845 2.157493 1.013961 0
M  V30 12 C -0.335206 2.031164 1.055022 0
M  V30 13 C -1.038419 1.116406 1.965511 0
M  V30 14 C -0.848188 -0.319810 1.822385 0
M  V30 15 O -0.525331 -1.479986 1.767918 0
M  V30 16 C -2.009910 -1.084614 1.288947 0
M  V30 17 C -1.635428 -2.525204 1.081423 0
M  V30 18 C -2.815427 -3.181166 0.334392 0
M  V30 19 C -3.815985 -3.601590 1.364724 0
M  V30 20 C -4.966047 -2.612428 1.455830 0
M  V30 21 C -4.451196 -1.187042 1.420032 0
M  V30 22 C -3.186766 -1.041390 2.239821 0
M  V30 23 C 1.791193 0.561146 -0.658212 0
M  V30 24 C 1.046906 -0.310036 -1.381493 0
M  V30 25 C 1.211520 -0.474231 -2.714815 0
M  V30 26 C 2.138259 0.223700 -3.434468 0
M  V30 27 C 2.205592 -0.055311 -4.892501 0
M  V30 28 C 2.536894 -1.454166 -5.192528 0
M  V30 29 C 1.480273 -2.346703 -5.729314 0
M  V30 30 C 0.187873 -1.711047 -6.105453 0
M  V30 31 C 0.522048 -0.352765 -6.724247 0
M  V30 32 C 0.970864 0.488412 -5.548016 0
M  V30 33 C 2.933385 1.136666 -2.734912 0
M  V30 34 C 2.753228 1.296543 -1.356977 0
M  V30 35 C 1.876543 -1.527134 3.776683 0
M  V30 36 C 1.268674 -1.813931 4.980450 0
M  V30 37 H -0.436561 -0.726273 8.901646 0
M  V30 38 H -0.903690 0.364891 7.483723 0
M  V30 39 H 0.746604 0.400164 8.122122 0
M  V30 40 H 0.828038 1.258621 6.177983 0
M  V30 41 H 1.878121 1.851340 4.111704 0
M  V30 42 H 1.346953 2.888521 0.158182 0
M  V30 43 H 1.541796 2.716548 1.906291 0
M  V30 44 H -0.680322 1.779892 0.004956 0
M  V30 45 H -0.799471 3.067108 1.248448 0
M  V30 46 H -2.148253 1.358116 1.924673 0
M  V30 47 H -0.813859 1.375496 3.061228 0
M  V30 48 H -2.339751 -0.663534 0.338692 0
M  V30 49 H -1.489018 -3.101858 2.001133 0
M  V30 50 H -0.746875 -2.585135 0.400827 0
M  V30 51 H -2.403733 -4.054236 -0.218512 0
M  V30 52 H -3.254332 -2.482138 -0.393775 0
M  V30 53 H -3.358763 -3.810879 2.343549 0
M  V30 54 H -4.284143 -4.579927 1.049441 0
M  V30 55 H -5.569446 -2.831970 2.333422 0
M  V30 56 H -5.585707 -2.755836 0.548493 0
M  V30 57 H -4.254986 -0.883339 0.372665 0
M  V30 58 H -5.281696 -0.553684 1.797237 0
M  V30 59 H -3.111032 -1.893346 2.976216 0
M  V30 60 H -3.263659 -0.080775 2.782930 0
M  V30 61 H 0.356594 -0.800219 -0.717045 0
M  V30 62 H 0.541139 -1.206258 -3.142951 0
M  V30 63 H 3.041482 0.604928 -5.260269 0
M  V30 64 H 3.445559 -1.526677 -5.861654 0
M  V30 65 H 2.906947 -1.917881 -4.234256 0
M  V30 66 H 1.846218 -2.903302 -6.642310 0
M  V30 67 H 1.217384 -3.189304 -5.023103 0
M  V30 68 H -0.328818 -2.367740 -6.856423 0
M  V30 69 H -0.514314 -1.527457 -5.270234 0
M  V30 70 H -0.348213 0.131676 -7.185950 0
M  V30 71 H 1.344567 -0.500622 -7.442260 0
M  V30 72 H 0.126456 0.501802 -4.826218 0
M  V30 73 H 1.089802 1.531088 -5.910950 0
M  V30 74 H 3.638692 1.647890 -3.372252 0
M  V30 75 H 3.468565 2.044815 -1.031121 0
M  V30 76 H 2.210961 -2.262866 3.026728 0
M  V30 77 H 1.159864 -2.865021 5.096392 0
M  V30 END ATOM
M  V30 BEGIN BOND
M  V30 1 1 1 2
M  V30 2 1 2 3
M  V30 3 2 3 4
M  V30 4 1 4 5
M  V30 5 2 5 6
M  V30 6 1 6 7
M  V30 7 2 7 8
M  V30 8 2 7 9
M  V30 9 1 7 10
M  V30 10 1 10 11
M  V30 11 1 11 12
M  V30 12 1 12 13
M  V30 13 1 13 14
M  V30 14 2 14 15
M  V30 15 1 14 16
M  V30 16 1 16 17
M  V30 17 1 17 18
M  V30 18 1 18 19
M  V30 19 1 19 20
M  V30 20 1 20 21
M  V30 21 1 21 22
M  V30 22 1 10 23
M  V30 23 2 23 24
M  V30 24 1 24 25
M  V30 25 2 25 26
M  V30 26 1 26 27
M  V30 27 1 27 28
M  V30 28 1 28 29
M  V30 29 1 29 30
M  V30 30 1 30 31
M  V30 31 1 31 32
M  V30 32 1 26 33
M  V30 33 2 33 34
M  V30 34 1 6 35
M  V30 35 2 35 36
M  V30 36 1 36 3
M  V30 37 1 22 16
M  V30 38 1 34 23
M  V30 39 1 32 27
M  V30 40 1 1 37
M  V30 41 1 1 38
M  V30 42 1 1 39
M  V30 43 1 4 40
M  V30 44 1 5 41
M  V30 45 1 11 42
M  V30 46 1 11 43
M  V30 47 1 12 44
M  V30 48 1 12 45
M  V30 49 1 13 46
M  V30 50 1 13 47
M  V30 51 1 16 48
M  V30 52 1 17 49
M  V30 53 1 17 50
M  V30 54 1 18 51
M  V30 55 1 18 52
M  V30 56 1 19 53
M  V30 57 1 19 54
M  V30 58 1 20 55
M  V30 59 1 20 56
M  V30 60 1 21 57
M  V30 61 1 21 58
M  V30 62 1 22 59
M  V30 63 1 22 60
M  V30 64 1 24 61
M  V30 65 1 25 62
M  V30 66 1 27 63
M  V30 67 1 28 64
M  V30 68 1 28 65
M  V30 69 1 29 66
M  V30 70 1 29 67
M  V30 71 1 30 68
M  V30 72 1 30 69
M  V30 73 1 31 70
M  V30 74 1 31 71
M  V30 75 1 32 72
M  V30 76 1 32 73
M  V30 77 1 33 74
M  V30 78 1 34 75
M  V30 79 1 35 76
M  V30 80 1 36 77
M  V30 END BOND
M  V30 END CTAB
M  END
>  <Dataset>  (776) 
ChEMBL_Kinases

>  <Ligand_Instance>  (776) 
nan

>  <PDB_ID>  (776) 
nan

>  <Standardized_SMILES>  (776) 
COc1ccc(S(=O)(=O)N(CCCC(=O)C2CCCCCC2)c2ccc(C3CCCCC3)cc2)cc1

>  <Name>  (776) 
nan

>  <Pocket>  (776) 
nan

>  <ATP_Site>  (776) 
nan

>  <Peripheral>  (776) 
nan

>  <Num_H_Atoms_ProtBoundConf>  (776) 
nan

>  <Num_Resolved_Atoms>  (776) 
nan

>  <Num_Not_Resolved_Atoms>  (776) 
nan

$$$$
CHEMBL4572752
     RDKit          3D

  0  0  0  0  0  0  0  0  0  0999 V3000
M  V30 BEGIN CTAB
M  V30 COUNTS 62 66 0 0 0
M  V30 BEGIN ATOM
M  V30 1 F 0.028515 -4.002233 5.845962 0
M  V30 2 C 0.171070 -2.908517 5.039625 0
M  V30 3 C 0.017356 -3.108509 3.680581 0
M  V30 4 C 0.156109 -2.012474 2.836025 0
M  V30 5 C 0.440504 -0.770118 3.370804 0
M  V30 6 C 0.567319 0.326710 2.385847 0
M  V30 7 N 1.722391 0.957850 2.250480 0
M  V30 8 C 1.917449 1.853641 1.482570 0
M  V30 9 C 3.090567 2.700730 1.157647 0
M  V30 10 C 2.737880 4.125894 1.391151 0
M  V30 11 C 2.565461 4.850233 0.090146 0
M  V30 12 N 1.721735 4.062823 -0.770108 0
M  V30 13 C 2.471873 2.904947 -1.202119 0
M  V30 14 C 3.585750 2.538299 -0.255964 0
M  V30 15 S 0.257472 2.039577 0.643898 0
M  V30 16 C -0.491279 0.677490 1.632135 0
M  V30 17 C -1.827179 0.215289 1.541806 0
M  V30 18 C -2.761598 0.308077 2.524924 0
M  V30 19 C -4.011723 -0.203528 2.246203 0
M  V30 20 N -4.322172 -0.772503 1.068821 0
M  V30 21 C -3.395968 -0.858718 0.108878 0
M  V30 22 N -3.727580 -1.460207 -1.135196 0
M  V30 23 C -2.773008 -1.607312 -2.206156 0
M  V30 24 C -1.596647 -2.466057 -1.804339 0
M  V30 25 N -1.974618 -3.790392 -1.420961 0
M  V30 26 C -2.467925 -4.601689 -2.489271 0
M  V30 27 C -1.363991 -5.322677 -3.258613 0
M  V30 28 O -0.593187 -6.060340 -2.372481 0
M  V30 29 C 0.031691 -5.229415 -1.448084 0
M  V30 30 C -0.926192 -4.397886 -0.650745 0
M  V30 31 N -2.163408 -0.366763 0.352568 0
M  V30 32 C 0.586542 -0.614752 4.736649 0
M  V30 33 C 0.455482 -1.674333 5.593831 0
M  V30 34 H -0.203508 -4.065174 3.229373 0
M  V30 35 H 0.029500 -2.191565 1.756746 0
M  V30 36 H 3.918321 2.350107 1.829302 0
M  V30 37 H 1.875777 4.262996 2.076553 0
M  V30 38 H 3.609076 4.623135 1.899302 0
M  V30 39 H 2.162232 5.884609 0.238885 0
M  V30 40 H 3.529459 5.006311 -0.431966 0
M  V30 41 H 1.283978 4.564329 -1.547557 0
M  V30 42 H 2.880086 3.184154 -2.217279 0
M  V30 43 H 1.788498 2.045439 -1.379424 0
M  V30 44 H 3.924717 1.484742 -0.451033 0
M  V30 45 H 4.455369 3.212028 -0.394212 0
M  V30 46 H -2.485946 0.761769 3.442178 0
M  V30 47 H -4.768286 -0.137661 3.017822 0
M  V30 48 H -4.674787 -1.813929 -1.310118 0
M  V30 49 H -2.354343 -0.580446 -2.408894 0
M  V30 50 H -3.220197 -1.952003 -3.139366 0
M  V30 51 H -1.068198 -1.987937 -0.972867 0
M  V30 52 H -0.864334 -2.505397 -2.645937 0
M  V30 53 H -3.045851 -3.983411 -3.180729 0
M  V30 54 H -3.104600 -5.405399 -2.065195 0
M  V30 55 H -0.772406 -4.646622 -3.883107 0
M  V30 56 H -1.892955 -6.066637 -3.923042 0
M  V30 57 H 0.532339 -5.916237 -0.718537 0
M  V30 58 H 0.832004 -4.592720 -1.898048 0
M  V30 59 H -0.316638 -3.574804 -0.173170 0
M  V30 60 H -1.364223 -4.975051 0.201611 0
M  V30 61 H 0.808906 0.378161 5.104962 0
M  V30 62 H 0.576137 -1.518163 6.660940 0
M  V30 END ATOM
M  V30 BEGIN BOND
M  V30 1 1 1 2
M  V30 2 2 2 3
M  V30 3 1 3 4
M  V30 4 2 4 5
M  V30 5 1 5 6
M  V30 6 1 6 7
M  V30 7 2 7 8
M  V30 8 1 8 9
M  V30 9 1 9 10
M  V30 10 1 10 11
M  V30 11 1 11 12
M  V30 12 1 12 13
M  V30 13 1 13 14
M  V30 14 1 8 15
M  V30 15 1 15 16
M  V30 16 1 16 17
M  V30 17 2 17 18
M  V30 18 1 18 19
M  V30 19 2 19 20
M  V30 20 1 20 21
M  V30 21 1 21 22
M  V30 22 1 22 23
M  V30 23 1 23 24
M  V30 24 1 24 25
M  V30 25 1 25 26
M  V30 26 1 26 27
M  V30 27 1 27 28
M  V30 28 1 28 29
M  V30 29 1 29 30
M  V30 30 2 21 31
M  V30 31 1 5 32
M  V30 32 2 32 33
M  V30 33 1 33 2
M  V30 34 2 16 6
M  V30 35 1 31 17
M  V30 36 1 14 9
M  V30 37 1 30 25
M  V30 38 1 3 34
M  V30 39 1 4 35
M  V30 40 1 9 36
M  V30 41 1 10 37
M  V30 42 1 10 38
M  V30 43 1 11 39
M  V30 44 1 11 40
M  V30 45 1 12 41
M  V30 46 1 13 42
M  V30 47 1 13 43
M  V30 48 1 14 44
M  V30 49 1 14 45
M  V30 50 1 18 46
M  V30 51 1 19 47
M  V30 52 1 22 48
M  V30 53 1 23 49
M  V30 54 1 23 50
M  V30 55 1 24 51
M  V30 56 1 24 52
M  V30 57 1 26 53
M  V30 58 1 26 54
M  V30 59 1 27 55
M  V30 60 1 27 56
M  V30 61 1 29 57
M  V30 62 1 29 58
M  V30 63 1 30 59
M  V30 64 1 30 60
M  V30 65 1 32 61
M  V30 66 1 33 62
M  V30 END BOND
M  V30 END CTAB
M  END
>  <Dataset>  (777) 
ChEMBL_Kinases

>  <Ligand_Instance>  (777) 
nan

>  <PDB_ID>  (777) 
nan

>  <Standardized_SMILES>  (777) 
Fc1ccc(-c2nc(C3CCNCC3)sc2-c2ccnc(NCCN3CCOCC3)n2)cc1

>  <Name>  (777) 
nan

>  <Pocket>  (777) 
nan

>  <ATP_Site>  (777) 
nan

>  <Peripheral>  (777) 
nan

>  <Num_H_Atoms_ProtBoundConf>  (777) 
nan

>  <Num_Resolved_Atoms>  (777) 
nan

>  <Num_Not_Resolved_Atoms>  (777) 
nan

$$$$
CHEMBL4572425
     RDKit          3D

  0  0  0  0  0  0  0  0  0  0999 V3000
M  V30 BEGIN CTAB
M  V30 COUNTS 41 43 0 0 0
M  V30 BEGIN ATOM
M  V30 1 C -0.046595 -5.974640 -0.070032 0
M  V30 2 O -0.056582 -4.594005 0.177546 0
M  V30 3 C 1.085860 -3.865115 -0.025249 0
M  V30 4 O 2.199824 -4.284099 -0.423192 0
M  V30 5 C 1.003996 -2.409007 0.256591 0
M  V30 6 C 2.019943 -2.113361 1.340121 0
M  V30 7 C 1.411865 -1.716275 -1.025433 0
M  V30 8 N -0.301501 -1.985997 0.710880 0
M  V30 9 C -0.517657 -0.623581 1.014479 0
M  V30 10 N 0.476496 0.270682 0.883551 0
M  V30 11 C 0.335268 1.581016 1.156175 0
M  V30 12 C 1.455792 2.503774 0.993793 0
M  V30 13 C 2.684573 2.056620 0.558471 0
M  V30 14 C 3.725678 2.968500 0.417344 0
M  V30 15 N 3.577394 4.286440 0.692864 0
M  V30 16 C 2.368129 4.719402 1.120021 0
M  V30 17 C 1.310532 3.847503 1.272985 0
M  V30 18 N -0.848056 2.059559 1.584696 0
M  V30 19 C -1.922492 1.230760 1.750528 0
M  V30 20 C -3.156818 1.667556 2.186503 0
M  V30 21 N -4.185057 0.809730 2.333785 0
M  V30 22 C -4.034057 -0.515051 2.055771 0
M  V30 23 C -2.796144 -0.940629 1.620735 0
M  V30 24 C -1.714829 -0.101252 1.454768 0
M  V30 25 H -0.619989 -6.546256 0.714681 0
M  V30 26 H -0.620316 -6.199497 -1.014594 0
M  V30 27 H 0.950091 -6.431216 -0.132046 0
M  V30 28 H 2.372268 -1.081972 1.367230 0
M  V30 29 H 1.524674 -2.395825 2.308780 0
M  V30 30 H 2.856564 -2.851443 1.246488 0
M  V30 31 H 0.649511 -1.895500 -1.802649 0
M  V30 32 H 1.711855 -0.678617 -0.915144 0
M  V30 33 H 2.333063 -2.268263 -1.373464 0
M  V30 34 H -0.995782 -2.756261 0.776607 0
M  V30 35 H 2.872253 1.019130 0.321042 0
M  V30 36 H 4.699510 2.600516 0.069947 0
M  V30 37 H 2.221694 5.776440 1.348975 0
M  V30 38 H 0.349330 4.207850 1.615373 0
M  V30 39 H -3.224969 2.728320 2.393781 0
M  V30 40 H -4.873190 -1.211775 2.176559 0
M  V30 41 H -2.729294 -1.990211 1.415815 0
M  V30 END ATOM
M  V30 BEGIN BOND
M  V30 1 1 1 2
M  V30 2 1 2 3
M  V30 3 2 3 4
M  V30 4 1 3 5
M  V30 5 1 5 6
M  V30 6 1 5 7
M  V30 7 1 5 8
M  V30 8 1 8 9
M  V30 9 2 9 10
M  V30 10 1 10 11
M  V30 11 1 11 12
M  V30 12 2 12 13
M  V30 13 1 13 14
M  V30 14 2 14 15
M  V30 15 1 15 16
M  V30 16 2 16 17
M  V30 17 2 11 18
M  V30 18 1 18 19
M  V30 19 2 19 20
M  V30 20 1 20 21
M  V30 21 2 21 22
M  V30 22 1 22 23
M  V30 23 2 23 24
M  V30 24 1 24 9
M  V30 25 1 17 12
M  V30 26 1 24 19
M  V30 27 1 1 25
M  V30 28 1 1 26
M  V30 29 1 1 27
M  V30 30 1 6 28
M  V30 31 1 6 29
M  V30 32 1 6 30
M  V30 33 1 7 31
M  V30 34 1 7 32
M  V30 35 1 7 33
M  V30 36 1 8 34
M  V30 37 1 13 35
M  V30 38 1 14 36
M  V30 39 1 16 37
M  V30 40 1 17 38
M  V30 41 1 20 39
M  V30 42 1 22 40
M  V30 43 1 23 41
M  V30 END BOND
M  V30 END CTAB
M  END
>  <Dataset>  (778) 
ChEMBL_Kinases

>  <Ligand_Instance>  (778) 
nan

>  <PDB_ID>  (778) 
nan

>  <Standardized_SMILES>  (778) 
COC(=O)C(C)(C)Nc1nc(-c2ccncc2)nc2cnccc12

>  <Name>  (778) 
nan

>  <Pocket>  (778) 
nan

>  <ATP_Site>  (778) 
nan

>  <Peripheral>  (778) 
nan

>  <Num_H_Atoms_ProtBoundConf>  (778) 
nan

>  <Num_Resolved_Atoms>  (778) 
nan

>  <Num_Not_Resolved_Atoms>  (778) 
nan

$$$$
CHEMBL4572312
     RDKit          3D

  0  0  0  0  0  0  0  0  0  0999 V3000
M  V30 BEGIN CTAB
M  V30 COUNTS 38 41 0 0 0
M  V30 BEGIN ATOM
M  V30 1 C 0.001948 -5.755069 3.620886 0
M  V30 2 C 0.904520 -4.641900 3.174220 0
M  V30 3 C 2.240603 -4.561058 3.565679 0
M  V30 4 C 2.960638 -3.479644 3.079492 0
M  V30 5 C 2.378380 -2.540340 2.254298 0
M  V30 6 C 1.053098 -2.658260 1.891352 0
M  V30 7 C 0.343719 -1.722205 1.025948 0
M  V30 8 C 0.942411 -0.607456 0.476886 0
M  V30 9 C 0.297296 0.296932 -0.345781 0
M  V30 10 N 0.920077 1.440107 -0.907706 0
M  V30 11 C 0.620372 2.820353 -0.769674 0
M  V30 12 C -0.415505 3.208756 0.038797 0
M  V30 13 C -0.620354 4.570064 0.100065 0
M  V30 14 N 0.145479 5.444813 -0.586823 0
M  V30 15 C 1.164599 5.026565 -1.379417 0
M  V30 16 C 1.433754 3.665874 -1.492782 0
M  V30 17 C -1.038597 0.075194 -0.642511 0
M  V30 18 C -2.031271 0.687319 -1.385446 0
M  V30 19 C -3.182341 -0.090778 -1.247090 0
M  V30 20 N -2.922151 -1.140828 -0.454579 0
M  V30 21 C -1.621298 -1.041980 -0.086484 0
M  V30 22 N -0.970223 -1.907515 0.712102 0
M  V30 23 N 0.385549 -3.709321 2.374646 0
M  V30 24 H -0.339139 -6.237971 2.676365 0
M  V30 25 H -0.888867 -5.326359 4.128227 0
M  V30 26 H 0.540918 -6.471210 4.257645 0
M  V30 27 H 2.641553 -5.328340 4.214824 0
M  V30 28 H 4.015744 -3.390669 3.371702 0
M  V30 29 H 2.937512 -1.707852 1.881636 0
M  V30 30 H 1.962235 -0.390327 0.671262 0
M  V30 31 H 1.677916 1.031796 -1.468191 0
M  V30 32 H -1.040553 2.553152 0.595663 0
M  V30 33 H -1.412144 4.974114 0.709766 0
M  V30 34 H 1.744223 5.769625 -1.905510 0
M  V30 35 H 2.240238 3.310370 -2.118106 0
M  V30 36 H -1.863521 1.596062 -1.940042 0
M  V30 37 H -4.072450 0.249573 -1.773141 0
M  V30 38 H -3.659647 -1.832720 -0.235998 0
M  V30 END ATOM
M  V30 BEGIN BOND
M  V30 1 1 1 2
M  V30 2 2 2 3
M  V30 3 1 3 4
M  V30 4 2 4 5
M  V30 5 1 5 6
M  V30 6 1 6 7
M  V30 7 2 7 8
M  V30 8 1 8 9
M  V30 9 1 9 10
M  V30 10 1 10 11
M  V30 11 2 11 12
M  V30 12 1 12 13
M  V30 13 2 13 14
M  V30 14 1 14 15
M  V30 15 2 15 16
M  V30 16 2 9 17
M  V30 17 1 17 18
M  V30 18 2 18 19
M  V30 19 1 19 20
M  V30 20 1 20 21
M  V30 21 2 21 22
M  V30 22 2 6 23
M  V30 23 1 23 2
M  V30 24 1 22 7
M  V30 25 1 16 11
M  V30 26 1 21 17
M  V30 27 1 1 24
M  V30 28 1 1 25
M  V30 29 1 1 26
M  V30 30 1 3 27
M  V30 31 1 4 28
M  V30 32 1 5 29
M  V30 33 1 8 30
M  V30 34 1 10 31
M  V30 35 1 12 32
M  V30 36 1 13 33
M  V30 37 1 15 34
M  V30 38 1 16 35
M  V30 39 1 18 36
M  V30 40 1 19 37
M  V30 41 1 20 38
M  V30 END BOND
M  V30 END CTAB
M  END
>  <Dataset>  (779) 
ChEMBL_Kinases

>  <Ligand_Instance>  (779) 
nan

>  <PDB_ID>  (779) 
nan

>  <Standardized_SMILES>  (779) 
Cc1cccc(-c2cc(Nc3ccncc3)c3cc[nH]c3n2)n1

>  <Name>  (779) 
nan

>  <Pocket>  (779) 
nan

>  <ATP_Site>  (779) 
nan

>  <Peripheral>  (779) 
nan

>  <Num_H_Atoms_ProtBoundConf>  (779) 
nan

>  <Num_Resolved_Atoms>  (779) 
nan

>  <Num_Not_Resolved_Atoms>  (779) 
nan

$$$$
CHEMBL4572309
     RDKit          3D

  0  0  0  0  0  0  0  0  0  0999 V3000
M  V30 BEGIN CTAB
M  V30 COUNTS 46 49 0 0 0
M  V30 BEGIN ATOM
M  V30 1 O 1.387655 -0.842816 -0.230123 0
M  V30 2 C 0.291727 -1.316059 0.234977 0
M  V30 3 N 0.053841 -0.699859 1.492865 0
M  V30 4 C 1.145978 0.216528 1.745140 0
M  V30 5 C 1.053847 1.530170 1.319230 0
M  V30 6 C 2.112051 2.384550 1.573428 0
M  V30 7 C 3.230896 1.921857 2.239574 0
M  V30 8 O 4.369453 2.652763 2.567870 0
M  V30 9 C 4.573422 3.976959 2.279543 0
M  V30 10 C 5.165642 4.432898 1.113049 0
M  V30 11 C 5.357495 5.787395 0.852433 0
M  V30 12 N 4.968033 6.724113 1.739723 0
M  V30 13 C 4.393956 6.325760 2.874722 0
M  V30 14 C 4.191567 4.985911 3.158301 0
M  V30 15 C 3.288222 0.597396 2.652094 0
M  V30 16 F 4.346007 0.059614 3.311068 0
M  V30 17 C 2.245861 -0.288958 2.414725 0
M  V30 18 C -0.531067 -2.309112 -0.442137 0
M  V30 19 C -0.005196 -2.712093 -1.679125 0
M  V30 20 C -0.670182 -3.647267 -2.439658 0
M  V30 21 C -1.847585 -4.229990 -2.059566 0
M  V30 22 N -2.316855 -3.816303 -0.868694 0
M  V30 23 C -3.540976 -4.319911 -0.309012 0
M  V30 24 C -4.692181 -3.778571 -0.876697 0
M  V30 25 C -5.934359 -4.194847 -0.410890 0
M  V30 26 C -6.063611 -5.134073 0.603304 0
M  V30 27 F -7.288593 -5.516532 1.032423 0
M  V30 28 C -4.895681 -5.646420 1.139505 0
M  V30 29 C -3.646677 -5.255784 0.701243 0
M  V30 30 C -1.717081 -2.910078 -0.081759 0
M  V30 31 O -2.148020 -2.527309 1.016458 0
M  V30 32 H -0.807803 -0.976227 2.012556 0
M  V30 33 H 0.187167 1.911351 0.796598 0
M  V30 34 H 2.140571 3.427742 1.283513 0
M  V30 35 H 5.486741 3.690495 0.384419 0
M  V30 36 H 5.830487 6.034031 -0.090632 0
M  V30 37 H 4.088134 7.085807 3.573831 0
M  V30 38 H 3.722185 4.736424 4.093709 0
M  V30 39 H 2.275458 -1.325223 2.730231 0
M  V30 40 H 0.935149 -2.310895 -2.085990 0
M  V30 41 H -0.238979 -3.940859 -3.394677 0
M  V30 42 H -2.407132 -4.966779 -2.618887 0
M  V30 43 H -4.684946 -3.038374 -1.674672 0
M  V30 44 H -6.870040 -3.809975 -0.812875 0
M  V30 45 H -4.935899 -6.383005 1.934038 0
M  V30 46 H -2.710385 -5.630916 1.092726 0
M  V30 END ATOM
M  V30 BEGIN BOND
M  V30 1 2 1 2
M  V30 2 1 2 3
M  V30 3 1 3 4
M  V30 4 2 4 5
M  V30 5 1 5 6
M  V30 6 2 6 7
M  V30 7 1 7 8
M  V30 8 1 8 9
M  V30 9 2 9 10
M  V30 10 1 10 11
M  V30 11 2 11 12
M  V30 12 1 12 13
M  V30 13 2 13 14
M  V30 14 1 7 15
M  V30 15 1 15 16
M  V30 16 2 15 17
M  V30 17 1 2 18
M  V30 18 2 18 19
M  V30 19 1 19 20
M  V30 20 2 20 21
M  V30 21 1 21 22
M  V30 22 1 22 23
M  V30 23 2 23 24
M  V30 24 1 24 25
M  V30 25 2 25 26
M  V30 26 1 26 27
M  V30 27 1 26 28
M  V30 28 2 28 29
M  V30 29 1 22 30
M  V30 30 2 30 31
M  V30 31 1 17 4
M  V30 32 1 30 18
M  V30 33 1 14 9
M  V30 34 1 29 23
M  V30 35 1 3 32
M  V30 36 1 5 33
M  V30 37 1 6 34
M  V30 38 1 10 35
M  V30 39 1 11 36
M  V30 40 1 13 37
M  V30 41 1 14 38
M  V30 42 1 17 39
M  V30 43 1 19 40
M  V30 44 1 20 41
M  V30 45 1 21 42
M  V30 46 1 24 43
M  V30 47 1 25 44
M  V30 48 1 28 45
M  V30 49 1 29 46
M  V30 END BOND
M  V30 END CTAB
M  END
>  <Dataset>  (780) 
ChEMBL_Kinases

>  <Ligand_Instance>  (780) 
nan

>  <PDB_ID>  (780) 
nan

>  <Standardized_SMILES>  (780) 
O=C(Nc1ccc(Oc2ccncc2)c(F)c1)c1cccn(-c2ccc(F)cc2)c1=O

>  <Name>  (780) 
nan

>  <Pocket>  (780) 
nan

>  <ATP_Site>  (780) 
nan

>  <Peripheral>  (780) 
nan

>  <Num_H_Atoms_ProtBoundConf>  (780) 
nan

>  <Num_Resolved_Atoms>  (780) 
nan

>  <Num_Not_Resolved_Atoms>  (780) 
nan

$$$$
CHEMBL4634858
     RDKit          3D

  0  0  0  0  0  0  0  0  0  0999 V3000
M  V30 BEGIN CTAB
M  V30 COUNTS 39 40 0 0 0
M  V30 BEGIN ATOM
M  V30 1 C -2.676036 -4.084333 1.630536 0
M  V30 2 C -1.711681 -4.153812 0.506529 0
M  V30 3 C -0.261562 -4.022409 0.868812 0
M  V30 4 O 0.450826 -4.116797 -0.325548 0
M  V30 5 C 0.102946 -2.774766 1.566632 0
M  V30 6 N -0.136012 -1.544400 0.915219 0
M  V30 7 C 0.635899 -1.234150 -0.234762 0
M  V30 8 C 0.208028 0.120807 -0.694918 0
M  V30 9 C -0.621406 0.330200 -1.775112 0
M  V30 10 C -0.993609 1.590843 -2.157508 0
M  V30 11 N -0.552507 2.660274 -1.479703 0
M  V30 12 C 0.265014 2.462079 -0.414577 0
M  V30 13 C 0.679262 3.619182 0.232234 0
M  V30 14 C 1.511649 3.513235 1.321948 0
M  V30 15 C 1.941702 2.289506 1.783489 0
M  V30 16 O 2.762995 1.921734 2.834934 0
M  V30 17 C 3.312232 2.938924 3.645577 0
M  V30 18 C 1.512214 1.137384 1.117148 0
M  V30 19 C 0.669646 1.211984 0.011650 0
M  V30 20 H -3.632056 -3.648339 1.215946 0
M  V30 21 H -2.393822 -3.420297 2.451915 0
M  V30 22 H -2.938005 -5.057740 2.048947 0
M  V30 23 H -1.944259 -3.468108 -0.329033 0
M  V30 24 H -1.817378 -5.175973 0.059927 0
M  V30 25 H 0.058944 -4.892978 1.484106 0
M  V30 26 H 0.047356 -4.810566 -0.922970 0
M  V30 27 H -0.461561 -2.758491 2.545797 0
M  V30 28 H 1.172784 -2.854121 1.899607 0
M  V30 29 H -0.468386 -0.772748 1.495294 0
M  V30 30 H 1.721303 -1.331804 -0.109243 0
M  V30 31 H 0.329898 -1.922722 -1.063253 0
M  V30 32 H -0.932785 -0.572350 -2.266602 0
M  V30 33 H -1.652253 1.586517 -3.030342 0
M  V30 34 H 0.388103 4.605688 -0.066651 0
M  V30 35 H 1.910745 4.318625 1.919540 0
M  V30 36 H 2.608781 3.164635 4.497099 0
M  V30 37 H 4.236074 2.547474 4.123453 0
M  V30 38 H 3.495724 3.864427 3.090853 0
M  V30 39 H 1.758158 0.092581 1.349141 0
M  V30 END ATOM
M  V30 BEGIN BOND
M  V30 1 1 1 2
M  V30 2 1 2 3
M  V30 3 1 3 4
M  V30 4 1 3 5
M  V30 5 1 5 6
M  V30 6 1 6 7
M  V30 7 1 7 8
M  V30 8 2 8 9
M  V30 9 1 9 10
M  V30 10 2 10 11
M  V30 11 1 11 12
M  V30 12 2 12 13
M  V30 13 1 13 14
M  V30 14 2 14 15
M  V30 15 1 15 16
M  V30 16 1 16 17
M  V30 17 1 15 18
M  V30 18 2 18 19
M  V30 19 1 19 8
M  V30 20 1 19 12
M  V30 21 1 1 20
M  V30 22 1 1 21
M  V30 23 1 1 22
M  V30 24 1 2 23
M  V30 25 1 2 24
M  V30 26 1 3 25
M  V30 27 1 4 26
M  V30 28 1 5 27
M  V30 29 1 5 28
M  V30 30 1 6 29
M  V30 31 1 7 30
M  V30 32 1 7 31
M  V30 33 1 9 32
M  V30 34 1 10 33
M  V30 35 1 13 34
M  V30 36 1 14 35
M  V30 37 1 17 36
M  V30 38 1 17 37
M  V30 39 1 17 38
M  V30 40 1 18 39
M  V30 END BOND
M  V30 END CTAB
M  END
>  <Dataset>  (781) 
ChEMBL_Kinases

>  <Ligand_Instance>  (781) 
nan

>  <PDB_ID>  (781) 
nan

>  <Standardized_SMILES>  (781) 
CCC(O)CNCc1ccnc2ccc(OC)cc12

>  <Name>  (781) 
nan

>  <Pocket>  (781) 
nan

>  <ATP_Site>  (781) 
nan

>  <Peripheral>  (781) 
nan

>  <Num_H_Atoms_ProtBoundConf>  (781) 
nan

>  <Num_Resolved_Atoms>  (781) 
nan

>  <Num_Not_Resolved_Atoms>  (781) 
nan

$$$$
CHEMBL4575736
     RDKit          3D

  0  0  0  0  0  0  0  0  0  0999 V3000
M  V30 BEGIN CTAB
M  V30 COUNTS 55 59 0 0 0
M  V30 BEGIN ATOM
M  V30 1 O 1.181104 2.060628 -0.945405 0
M  V30 2 C 1.409298 2.153311 0.293459 0
M  V30 3 C 2.483044 1.737292 1.263119 0
M  V30 4 C 3.516457 1.028225 0.465753 0
M  V30 5 C 3.325142 -0.351743 0.350421 0
M  V30 6 C 4.250114 -1.096238 -0.382589 0
M  V30 7 C 5.341605 -0.494068 -0.989779 0
M  V30 8 C 5.477523 0.887416 -0.837955 0
M  V30 9 C 6.643167 1.576792 -1.478253 0
M  V30 10 F 6.316654 2.902218 -1.751438 0
M  V30 11 F 7.779759 1.515930 -0.730174 0
M  V30 12 F 6.919497 0.985616 -2.707210 0
M  V30 13 N 4.583364 1.623907 -0.126556 0
M  V30 14 N 0.365783 2.840626 0.965125 0
M  V30 15 C -0.836808 3.409447 0.465319 0
M  V30 16 C -1.900765 2.535761 0.456346 0
M  V30 17 C -3.141749 2.924367 0.003780 0
M  V30 18 O -4.228755 2.030026 -0.005203 0
M  V30 19 C -4.076488 0.725597 0.439417 0
M  V30 20 C -4.260158 0.270733 1.729433 0
M  V30 21 C -4.102652 -1.032671 2.148065 0
M  V30 22 C -3.728231 -1.996296 1.221883 0
M  V30 23 N -3.535356 -3.276490 1.451077 0
M  V30 24 C -3.225488 -4.123578 0.729963 0
M  V30 25 N -3.007035 -5.547458 0.964433 0
M  V30 26 C -1.648845 -5.805429 1.315024 0
M  V30 27 O -0.860817 -4.825749 1.372799 0
M  V30 28 C -1.195753 -7.198453 1.600295 0
M  V30 29 C -0.028316 -7.432888 2.503977 0
M  V30 30 C 0.211943 -7.562994 1.050119 0
M  V30 31 S -3.091557 -3.060751 -0.868764 0
M  V30 32 C -3.538786 -1.584767 -0.056132 0
M  V30 33 C -3.703203 -0.250917 -0.469836 0
M  V30 34 C -3.351246 4.206125 -0.454470 0
M  V30 35 C -2.279936 5.089003 -0.446486 0
M  V30 36 C -1.051877 4.672429 0.011345 0
M  V30 37 F 0.041157 5.496137 0.044080 0
M  V30 38 H 2.908289 2.670015 1.727263 0
M  V30 39 H 2.083464 1.111624 2.058620 0
M  V30 40 H 2.471606 -0.859620 0.818799 0
M  V30 41 H 4.135942 -2.172981 -0.495293 0
M  V30 42 H 6.053890 -1.084015 -1.557515 0
M  V30 43 H 0.284616 3.066650 2.000582 0
M  V30 44 H -1.845816 1.506575 0.794210 0
M  V30 45 H -4.555561 1.058672 2.435200 0
M  V30 46 H -4.296251 -1.190496 3.217824 0
M  V30 47 H -3.716838 -6.281425 0.893291 0
M  V30 48 H -1.920925 -8.021923 1.536894 0
M  V30 49 H 0.519097 -6.603014 2.988144 0
M  V30 50 H 0.005393 -8.358458 3.104702 0
M  V30 51 H 0.723712 -6.739923 0.509143 0
M  V30 52 H 0.314199 -8.575666 0.588720 0
M  V30 53 H -3.517629 -0.093803 -1.499908 0
M  V30 54 H -4.337365 4.499990 -0.809201 0
M  V30 55 H -2.416529 6.095767 -0.799208 0
M  V30 END ATOM
M  V30 BEGIN BOND
M  V30 1 2 1 2
M  V30 2 1 2 3
M  V30 3 1 3 4
M  V30 4 2 4 5
M  V30 5 1 5 6
M  V30 6 2 6 7
M  V30 7 1 7 8
M  V30 8 1 8 9
M  V30 9 1 9 10
M  V30 10 1 9 11
M  V30 11 1 9 12
M  V30 12 2 8 13
M  V30 13 1 2 14
M  V30 14 1 14 15
M  V30 15 2 15 16
M  V30 16 1 16 17
M  V30 17 1 17 18
M  V30 18 1 18 19
M  V30 19 2 19 20
M  V30 20 1 20 21
M  V30 21 2 21 22
M  V30 22 1 22 23
M  V30 23 2 23 24
M  V30 24 1 24 25
M  V30 25 1 25 26
M  V30 26 2 26 27
M  V30 27 1 26 28
M  V30 28 1 28 29
M  V30 29 1 29 30
M  V30 30 1 24 31
M  V30 31 1 31 32
M  V30 32 2 32 33
M  V30 33 2 17 34
M  V30 34 1 34 35
M  V30 35 2 35 36
M  V30 36 1 36 37
M  V30 37 1 13 4
M  V30 38 1 36 15
M  V30 39 1 33 19
M  V30 40 1 32 22
M  V30 41 1 30 28
M  V30 42 1 3 38
M  V30 43 1 3 39
M  V30 44 1 5 40
M  V30 45 1 6 41
M  V30 46 1 7 42
M  V30 47 1 14 43
M  V30 48 1 16 44
M  V30 49 1 20 45
M  V30 50 1 21 46
M  V30 51 1 25 47
M  V30 52 1 28 48
M  V30 53 1 29 49
M  V30 54 1 29 50
M  V30 55 1 30 51
M  V30 56 1 30 52
M  V30 57 1 33 53
M  V30 58 1 34 54
M  V30 59 1 35 55
M  V30 END BOND
M  V30 END CTAB
M  END
>  <Dataset>  (782) 
ChEMBL_Kinases

>  <Ligand_Instance>  (782) 
nan

>  <PDB_ID>  (782) 
nan

>  <Standardized_SMILES>  (782) 
O=C(Cc1cccc(C(F)(F)F)n1)Nc1cc(Oc2ccc3nc(NC(=O)C4CC4)sc3c2)ccc1F

>  <Name>  (782) 
nan

>  <Pocket>  (782) 
nan

>  <ATP_Site>  (782) 
nan

>  <Peripheral>  (782) 
nan

>  <Num_H_Atoms_ProtBoundConf>  (782) 
nan

>  <Num_Resolved_Atoms>  (782) 
nan

>  <Num_Not_Resolved_Atoms>  (782) 
nan

$$$$
CHEMBL4575716
     RDKit          3D

  0  0  0  0  0  0  0  0  0  0999 V3000
M  V30 BEGIN CTAB
M  V30 COUNTS 47 50 0 0 0
M  V30 BEGIN ATOM
M  V30 1 C 4.365214 -3.245161 4.376209 0
M  V30 2 C 3.861070 -2.184759 3.446102 0
M  V30 3 N 4.402880 -1.665027 2.329052 0
M  V30 4 C 3.566845 -0.732904 1.837534 0
M  V30 5 C 3.766689 0.077761 0.637386 0
M  V30 6 C 2.809525 -0.142947 -0.340031 0
M  V30 7 C 2.834922 0.537863 -1.554429 0
M  V30 8 C 3.842465 1.443578 -1.762301 0
M  V30 9 C 4.795002 1.665709 -0.794073 0
M  V30 10 C 4.766341 0.988553 0.408204 0
M  V30 11 C 2.452917 -0.653475 2.667434 0
M  V30 12 C 1.279442 0.211417 2.539869 0
M  V30 13 C 1.521661 1.580842 2.591225 0
M  V30 14 C 0.396047 2.371636 2.468900 0
M  V30 15 N -0.857918 1.911427 2.310599 0
M  V30 16 C -1.102081 0.567882 2.259326 0
M  V30 17 N -2.394227 -0.002273 2.094169 0
M  V30 18 C -2.690636 -0.188605 0.702074 0
M  V30 19 O -1.718978 0.206437 0.002324 0
M  V30 20 C -4.012955 -0.782096 0.293443 0
M  V30 21 C -4.024806 -0.859929 -1.215611 0
M  V30 22 N -5.246737 -1.413536 -1.711444 0
M  V30 23 C -5.482985 -2.718906 -1.933621 0
M  V30 24 N -6.740021 -2.901075 -2.403591 0
M  V30 25 C -7.280149 -1.668928 -2.467516 0
M  V30 26 N -6.363938 -0.775757 -2.045025 0
M  V30 27 C -0.016178 -0.236139 2.376971 0
M  V30 28 N 2.695201 -1.566428 3.631013 0
M  V30 29 H 4.102677 -2.936385 5.405145 0
M  V30 30 H 5.423168 -3.455705 4.201906 0
M  V30 31 H 3.748395 -4.174275 4.199971 0
M  V30 32 H 1.982510 -0.844080 -0.246105 0
M  V30 33 H 2.081653 0.363250 -2.322354 0
M  V30 34 H 3.898562 1.990016 -2.685522 0
M  V30 35 H 5.589823 2.369169 -0.939093 0
M  V30 36 H 5.479971 1.112358 1.211620 0
M  V30 37 H 2.496858 2.013280 2.715497 0
M  V30 38 H 0.463425 3.460640 2.494546 0
M  V30 39 H -3.092119 -0.275830 2.847878 0
M  V30 40 H -4.865374 -0.256027 0.724222 0
M  V30 41 H -3.947748 -1.843686 0.662875 0
M  V30 42 H -3.896943 0.174806 -1.584869 0
M  V30 43 H -3.188556 -1.522490 -1.515190 0
M  V30 44 H -4.748909 -3.504215 -1.752964 0
M  V30 45 H -8.271938 -1.408770 -2.795431 0
M  V30 46 H -0.109012 -1.299810 2.348637 0
M  V30 47 H 2.019027 -1.731674 4.406637 0
M  V30 END ATOM
M  V30 BEGIN BOND
M  V30 1 1 1 2
M  V30 2 2 2 3
M  V30 3 1 3 4
M  V30 4 1 4 5
M  V30 5 2 5 6
M  V30 6 1 6 7
M  V30 7 2 7 8
M  V30 8 1 8 9
M  V30 9 2 9 10
M  V30 10 2 4 11
M  V30 11 1 11 12
M  V30 12 2 12 13
M  V30 13 1 13 14
M  V30 14 2 14 15
M  V30 15 1 15 16
M  V30 16 1 16 17
M  V30 17 1 17 18
M  V30 18 2 18 19
M  V30 19 1 18 20
M  V30 20 1 20 21
M  V30 21 1 21 22
M  V30 22 1 22 23
M  V30 23 2 23 24
M  V30 24 1 24 25
M  V30 25 2 25 26
M  V30 26 2 16 27
M  V30 27 1 11 28
M  V30 28 1 28 2
M  V30 29 1 10 5
M  V30 30 1 27 12
M  V30 31 1 26 22
M  V30 32 1 1 29
M  V30 33 1 1 30
M  V30 34 1 1 31
M  V30 35 1 6 32
M  V30 36 1 7 33
M  V30 37 1 8 34
M  V30 38 1 9 35
M  V30 39 1 10 36
M  V30 40 1 13 37
M  V30 41 1 14 38
M  V30 42 1 17 39
M  V30 43 1 20 40
M  V30 44 1 20 41
M  V30 45 1 21 42
M  V30 46 1 21 43
M  V30 47 1 23 44
M  V30 48 1 25 45
M  V30 49 1 27 46
M  V30 50 1 28 47
M  V30 END BOND
M  V30 END CTAB
M  END
>  <Dataset>  (783) 
ChEMBL_Kinases

>  <Ligand_Instance>  (783) 
nan

>  <PDB_ID>  (783) 
nan

>  <Standardized_SMILES>  (783) 
Cc1nc(-c2ccccc2)c(-c2ccnc(NC(=O)CCn3cncn3)c2)[nH]1

>  <Name>  (783) 
nan

>  <Pocket>  (783) 
nan

>  <ATP_Site>  (783) 
nan

>  <Peripheral>  (783) 
nan

>  <Num_H_Atoms_ProtBoundConf>  (783) 
nan

>  <Num_Resolved_Atoms>  (783) 
nan

>  <Num_Not_Resolved_Atoms>  (783) 
nan

$$$$
CHEMBL4575655
     RDKit          3D

  0  0  0  0  0  0  0  0  0  0999 V3000
M  V30 BEGIN CTAB
M  V30 COUNTS 59 62 0 0 0
M  V30 BEGIN ATOM
M  V30 1 C 3.787076 -2.668164 5.012815 0
M  V30 2 O 4.253744 -3.819433 4.340961 0
M  V30 3 C 4.202141 -3.927585 2.964100 0
M  V30 4 C 3.679259 -2.876001 2.244433 0
M  V30 5 C 3.604019 -2.931129 0.869703 0
M  V30 6 C 3.094072 -1.956307 -0.085404 0
M  V30 7 C 3.877875 -1.684141 -1.212865 0
M  V30 8 N 3.494055 -0.788529 -2.168114 0
M  V30 9 C 2.318014 -0.123928 -2.048400 0
M  V30 10 C 1.523543 -0.385921 -0.925990 0
M  V30 11 C 0.278369 0.376817 -0.886391 0
M  V30 12 C -0.267623 1.068022 0.176169 0
M  V30 13 C -1.466028 1.737488 0.040025 0
M  V30 14 C -2.187920 1.767803 -1.128689 0
M  V30 15 N -3.415039 2.470710 -1.221644 0
M  V30 16 C -4.068227 3.269222 -0.207935 0
M  V30 17 C -5.309360 2.562820 0.310017 0
M  V30 18 N -5.823714 1.642896 -0.685155 0
M  V30 19 C -7.211263 1.401471 -0.354737 0
M  V30 20 C -5.664204 2.108567 -2.037426 0
M  V30 21 C -4.270761 2.522451 -2.371604 0
M  V30 22 C -1.677165 1.091261 -2.210522 0
M  V30 23 C -0.465393 0.413607 -2.074580 0
M  V30 24 C 1.906565 -1.289694 0.041925 0
M  V30 25 C 1.042084 -1.538793 1.199477 0
M  V30 26 C 4.081675 -4.096484 0.263300 0
M  V30 27 C 4.611757 -5.161587 0.997835 0
M  V30 28 F 5.068590 -6.281275 0.385748 0
M  V30 29 C 4.674782 -5.079629 2.372167 0
M  V30 30 C 5.222286 -6.183703 3.109787 0
M  V30 31 N 5.341959 -6.221758 4.520643 0
M  V30 32 O 5.646331 -7.222917 2.549983 0
M  V30 33 H 2.768907 -2.398918 4.612649 0
M  V30 34 H 3.690329 -2.827172 6.096820 0
M  V30 35 H 4.497017 -1.840149 4.763452 0
M  V30 36 H 3.297878 -1.951998 2.653075 0
M  V30 37 H 4.846643 -2.176288 -1.392461 0
M  V30 38 H 2.034913 0.578418 -2.814309 0
M  V30 39 H 0.314377 1.034178 1.082614 0
M  V30 40 H -1.763224 2.227244 0.953296 0
M  V30 41 H -3.370655 3.376072 0.647449 0
M  V30 42 H -4.396333 4.270725 -0.579794 0
M  V30 43 H -4.989121 1.928602 1.161568 0
M  V30 44 H -6.076149 3.256346 0.692707 0
M  V30 45 H -7.420690 0.305663 -0.246632 0
M  V30 46 H -7.503173 1.856354 0.634791 0
M  V30 47 H -7.913138 1.774820 -1.140529 0
M  V30 48 H -6.007976 1.268110 -2.684934 0
M  V30 49 H -6.370103 2.944229 -2.174479 0
M  V30 50 H -3.933808 1.949335 -3.245496 0
M  V30 51 H -4.318600 3.589851 -2.747984 0
M  V30 52 H -2.150300 1.044058 -3.173711 0
M  V30 53 H -0.076315 -0.121159 -2.955541 0
M  V30 54 H -0.050272 -1.552987 0.911738 0
M  V30 55 H 1.226774 -0.925494 2.081632 0
M  V30 56 H 1.218115 -2.608120 1.516019 0
M  V30 57 H 4.077564 -4.260833 -0.806968 0
M  V30 58 H 4.568282 -5.973078 5.191883 0
M  V30 59 H 4.586428 -5.978906 5.193061 0
M  V30 END ATOM
M  V30 BEGIN BOND
M  V30 1 1 1 2
M  V30 2 1 2 3
M  V30 3 2 3 4
M  V30 4 1 4 5
M  V30 5 1 5 6
M  V30 6 2 6 7
M  V30 7 1 7 8
M  V30 8 2 8 9
M  V30 9 1 9 10
M  V30 10 1 10 11
M  V30 11 2 11 12
M  V30 12 1 12 13
M  V30 13 2 13 14
M  V30 14 1 14 15
M  V30 15 1 15 16
M  V30 16 1 16 17
M  V30 17 1 17 18
M  V30 18 1 18 19
M  V30 19 1 18 20
M  V30 20 1 20 21
M  V30 21 1 14 22
M  V30 22 2 22 23
M  V30 23 2 10 24
M  V30 24 1 24 25
M  V30 25 2 5 26
M  V30 26 1 26 27
M  V30 27 1 27 28
M  V30 28 2 27 29
M  V30 29 1 29 30
M  V30 30 1 30 31
M  V30 31 2 30 32
M  V30 32 1 29 3
M  V30 33 1 24 6
M  V30 34 1 23 11
M  V30 35 1 21 15
M  V30 36 1 1 33
M  V30 37 1 1 34
M  V30 38 1 1 35
M  V30 39 1 4 36
M  V30 40 1 7 37
M  V30 41 1 9 38
M  V30 42 1 12 39
M  V30 43 1 13 40
M  V30 44 1 16 41
M  V30 45 1 16 42
M  V30 46 1 17 43
M  V30 47 1 17 44
M  V30 48 1 19 45
M  V30 49 1 19 46
M  V30 50 1 19 47
M  V30 51 1 20 48
M  V30 52 1 20 49
M  V30 53 1 21 50
M  V30 54 1 21 51
M  V30 55 1 22 52
M  V30 56 1 23 53
M  V30 57 1 25 54
M  V30 58 1 25 55
M  V30 59 1 25 56
M  V30 60 1 26 57
M  V30 61 1 31 58
M  V30 62 1 31 59
M  V30 END BOND
M  V30 END CTAB
M  END
>  <Dataset>  (784) 
ChEMBL_Kinases

>  <Ligand_Instance>  (784) 
nan

>  <PDB_ID>  (784) 
nan

>  <Standardized_SMILES>  (784) 
COc1cc(-c2cncc(-c3ccc(N4CCN(C)CC4)cc3)c2C)cc(F)c1C(N)=O

>  <Name>  (784) 
nan

>  <Pocket>  (784) 
nan

>  <ATP_Site>  (784) 
nan

>  <Peripheral>  (784) 
nan

>  <Num_H_Atoms_ProtBoundConf>  (784) 
nan

>  <Num_Resolved_Atoms>  (784) 
nan

>  <Num_Not_Resolved_Atoms>  (784) 
nan

$$$$
CHEMBL4575638
     RDKit          3D

  0  0  0  0  0  0  0  0  0  0999 V3000
M  V30 BEGIN CTAB
M  V30 COUNTS 45 48 0 0 0
M  V30 BEGIN ATOM
M  V30 1 C -0.845526 -4.703724 -1.021067 0
M  V30 2 C -0.057616 -3.420140 -1.014667 0
M  V30 3 N 1.172005 -3.171438 -1.381056 0
M  V30 4 C 1.497311 -1.848930 -1.205981 0
M  V30 5 C 2.867290 -1.635586 -1.545542 0
M  V30 6 C 3.761608 -2.345804 -0.471356 0
M  V30 7 C 3.739704 -1.295014 0.619844 0
M  V30 8 C 3.893827 0.012511 -0.164902 0
M  V30 9 C 3.533705 -0.341892 -1.587000 0
M  V30 10 C 0.358838 -1.322346 -0.705680 0
M  V30 11 C 0.163399 0.027179 -0.275517 0
M  V30 12 C 0.658639 1.271656 -0.532032 0
M  V30 13 C 0.454392 2.489575 0.054782 0
M  V30 14 N -0.417055 2.475991 1.107436 0
M  V30 15 C -0.992123 1.326781 1.483828 0
M  V30 16 N -1.883888 1.379555 2.585677 0
M  V30 17 C -3.286110 1.607210 2.592667 0
M  V30 18 O -3.943707 1.802874 1.535544 0
M  V30 19 C -3.941376 1.601079 3.938049 0
M  V30 20 C -3.478402 0.473842 4.883812 0
M  V30 21 C -3.116137 1.882351 5.136254 0
M  V30 22 C -0.715419 0.157078 0.823170 0
M  V30 23 N -0.601488 -2.287994 -0.584669 0
M  V30 24 H -1.485427 -4.810923 -1.896645 0
M  V30 25 H -1.486676 -4.735418 -0.113985 0
M  V30 26 H -0.137690 -5.554944 -0.895179 0
M  V30 27 H 3.109527 -2.156928 -2.533785 0
M  V30 28 H 4.756342 -2.378320 -0.908500 0
M  V30 29 H 3.321431 -3.300852 -0.199743 0
M  V30 30 H 4.575990 -1.488032 1.293784 0
M  V30 31 H 2.783387 -1.254910 1.162559 0
M  V30 32 H 3.357048 0.848503 0.267573 0
M  V30 33 H 4.987987 0.268756 -0.040047 0
M  V30 34 H 4.576333 -0.563132 -2.054504 0
M  V30 35 H 3.187908 0.452946 -2.222026 0
M  V30 36 H 1.300765 1.264183 -1.389919 0
M  V30 37 H 0.975338 3.348643 -0.336886 0
M  V30 38 H -1.275014 1.211737 3.405247 0
M  V30 39 H -5.014659 1.778768 3.902188 0
M  V30 40 H -2.682080 -0.192971 4.511224 0
M  V30 41 H -4.245299 -0.010126 5.517829 0
M  V30 42 H -2.087589 2.218954 4.987019 0
M  V30 43 H -3.657087 2.393714 5.960538 0
M  V30 44 H -1.263735 -0.702858 1.247553 0
M  V30 45 H -1.589837 -2.144609 -0.215743 0
M  V30 END ATOM
M  V30 BEGIN BOND
M  V30 1 1 1 2
M  V30 2 2 2 3
M  V30 3 1 3 4
M  V30 4 1 4 5
M  V30 5 1 5 6
M  V30 6 1 6 7
M  V30 7 1 7 8
M  V30 8 1 8 9
M  V30 9 2 4 10
M  V30 10 1 10 11
M  V30 11 2 11 12
M  V30 12 1 12 13
M  V30 13 2 13 14
M  V30 14 1 14 15
M  V30 15 1 15 16
M  V30 16 1 16 17
M  V30 17 2 17 18
M  V30 18 1 17 19
M  V30 19 1 19 20
M  V30 20 1 20 21
M  V30 21 2 15 22
M  V30 22 1 10 23
M  V30 23 1 23 2
M  V30 24 1 9 5
M  V30 25 1 22 11
M  V30 26 1 21 19
M  V30 27 1 1 24
M  V30 28 1 1 25
M  V30 29 1 1 26
M  V30 30 1 5 27
M  V30 31 1 6 28
M  V30 32 1 6 29
M  V30 33 1 7 30
M  V30 34 1 7 31
M  V30 35 1 8 32
M  V30 36 1 8 33
M  V30 37 1 9 34
M  V30 38 1 9 35
M  V30 39 1 12 36
M  V30 40 1 13 37
M  V30 41 1 16 38
M  V30 42 1 19 39
M  V30 43 1 20 40
M  V30 44 1 20 41
M  V30 45 1 21 42
M  V30 46 1 21 43
M  V30 47 1 22 44
M  V30 48 1 23 45
M  V30 END BOND
M  V30 END CTAB
M  END
>  <Dataset>  (785) 
ChEMBL_Kinases

>  <Ligand_Instance>  (785) 
nan

>  <PDB_ID>  (785) 
nan

>  <Standardized_SMILES>  (785) 
Cc1nc(C2CCCC2)c(-c2ccnc(NC(=O)C3CC3)c2)[nH]1

>  <Name>  (785) 
nan

>  <Pocket>  (785) 
nan

>  <ATP_Site>  (785) 
nan

>  <Peripheral>  (785) 
nan

>  <Num_H_Atoms_ProtBoundConf>  (785) 
nan

>  <Num_Resolved_Atoms>  (785) 
nan

>  <Num_Not_Resolved_Atoms>  (785) 
nan

$$$$
CHEMBL4575526
     RDKit          3D

  0  0  0  0  0  0  0  0  0  0999 V3000
M  V30 BEGIN CTAB
M  V30 COUNTS 80 85 0 0 0
M  V30 BEGIN ATOM
M  V30 1 C 0.241560 -2.615624 3.094792 0
M  V30 2 S -1.011490 -1.757905 4.054182 0
M  V30 3 C -0.335792 -0.746210 5.356494 0
M  V30 4 N 1.021181 -0.680684 5.498573 0
M  V30 5 C 1.584681 0.044745 6.482222 0
M  V30 6 C 0.732183 0.707511 7.325007 0
M  V30 7 C -0.640652 0.662074 7.208513 0
M  V30 8 C -1.205758 -0.080175 6.202859 0
M  V30 9 C -2.666142 -0.261865 5.885113 0
M  V30 10 N -3.110220 0.585684 4.815285 0
M  V30 11 C -2.836542 1.054660 3.519434 0
M  V30 12 N -2.236856 2.269737 3.608452 0
M  V30 13 C -1.864526 2.997301 2.544523 0
M  V30 14 C -2.121780 2.449721 1.317574 0
M  V30 15 C -1.733797 3.207679 0.144897 0
M  V30 16 N -1.405005 3.810405 -0.784141 0
M  V30 17 C -2.727487 1.219662 1.180175 0
M  V30 18 N -3.018091 0.724155 -0.108344 0
M  V30 19 C -3.563405 -0.390034 -0.830572 0
M  V30 20 C -2.497783 -1.350699 -1.250828 0
M  V30 21 C -3.078872 -2.524129 -2.009760 0
M  V30 22 C -1.962855 -3.410267 -2.487769 0
M  V30 23 C -1.099396 -3.911205 -1.365188 0
M  V30 24 C -0.531638 -2.718647 -0.633463 0
M  V30 25 C -1.666510 -1.880918 -0.129871 0
M  V30 26 C 0.386546 -1.982933 -1.618011 0
M  V30 27 N 1.177965 -1.118763 -0.914828 0
M  V30 28 C 2.123153 -0.222634 -1.345489 0
M  V30 29 C 3.425412 -0.629032 -1.919299 0 CFG=1
M  V30 30 C 3.472748 -1.432117 -3.151847 0
M  V30 31 C 3.169160 -0.651694 -4.412451 0
M  V30 32 C 3.612002 0.780852 -4.308898 0 CFG=2
M  V30 33 O 4.059073 1.255769 -5.565592 0
M  V30 34 C 4.812865 0.843519 -3.394687 0
M  V30 35 C 4.310927 0.609870 -1.993181 0
M  V30 36 C -0.477711 -1.454409 -2.718458 0
M  V30 37 C -1.061715 -2.652442 -3.441005 0
M  V30 38 C -1.615175 -0.608720 -2.255945 0
M  V30 39 N -3.070905 0.548932 2.292599 0
M  V30 40 H 0.771012 -1.992361 2.373769 0
M  V30 41 H 0.970851 -3.161039 3.760682 0
M  V30 42 H -0.281488 -3.464541 2.561141 0
M  V30 43 H 2.656108 0.077622 6.566373 0
M  V30 44 H 1.149994 1.295607 8.118295 0
M  V30 45 H -1.350488 1.164642 7.847402 0
M  V30 46 H -2.782860 -1.344319 5.619835 0
M  V30 47 H -3.208512 -0.043536 6.825016 0
M  V30 48 H -4.029674 1.078059 5.045044 0
M  V30 49 H -1.387877 3.960255 2.590329 0
M  V30 50 H -2.756659 1.379721 -0.913481 0
M  V30 51 H -4.173401 -0.122052 -1.715416 0
M  V30 52 H -4.327210 -0.915434 -0.158635 0
M  V30 53 H -3.612444 -2.180799 -2.932697 0
M  V30 54 H -3.760308 -3.150525 -1.401098 0
M  V30 55 H -2.352807 -4.275150 -3.055141 0
M  V30 56 H -1.649937 -4.596073 -0.685178 0
M  V30 57 H -0.247696 -4.461045 -1.823672 0
M  V30 58 H 0.064800 -3.054261 0.248874 0
M  V30 59 H -1.364656 -1.119544 0.603460 0
M  V30 60 H -2.336415 -2.597640 0.424984 0
M  V30 61 H 0.962452 -2.820724 -2.069174 0
M  V30 62 H 1.022034 -1.156173 0.132849 0
M  V30 63 H 2.416141 0.401345 -0.426020 0
M  V30 64 H 1.744205 0.607210 -2.016789 0
M  V30 65 H 3.929908 -1.260893 -1.116585 0
M  V30 66 H 2.972604 -2.379823 -3.054790 0
M  V30 67 H 4.575202 -1.715821 -3.281726 0
M  V30 68 H 3.740727 -1.096299 -5.279807 0
M  V30 69 H 2.113293 -0.787026 -4.703267 0
M  V30 70 H 2.844457 1.485842 -3.985366 0
M  V30 71 H 3.392125 0.988749 -6.256446 0
M  V30 72 H 5.206312 1.880066 -3.455607 0
M  V30 73 H 5.570244 0.098150 -3.722680 0
M  V30 74 H 3.759338 1.527976 -1.699218 0
M  V30 75 H 5.207418 0.542526 -1.348156 0
M  V30 76 H 0.067246 -0.903707 -3.494616 0
M  V30 77 H -0.193940 -3.320380 -3.711473 0
M  V30 78 H -1.578626 -2.278385 -4.336993 0
M  V30 79 H -1.292125 0.386380 -1.874556 0
M  V30 80 H -2.267289 -0.396321 -3.126728 0
M  V30 END ATOM
M  V30 BEGIN BOND
M  V30 1 1 1 2
M  V30 2 1 2 3
M  V30 3 2 3 4
M  V30 4 1 4 5
M  V30 5 2 5 6
M  V30 6 1 6 7
M  V30 7 2 7 8
M  V30 8 1 8 9
M  V30 9 1 9 10
M  V30 10 1 10 11
M  V30 11 2 11 12
M  V30 12 1 12 13
M  V30 13 2 13 14
M  V30 14 1 14 15
M  V30 15 3 15 16
M  V30 16 1 14 17
M  V30 17 1 17 18
M  V30 18 1 18 19
M  V30 19 1 19 20
M  V30 20 1 20 21
M  V30 21 1 21 22
M  V30 22 1 22 23
M  V30 23 1 23 24
M  V30 24 1 24 25
M  V30 25 1 24 26
M  V30 26 1 26 27
M  V30 27 1 27 28
M  V30 28 1 28 29
M  V30 29 1 29 30
M  V30 30 1 30 31
M  V30 31 1 31 32
M  V30 32 1 32 33
M  V30 33 1 32 34
M  V30 34 1 34 35
M  V30 35 1 26 36
M  V30 36 1 36 37
M  V30 37 1 36 38
M  V30 38 2 17 39
M  V30 39 1 8 3
M  V30 40 1 39 11
M  V30 41 1 25 20
M  V30 42 1 35 29
M  V30 43 1 38 20
M  V30 44 1 37 22
M  V30 45 1 1 40
M  V30 46 1 1 41
M  V30 47 1 1 42
M  V30 48 1 5 43
M  V30 49 1 6 44
M  V30 50 1 7 45
M  V30 51 1 9 46
M  V30 52 1 9 47
M  V30 53 1 10 48
M  V30 54 1 13 49
M  V30 55 1 18 50
M  V30 56 1 19 51
M  V30 57 1 19 52
M  V30 58 1 21 53
M  V30 59 1 21 54
M  V30 60 1 22 55
M  V30 61 1 23 56
M  V30 62 1 23 57
M  V30 63 1 24 58
M  V30 64 1 25 59
M  V30 65 1 25 60
M  V30 66 1 26 61
M  V30 67 1 27 62
M  V30 68 1 28 63
M  V30 69 1 28 64
M  V30 70 1 29 65 CFG=1
M  V30 71 1 30 66
M  V30 72 1 30 67
M  V30 73 1 31 68
M  V30 74 1 31 69
M  V30 75 1 32 70 CFG=1
M  V30 76 1 33 71
M  V30 77 1 34 72
M  V30 78 1 34 73
M  V30 79 1 35 74
M  V30 80 1 35 75
M  V30 81 1 36 76
M  V30 82 1 37 77
M  V30 83 1 37 78
M  V30 84 1 38 79
M  V30 85 1 38 80
M  V30 END BOND
M  V30 END CTAB
M  END
>  <Dataset>  (786) 
ChEMBL_Kinases

>  <Ligand_Instance>  (786) 
nan

>  <PDB_ID>  (786) 
nan

>  <Standardized_SMILES>  (786) 
CSc1ncccc1CNc1ncc(C#N)c(NCC23CC4CC(C2)C(NC[C@H]2CC[C@H](O)CC2)C(C4)C3)n1

>  <Name>  (786) 
nan

>  <Pocket>  (786) 
nan

>  <ATP_Site>  (786) 
nan

>  <Peripheral>  (786) 
nan

>  <Num_H_Atoms_ProtBoundConf>  (786) 
nan

>  <Num_Resolved_Atoms>  (786) 
nan

>  <Num_Not_Resolved_Atoms>  (786) 
nan

$$$$
CHEMBL4575249
     RDKit          3D

  0  0  0  0  0  0  0  0  0  0999 V3000
M  V30 BEGIN CTAB
M  V30 COUNTS 43 46 0 0 0
M  V30 BEGIN ATOM
M  V30 1 N 3.337219 -3.589893 3.156939 0
M  V30 2 C 3.618532 -2.448088 2.359025 0
M  V30 3 O 4.829677 -2.119874 2.268831 0
M  V30 4 C 2.615558 -1.655053 1.657298 0
M  V30 5 C 3.076485 -0.578977 0.927910 0
M  V30 6 C 2.167262 0.206707 0.242909 0
M  V30 7 C 2.546966 1.366675 -0.557230 0
M  V30 8 C 1.809462 1.727062 -1.679670 0
M  V30 9 C 2.218725 2.838325 -2.399455 0
M  V30 10 C 3.328851 3.593307 -2.038309 0
M  V30 11 C 4.031732 3.199398 -0.916935 0
M  V30 12 C 3.654694 2.099063 -0.175528 0
M  V30 13 C 0.817942 -0.085024 0.290904 0
M  V30 14 C 0.380442 -1.177104 1.034925 0
M  V30 15 C -0.906147 -1.678260 1.243762 0
M  V30 16 C -2.172723 -1.103409 0.669172 0
M  V30 17 C -2.753852 -0.094567 1.574104 0
M  V30 18 C -3.792647 -0.706673 2.452819 0
M  V30 19 S -4.593245 -1.779695 1.279647 0
M  V30 20 O -5.583596 -0.997088 0.481673 0
M  V30 21 O -5.192537 -2.978475 1.932218 0
M  V30 22 C -3.130061 -2.178776 0.346586 0
M  V30 23 C -0.735313 -2.786804 2.074292 0
M  V30 24 N 0.576104 -2.936966 2.344176 0
M  V30 25 C 1.274106 -1.970974 1.723935 0
M  V30 26 H 3.323581 -4.635052 3.078610 0
M  V30 27 H 3.080165 -3.114213 4.065710 0
M  V30 28 H 4.128768 -0.320919 0.868276 0
M  V30 29 H 0.945230 1.156778 -1.978671 0
M  V30 30 H 1.675189 3.156607 -3.280341 0
M  V30 31 H 3.636160 4.456466 -2.607728 0
M  V30 32 H 4.904576 3.723607 -0.561883 0
M  V30 33 H 4.220655 1.795650 0.713242 0
M  V30 34 H 0.076239 0.492007 -0.221130 0
M  V30 35 H -1.872170 -0.606060 -0.278366 0
M  V30 36 H -1.928972 0.298457 2.227850 0
M  V30 37 H -3.190090 0.788265 1.069017 0
M  V30 38 H -4.468270 0.062071 2.853044 0
M  V30 39 H -3.279817 -1.289457 3.251962 0
M  V30 40 H -3.353704 -2.291876 -0.733393 0
M  V30 41 H -2.761011 -3.138260 0.772859 0
M  V30 42 H -1.556195 -3.403085 2.424254 0
M  V30 43 H 0.970997 -3.675205 2.931479 0
M  V30 END ATOM
M  V30 BEGIN BOND
M  V30 1 1 1 2
M  V30 2 2 2 3
M  V30 3 1 2 4
M  V30 4 2 4 5
M  V30 5 1 5 6
M  V30 6 1 6 7
M  V30 7 2 7 8
M  V30 8 1 8 9
M  V30 9 2 9 10
M  V30 10 1 10 11
M  V30 11 2 11 12
M  V30 12 2 6 13
M  V30 13 1 13 14
M  V30 14 1 14 15
M  V30 15 1 15 16
M  V30 16 1 16 17
M  V30 17 1 17 18
M  V30 18 1 18 19
M  V30 19 2 19 20
M  V30 20 2 19 21
M  V30 21 1 19 22
M  V30 22 2 15 23
M  V30 23 1 23 24
M  V30 24 1 24 25
M  V30 25 1 25 4
M  V30 26 1 12 7
M  V30 27 2 25 14
M  V30 28 1 22 16
M  V30 29 1 1 26
M  V30 30 1 1 27
M  V30 31 1 5 28
M  V30 32 1 8 29
M  V30 33 1 9 30
M  V30 34 1 10 31
M  V30 35 1 11 32
M  V30 36 1 12 33
M  V30 37 1 13 34
M  V30 38 1 16 35
M  V30 39 1 17 36
M  V30 40 1 17 37
M  V30 41 1 18 38
M  V30 42 1 18 39
M  V30 43 1 22 40
M  V30 44 1 22 41
M  V30 45 1 23 42
M  V30 46 1 24 43
M  V30 END BOND
M  V30 END CTAB
M  END
>  <Dataset>  (787) 
ChEMBL_Kinases

>  <Ligand_Instance>  (787) 
nan

>  <PDB_ID>  (787) 
nan

>  <Standardized_SMILES>  (787) 
NC(=O)c1cc(-c2ccccc2)cc2c(C3CCS(=O)(=O)C3)c[nH]c12

>  <Name>  (787) 
nan

>  <Pocket>  (787) 
nan

>  <ATP_Site>  (787) 
nan

>  <Peripheral>  (787) 
nan

>  <Num_H_Atoms_ProtBoundConf>  (787) 
nan

>  <Num_Resolved_Atoms>  (787) 
nan

>  <Num_Not_Resolved_Atoms>  (787) 
nan

$$$$
CHEMBL4633990
     RDKit          3D

  0  0  0  0  0  0  0  0  0  0999 V3000
M  V30 BEGIN CTAB
M  V30 COUNTS 54 57 0 0 0
M  V30 BEGIN ATOM
M  V30 1 C 6.694350 -0.668710 0.475328 0
M  V30 2 C 6.775327 0.284105 -0.676000 0
M  V30 3 C 6.364402 -0.510737 -1.918656 0
M  V30 4 C 8.219205 0.670541 -0.881142 0
M  V30 5 O 5.939998 1.419070 -0.552269 0
M  V30 6 C 4.584113 1.380528 -0.436063 0
M  V30 7 O 4.131931 0.184967 -0.450532 0
M  V30 8 N 3.703561 2.473790 -0.310239 0
M  V30 9 C 2.335624 2.082244 -0.208802 0
M  V30 10 C 1.839206 1.855613 1.062587 0
M  V30 11 C 0.513352 1.475575 1.165781 0
M  V30 12 C -0.256110 1.337699 0.017060 0
M  V30 13 C -1.670744 0.937590 0.050682 0
M  V30 14 C -2.656972 1.315896 -0.838006 0
M  V30 15 C -3.938508 0.840606 -0.650488 0
M  V30 16 C -4.206379 -0.005706 0.425741 0
M  V30 17 N -5.378693 -0.581317 0.792836 0
M  V30 18 C -5.116820 -1.314151 1.906796 0
M  V30 19 N -5.985598 -2.128848 2.717562 0
M  V30 20 C -6.137963 -3.514738 2.391670 0
M  V30 21 C -5.469766 -4.056538 1.328265 0
M  V30 22 C -5.542129 -5.374767 0.925067 0
M  V30 23 C -6.359720 -6.219626 1.658581 0
M  V30 24 C -7.053027 -5.702368 2.745029 0
M  V30 25 C -6.952844 -4.378727 3.114494 0
M  V30 26 C -7.679972 -3.845382 4.250551 0
M  V30 27 N -8.275773 -3.417050 5.145760 0
M  V30 28 N -3.795329 -1.180110 2.207734 0
M  V30 29 N -3.232934 -0.375510 1.297922 0
M  V30 30 C -1.986218 0.097249 1.101066 0
M  V30 31 C 0.274933 1.573405 -1.244668 0
M  V30 32 C 1.607632 1.957447 -1.378128 0
M  V30 33 H 7.667308 -1.231590 0.510002 0
M  V30 34 H 6.618489 -0.171321 1.464626 0
M  V30 35 H 5.915618 -1.460792 0.349395 0
M  V30 36 H 7.248897 -0.885461 -2.480932 0
M  V30 37 H 5.799842 -1.425251 -1.642161 0
M  V30 38 H 5.797018 0.111474 -2.633122 0
M  V30 39 H 8.766251 -0.014229 -1.569463 0
M  V30 40 H 8.731911 0.575551 0.098061 0
M  V30 41 H 8.333574 1.737668 -1.163260 0
M  V30 42 H 4.202068 3.397825 -0.312048 0
M  V30 43 H 2.464985 1.971506 1.942031 0
M  V30 44 H 0.048004 1.278988 2.125832 0
M  V30 45 H -2.331387 1.974187 -1.631991 0
M  V30 46 H -4.693252 1.148709 -1.356397 0
M  V30 47 H -6.500275 -1.726984 3.530901 0
M  V30 48 H -4.814984 -3.438405 0.718817 0
M  V30 49 H -4.990122 -5.754091 0.072307 0
M  V30 50 H -6.484568 -7.264134 1.425951 0
M  V30 51 H -7.708096 -6.340229 3.347407 0
M  V30 52 H -1.270198 -0.253730 1.852229 0
M  V30 53 H -0.301410 1.473519 -2.154805 0
M  V30 54 H 2.103150 2.161299 -2.320198 0
M  V30 END ATOM
M  V30 BEGIN BOND
M  V30 1 1 1 2
M  V30 2 1 2 3
M  V30 3 1 2 4
M  V30 4 1 2 5
M  V30 5 1 5 6
M  V30 6 2 6 7
M  V30 7 1 6 8
M  V30 8 1 8 9
M  V30 9 2 9 10
M  V30 10 1 10 11
M  V30 11 2 11 12
M  V30 12 1 12 13
M  V30 13 1 13 14
M  V30 14 2 14 15
M  V30 15 1 15 16
M  V30 16 2 16 17
M  V30 17 1 17 18
M  V30 18 1 18 19
M  V30 19 1 19 20
M  V30 20 2 20 21
M  V30 21 1 21 22
M  V30 22 2 22 23
M  V30 23 1 23 24
M  V30 24 2 24 25
M  V30 25 1 25 26
M  V30 26 3 26 27
M  V30 27 2 18 28
M  V30 28 1 28 29
M  V30 29 1 29 30
M  V30 30 1 12 31
M  V30 31 2 31 32
M  V30 32 1 32 9
M  V30 33 2 30 13
M  V30 34 1 29 16
M  V30 35 1 25 20
M  V30 36 1 1 33
M  V30 37 1 1 34
M  V30 38 1 1 35
M  V30 39 1 3 36
M  V30 40 1 3 37
M  V30 41 1 3 38
M  V30 42 1 4 39
M  V30 43 1 4 40
M  V30 44 1 4 41
M  V30 45 1 8 42
M  V30 46 1 10 43
M  V30 47 1 11 44
M  V30 48 1 14 45
M  V30 49 1 15 46
M  V30 50 1 19 47
M  V30 51 1 21 48
M  V30 52 1 22 49
M  V30 53 1 23 50
M  V30 54 1 24 51
M  V30 55 1 30 52
M  V30 56 1 31 53
M  V30 57 1 32 54
M  V30 END BOND
M  V30 END CTAB
M  END
>  <Dataset>  (788) 
ChEMBL_Kinases

>  <Ligand_Instance>  (788) 
nan

>  <PDB_ID>  (788) 
nan

>  <Standardized_SMILES>  (788) 
CC(C)(C)OC(=O)Nc1ccc(-c2ccc3nc(Nc4ccccc4C#N)nn3c2)cc1

>  <Name>  (788) 
nan

>  <Pocket>  (788) 
nan

>  <ATP_Site>  (788) 
nan

>  <Peripheral>  (788) 
nan

>  <Num_H_Atoms_ProtBoundConf>  (788) 
nan

>  <Num_Resolved_Atoms>  (788) 
nan

>  <Num_Not_Resolved_Atoms>  (788) 
nan

$$$$
CHEMBL4575057
     RDKit          3D

  0  0  0  0  0  0  0  0  0  0999 V3000
M  V30 BEGIN CTAB
M  V30 COUNTS 108 111 0 0 0
M  V30 BEGIN ATOM
M  V30 1 C 2.754942 -5.751736 -5.208953 0
M  V30 2 C 2.532453 -4.412747 -4.584999 0
M  V30 3 C 2.772359 -3.264382 -5.567683 0
M  V30 4 C 2.496633 -1.994927 -4.746638 0
M  V30 5 C 2.674968 -0.767440 -5.549859 0
M  V30 6 C 2.403906 0.533295 -4.898777 0
M  V30 7 C 3.193789 0.967286 -3.730269 0
M  V30 8 C 3.146478 0.192895 -2.491852 0
M  V30 9 O 3.576824 -0.742882 -1.785706 0
M  V30 10 O 2.187598 0.631053 -1.579581 0
M  V30 11 C 1.896499 0.125387 -0.336536 0 CFG=1
M  V30 12 C 2.318556 1.060075 0.770882 0
M  V30 13 C 2.688568 2.308010 0.576871 0
M  V30 14 C 3.097254 3.205249 1.644376 0
M  V30 15 O 3.209813 3.088659 2.886285 0
M  V30 16 O 3.470539 4.504382 1.365812 0
M  V30 17 C 3.883652 5.474716 2.282093 0
M  V30 18 C 2.290155 0.463454 2.117417 0
M  V30 19 C 1.218596 -0.671034 2.099883 0 CFG=1
M  V30 20 C 0.865275 -0.970542 3.527249 0
M  V30 21 C -0.526286 -0.626993 3.952243 0 CFG=2
M  V30 22 C -1.582678 -1.621118 3.885874 0
M  V30 23 O -2.158258 -2.244524 2.864722 0
M  V30 24 C -1.911164 -3.069307 1.861744 0
M  V30 25 O -0.753142 -3.433701 1.703578 0
M  V30 26 N -2.947777 -3.524580 1.016609 0
M  V30 27 C -3.064442 -4.404456 -0.099302 0
M  V30 28 C -2.709423 -3.801751 -1.391683 0
M  V30 29 C -1.533140 -3.783623 -2.120822 0
M  V30 30 C -1.542509 -3.118936 -3.321461 0
M  V30 31 C -2.594667 -2.462875 -3.889146 0
M  V30 32 C -3.761165 -2.484144 -3.158817 0
M  V30 33 C -3.824463 -3.137050 -1.936330 0
M  V30 34 O -0.872523 0.618000 3.286912 0
M  V30 35 C -0.952972 1.794600 3.996767 0
M  V30 36 O -0.740093 1.741441 5.257736 0
M  V30 37 C -1.219793 3.221397 3.772922 0
M  V30 38 C -2.568216 3.648571 4.253725 0
M  V30 39 O -3.588243 3.119922 3.579397 0
M  V30 40 C -4.099240 1.927529 3.317906 0
M  V30 41 C -4.924245 1.546060 4.360859 0
M  V30 42 C -5.653813 0.350072 4.444671 0
M  V30 43 C -5.564469 -0.563922 3.396416 0
M  V30 44 C -4.721333 -0.144688 2.361751 0
M  V30 45 C -4.004335 1.029304 2.285020 0
M  V30 46 C -3.302315 0.896711 1.018896 0
M  V30 47 O -3.719683 1.976404 0.683764 0
M  V30 48 O -2.528258 -0.100427 0.542423 0
M  V30 49 C -1.863386 -0.155017 -0.671296 0
M  V30 50 C -0.565938 0.614452 -0.771453 0
M  V30 51 C -0.771341 2.016113 -0.350144 0
M  V30 52 C -0.267332 0.638930 -2.275979 0
M  V30 53 C 0.464353 -0.189771 -0.039941 0 CFG=1
M  V30 54 O 0.278398 -1.525384 -0.493883 0
M  V30 55 O 0.201183 -0.160968 1.347040 0
M  V30 56 H 1.751271 -6.122167 -5.567363 0
M  V30 57 H 3.070731 -6.498687 -4.426729 0
M  V30 58 H 3.508384 -5.771841 -6.009308 0
M  V30 59 H 3.155544 -4.309961 -3.685059 0
M  V30 60 H 1.477997 -4.289472 -4.224191 0
M  V30 61 H 3.825138 -3.256727 -5.912140 0
M  V30 62 H 2.097985 -3.353763 -6.438952 0
M  V30 63 H 3.131420 -2.120463 -3.872555 0
M  V30 64 H 1.446220 -2.083678 -4.416625 0
M  V30 65 H 3.665549 -0.750045 -6.090231 0
M  V30 66 H 1.945302 -0.838662 -6.425022 0
M  V30 67 H 1.283645 0.531630 -4.667337 0
M  V30 68 H 2.474450 1.374555 -5.658775 0
M  V30 69 H 2.937233 2.049768 -3.545383 0
M  V30 70 H 4.278732 0.964196 -4.053079 0
M  V30 71 H 2.496922 -0.803742 -0.076656 0
M  V30 72 H 2.690626 2.689346 -0.431386 0
M  V30 73 H 4.577960 6.180562 1.733807 0
M  V30 74 H 4.421787 4.984687 3.106356 0
M  V30 75 H 3.007115 6.086536 2.634248 0
M  V30 76 H 1.939526 1.153957 2.911028 0
M  V30 77 H 3.255325 0.017373 2.373828 0
M  V30 78 H 1.609090 -1.586539 1.651193 0
M  V30 79 H 0.994443 -2.068025 3.766917 0
M  V30 80 H 1.591413 -0.465028 4.185421 0
M  V30 81 H -0.422323 -0.322209 5.033172 0
M  V30 82 H -2.467416 -1.202237 4.553238 0
M  V30 83 H -1.312241 -2.502427 4.643535 0
M  V30 84 H -3.928941 -3.135696 1.212531 0
M  V30 85 H -4.061894 -4.874584 -0.140765 0
M  V30 86 H -2.294164 -5.267578 0.020391 0
M  V30 87 H -0.750888 -4.318626 -1.611017 0
M  V30 88 H -0.587643 -3.159023 -3.824950 0
M  V30 89 H -2.472996 -1.977203 -4.844378 0
M  V30 90 H -4.631203 -1.965722 -3.583395 0
M  V30 91 H -4.822750 -3.067346 -1.475020 0
M  V30 92 H -1.126999 3.466934 2.660434 0
M  V30 93 H -0.463882 3.902549 4.247962 0
M  V30 94 H -2.569831 3.447836 5.370985 0
M  V30 95 H -2.558469 4.782795 4.234649 0
M  V30 96 H -5.119319 2.125936 5.265329 0
M  V30 97 H -6.294489 0.055149 5.255240 0
M  V30 98 H -6.115005 -1.482921 3.437722 0
M  V30 99 H -4.628624 -0.785361 1.495803 0
M  V30 100 H -1.654214 -1.191634 -0.971923 0
M  V30 101 H -2.541468 0.268293 -1.475410 0
M  V30 102 H -1.609823 2.425409 -0.947467 0
M  V30 103 H 0.084741 2.690948 -0.596818 0
M  V30 104 H -1.047265 2.079250 0.711895 0
M  V30 105 H -1.263556 0.764714 -2.775044 0
M  V30 106 H 0.134916 -0.326046 -2.621744 0
M  V30 107 H 0.305398 1.531421 -2.580486 0
M  V30 108 H 0.862843 -1.646174 -1.268096 0
M  V30 END ATOM
M  V30 BEGIN BOND
M  V30 1 1 1 2
M  V30 2 1 2 3
M  V30 3 1 3 4
M  V30 4 1 4 5
M  V30 5 1 5 6
M  V30 6 1 6 7
M  V30 7 1 7 8
M  V30 8 2 8 9
M  V30 9 1 8 10
M  V30 10 1 10 11
M  V30 11 1 11 12
M  V30 12 2 12 13
M  V30 13 1 13 14
M  V30 14 2 14 15
M  V30 15 1 14 16
M  V30 16 1 16 17
M  V30 17 1 12 18
M  V30 18 1 18 19
M  V30 19 1 19 20
M  V30 20 1 20 21
M  V30 21 1 21 22
M  V30 22 1 22 23
M  V30 23 1 23 24
M  V30 24 2 24 25
M  V30 25 1 24 26
M  V30 26 1 26 27
M  V30 27 1 27 28
M  V30 28 2 28 29
M  V30 29 1 29 30
M  V30 30 2 30 31
M  V30 31 1 31 32
M  V30 32 2 32 33
M  V30 33 1 21 34
M  V30 34 1 34 35
M  V30 35 2 35 36
M  V30 36 1 35 37
M  V30 37 1 37 38
M  V30 38 1 38 39
M  V30 39 1 39 40
M  V30 40 2 40 41
M  V30 41 1 41 42
M  V30 42 2 42 43
M  V30 43 1 43 44
M  V30 44 2 44 45
M  V30 45 1 45 46
M  V30 46 2 46 47
M  V30 47 1 46 48
M  V30 48 1 48 49
M  V30 49 1 49 50
M  V30 50 1 50 51
M  V30 51 1 50 52
M  V30 52 1 50 53
M  V30 53 1 53 54 CFG=3
M  V30 54 1 53 55
M  V30 55 1 53 11
M  V30 56 1 55 19
M  V30 57 1 33 28
M  V30 58 1 45 40
M  V30 59 1 1 56
M  V30 60 1 1 57
M  V30 61 1 1 58
M  V30 62 1 2 59
M  V30 63 1 2 60
M  V30 64 1 3 61
M  V30 65 1 3 62
M  V30 66 1 4 63
M  V30 67 1 4 64
M  V30 68 1 5 65
M  V30 69 1 5 66
M  V30 70 1 6 67
M  V30 71 1 6 68
M  V30 72 1 7 69
M  V30 73 1 7 70
M  V30 74 1 11 71 CFG=1
M  V30 75 1 13 72
M  V30 76 1 17 73
M  V30 77 1 17 74
M  V30 78 1 17 75
M  V30 79 1 18 76
M  V30 80 1 18 77
M  V30 81 1 19 78 CFG=3
M  V30 82 1 20 79
M  V30 83 1 20 80
M  V30 84 1 21 81 CFG=1
M  V30 85 1 22 82
M  V30 86 1 22 83
M  V30 87 1 26 84
M  V30 88 1 27 85
M  V30 89 1 27 86
M  V30 90 1 29 87
M  V30 91 1 30 88
M  V30 92 1 31 89
M  V30 93 1 32 90
M  V30 94 1 33 91
M  V30 95 1 37 92
M  V30 96 1 37 93
M  V30 97 1 38 94
M  V30 98 1 38 95
M  V30 99 1 41 96
M  V30 100 1 42 97
M  V30 101 1 43 98
M  V30 102 1 44 99
M  V30 103 1 49 100
M  V30 104 1 49 101
M  V30 105 1 51 102
M  V30 106 1 51 103
M  V30 107 1 51 104
M  V30 108 1 52 105
M  V30 109 1 52 106
M  V30 110 1 52 107
M  V30 111 1 54 108
M  V30 END BOND
M  V30 END CTAB
M  END
>  <Dataset>  (789) 
ChEMBL_Kinases

>  <Ligand_Instance>  (789) 
nan

>  <PDB_ID>  (789) 
nan

>  <Standardized_SMILES>  (789) 
CCCCCCCC(=O)O[C@H]1/C(=C/C(=O)OC)C[C@H]2C[C@H](COC(=O)NCc3ccccc3)OC(=O)CCOc3ccccc3C(=O)OCC(C)(C)[C@]1(O)O2

>  <Name>  (789) 
nan

>  <Pocket>  (789) 
nan

>  <ATP_Site>  (789) 
nan

>  <Peripheral>  (789) 
nan

>  <Num_H_Atoms_ProtBoundConf>  (789) 
nan

>  <Num_Resolved_Atoms>  (789) 
nan

>  <Num_Not_Resolved_Atoms>  (789) 
nan

$$$$
CHEMBL4575052
     RDKit          3D

  0  0  0  0  0  0  0  0  0  0999 V3000
M  V30 BEGIN CTAB
M  V30 COUNTS 66 70 0 0 0
M  V30 BEGIN ATOM
M  V30 1 O 4.934830 3.326255 3.702827 0
M  V30 2 C 4.243070 2.627703 4.481565 0
M  V30 3 N 4.071097 1.257374 4.246161 0
M  V30 4 C 4.534894 0.376174 3.242868 0
M  V30 5 C 3.939329 0.069030 2.069540 0
M  V30 6 C 4.423206 -0.794975 1.119457 0
M  V30 7 N 3.838771 -1.171069 -0.109616 0
M  V30 8 C 2.501401 -1.174588 -0.572130 0
M  V30 9 C 2.210984 -1.220986 -1.917742 0
M  V30 10 C 0.930605 -1.245148 -2.414633 0
M  V30 11 C -0.141446 -1.225053 -1.557863 0
M  V30 12 C 0.086969 -1.178225 -0.199397 0
M  V30 13 C 1.392313 -1.154633 0.249168 0
M  V30 14 C -0.967070 -1.143890 0.823010 0
M  V30 15 C -1.981900 -2.231541 0.743175 0
M  V30 16 C -2.922889 -2.158422 -0.383686 0
M  V30 17 C -4.210509 -2.570346 -0.063228 0
M  V30 18 C -5.187880 -2.551294 -1.063905 0
M  V30 19 C -4.919538 -2.134776 -2.370369 0
M  V30 20 O -6.070736 -2.239925 -3.076844 0
M  V30 21 C -6.404637 -1.986366 -4.384749 0
M  V30 22 C -5.673094 -2.792101 -5.431164 0 CFG=2
M  V30 23 O -6.129314 -2.455718 -6.729329 0
M  V30 24 C -5.997075 -4.252990 -5.207791 0
M  V30 25 O -7.358895 -4.455508 -5.299297 0
M  V30 26 C -3.632801 -1.741725 -2.621450 0
M  V30 27 C -2.644378 -1.744742 -1.670134 0
M  V30 28 C -1.412370 -1.266402 -2.314272 0
M  V30 29 O -1.402280 -0.888595 -3.497953 0
M  V30 30 C 5.636937 -1.367794 1.461775 0
M  V30 31 C 6.342940 -1.140277 2.620196 0
M  V30 32 C 5.743656 -0.243247 3.500737 0
M  V30 33 F 6.431951 -0.004568 4.661375 0
M  V30 34 C 3.616401 3.256942 5.642064 0
M  V30 35 C 3.873384 4.627447 5.774575 0
M  V30 36 C 3.288547 5.257970 6.877537 0
M  V30 37 C 2.496866 4.647064 7.821080 0
M  V30 38 C 2.284962 3.302674 7.630121 0
M  V30 39 C 2.828909 2.599075 6.561110 0
M  V30 40 H 3.512971 0.607707 4.842290 0
M  V30 41 H 3.001125 0.557327 1.859927 0
M  V30 42 H 4.523490 -1.524112 -0.847221 0
M  V30 43 H 3.006888 -1.241085 -2.639358 0
M  V30 44 H 0.736074 -1.280986 -3.474103 0
M  V30 45 H 1.484123 -1.128265 1.322163 0
M  V30 46 H -1.549692 -0.183648 0.686099 0
M  V30 47 H -0.549429 -1.119758 1.852110 0
M  V30 48 H -2.616162 -2.126376 1.674039 0
M  V30 49 H -1.489951 -3.218920 0.852013 0
M  V30 50 H -4.326245 -2.873377 0.962916 0
M  V30 51 H -6.124541 -2.905775 -0.619490 0
M  V30 52 H -6.248745 -0.888341 -4.603477 0
M  V30 53 H -7.508100 -2.132105 -4.556660 0
M  V30 54 H -4.598314 -2.592321 -5.338430 0
M  V30 55 H -5.752736 -3.145910 -7.346651 0
M  V30 56 H -5.437162 -4.911388 -5.890084 0
M  V30 57 H -5.644473 -4.515914 -4.164881 0
M  V30 58 H -7.752197 -4.725955 -4.431828 0
M  V30 59 H -3.500286 -1.427709 -3.642707 0
M  V30 60 H 6.122563 -2.078219 0.773829 0
M  V30 61 H 7.287537 -1.627104 2.819029 0
M  V30 62 H 4.480000 5.215537 5.096834 0
M  V30 63 H 3.486643 6.332000 6.986631 0
M  V30 64 H 2.095467 5.234961 8.633212 0
M  V30 65 H 1.669279 2.771936 8.344680 0
M  V30 66 H 2.653444 1.540696 6.423564 0
M  V30 END ATOM
M  V30 BEGIN BOND
M  V30 1 2 1 2
M  V30 2 1 2 3
M  V30 3 1 3 4
M  V30 4 2 4 5
M  V30 5 1 5 6
M  V30 6 1 6 7
M  V30 7 1 7 8
M  V30 8 2 8 9
M  V30 9 1 9 10
M  V30 10 2 10 11
M  V30 11 1 11 12
M  V30 12 2 12 13
M  V30 13 1 12 14
M  V30 14 1 14 15
M  V30 15 1 15 16
M  V30 16 2 16 17
M  V30 17 1 17 18
M  V30 18 2 18 19
M  V30 19 1 19 20
M  V30 20 1 20 21
M  V30 21 1 21 22
M  V30 22 1 22 23
M  V30 23 1 22 24
M  V30 24 1 24 25
M  V30 25 1 19 26
M  V30 26 2 26 27
M  V30 27 1 27 28
M  V30 28 2 28 29
M  V30 29 2 6 30
M  V30 30 1 30 31
M  V30 31 2 31 32
M  V30 32 1 32 33
M  V30 33 1 2 34
M  V30 34 2 34 35
M  V30 35 1 35 36
M  V30 36 2 36 37
M  V30 37 1 37 38
M  V30 38 2 38 39
M  V30 39 1 32 4
M  V30 40 1 39 34
M  V30 41 1 13 8
M  V30 42 1 27 16
M  V30 43 1 28 11
M  V30 44 1 3 40
M  V30 45 1 5 41
M  V30 46 1 7 42
M  V30 47 1 9 43
M  V30 48 1 10 44
M  V30 49 1 13 45
M  V30 50 1 14 46
M  V30 51 1 14 47
M  V30 52 1 15 48
M  V30 53 1 15 49
M  V30 54 1 17 50
M  V30 55 1 18 51
M  V30 56 1 21 52
M  V30 57 1 21 53
M  V30 58 1 22 54 CFG=3
M  V30 59 1 23 55
M  V30 60 1 24 56
M  V30 61 1 24 57
M  V30 62 1 25 58
M  V30 63 1 26 59
M  V30 64 1 30 60
M  V30 65 1 31 61
M  V30 66 1 35 62
M  V30 67 1 36 63
M  V30 68 1 37 64
M  V30 69 1 38 65
M  V30 70 1 39 66
M  V30 END BOND
M  V30 END CTAB
M  END
>  <Dataset>  (790) 
ChEMBL_Kinases

>  <Ligand_Instance>  (790) 
nan

>  <PDB_ID>  (790) 
nan

>  <Standardized_SMILES>  (790) 
O=C(Nc1cc(Nc2ccc3c(c2)CCc2ccc(OC[C@H](O)CO)cc2C3=O)ccc1F)c1ccccc1

>  <Name>  (790) 
nan

>  <Pocket>  (790) 
nan

>  <ATP_Site>  (790) 
nan

>  <Peripheral>  (790) 
nan

>  <Num_H_Atoms_ProtBoundConf>  (790) 
nan

>  <Num_Resolved_Atoms>  (790) 
nan

>  <Num_Not_Resolved_Atoms>  (790) 
nan

$$$$
CHEMBL4575045
     RDKit          3D

  0  0  0  0  0  0  0  0  0  0999 V3000
M  V30 BEGIN CTAB
M  V30 COUNTS 39 40 0 0 0
M  V30 BEGIN ATOM
M  V30 1 O 2.789389 -2.100745 3.880402 0
M  V30 2 C 1.602514 -1.701017 3.737539 0
M  V30 3 C 0.509904 -2.087080 2.824782 0
M  V30 4 C 0.850973 -3.176544 1.865893 0
M  V30 5 C 2.000518 -2.834219 0.954857 0
M  V30 6 C 1.662561 -1.598530 0.129666 0
M  V30 7 N 2.706548 -1.213980 -0.761183 0
M  V30 8 C 2.695993 -0.128431 -1.636563 0
M  V30 9 S 3.954370 0.213261 -2.611612 0
M  V30 10 N 1.598154 0.763407 -1.751887 0
M  V30 11 C 0.312528 0.922803 -1.170855 0
M  V30 12 C 0.188235 1.664128 -0.024323 0
M  V30 13 C -0.974271 1.921498 0.667060 0
M  V30 14 C -2.123305 1.348194 0.106509 0
M  V30 15 C -2.039336 0.595502 -1.046415 0
M  V30 16 C -0.842717 0.372122 -1.695501 0
M  V30 17 C -3.413849 0.169061 -1.329328 0
M  V30 18 O -3.768586 -0.542959 -2.306504 0
M  V30 19 N -4.287117 0.674128 -0.343447 0
M  V30 20 C -3.505413 1.417950 0.570808 0
M  V30 21 O -3.881781 2.037883 1.600163 0
M  V30 22 N 1.177951 -0.650124 4.627369 0
M  V30 23 O 1.994537 -0.114516 5.565905 0
M  V30 24 H 0.035554 -1.214227 2.341688 0
M  V30 25 H -0.299855 -2.502849 3.496146 0
M  V30 26 H 1.103212 -4.104832 2.416377 0
M  V30 27 H -0.052754 -3.326053 1.223749 0
M  V30 28 H 2.231846 -3.645404 0.260324 0
M  V30 29 H 2.922562 -2.606945 1.549265 0
M  V30 30 H 1.397569 -0.825080 0.876162 0
M  V30 31 H 0.744754 -1.792157 -0.467052 0
M  V30 32 H 3.571739 -1.828178 -0.741871 0
M  V30 33 H 1.531076 1.582027 -2.377791 0
M  V30 34 H 1.080176 2.109373 0.411374 0
M  V30 35 H -0.998327 2.511604 1.561572 0
M  V30 36 H -0.779617 -0.219224 -2.600774 0
M  V30 37 H -5.321054 0.576761 -0.220593 0
M  V30 38 H 0.224371 -0.180644 4.666273 0
M  V30 39 H 1.987912 0.873233 5.497927 0
M  V30 END ATOM
M  V30 BEGIN BOND
M  V30 1 2 1 2
M  V30 2 1 2 3
M  V30 3 1 3 4
M  V30 4 1 4 5
M  V30 5 1 5 6
M  V30 6 1 6 7
M  V30 7 1 7 8
M  V30 8 2 8 9
M  V30 9 1 8 10
M  V30 10 1 10 11
M  V30 11 2 11 12
M  V30 12 1 12 13
M  V30 13 2 13 14
M  V30 14 1 14 15
M  V30 15 2 15 16
M  V30 16 1 15 17
M  V30 17 2 17 18
M  V30 18 1 17 19
M  V30 19 1 19 20
M  V30 20 2 20 21
M  V30 21 1 2 22
M  V30 22 1 22 23
M  V30 23 1 16 11
M  V30 24 1 20 14
M  V30 25 1 3 24
M  V30 26 1 3 25
M  V30 27 1 4 26
M  V30 28 1 4 27
M  V30 29 1 5 28
M  V30 30 1 5 29
M  V30 31 1 6 30
M  V30 32 1 6 31
M  V30 33 1 7 32
M  V30 34 1 10 33
M  V30 35 1 12 34
M  V30 36 1 13 35
M  V30 37 1 16 36
M  V30 38 1 19 37
M  V30 39 1 22 38
M  V30 40 1 23 39
M  V30 END BOND
M  V30 END CTAB
M  END
>  <Dataset>  (791) 
ChEMBL_Kinases

>  <Ligand_Instance>  (791) 
nan

>  <PDB_ID>  (791) 
nan

>  <Standardized_SMILES>  (791) 
O=C(CCCCNC(=S)Nc1ccc2c(c1)C(=O)NC2=O)NO

>  <Name>  (791) 
nan

>  <Pocket>  (791) 
nan

>  <ATP_Site>  (791) 
nan

>  <Peripheral>  (791) 
nan

>  <Num_H_Atoms_ProtBoundConf>  (791) 
nan

>  <Num_Resolved_Atoms>  (791) 
nan

>  <Num_Not_Resolved_Atoms>  (791) 
nan

$$$$
CHEMBL4575025
     RDKit          3D

  0  0  0  0  0  0  0  0  0  0999 V3000
M  V30 BEGIN CTAB
M  V30 COUNTS 44 48 0 0 0
M  V30 BEGIN ATOM
M  V30 1 O 3.700606 3.233183 1.482118 0
M  V30 2 S 3.108093 2.065455 0.744538 0
M  V30 3 O 2.614095 1.123843 1.835225 0
M  V30 4 C 4.307754 1.295971 -0.178840 0
M  V30 5 C 5.716474 1.417618 -0.512427 0
M  V30 6 C 6.258922 0.509181 -1.358308 0
M  V30 7 C 5.452297 -0.554751 -1.914037 0
M  V30 8 S 3.776283 -0.220440 -1.157109 0
M  V30 9 N 1.814462 2.655786 -0.194412 0
M  V30 10 C 1.089842 1.676156 -0.908165 0
M  V30 11 C 0.364752 0.630176 -0.148312 0
M  V30 12 C -0.363635 1.148889 1.025845 0
M  V30 13 C -0.079579 2.486970 1.276719 0
M  V30 14 S -1.099097 2.922215 2.721210 0
M  V30 15 C -1.826140 1.260337 2.871177 0
M  V30 16 N -2.691477 0.870319 3.763792 0
M  V30 17 C -3.132375 -0.395780 3.747865 0
M  V30 18 N -2.609282 -1.140116 2.777267 0
M  V30 19 C -1.725533 -0.747719 1.863373 0
M  V30 20 N -1.340451 -1.772170 0.967105 0
M  V30 21 C -1.814420 -3.102883 1.030659 0
M  V30 22 C -2.088252 -3.737497 2.242675 0
M  V30 23 C -2.576261 -5.019450 2.362037 0
M  V30 24 C -2.817174 -5.742729 1.224827 0
M  V30 25 C -2.578154 -5.204556 -0.016171 0
M  V30 26 Cl -2.874164 -6.099854 -1.502576 0
M  V30 27 C -2.097426 -3.935030 -0.053358 0
M  V30 28 C -1.253507 0.535017 1.845354 0
M  V30 29 C 0.853633 3.416377 0.579018 0
M  V30 30 H 6.036732 2.281194 0.028247 0
M  V30 31 H 7.307487 0.704852 -1.527637 0
M  V30 32 H 6.038540 -1.228838 -2.597345 0
M  V30 33 H 0.311031 2.232317 -1.515779 0
M  V30 34 H 1.736137 1.200693 -1.673186 0
M  V30 35 H 1.037797 -0.218979 0.062254 0
M  V30 36 H -0.455657 0.209124 -0.819150 0
M  V30 37 H -3.842631 -0.706042 4.483793 0
M  V30 38 H -0.692950 -1.814597 0.156709 0
M  V30 39 H -1.928919 -3.279327 3.207371 0
M  V30 40 H -2.788805 -5.512631 3.284966 0
M  V30 41 H -3.198708 -6.749308 1.270108 0
M  V30 42 H -1.908345 -3.508820 -1.034943 0
M  V30 43 H 0.304465 4.043730 -0.161840 0
M  V30 44 H 1.351427 4.101297 1.296933 0
M  V30 END ATOM
M  V30 BEGIN BOND
M  V30 1 2 1 2
M  V30 2 2 2 3
M  V30 3 1 2 4
M  V30 4 2 4 5
M  V30 5 1 5 6
M  V30 6 2 6 7
M  V30 7 1 7 8
M  V30 8 1 2 9
M  V30 9 1 9 10
M  V30 10 1 10 11
M  V30 11 1 11 12
M  V30 12 2 12 13
M  V30 13 1 13 14
M  V30 14 1 14 15
M  V30 15 2 15 16
M  V30 16 1 16 17
M  V30 17 2 17 18
M  V30 18 1 18 19
M  V30 19 1 19 20
M  V30 20 1 20 21
M  V30 21 2 21 22
M  V30 22 1 22 23
M  V30 23 2 23 24
M  V30 24 1 24 25
M  V30 25 1 25 26
M  V30 26 2 25 27
M  V30 27 2 19 28
M  V30 28 1 13 29
M  V30 29 1 8 4
M  V30 30 1 29 9
M  V30 31 1 28 12
M  V30 32 1 28 15
M  V30 33 1 27 21
M  V30 34 1 5 30
M  V30 35 1 6 31
M  V30 36 1 7 32
M  V30 37 1 10 33
M  V30 38 1 10 34
M  V30 39 1 11 35
M  V30 40 1 11 36
M  V30 41 1 17 37
M  V30 42 1 20 38
M  V30 43 1 22 39
M  V30 44 1 23 40
M  V30 45 1 24 41
M  V30 46 1 27 42
M  V30 47 1 29 43
M  V30 48 1 29 44
M  V30 END BOND
M  V30 END CTAB
M  END
>  <Dataset>  (792) 
ChEMBL_Kinases

>  <Ligand_Instance>  (792) 
nan

>  <PDB_ID>  (792) 
nan

>  <Standardized_SMILES>  (792) 
O=S(=O)(c1cccs1)N1CCc2c(sc3ncnc(Nc4cccc(Cl)c4)c23)C1

>  <Name>  (792) 
nan

>  <Pocket>  (792) 
nan

>  <ATP_Site>  (792) 
nan

>  <Peripheral>  (792) 
nan

>  <Num_H_Atoms_ProtBoundConf>  (792) 
nan

>  <Num_Resolved_Atoms>  (792) 
nan

>  <Num_Not_Resolved_Atoms>  (792) 
nan

$$$$
CHEMBL4634537
     RDKit          3D

  0  0  0  0  0  0  0  0  0  0999 V3000
M  V30 BEGIN CTAB
M  V30 COUNTS 64 67 0 0 0
M  V30 BEGIN ATOM
M  V30 1 C 3.423160 -3.661895 6.777059 0
M  V30 2 C 2.388608 -3.603016 5.651176 0
M  V30 3 O 2.581631 -2.362535 5.003344 0
M  V30 4 C 1.836738 -1.934160 3.914734 0
M  V30 5 O 1.258643 -3.030211 4.051231 0
M  V30 6 C 2.053929 -0.650955 3.263102 0
M  V30 7 C 3.037188 0.121466 3.796889 0
M  V30 8 N 3.218917 1.287257 3.184957 0
M  V30 9 C 2.504414 1.690729 2.126933 0
M  V30 10 C 2.895948 2.937100 1.686784 0
M  V30 11 C 2.215485 3.462224 0.581100 0
M  V30 12 C 1.223283 2.663527 0.056270 0
M  V30 13 C 0.472761 3.159209 -1.093020 0
M  V30 14 C -0.544763 2.438146 -1.682092 0
M  V30 15 C -1.232018 2.943708 -2.774680 0
M  V30 16 C -0.946289 4.180233 -3.332909 0
M  V30 17 O -1.729986 4.531476 -4.420753 0
M  V30 18 N 0.053962 4.869563 -2.740240 0
M  V30 19 C 0.721047 4.380228 -1.680741 0
M  V30 20 N 0.900278 1.450604 0.547728 0
M  V30 21 C 1.517500 0.902703 1.600697 0
M  V30 22 C 1.266363 -0.320556 2.176541 0
M  V30 23 N 0.253944 -1.127787 1.626678 0
M  V30 24 C -0.762935 -1.400307 0.694506 0 CFG=1
M  V30 25 C -1.407736 -2.762809 0.910166 0
M  V30 26 C -2.586415 -3.062780 0.100088 0
M  V30 27 C -3.156546 -2.066434 -0.796387 0 CFG=2
M  V30 28 C -3.154389 -2.369783 -2.258045 0
M  V30 29 N -1.938971 -2.567621 -2.942666 0
M  V30 30 C -2.155619 -2.666874 -4.402883 0
M  V30 31 C -1.073229 -3.625478 -2.540390 0
M  V30 32 C -2.628996 -0.659181 -0.618204 0
M  V30 33 C -1.947393 -0.456852 0.706270 0
M  V30 34 H 3.614779 -2.635659 7.138350 0
M  V30 35 H 3.110746 -4.336610 7.589599 0
M  V30 36 H 4.368116 -4.063829 6.356132 0
M  V30 37 H 2.634335 -4.448458 4.966217 0
M  V30 38 H 1.371547 -3.728558 6.083823 0
M  V30 39 H 3.599798 -0.218301 4.644398 0
M  V30 40 H 3.682054 3.535744 2.124831 0
M  V30 41 H 2.518598 4.427013 0.240683 0
M  V30 42 H -0.716702 1.496986 -1.205162 0
M  V30 43 H -2.012827 2.296846 -3.162605 0
M  V30 44 H -2.741585 4.681921 -4.348004 0
M  V30 45 H 1.488277 5.034175 -1.315204 0
M  V30 46 H 0.236376 -2.000243 2.229044 0
M  V30 47 H -0.292719 -1.452555 -0.314383 0
M  V30 48 H -0.622128 -3.573475 0.835400 0
M  V30 49 H -1.641367 -2.764030 2.015516 0
M  V30 50 H -3.395667 -3.406957 0.853228 0
M  V30 51 H -2.422943 -4.030127 -0.442804 0
M  V30 52 H -4.266511 -1.948813 -0.557402 0
M  V30 53 H -3.764784 -3.328001 -2.367722 0
M  V30 54 H -3.731592 -1.580373 -2.823128 0
M  V30 55 H -1.614984 -1.761787 -4.809648 0
M  V30 56 H -1.601535 -3.547269 -4.743404 0
M  V30 57 H -3.204415 -2.600179 -4.680650 0
M  V30 58 H -0.296343 -3.687817 -3.390873 0
M  V30 59 H -1.534699 -4.630584 -2.484540 0
M  V30 60 H -0.470194 -3.436555 -1.645908 0
M  V30 61 H -1.882044 -0.481408 -1.414070 0
M  V30 62 H -3.408532 0.113211 -0.716563 0
M  V30 63 H -1.705180 0.597445 0.796033 0
M  V30 64 H -2.645922 -0.796070 1.509286 0
M  V30 END ATOM
M  V30 BEGIN BOND
M  V30 1 1 1 2
M  V30 2 1 2 3
M  V30 3 1 3 4
M  V30 4 2 4 5
M  V30 5 1 4 6
M  V30 6 2 6 7
M  V30 7 1 7 8
M  V30 8 2 8 9
M  V30 9 1 9 10
M  V30 10 2 10 11
M  V30 11 1 11 12
M  V30 12 1 12 13
M  V30 13 2 13 14
M  V30 14 1 14 15
M  V30 15 2 15 16
M  V30 16 1 16 17
M  V30 17 1 16 18
M  V30 18 2 18 19
M  V30 19 2 12 20
M  V30 20 1 20 21
M  V30 21 2 21 22
M  V30 22 1 22 23
M  V30 23 1 23 24
M  V30 24 1 24 25
M  V30 25 1 25 26
M  V30 26 1 26 27
M  V30 27 1 27 28
M  V30 28 1 28 29
M  V30 29 1 29 30
M  V30 30 1 29 31
M  V30 31 1 27 32
M  V30 32 1 32 33
M  V30 33 1 22 6
M  V30 34 1 33 24
M  V30 35 1 21 9
M  V30 36 1 19 13
M  V30 37 1 1 34
M  V30 38 1 1 35
M  V30 39 1 1 36
M  V30 40 1 2 37
M  V30 41 1 2 38
M  V30 42 1 7 39
M  V30 43 1 10 40
M  V30 44 1 11 41
M  V30 45 1 14 42
M  V30 46 1 15 43
M  V30 47 1 17 44
M  V30 48 1 19 45
M  V30 49 1 23 46
M  V30 50 1 24 47 CFG=3
M  V30 51 1 25 48
M  V30 52 1 25 49
M  V30 53 1 26 50
M  V30 54 1 26 51
M  V30 55 1 27 52 CFG=1
M  V30 56 1 28 53
M  V30 57 1 28 54
M  V30 58 1 30 55
M  V30 59 1 30 56
M  V30 60 1 30 57
M  V30 61 1 31 58
M  V30 62 1 31 59
M  V30 63 1 31 60
M  V30 64 1 32 61
M  V30 65 1 32 62
M  V30 66 1 33 63
M  V30 67 1 33 64
M  V30 END BOND
M  V30 END CTAB
M  END
>  <Dataset>  (793) 
ChEMBL_Kinases

>  <Ligand_Instance>  (793) 
nan

>  <PDB_ID>  (793) 
nan

>  <Standardized_SMILES>  (793) 
CCOC(=O)c1cnc2ccc(-c3ccc(O)nc3)nc2c1N[C@H]1CC[C@H](CN(C)C)CC1

>  <Name>  (793) 
nan

>  <Pocket>  (793) 
nan

>  <ATP_Site>  (793) 
nan

>  <Peripheral>  (793) 
nan

>  <Num_H_Atoms_ProtBoundConf>  (793) 
nan

>  <Num_Resolved_Atoms>  (793) 
nan

>  <Num_Not_Resolved_Atoms>  (793) 
nan

$$$$
CHEMBL4574890
     RDKit          3D

  0  0  0  0  0  0  0  0  0  0999 V3000
M  V30 BEGIN CTAB
M  V30 COUNTS 27 28 0 0 0
M  V30 BEGIN ATOM
M  V30 1 C 0.705466 -1.339175 3.215566 0
M  V30 2 C 1.788644 -1.030752 2.276208 0
M  V30 3 N 3.092810 -1.099590 2.571688 0
M  V30 4 N 3.794462 -0.756247 1.498123 0
M  V30 5 C 2.935554 -0.459723 0.489595 0
M  V30 6 C 3.178557 -0.052541 -0.816226 0
M  V30 7 C 2.022307 0.153196 -1.547061 0
M  V30 8 N 0.759124 -0.002453 -1.112888 0
M  V30 9 C 0.542136 -0.401944 0.169474 0
M  V30 10 O -0.707970 -0.595317 0.726588 0
M  V30 11 C -1.858782 -0.370760 -0.064922 0
M  V30 12 C -2.589749 0.803396 0.559689 0
M  V30 13 C -2.785909 -1.541814 -0.136452 0
M  V30 14 C 1.649214 -0.626095 0.957251 0
M  V30 15 H 0.546045 -2.447874 3.175550 0
M  V30 16 H 0.985876 -1.124264 4.264209 0
M  V30 17 H -0.218945 -0.779661 3.010164 0
M  V30 18 H 4.841569 -0.725210 1.455704 0
M  V30 19 H 4.149042 0.091742 -1.229823 0
M  V30 20 H 2.068144 0.472072 -2.577726 0
M  V30 21 H -1.562957 -0.054387 -1.073339 0
M  V30 22 H -3.058944 0.397029 1.493071 0
M  V30 23 H -3.399561 1.197554 -0.090066 0
M  V30 24 H -1.898886 1.643175 0.756749 0
M  V30 25 H -3.824753 -1.175712 -0.091162 0
M  V30 26 H -2.695003 -2.079988 -1.110807 0
M  V30 27 H -2.611833 -2.239019 0.709077 0
M  V30 END ATOM
M  V30 BEGIN BOND
M  V30 1 1 1 2
M  V30 2 2 2 3
M  V30 3 1 3 4
M  V30 4 1 4 5
M  V30 5 2 5 6
M  V30 6 1 6 7
M  V30 7 2 7 8
M  V30 8 1 8 9
M  V30 9 1 9 10
M  V30 10 1 10 11
M  V30 11 1 11 12
M  V30 12 1 11 13
M  V30 13 2 9 14
M  V30 14 1 14 2
M  V30 15 1 14 5
M  V30 16 1 1 15
M  V30 17 1 1 16
M  V30 18 1 1 17
M  V30 19 1 4 18
M  V30 20 1 6 19
M  V30 21 1 7 20
M  V30 22 1 11 21
M  V30 23 1 12 22
M  V30 24 1 12 23
M  V30 25 1 12 24
M  V30 26 1 13 25
M  V30 27 1 13 26
M  V30 28 1 13 27
M  V30 END BOND
M  V30 END CTAB
M  END
>  <Dataset>  (794) 
ChEMBL_Kinases

>  <Ligand_Instance>  (794) 
nan

>  <PDB_ID>  (794) 
nan

>  <Standardized_SMILES>  (794) 
Cc1n[nH]c2ccnc(OC(C)C)c12

>  <Name>  (794) 
nan

>  <Pocket>  (794) 
nan

>  <ATP_Site>  (794) 
nan

>  <Peripheral>  (794) 
nan

>  <Num_H_Atoms_ProtBoundConf>  (794) 
nan

>  <Num_Resolved_Atoms>  (794) 
nan

>  <Num_Not_Resolved_Atoms>  (794) 
nan

$$$$
CHEMBL4633993
     RDKit          3D

  0  0  0  0  0  0  0  0  0  0999 V3000
M  V30 BEGIN CTAB
M  V30 COUNTS 50 53 0 0 0
M  V30 BEGIN ATOM
M  V30 1 C -0.706540 0.968586 5.213620 0
M  V30 2 O -0.237659 0.539557 3.982013 0
M  V30 3 C 1.085618 0.863290 3.535683 0
M  V30 4 N 2.208824 1.509714 3.894003 0
M  V30 5 N 3.084121 1.365080 2.889152 0
M  V30 6 C 4.333692 1.993733 3.125213 0
M  V30 7 C 4.371121 3.321903 3.467632 0
M  V30 8 C 5.670016 3.800749 3.666390 0
M  V30 9 C 6.742903 2.918815 3.502079 0
M  V30 10 N 6.634272 1.614350 3.161520 0
M  V30 11 C 5.384519 1.090320 2.954650 0
M  V30 12 C 2.331705 0.609162 2.008203 0
M  V30 13 C 0.947167 0.218548 2.370564 0
M  V30 14 C 0.798010 -0.476596 1.114253 0
M  V30 15 O -0.339121 -0.793105 1.629599 0
M  V30 16 N 1.200408 -0.898857 -0.141871 0
M  V30 17 C 0.413687 -1.716232 -0.967315 0
M  V30 18 C 1.072631 -1.882891 -2.166279 0
M  V30 19 C 0.385049 -2.702226 -3.076684 0
M  V30 20 C -0.837300 -3.296603 -2.819656 0
M  V30 21 C -1.414494 -3.066553 -1.587195 0
M  V30 22 C -2.700397 -3.637607 -1.194159 0
M  V30 23 N -2.610945 -4.821003 -0.569860 0
M  V30 24 N -3.822244 -5.249569 -0.259498 0
M  V30 25 C -4.644976 -4.268345 -0.725926 0
M  V30 26 N -3.967510 -3.257386 -1.310250 0
M  V30 27 C -4.340577 -2.031752 -1.933503 0
M  V30 28 C -3.962201 -0.811227 -1.142621 0
M  V30 29 C -3.899529 -1.930760 -3.382607 0
M  V30 30 N -0.762601 -2.279688 -0.701275 0
M  V30 31 H -0.741251 0.089898 5.905608 0
M  V30 32 H -1.746180 1.361084 5.032334 0
M  V30 33 H -0.104514 1.798618 5.636424 0
M  V30 34 H 3.479059 3.880674 3.560880 0
M  V30 35 H 5.812006 4.828413 3.937786 0
M  V30 36 H 7.771999 3.247072 3.643065 0
M  V30 37 H 5.279052 0.055018 2.684769 0
M  V30 38 H 3.166187 0.560871 1.227989 0
M  V30 39 H 2.123482 -0.467771 -0.229305 0
M  V30 40 H 2.039426 -1.463885 -2.480732 0
M  V30 41 H 0.785650 -2.918672 -4.059718 0
M  V30 42 H -1.338600 -3.918222 -3.540589 0
M  V30 43 H -5.742015 -4.251507 -0.660842 0
M  V30 44 H -5.470272 -2.028858 -1.987454 0
M  V30 45 H -4.843930 -0.246542 -0.758240 0
M  V30 46 H -3.365693 -1.112788 -0.261484 0
M  V30 47 H -3.323743 -0.171708 -1.790550 0
M  V30 48 H -2.927448 -1.394990 -3.429347 0
M  V30 49 H -4.613982 -1.270702 -3.934961 0
M  V30 50 H -3.755358 -2.910849 -3.862243 0
M  V30 END ATOM
M  V30 BEGIN BOND
M  V30 1 1 1 2
M  V30 2 1 2 3
M  V30 3 2 3 4
M  V30 4 1 4 5
M  V30 5 1 5 6
M  V30 6 2 6 7
M  V30 7 1 7 8
M  V30 8 2 8 9
M  V30 9 1 9 10
M  V30 10 2 10 11
M  V30 11 1 5 12
M  V30 12 2 12 13
M  V30 13 1 13 14
M  V30 14 2 14 15
M  V30 15 1 14 16
M  V30 16 1 16 17
M  V30 17 2 17 18
M  V30 18 1 18 19
M  V30 19 2 19 20
M  V30 20 1 20 21
M  V30 21 1 21 22
M  V30 22 2 22 23
M  V30 23 1 23 24
M  V30 24 2 24 25
M  V30 25 1 25 26
M  V30 26 1 26 27
M  V30 27 1 27 28
M  V30 28 1 27 29
M  V30 29 2 21 30
M  V30 30 1 13 3
M  V30 31 1 30 17
M  V30 32 1 11 6
M  V30 33 1 26 22
M  V30 34 1 1 31
M  V30 35 1 1 32
M  V30 36 1 1 33
M  V30 37 1 7 34
M  V30 38 1 8 35
M  V30 39 1 9 36
M  V30 40 1 11 37
M  V30 41 1 12 38
M  V30 42 1 16 39
M  V30 43 1 18 40
M  V30 44 1 19 41
M  V30 45 1 20 42
M  V30 46 1 25 43
M  V30 47 1 27 44
M  V30 48 1 28 45
M  V30 49 1 28 46
M  V30 50 1 28 47
M  V30 51 1 29 48
M  V30 52 1 29 49
M  V30 53 1 29 50
M  V30 END BOND
M  V30 END CTAB
M  END
>  <Dataset>  (795) 
ChEMBL_Kinases

>  <Ligand_Instance>  (795) 
nan

>  <PDB_ID>  (795) 
nan

>  <Standardized_SMILES>  (795) 
COc1nn(-c2cccnc2)cc1C(=O)Nc1cccc(-c2nncn2C(C)C)n1

>  <Name>  (795) 
nan

>  <Pocket>  (795) 
nan

>  <ATP_Site>  (795) 
nan

>  <Peripheral>  (795) 
nan

>  <Num_H_Atoms_ProtBoundConf>  (795) 
nan

>  <Num_Resolved_Atoms>  (795) 
nan

>  <Num_Not_Resolved_Atoms>  (795) 
nan

$$$$
CHEMBL4634064
     RDKit          3D

  0  0  0  0  0  0  0  0  0  0999 V3000
M  V30 BEGIN CTAB
M  V30 COUNTS 44 47 0 0 0
M  V30 BEGIN ATOM
M  V30 1 C 1.746720 -6.149522 -3.970303 0
M  V30 2 C 2.191894 -5.000702 -3.112566 0
M  V30 3 O 1.950137 -4.993234 -1.855388 0
M  V30 4 N 2.882935 -3.858168 -3.531389 0
M  V30 5 C 3.110123 -3.018609 -2.405134 0
M  V30 6 C 4.266237 -3.188329 -1.672158 0
M  V30 7 C 4.638409 -2.465385 -0.557803 0
M  V30 8 C 3.735581 -1.475333 -0.161417 0
M  V30 9 C 2.573126 -1.288171 -0.879765 0
M  V30 10 C 1.591168 -0.253025 -0.482874 0
M  V30 11 C 0.813768 0.392852 -1.429243 0
M  V30 12 C -0.106190 1.354347 -1.057302 0
M  V30 13 C -0.207679 1.633490 0.294115 0
M  V30 14 N -1.004485 2.510665 0.969294 0
M  V30 15 C -0.731613 2.412087 2.281516 0
M  V30 16 N -1.225813 3.061273 3.464638 0
M  V30 17 C -2.330317 2.597719 4.251911 0
M  V30 18 C -2.953276 1.442465 3.826805 0
M  V30 19 C -4.020182 0.994603 4.589676 0
M  V30 20 C -4.491982 1.620154 5.729277 0
M  V30 21 C -3.832343 2.770531 6.108413 0
M  V30 22 C -2.752386 3.264813 5.376170 0
M  V30 23 C -2.069276 4.473839 5.785611 0
M  V30 24 N -1.510234 5.449148 6.102117 0
M  V30 25 N 0.238912 1.464997 2.387591 0
M  V30 26 N 0.562787 0.988760 1.196146 0
M  V30 27 C 1.473566 0.043815 0.879369 0
M  V30 28 C 2.225568 -2.022860 -1.987887 0
M  V30 29 H 1.270393 -6.907781 -3.281467 0
M  V30 30 H 2.554257 -6.622725 -4.526239 0
M  V30 31 H 0.929448 -5.808218 -4.632134 0
M  V30 32 H 3.117189 -3.797335 -4.561156 0
M  V30 33 H 4.965526 -3.974573 -2.000968 0
M  V30 34 H 5.557619 -2.648188 -0.029617 0
M  V30 35 H 3.959812 -0.863529 0.707771 0
M  V30 36 H 0.917510 0.150261 -2.486008 0
M  V30 37 H -0.726702 1.876629 -1.761038 0
M  V30 38 H -0.716952 3.926581 3.733926 0
M  V30 39 H -2.628152 0.907894 2.940040 0
M  V30 40 H -4.544050 0.093071 4.300347 0
M  V30 41 H -5.320744 1.245144 6.295827 0
M  V30 42 H -4.108431 3.345327 6.979314 0
M  V30 43 H 2.073778 -0.451639 1.628154 0
M  V30 44 H 1.332230 -1.903957 -2.568589 0
M  V30 END ATOM
M  V30 BEGIN BOND
M  V30 1 1 1 2
M  V30 2 2 2 3
M  V30 3 1 2 4
M  V30 4 1 4 5
M  V30 5 2 5 6
M  V30 6 1 6 7
M  V30 7 2 7 8
M  V30 8 1 8 9
M  V30 9 1 9 10
M  V30 10 1 10 11
M  V30 11 2 11 12
M  V30 12 1 12 13
M  V30 13 2 13 14
M  V30 14 1 14 15
M  V30 15 1 15 16
M  V30 16 1 16 17
M  V30 17 2 17 18
M  V30 18 1 18 19
M  V30 19 2 19 20
M  V30 20 1 20 21
M  V30 21 2 21 22
M  V30 22 1 22 23
M  V30 23 3 23 24
M  V30 24 2 15 25
M  V30 25 1 25 26
M  V30 26 1 26 27
M  V30 27 2 9 28
M  V30 28 1 28 5
M  V30 29 2 27 10
M  V30 30 1 26 13
M  V30 31 1 22 17
M  V30 32 1 1 29
M  V30 33 1 1 30
M  V30 34 1 1 31
M  V30 35 1 4 32
M  V30 36 1 6 33
M  V30 37 1 7 34
M  V30 38 1 8 35
M  V30 39 1 11 36
M  V30 40 1 12 37
M  V30 41 1 16 38
M  V30 42 1 18 39
M  V30 43 1 19 40
M  V30 44 1 20 41
M  V30 45 1 21 42
M  V30 46 1 27 43
M  V30 47 1 28 44
M  V30 END BOND
M  V30 END CTAB
M  END
>  <Dataset>  (796) 
ChEMBL_Kinases

>  <Ligand_Instance>  (796) 
nan

>  <PDB_ID>  (796) 
nan

>  <Standardized_SMILES>  (796) 
CC(=O)Nc1cccc(-c2ccc3nc(Nc4ccccc4C#N)nn3c2)c1

>  <Name>  (796) 
nan

>  <Pocket>  (796) 
nan

>  <ATP_Site>  (796) 
nan

>  <Peripheral>  (796) 
nan

>  <Num_H_Atoms_ProtBoundConf>  (796) 
nan

>  <Num_Resolved_Atoms>  (796) 
nan

>  <Num_Not_Resolved_Atoms>  (796) 
nan

$$$$
CHEMBL4634128
     RDKit          3D

  0  0  0  0  0  0  0  0  0  0999 V3000
M  V30 BEGIN CTAB
M  V30 COUNTS 65 70 0 0 0
M  V30 BEGIN ATOM
M  V30 1 C 6.299316 -0.493772 4.169673 0
M  V30 2 C 5.912487 0.794243 3.493604 0
M  V30 3 O 6.888410 1.283344 2.642707 0
M  V30 4 C 4.704677 0.632581 2.665197 0
M  V30 5 C 3.714142 0.488788 1.981285 0
M  V30 6 C 2.546824 0.297675 1.162915 0
M  V30 7 C 2.524572 0.799796 -0.121464 0
M  V30 8 C 1.359826 0.573164 -0.850015 0
M  V30 9 C 0.298876 -0.117361 -0.299384 0
M  V30 10 N -0.803431 -0.252038 -1.187144 0
M  V30 11 C -2.110594 0.253607 -0.901781 0
M  V30 12 C -2.519432 1.310392 -1.923963 0
M  V30 13 N -2.477826 0.760837 -3.226228 0
M  V30 14 S -3.931403 0.249268 -3.913323 0
M  V30 15 O -3.670499 -0.151540 -5.337891 0
M  V30 16 O -4.880838 1.435329 -3.964045 0
M  V30 17 C -4.739922 -1.041185 -3.032184 0
M  V30 18 C -4.541288 -2.461627 -3.395744 0
M  V30 19 C -5.803006 -1.813088 -3.839678 0
M  V30 20 C -1.308196 0.014912 -3.577248 0
M  V30 21 C -0.817299 -0.888581 -2.481469 0
M  V30 22 C 0.343886 -0.608770 0.983498 0
M  V30 23 N -0.785017 -1.306899 1.484913 0
M  V30 24 C -1.422781 -2.493967 1.033348 0
M  V30 25 N -0.956100 -3.141438 -0.032717 0
M  V30 26 C -1.546789 -4.265804 -0.472772 0
M  V30 27 N -2.636586 -4.728228 0.199199 0
M  V30 28 C -3.119803 -4.069719 1.292125 0
M  V30 29 N -4.160948 -4.366351 2.067607 0
M  V30 30 C -4.246067 -3.423036 3.021589 0
M  V30 31 C -3.231558 -2.479021 2.868840 0
M  V30 32 C -2.518842 -2.903817 1.760083 0
M  V30 33 C 1.501184 -0.395442 1.737271 0
M  V30 34 C 5.675320 1.900706 4.525795 0
M  V30 35 N 5.382818 2.985085 4.525920 0
M  V30 36 C 5.221285 3.808993 5.548260 0
M  V30 37 C 5.436387 3.288292 6.804815 0
M  V30 38 S 5.891925 1.502094 6.362904 0
M  V30 39 H 7.384039 -0.613047 4.296597 0
M  V30 40 H 5.763670 -0.536263 5.144315 0
M  V30 41 H 5.861737 -1.321301 3.552772 0
M  V30 42 H 7.305988 0.525074 2.137973 0
M  V30 43 H 3.353250 1.331026 -0.531045 0
M  V30 44 H 1.378718 0.985810 -1.864212 0
M  V30 45 H -2.855368 -0.549799 -0.983261 0
M  V30 46 H -2.165140 0.786546 0.079934 0
M  V30 47 H -3.536303 1.665674 -1.718087 0
M  V30 48 H -1.758971 2.112069 -1.827240 0
M  V30 49 H -5.026165 -0.824490 -1.992611 0
M  V30 50 H -3.853594 -2.800007 -4.186142 0
M  V30 51 H -4.647360 -3.211798 -2.585087 0
M  V30 52 H -5.917350 -1.600924 -4.910351 0
M  V30 53 H -6.765609 -2.051533 -3.350390 0
M  V30 54 H -1.565517 -0.580929 -4.476882 0
M  V30 55 H -0.529655 0.737907 -3.899922 0
M  V30 56 H -1.428683 -1.810302 -2.444760 0
M  V30 57 H 0.218816 -1.192639 -2.723019 0
M  V30 58 H -1.090491 -0.750189 2.311812 0
M  V30 59 H -1.244338 -4.854788 -1.319750 0
M  V30 60 H -4.857229 -5.143387 2.053805 0
M  V30 61 H -4.958024 -3.302571 3.849523 0
M  V30 62 H -2.976939 -1.593889 3.426953 0
M  V30 63 H 1.516183 -0.790516 2.745152 0
M  V30 64 H 4.927612 4.848621 5.327911 0
M  V30 65 H 5.311949 3.950418 7.716307 0
M  V30 END ATOM
M  V30 BEGIN BOND
M  V30 1 1 1 2
M  V30 2 1 2 3
M  V30 3 1 2 4
M  V30 4 3 4 5
M  V30 5 1 5 6
M  V30 6 2 6 7
M  V30 7 1 7 8
M  V30 8 2 8 9
M  V30 9 1 9 10
M  V30 10 1 10 11
M  V30 11 1 11 12
M  V30 12 1 12 13
M  V30 13 1 13 14
M  V30 14 2 14 15
M  V30 15 2 14 16
M  V30 16 1 14 17
M  V30 17 1 17 18
M  V30 18 1 18 19
M  V30 19 1 13 20
M  V30 20 1 20 21
M  V30 21 1 9 22
M  V30 22 1 22 23
M  V30 23 1 23 24
M  V30 24 2 24 25
M  V30 25 1 25 26
M  V30 26 2 26 27
M  V30 27 1 27 28
M  V30 28 1 28 29
M  V30 29 1 29 30
M  V30 30 2 30 31
M  V30 31 1 31 32
M  V30 32 2 22 33
M  V30 33 1 2 34
M  V30 34 2 34 35
M  V30 35 1 35 36
M  V30 36 2 36 37
M  V30 37 1 37 38
M  V30 38 1 33 6
M  V30 39 1 38 34
M  V30 40 1 21 10
M  V30 41 1 32 24
M  V30 42 1 19 17
M  V30 43 2 32 28
M  V30 44 1 1 39
M  V30 45 1 1 40
M  V30 46 1 1 41
M  V30 47 1 3 42
M  V30 48 1 7 43
M  V30 49 1 8 44
M  V30 50 1 11 45
M  V30 51 1 11 46
M  V30 52 1 12 47
M  V30 53 1 12 48
M  V30 54 1 17 49
M  V30 55 1 18 50
M  V30 56 1 18 51
M  V30 57 1 19 52
M  V30 58 1 19 53
M  V30 59 1 20 54
M  V30 60 1 20 55
M  V30 61 1 21 56
M  V30 62 1 21 57
M  V30 63 1 23 58
M  V30 64 1 26 59
M  V30 65 1 29 60
M  V30 66 1 30 61
M  V30 67 1 31 62
M  V30 68 1 33 63
M  V30 69 1 36 64
M  V30 70 1 37 65
M  V30 END BOND
M  V30 END CTAB
M  END
>  <Dataset>  (797) 
ChEMBL_Kinases

>  <Ligand_Instance>  (797) 
nan

>  <PDB_ID>  (797) 
nan

>  <Standardized_SMILES>  (797) 
CC(O)(C#Cc1ccc(N2CCN(S(=O)(=O)C3CC3)CC2)c(Nc2ncnc3[nH]ccc23)c1)c1nccs1

>  <Name>  (797) 
nan

>  <Pocket>  (797) 
nan

>  <ATP_Site>  (797) 
nan

>  <Peripheral>  (797) 
nan

>  <Num_H_Atoms_ProtBoundConf>  (797) 
nan

>  <Num_Resolved_Atoms>  (797) 
nan

>  <Num_Not_Resolved_Atoms>  (797) 
nan

$$$$
CHEMBL4574675
     RDKit          3D

  0  0  0  0  0  0  0  0  0  0999 V3000
M  V30 BEGIN CTAB
M  V30 COUNTS 39 41 0 0 0
M  V30 BEGIN ATOM
M  V30 1 C 1.202798 -1.931934 3.642095 0
M  V30 2 C 0.545993 -2.857483 2.657415 0
M  V30 3 C 1.525510 -3.942186 2.261735 0
M  V30 4 N -0.075771 -2.208290 1.536366 0
M  V30 5 C -0.579691 -3.314928 0.708722 0
M  V30 6 C -0.274325 -0.836977 1.135616 0
M  V30 7 C 0.353826 -0.378824 -0.031378 0
M  V30 8 C 0.236693 0.915763 -0.492218 0
M  V30 9 C 0.897961 1.378571 -1.710809 0
M  V30 10 C 1.694633 0.598280 -2.521502 0
M  V30 11 C 2.304714 1.064626 -3.664955 0
M  V30 12 N 2.130829 2.346593 -4.034125 0
M  V30 13 C 1.360755 3.144305 -3.271869 0
M  V30 14 C 0.731611 2.689784 -2.105647 0
M  V30 15 N -0.524095 1.760567 0.232932 0
M  V30 16 C -1.152004 1.382227 1.359816 0
M  V30 17 C -1.919175 2.297238 2.053615 0
M  V30 18 N -2.546628 1.883388 3.190550 0
M  V30 19 C -2.423731 0.617347 3.627779 0
M  V30 20 C -1.665085 -0.324412 2.959926 0
M  V30 21 C -1.034580 0.088500 1.819610 0
M  V30 22 H 0.573139 -1.755261 4.537994 0
M  V30 23 H 1.460370 -0.935192 3.234841 0
M  V30 24 H 2.152073 -2.370213 4.017892 0
M  V30 25 H -0.278514 -3.379546 3.227570 0
M  V30 26 H 1.004775 -4.886648 1.945120 0
M  V30 27 H 2.249288 -3.584240 1.501744 0
M  V30 28 H 2.117915 -4.209358 3.159978 0
M  V30 29 H 0.321399 -3.859942 0.320034 0
M  V30 30 H -1.283932 -3.960491 1.254434 0
M  V30 31 H -1.030410 -2.847758 -0.187850 0
M  V30 32 H 0.943688 -1.101307 -0.560569 0
M  V30 33 H 1.850601 -0.435080 -2.247589 0
M  V30 34 H 2.925763 0.410921 -4.274553 0
M  V30 35 H 1.238680 4.177342 -3.596413 0
M  V30 36 H 0.126159 3.354427 -1.524695 0
M  V30 37 H -2.030405 3.323710 1.716235 0
M  V30 38 H -2.953928 0.380653 4.532854 0
M  V30 39 H -1.589934 -1.334977 3.335411 0
M  V30 END ATOM
M  V30 BEGIN BOND
M  V30 1 1 1 2
M  V30 2 1 2 3
M  V30 3 1 2 4
M  V30 4 1 4 5
M  V30 5 1 4 6
M  V30 6 2 6 7
M  V30 7 1 7 8
M  V30 8 1 8 9
M  V30 9 2 9 10
M  V30 10 1 10 11
M  V30 11 2 11 12
M  V30 12 1 12 13
M  V30 13 2 13 14
M  V30 14 2 8 15
M  V30 15 1 15 16
M  V30 16 2 16 17
M  V30 17 1 17 18
M  V30 18 2 18 19
M  V30 19 1 19 20
M  V30 20 2 20 21
M  V30 21 1 21 6
M  V30 22 1 14 9
M  V30 23 1 21 16
M  V30 24 1 1 22
M  V30 25 1 1 23
M  V30 26 1 1 24
M  V30 27 1 2 25
M  V30 28 1 3 26
M  V30 29 1 3 27
M  V30 30 1 3 28
M  V30 31 1 5 29
M  V30 32 1 5 30
M  V30 33 1 5 31
M  V30 34 1 7 32
M  V30 35 1 10 33
M  V30 36 1 11 34
M  V30 37 1 13 35
M  V30 38 1 14 36
M  V30 39 1 17 37
M  V30 40 1 19 38
M  V30 41 1 20 39
M  V30 END BOND
M  V30 END CTAB
M  END
>  <Dataset>  (798) 
ChEMBL_Kinases

>  <Ligand_Instance>  (798) 
nan

>  <PDB_ID>  (798) 
nan

>  <Standardized_SMILES>  (798) 
CC(C)N(C)c1cc(-c2ccncc2)nc2cnccc12

>  <Name>  (798) 
nan

>  <Pocket>  (798) 
nan

>  <ATP_Site>  (798) 
nan

>  <Peripheral>  (798) 
nan

>  <Num_H_Atoms_ProtBoundConf>  (798) 
nan

>  <Num_Resolved_Atoms>  (798) 
nan

>  <Num_Not_Resolved_Atoms>  (798) 
nan

$$$$
CHEMBL4634207
     RDKit          3D

  0  0  0  0  0  0  0  0  0  0999 V3000
M  V30 BEGIN CTAB
M  V30 COUNTS 67 72 0 0 0
M  V30 BEGIN ATOM
M  V30 1 C 6.124906 1.065118 5.064609 0
M  V30 2 C 4.691681 0.626769 4.773089 0
M  V30 3 O 4.072650 0.076794 5.913825 0
M  V30 4 C 3.869513 1.621187 4.032675 0
M  V30 5 N 4.032231 0.884358 2.803188 0
M  V30 6 C 3.897344 0.883164 1.391864 0
M  V30 7 O 4.149843 -0.005415 0.515383 0
M  V30 8 C 3.433365 1.861374 0.421364 0
M  V30 9 C 2.099669 1.927839 0.071967 0
M  V30 10 C 1.529166 2.803246 -0.830371 0
M  V30 11 N 0.136971 2.791873 -1.117706 0
M  V30 12 C -0.674248 1.904442 -0.322921 0
M  V30 13 C -0.982184 0.575095 -0.477223 0
M  V30 14 C -1.802221 -0.031342 0.448366 0
M  V30 15 O -2.061153 -1.372266 0.218298 0
M  V30 16 C -3.127264 -1.774167 -0.572599 0
M  V30 17 C -4.147488 -1.204073 -1.305392 0
M  V30 18 N -4.881268 -2.205970 -1.868310 0
M  V30 19 C -6.022680 -1.863917 -2.696145 0
M  V30 20 C -5.633645 -0.900740 -3.832539 0
M  V30 21 C -6.098953 -2.297780 -4.106692 0
M  V30 22 N -4.357208 -3.344427 -1.513263 0
M  V30 23 C -3.272423 -3.152753 -0.713812 0
M  V30 24 C -2.508769 -4.305021 -0.180657 0
M  V30 25 C -1.368663 -4.731127 -1.071688 0
M  V30 26 C -0.767218 -5.982138 -0.434680 0
M  V30 27 O -1.352496 -6.308489 0.767113 0
M  V30 28 C -1.366187 -5.306804 1.707271 0
M  V30 29 C -1.873058 -3.975228 1.173156 0
M  V30 30 C -2.307526 0.691548 1.518362 0
M  V30 31 C -1.972462 2.033972 1.639225 0
M  V30 32 N -1.160419 2.612147 0.712713 0
M  V30 33 C 2.417489 3.680640 -1.416604 0
M  V30 34 C 3.769765 3.700716 -1.139770 0
M  V30 35 C 4.271746 2.781765 -0.213917 0
M  V30 36 F 5.593813 2.754249 0.100935 0
M  V30 37 C 4.527200 -0.236027 3.549194 0
M  V30 38 H 6.759648 0.912411 4.174061 0
M  V30 39 H 6.501028 0.418368 5.888598 0
M  V30 40 H 6.143649 2.125606 5.385517 0
M  V30 41 H 4.150769 -0.922312 5.788606 0
M  V30 42 H 4.273851 2.654800 4.006907 0
M  V30 43 H 2.800857 1.611706 4.351083 0
M  V30 44 H 1.421714 1.220152 0.554651 0
M  V30 45 H -0.177821 3.432729 -1.884665 0
M  V30 46 H -0.509579 0.165404 -1.357371 0
M  V30 47 H -4.179585 -0.111483 -1.301575 0
M  V30 48 H -6.954595 -1.629179 -2.151880 0
M  V30 49 H -4.575369 -0.717689 -4.044076 0
M  V30 50 H -6.303378 -0.036157 -3.988563 0
M  V30 51 H -5.390047 -3.023284 -4.543687 0
M  V30 52 H -7.112454 -2.345071 -4.552327 0
M  V30 53 H -3.161555 -5.173398 -0.015871 0
M  V30 54 H -1.653739 -4.885904 -2.127751 0
M  V30 55 H -0.581189 -3.931782 -0.960990 0
M  V30 56 H -1.000770 -6.815740 -1.151178 0
M  V30 57 H 0.346079 -5.921380 -0.401148 0
M  V30 58 H -0.397557 -5.205278 2.235378 0
M  V30 59 H -2.088784 -5.615365 2.509071 0
M  V30 60 H -2.553751 -3.458145 1.854150 0
M  V30 61 H -0.958712 -3.365875 0.980755 0
M  V30 62 H -2.949072 0.136179 2.204949 0
M  V30 63 H -2.396020 2.567434 2.500096 0
M  V30 64 H 2.050681 4.409921 -2.146557 0
M  V30 65 H 4.423424 4.412688 -1.631330 0
M  V30 66 H 5.480502 -0.687719 3.196268 0
M  V30 67 H 3.722720 -1.000463 3.725345 0
M  V30 END ATOM
M  V30 BEGIN BOND
M  V30 1 1 1 2
M  V30 2 1 2 3
M  V30 3 1 2 4
M  V30 4 1 4 5
M  V30 5 1 5 6
M  V30 6 2 6 7
M  V30 7 1 6 8
M  V30 8 2 8 9
M  V30 9 1 9 10
M  V30 10 1 10 11
M  V30 11 1 11 12
M  V30 12 2 12 13
M  V30 13 1 13 14
M  V30 14 1 14 15
M  V30 15 1 15 16
M  V30 16 2 16 17
M  V30 17 1 17 18
M  V30 18 1 18 19
M  V30 19 1 19 20
M  V30 20 1 20 21
M  V30 21 1 18 22
M  V30 22 2 22 23
M  V30 23 1 23 24
M  V30 24 1 24 25
M  V30 25 1 25 26
M  V30 26 1 26 27
M  V30 27 1 27 28
M  V30 28 1 28 29
M  V30 29 2 14 30
M  V30 30 1 30 31
M  V30 31 2 31 32
M  V30 32 2 10 33
M  V30 33 1 33 34
M  V30 34 2 34 35
M  V30 35 1 35 36
M  V30 36 1 5 37
M  V30 37 1 37 2
M  V30 38 1 35 8
M  V30 39 1 32 12
M  V30 40 1 23 16
M  V30 41 1 29 24
M  V30 42 1 21 19
M  V30 43 1 1 38
M  V30 44 1 1 39
M  V30 45 1 1 40
M  V30 46 1 3 41
M  V30 47 1 4 42
M  V30 48 1 4 43
M  V30 49 1 9 44
M  V30 50 1 11 45
M  V30 51 1 13 46
M  V30 52 1 17 47
M  V30 53 1 19 48
M  V30 54 1 20 49
M  V30 55 1 20 50
M  V30 56 1 21 51
M  V30 57 1 21 52
M  V30 58 1 24 53
M  V30 59 1 25 54
M  V30 60 1 25 55
M  V30 61 1 26 56
M  V30 62 1 26 57
M  V30 63 1 28 58
M  V30 64 1 28 59
M  V30 65 1 29 60
M  V30 66 1 29 61
M  V30 67 1 30 62
M  V30 68 1 31 63
M  V30 69 1 33 64
M  V30 70 1 34 65
M  V30 71 1 37 66
M  V30 72 1 37 67
M  V30 END BOND
M  V30 END CTAB
M  END
>  <Dataset>  (799) 
ChEMBL_Kinases

>  <Ligand_Instance>  (799) 
nan

>  <PDB_ID>  (799) 
nan

>  <Standardized_SMILES>  (799) 
CC1(O)CN(C(=O)c2cc(Nc3cc(Oc4cn(C5CC5)nc4C4CCOCC4)ccn3)ccc2F)C1

>  <Name>  (799) 
nan

>  <Pocket>  (799) 
nan

>  <ATP_Site>  (799) 
nan

>  <Peripheral>  (799) 
nan

>  <Num_H_Atoms_ProtBoundConf>  (799) 
nan

>  <Num_Resolved_Atoms>  (799) 
nan

>  <Num_Not_Resolved_Atoms>  (799) 
nan

$$$$
CHEMBL4574492
     RDKit          3D

  0  0  0  0  0  0  0  0  0  0999 V3000
M  V30 BEGIN CTAB
M  V30 COUNTS 51 54 0 0 0
M  V30 BEGIN ATOM
M  V30 1 C 4.656861 -3.318653 -2.807882 0
M  V30 2 N 5.492175 -2.818415 -1.729035 0
M  V30 3 N 6.770747 -3.221360 -1.679302 0
M  V30 4 C 7.356913 -2.633167 -0.597210 0
M  V30 5 C 6.363191 -1.860080 -0.005552 0
M  V30 6 Cl 6.437726 -0.837736 1.430673 0
M  V30 7 C 5.181788 -1.977254 -0.722360 0
M  V30 8 C 3.900662 -1.373143 -0.497625 0
M  V30 9 C 3.398427 -1.367510 0.788819 0
M  V30 10 C 2.178150 -0.817374 1.133853 0
M  V30 11 C 1.412861 -0.238958 0.140414 0
M  V30 12 C 0.103939 0.390296 0.307596 0
M  V30 13 O -0.570231 0.914149 -0.643494 0
M  V30 14 N -0.501552 0.449747 1.587699 0
M  V30 15 C -1.787486 1.070238 1.739976 0 CFG=2
M  V30 16 C -1.623907 2.262889 2.658757 0
M  V30 17 N -1.841110 1.780034 4.014353 0
M  V30 18 C -3.281882 1.720131 4.179372 0
M  V30 19 C -3.869260 0.916612 3.060888 0
M  V30 20 C -2.793546 0.135988 2.338300 0 CFG=1
M  V30 21 C -3.481100 -0.644419 1.250463 0
M  V30 22 C -4.098844 0.066338 0.226266 0
M  V30 23 C -4.740492 -0.621115 -0.790356 0
M  V30 24 C -4.758514 -1.998539 -0.773944 0
M  V30 25 F -5.372990 -2.704283 -1.745954 0
M  V30 26 C -4.154459 -2.728854 0.228727 0
M  V30 27 F -4.151745 -4.082092 0.277922 0
M  V30 28 C -3.525841 -2.005441 1.223055 0
M  V30 29 C 1.904688 -0.234960 -1.168692 0
M  V30 30 C 3.127054 -0.790544 -1.490952 0
M  V30 31 H 4.787234 -4.434077 -2.915151 0
M  V30 32 H 4.911631 -2.911613 -3.786876 0
M  V30 33 H 3.563675 -3.210104 -2.550309 0
M  V30 34 H 8.343817 -2.648554 -0.153653 0
M  V30 35 H 3.969200 -1.808982 1.581936 0
M  V30 36 H 1.759447 -0.795590 2.117778 0
M  V30 37 H -0.061743 0.061352 2.450405 0
M  V30 38 H -2.199240 1.460967 0.789701 0
M  V30 39 H -2.390489 3.033654 2.393831 0
M  V30 40 H -0.598127 2.636756 2.546846 0
M  V30 41 H -1.418503 0.839735 4.147118 0
M  V30 42 H -3.594840 1.394489 5.181372 0
M  V30 43 H -3.628820 2.780493 4.006653 0
M  V30 44 H -4.443842 1.509732 2.320660 0
M  V30 45 H -4.589534 0.203468 3.531371 0
M  V30 46 H -2.366045 -0.600141 3.056071 0
M  V30 47 H -4.117375 1.153206 0.160264 0
M  V30 48 H -5.233549 -0.093516 -1.606530 0
M  V30 49 H -3.045677 -2.542736 2.018638 0
M  V30 50 H 1.347316 0.207014 -1.999506 0
M  V30 51 H 3.520945 -0.794785 -2.500733 0
M  V30 END ATOM
M  V30 BEGIN BOND
M  V30 1 1 1 2
M  V30 2 1 2 3
M  V30 3 2 3 4
M  V30 4 1 4 5
M  V30 5 1 5 6
M  V30 6 2 5 7
M  V30 7 1 7 8
M  V30 8 2 8 9
M  V30 9 1 9 10
M  V30 10 2 10 11
M  V30 11 1 11 12
M  V30 12 2 12 13
M  V30 13 1 12 14
M  V30 14 1 14 15
M  V30 15 1 15 16
M  V30 16 1 16 17
M  V30 17 1 17 18
M  V30 18 1 18 19
M  V30 19 1 19 20
M  V30 20 1 20 21
M  V30 21 2 21 22
M  V30 22 1 22 23
M  V30 23 2 23 24
M  V30 24 1 24 25
M  V30 25 1 24 26
M  V30 26 1 26 27
M  V30 27 2 26 28
M  V30 28 1 11 29
M  V30 29 2 29 30
M  V30 30 1 7 2
M  V30 31 1 30 8
M  V30 32 1 20 15
M  V30 33 1 28 21
M  V30 34 1 1 31
M  V30 35 1 1 32
M  V30 36 1 1 33
M  V30 37 1 4 34
M  V30 38 1 9 35
M  V30 39 1 10 36
M  V30 40 1 14 37
M  V30 41 1 15 38 CFG=3
M  V30 42 1 16 39
M  V30 43 1 16 40
M  V30 44 1 17 41
M  V30 45 1 18 42
M  V30 46 1 18 43
M  V30 47 1 19 44
M  V30 48 1 19 45
M  V30 49 1 20 46 CFG=1
M  V30 50 1 22 47
M  V30 51 1 23 48
M  V30 52 1 28 49
M  V30 53 1 29 50
M  V30 54 1 30 51
M  V30 END BOND
M  V30 END CTAB
M  END
>  <Dataset>  (800) 
ChEMBL_Kinases

>  <Ligand_Instance>  (800) 
nan

>  <PDB_ID>  (800) 
nan

>  <Standardized_SMILES>  (800) 
Cn1ncc(Cl)c1-c1ccc(C(=O)N[C@@H]2CNCC[C@H]2c2ccc(F)c(F)c2)cc1

>  <Name>  (800) 
nan

>  <Pocket>  (800) 
nan

>  <ATP_Site>  (800) 
nan

>  <Peripheral>  (800) 
nan

>  <Num_H_Atoms_ProtBoundConf>  (800) 
nan

>  <Num_Resolved_Atoms>  (800) 
nan

>  <Num_Not_Resolved_Atoms>  (800) 
nan

$$$$
CHEMBL4574406
     RDKit          3D

  0  0  0  0  0  0  0  0  0  0999 V3000
M  V30 BEGIN CTAB
M  V30 COUNTS 111 114 0 0 0
M  V30 BEGIN ATOM
M  V30 1 C 0.265296 1.020321 -9.164143 0
M  V30 2 C -0.836263 1.958998 -8.800085 0
M  V30 3 C -0.957460 2.020037 -7.254923 0
M  V30 4 C -2.048504 2.963390 -6.922540 0
M  V30 5 C -2.380001 3.168029 -5.509911 0
M  V30 6 C -1.412748 3.722233 -4.559470 0
M  V30 7 C -0.152435 3.001255 -4.248098 0
M  V30 8 C -0.377638 1.642658 -3.666244 0
M  V30 9 O -1.500568 1.150520 -3.399438 0
M  V30 10 O 0.689368 0.801344 -3.370031 0
M  V30 11 C 0.548116 -0.484395 -2.813622 0 CFG=1
M  V30 12 C 0.829211 -1.568081 -3.821289 0
M  V30 13 C 0.652008 -1.445838 -5.107086 0
M  V30 14 C 0.907055 -2.455339 -6.105981 0
M  V30 15 O 0.712612 -2.268213 -7.334048 0
M  V30 16 O 1.370131 -3.737197 -6.029336 0
M  V30 17 C 1.556045 -4.585493 -7.144573 0
M  V30 18 C 1.342116 -2.908216 -3.411149 0
M  V30 19 C 1.607380 -2.963437 -1.936938 0 CFG=1
M  V30 20 C 2.623636 -4.031512 -1.669955 0
M  V30 21 C 2.121432 -5.254184 -0.989042 0 CFG=2
M  V30 22 C 1.012145 -5.973652 -1.760913 0
M  V30 23 O -0.187968 -5.322375 -1.760091 0
M  V30 24 O 1.722358 -5.074772 0.348520 0
M  V30 25 C 2.221578 -5.773631 1.430223 0
M  V30 26 O 3.096734 -6.608528 1.006820 0
M  V30 27 C 2.189854 -5.983753 2.868248 0
M  V30 28 C 1.278715 -5.010204 3.577788 0
M  V30 29 O 1.666764 -3.677419 3.383778 0
M  V30 30 C 0.981390 -2.644368 3.992803 0
M  V30 31 C 0.159444 -2.949269 5.076325 0
M  V30 32 C -0.557497 -1.998175 5.753292 0
M  V30 33 C -0.520367 -0.663570 5.414828 0
M  V30 34 C -1.234078 0.416558 6.064091 0
M  V30 35 C -0.652524 1.660615 6.075956 0
M  V30 36 C -1.274577 2.734506 6.676665 0
M  V30 37 C -2.521242 2.591210 7.294854 0
M  V30 38 O -2.991410 3.762435 7.840118 0
M  V30 39 C -4.202973 3.922667 8.525479 0
M  V30 40 C -5.091492 4.949129 7.850198 0
M  V30 41 C -3.953938 4.451736 9.943631 0
M  V30 42 C -3.084840 1.340107 7.271714 0
M  V30 43 C -2.477119 0.252496 6.675087 0
M  V30 44 C 0.313260 -0.395814 4.324817 0
M  V30 45 C 1.053602 -1.324599 3.610303 0
M  V30 46 C 1.804356 -0.750386 2.518042 0
M  V30 47 O 2.846833 -0.621090 3.175273 0
M  V30 48 O 1.526860 -0.433310 1.203407 0
M  V30 49 C 2.540401 0.132745 0.363617 0
M  V30 50 C 1.958364 0.496774 -0.978831 0
M  V30 51 C 3.106033 0.993432 -1.813372 0
M  V30 52 C 0.996163 1.662730 -0.727582 0
M  V30 53 C 1.228400 -0.696312 -1.522676 0 CFG=1
M  V30 54 O 0.196102 -0.896118 -0.556997 0
M  V30 55 O 2.011688 -1.799980 -1.372529 0
M  V30 56 H 0.173289 0.578525 -10.183569 0
M  V30 57 H 0.349067 0.216879 -8.412954 0
M  V30 58 H 1.251709 1.567291 -9.108489 0
M  V30 59 H -0.579634 3.005853 -9.090415 0
M  V30 60 H -1.814295 1.680450 -9.241087 0
M  V30 61 H 0.010991 2.339527 -6.865608 0
M  V30 62 H -1.188635 1.017574 -6.860298 0
M  V30 63 H -2.969123 2.628611 -7.490240 0
M  V30 64 H -1.826406 3.983181 -7.376695 0
M  V30 65 H -2.696295 2.151046 -5.087005 0
M  V30 66 H -3.384766 3.726394 -5.438808 0
M  V30 67 H -2.001076 3.887658 -3.582442 0
M  V30 68 H -1.144294 4.810174 -4.803999 0
M  V30 69 H 0.243925 3.576487 -3.306890 0
M  V30 70 H 0.681336 3.082925 -4.925446 0
M  V30 71 H -0.566450 -0.605933 -2.658212 0
M  V30 72 H 0.273854 -0.488919 -5.472628 0
M  V30 73 H 1.755692 -5.613115 -6.717713 0
M  V30 74 H 0.595201 -4.690042 -7.709528 0
M  V30 75 H 2.404054 -4.315866 -7.788541 0
M  V30 76 H 0.603806 -3.649847 -3.758433 0
M  V30 77 H 2.270939 -3.076897 -3.994346 0
M  V30 78 H 0.664005 -3.241928 -1.437178 0
M  V30 79 H 3.130795 -4.374006 -2.610994 0
M  V30 80 H 3.478047 -3.643653 -1.048971 0
M  V30 81 H 2.948081 -6.042431 -0.981541 0
M  V30 82 H 0.897779 -7.012046 -1.408363 0
M  V30 83 H 1.347893 -6.047949 -2.838456 0
M  V30 84 H -0.910865 -5.961929 -1.484041 0
M  V30 85 H 3.218919 -5.944460 3.299198 0
M  V30 86 H 1.741613 -7.001625 3.048990 0
M  V30 87 H 1.374997 -5.220397 4.671787 0
M  V30 88 H 0.252528 -5.181492 3.193301 0
M  V30 89 H 0.020969 -3.947482 5.465558 0
M  V30 90 H -1.206497 -2.234341 6.607260 0
M  V30 91 H 0.314622 1.796781 5.603375 0
M  V30 92 H -0.732590 3.686711 6.635345 0
M  V30 93 H -4.767582 2.974663 8.621347 0
M  V30 94 H -6.134784 4.733142 8.138017 0
M  V30 95 H -4.845903 5.950844 8.254957 0
M  V30 96 H -4.975915 4.922180 6.744840 0
M  V30 97 H -4.850435 4.203851 10.569346 0
M  V30 98 H -3.875488 5.570729 9.931161 0
M  V30 99 H -3.041526 4.021080 10.369178 0
M  V30 100 H -4.040905 1.281727 7.760106 0
M  V30 101 H -2.943540 -0.704346 6.675836 0
M  V30 102 H 0.472946 0.622508 3.944507 0
M  V30 103 H 2.923288 1.016738 0.932789 0
M  V30 104 H 3.428168 -0.553085 0.282542 0
M  V30 105 H 3.408156 0.286839 -2.611942 0
M  V30 106 H 2.764897 1.905998 -2.344101 0
M  V30 107 H 3.978461 1.291464 -1.197935 0
M  V30 108 H 1.221849 2.052228 0.281423 0
M  V30 109 H 1.220148 2.505721 -1.415833 0
M  V30 110 H -0.033910 1.308177 -0.734477 0
M  V30 111 H -0.696274 -0.703738 -0.932065 0
M  V30 END ATOM
M  V30 BEGIN BOND
M  V30 1 1 1 2
M  V30 2 1 2 3
M  V30 3 1 3 4
M  V30 4 1 4 5
M  V30 5 1 5 6
M  V30 6 1 6 7
M  V30 7 1 7 8
M  V30 8 2 8 9
M  V30 9 1 8 10
M  V30 10 1 10 11
M  V30 11 1 11 12
M  V30 12 2 12 13
M  V30 13 1 13 14
M  V30 14 2 14 15
M  V30 15 1 14 16
M  V30 16 1 16 17
M  V30 17 1 12 18
M  V30 18 1 18 19
M  V30 19 1 19 20
M  V30 20 1 20 21
M  V30 21 1 21 22
M  V30 22 1 22 23
M  V30 23 1 21 24
M  V30 24 1 24 25
M  V30 25 2 25 26
M  V30 26 1 25 27
M  V30 27 1 27 28
M  V30 28 1 28 29
M  V30 29 1 29 30
M  V30 30 2 30 31
M  V30 31 1 31 32
M  V30 32 2 32 33
M  V30 33 1 33 34
M  V30 34 2 34 35
M  V30 35 1 35 36
M  V30 36 2 36 37
M  V30 37 1 37 38
M  V30 38 1 38 39
M  V30 39 1 39 40
M  V30 40 1 39 41
M  V30 41 1 37 42
M  V30 42 2 42 43
M  V30 43 1 33 44
M  V30 44 2 44 45
M  V30 45 1 45 46
M  V30 46 2 46 47
M  V30 47 1 46 48
M  V30 48 1 48 49
M  V30 49 1 49 50
M  V30 50 1 50 51
M  V30 51 1 50 52
M  V30 52 1 50 53
M  V30 53 1 53 54 CFG=1
M  V30 54 1 53 55
M  V30 55 1 53 11
M  V30 56 1 55 19
M  V30 57 1 45 30
M  V30 58 1 43 34
M  V30 59 1 1 56
M  V30 60 1 1 57
M  V30 61 1 1 58
M  V30 62 1 2 59
M  V30 63 1 2 60
M  V30 64 1 3 61
M  V30 65 1 3 62
M  V30 66 1 4 63
M  V30 67 1 4 64
M  V30 68 1 5 65
M  V30 69 1 5 66
M  V30 70 1 6 67
M  V30 71 1 6 68
M  V30 72 1 7 69
M  V30 73 1 7 70
M  V30 74 1 11 71 CFG=1
M  V30 75 1 13 72
M  V30 76 1 17 73
M  V30 77 1 17 74
M  V30 78 1 17 75
M  V30 79 1 18 76
M  V30 80 1 18 77
M  V30 81 1 19 78 CFG=1
M  V30 82 1 20 79
M  V30 83 1 20 80
M  V30 84 1 21 81 CFG=1
M  V30 85 1 22 82
M  V30 86 1 22 83
M  V30 87 1 23 84
M  V30 88 1 27 85
M  V30 89 1 27 86
M  V30 90 1 28 87
M  V30 91 1 28 88
M  V30 92 1 31 89
M  V30 93 1 32 90
M  V30 94 1 35 91
M  V30 95 1 36 92
M  V30 96 1 39 93
M  V30 97 1 40 94
M  V30 98 1 40 95
M  V30 99 1 40 96
M  V30 100 1 41 97
M  V30 101 1 41 98
M  V30 102 1 41 99
M  V30 103 1 42 100
M  V30 104 1 43 101
M  V30 105 1 44 102
M  V30 106 1 49 103
M  V30 107 1 49 104
M  V30 108 1 51 105
M  V30 109 1 51 106
M  V30 110 1 51 107
M  V30 111 1 52 108
M  V30 112 1 52 109
M  V30 113 1 52 110
M  V30 114 1 54 111
M  V30 END BOND
M  V30 END CTAB
M  END
>  <Dataset>  (801) 
ChEMBL_Kinases

>  <Ligand_Instance>  (801) 
nan

>  <PDB_ID>  (801) 
nan

>  <Standardized_SMILES>  (801) 
CCCCCCCC(=O)O[C@H]1/C(=C/C(=O)OC)C[C@H]2C[C@H](CO)OC(=O)CCOc3ccc(-c4ccc(OC(C)C)cc4)cc3C(=O)OCC(C)(C)[C@]1(O)O2

>  <Name>  (801) 
nan

>  <Pocket>  (801) 
nan

>  <ATP_Site>  (801) 
nan

>  <Peripheral>  (801) 
nan

>  <Num_H_Atoms_ProtBoundConf>  (801) 
nan

>  <Num_Resolved_Atoms>  (801) 
nan

>  <Num_Not_Resolved_Atoms>  (801) 
nan

$$$$
CHEMBL4634241
     RDKit          3D

  0  0  0  0  0  0  0  0  0  0999 V3000
M  V30 BEGIN CTAB
M  V30 COUNTS 47 50 0 0 0
M  V30 BEGIN ATOM
M  V30 1 N 5.524310 2.427286 -3.665182 0
M  V30 2 C 5.881072 2.136764 -2.576364 0
M  V30 3 C 6.327355 1.756124 -1.244424 0
M  V30 4 C 7.672214 1.455757 -1.172766 0
M  V30 5 C 8.089833 1.081329 0.108343 0
M  V30 6 C 7.264440 1.009653 1.202250 0
M  V30 7 C 5.913783 1.328606 1.050805 0
M  V30 8 C 5.447550 1.705397 -0.189363 0
M  V30 9 N 4.093599 2.077465 -0.451498 0
M  V30 10 C 2.938293 2.029139 0.373800 0
M  V30 11 N 2.412549 2.652208 1.446585 0
M  V30 12 C 1.227270 2.129342 1.721936 0
M  V30 13 C 0.245974 2.347602 2.667857 0
M  V30 14 C -0.941471 1.654378 2.745956 0
M  V30 15 C -1.172085 0.646918 1.790564 0
M  V30 16 C -2.386458 -0.199480 1.728543 0
M  V30 17 C -3.049004 -0.577973 2.864497 0
M  V30 18 C -4.202993 -1.322953 2.770002 0
M  V30 19 C -4.609352 -1.635243 1.491190 0
M  V30 20 N -5.787943 -2.408784 1.173575 0
M  V30 21 C -5.297187 -3.716384 1.022512 0
M  V30 22 O -4.040385 -3.967108 1.170955 0
M  V30 23 C -5.665838 -5.116233 0.721583 0
M  V30 24 C -4.423514 -5.993433 0.655367 0
M  V30 25 F -3.760386 -5.974483 1.849542 0
M  V30 26 F -4.844085 -7.269042 0.351221 0
M  V30 27 F -3.599006 -5.563550 -0.384031 0
M  V30 28 C -3.948662 -1.259791 0.325079 0
M  V30 29 C -2.785069 -0.510375 0.419148 0
M  V30 30 C -0.177405 0.449201 0.860530 0
M  V30 31 N 0.953559 1.158593 0.838811 0
M  V30 32 N 1.993689 1.104075 0.026967 0
M  V30 33 H 8.334067 1.502380 -2.011698 0
M  V30 34 H 9.157262 0.840354 0.175455 0
M  V30 35 H 7.695274 0.713468 2.146000 0
M  V30 36 H 5.233833 1.291357 1.885485 0
M  V30 37 H 3.850244 2.467886 -1.392817 0
M  V30 38 H 0.420611 3.112127 3.393282 0
M  V30 39 H -1.726010 1.793725 3.464882 0
M  V30 40 H -2.701515 -0.315354 3.845286 0
M  V30 41 H -4.806096 -1.683179 3.576377 0
M  V30 42 H -6.790477 -2.536871 0.995985 0
M  V30 43 H -6.262314 -5.500186 1.571783 0
M  V30 44 H -6.282646 -5.237666 -0.183993 0
M  V30 45 H -4.261883 -1.505389 -0.679490 0
M  V30 46 H -2.253601 -0.205308 -0.468345 0
M  V30 47 H -0.311307 -0.316620 0.109418 0
M  V30 END ATOM
M  V30 BEGIN BOND
M  V30 1 3 1 2
M  V30 2 1 2 3
M  V30 3 2 3 4
M  V30 4 1 4 5
M  V30 5 2 5 6
M  V30 6 1 6 7
M  V30 7 2 7 8
M  V30 8 1 8 9
M  V30 9 1 9 10
M  V30 10 1 10 11
M  V30 11 2 11 12
M  V30 12 1 12 13
M  V30 13 2 13 14
M  V30 14 1 14 15
M  V30 15 1 15 16
M  V30 16 2 16 17
M  V30 17 1 17 18
M  V30 18 2 18 19
M  V30 19 1 19 20
M  V30 20 1 20 21
M  V30 21 2 21 22
M  V30 22 1 21 23
M  V30 23 1 23 24
M  V30 24 1 24 25
M  V30 25 1 24 26
M  V30 26 1 24 27
M  V30 27 1 19 28
M  V30 28 2 28 29
M  V30 29 2 15 30
M  V30 30 1 30 31
M  V30 31 1 31 32
M  V30 32 1 8 3
M  V30 33 2 32 10
M  V30 34 1 31 12
M  V30 35 1 29 16
M  V30 36 1 4 33
M  V30 37 1 5 34
M  V30 38 1 6 35
M  V30 39 1 7 36
M  V30 40 1 9 37
M  V30 41 1 13 38
M  V30 42 1 14 39
M  V30 43 1 17 40
M  V30 44 1 18 41
M  V30 45 1 20 42
M  V30 46 1 23 43
M  V30 47 1 23 44
M  V30 48 1 28 45
M  V30 49 1 29 46
M  V30 50 1 30 47
M  V30 END BOND
M  V30 END CTAB
M  END
>  <Dataset>  (802) 
ChEMBL_Kinases

>  <Ligand_Instance>  (802) 
nan

>  <PDB_ID>  (802) 
nan

>  <Standardized_SMILES>  (802) 
N#Cc1ccccc1Nc1nc2ccc(-c3ccc(NC(=O)CC(F)(F)F)cc3)cn2n1

>  <Name>  (802) 
nan

>  <Pocket>  (802) 
nan

>  <ATP_Site>  (802) 
nan

>  <Peripheral>  (802) 
nan

>  <Num_H_Atoms_ProtBoundConf>  (802) 
nan

>  <Num_Resolved_Atoms>  (802) 
nan

>  <Num_Not_Resolved_Atoms>  (802) 
nan

$$$$
CHEMBL4634338
     RDKit          3D

  0  0  0  0  0  0  0  0  0  0999 V3000
M  V30 BEGIN CTAB
M  V30 COUNTS 56 59 0 0 0
M  V30 BEGIN ATOM
M  V30 1 C -2.973300 -2.130379 -2.710253 0
M  V30 2 O -2.248328 -3.211161 -3.234962 0
M  V30 3 C -1.078702 -3.697587 -2.726970 0
M  V30 4 C -0.395274 -3.229578 -1.604793 0
M  V30 5 C 0.801889 -3.796907 -1.163073 0
M  V30 6 N 1.408630 -3.230183 0.015180 0
M  V30 7 C 1.037221 -1.923329 0.460304 0
M  V30 8 C 0.871869 -1.768370 1.817604 0
M  V30 9 N 0.532518 -0.588871 2.366033 0
M  V30 10 C 0.332716 0.522355 1.613664 0
M  V30 11 C -0.003492 1.740688 1.998441 0
M  V30 12 N -0.270273 2.259977 3.340332 0
M  V30 13 C 0.762425 2.782252 4.166742 0
M  V30 14 C 0.319453 3.521628 5.362164 0 CFG=1
M  V30 15 C 0.964169 4.914858 5.437180 0
M  V30 16 O -1.014458 3.716808 5.558811 0
M  V30 17 C -1.861823 3.566908 4.510541 0 CFG=1
M  V30 18 C -1.759323 4.651782 3.466703 0
M  V30 19 C -1.657843 2.238690 3.833345 0
M  V30 20 S -0.135589 2.800459 0.653004 0
M  V30 21 N 0.309146 1.465680 -0.583803 0
M  V30 22 C 0.491103 0.407379 0.246121 0
M  V30 23 C 0.839000 -0.803457 -0.318405 0
M  V30 24 C 1.362100 -4.858730 -1.831595 0
M  V30 25 C 0.704027 -5.347431 -2.954722 0
M  V30 26 O 1.159140 -6.406075 -3.716387 0
M  V30 27 C 2.315405 -7.150435 -3.511931 0
M  V30 28 C -0.483594 -4.778869 -3.386189 0
M  V30 29 O -1.153413 -5.274714 -4.526967 0
M  V30 30 C -0.810786 -4.710086 -5.783669 0
M  V30 31 H -4.053043 -2.401181 -2.790500 0
M  V30 32 H -2.757264 -1.185325 -3.252424 0
M  V30 33 H -2.767822 -1.962115 -1.644263 0
M  V30 34 H -0.865278 -2.413434 -1.113086 0
M  V30 35 H 2.121457 -3.780970 0.543145 0
M  V30 36 H 1.006715 -2.591570 2.535277 0
M  V30 37 H 1.405581 1.917458 4.484398 0
M  V30 38 H 1.469973 3.392164 3.532226 0
M  V30 39 H 0.695213 2.991270 6.289037 0
M  V30 40 H 0.578102 5.338791 6.394602 0
M  V30 41 H 0.584375 5.552957 4.634840 0
M  V30 42 H 2.063913 4.859128 5.464573 0
M  V30 43 H -2.903821 3.601638 4.878011 0
M  V30 44 H -0.788478 4.565755 2.944999 0
M  V30 45 H -1.903212 5.642002 3.956758 0
M  V30 46 H -2.534703 4.530514 2.686154 0
M  V30 47 H -2.339705 2.121828 2.976532 0
M  V30 48 H -1.701541 1.409037 4.565467 0
M  V30 49 H 1.000843 -1.012797 -1.379362 0
M  V30 50 H 2.283501 -5.302994 -1.495622 0
M  V30 51 H 2.968271 -6.721581 -2.746994 0
M  V30 52 H 2.845555 -7.176398 -4.510924 0
M  V30 53 H 2.061142 -8.202724 -3.231285 0
M  V30 54 H 0.205113 -4.994423 -6.101530 0
M  V30 55 H -0.887505 -3.602935 -5.737355 0
M  V30 56 H -1.528489 -5.063263 -6.552275 0
M  V30 END ATOM
M  V30 BEGIN BOND
M  V30 1 1 1 2
M  V30 2 1 2 3
M  V30 3 2 3 4
M  V30 4 1 4 5
M  V30 5 1 5 6
M  V30 6 1 6 7
M  V30 7 1 7 8
M  V30 8 2 8 9
M  V30 9 1 9 10
M  V30 10 2 10 11
M  V30 11 1 11 12
M  V30 12 1 12 13
M  V30 13 1 13 14
M  V30 14 1 14 15
M  V30 15 1 14 16
M  V30 16 1 16 17
M  V30 17 1 17 18
M  V30 18 1 17 19
M  V30 19 1 11 20
M  V30 20 1 20 21
M  V30 21 2 21 22
M  V30 22 1 22 23
M  V30 23 2 5 24
M  V30 24 1 24 25
M  V30 25 1 25 26
M  V30 26 1 26 27
M  V30 27 2 25 28
M  V30 28 1 28 29
M  V30 29 1 29 30
M  V30 30 1 28 3
M  V30 31 2 23 7
M  V30 32 1 22 10
M  V30 33 1 19 12
M  V30 34 1 1 31
M  V30 35 1 1 32
M  V30 36 1 1 33
M  V30 37 1 4 34
M  V30 38 1 6 35
M  V30 39 1 8 36
M  V30 40 1 13 37
M  V30 41 1 13 38
M  V30 42 1 14 39 CFG=1
M  V30 43 1 15 40
M  V30 44 1 15 41
M  V30 45 1 15 42
M  V30 46 1 17 43 CFG=1
M  V30 47 1 18 44
M  V30 48 1 18 45
M  V30 49 1 18 46
M  V30 50 1 19 47
M  V30 51 1 19 48
M  V30 52 1 23 49
M  V30 53 1 24 50
M  V30 54 1 27 51
M  V30 55 1 27 52
M  V30 56 1 27 53
M  V30 57 1 30 54
M  V30 58 1 30 55
M  V30 59 1 30 56
M  V30 END BOND
M  V30 END CTAB
M  END
>  <Dataset>  (803) 
ChEMBL_Kinases

>  <Ligand_Instance>  (803) 
nan

>  <PDB_ID>  (803) 
nan

>  <Standardized_SMILES>  (803) 
COc1cc(Nc2cnc3c(N4C[C@@H](C)O[C@@H](C)C4)snc3c2)cc(OC)c1OC

>  <Name>  (803) 
nan

>  <Pocket>  (803) 
nan

>  <ATP_Site>  (803) 
nan

>  <Peripheral>  (803) 
nan

>  <Num_H_Atoms_ProtBoundConf>  (803) 
nan

>  <Num_Resolved_Atoms>  (803) 
nan

>  <Num_Not_Resolved_Atoms>  (803) 
nan

$$$$
CHEMBL4634517
     RDKit          3D

  0  0  0  0  0  0  0  0  0  0999 V3000
M  V30 BEGIN CTAB
M  V30 COUNTS 47 50 0 0 0
M  V30 BEGIN ATOM
M  V30 1 F 0.540329 -3.830102 2.713730 0
M  V30 2 C 1.272915 -4.239695 1.634711 0
M  V30 3 C 2.296324 -5.172904 1.795914 0
M  V30 4 C 3.056835 -5.613289 0.745924 0
M  V30 5 C 2.763888 -5.086203 -0.501714 0
M  V30 6 C 1.757229 -4.160849 -0.694566 0
M  V30 7 F 1.507020 -3.676582 -1.917677 0
M  V30 8 C 1.003783 -3.731090 0.375871 0
M  V30 9 C -0.065176 -2.753643 0.194984 0
M  V30 10 C 0.148738 -1.394182 0.289725 0
M  V30 11 C -0.817395 -0.438124 0.129326 0
M  V30 12 N -0.605931 0.959146 0.236477 0
M  V30 13 C 0.678440 1.596262 0.577669 0 CFG=1
M  V30 14 C 0.581406 3.071923 0.429669 0
M  V30 15 C 1.619217 3.799495 1.215451 0
M  V30 16 C 0.936321 4.340970 2.490834 0
M  V30 17 C 0.236264 3.083199 3.050812 0
M  V30 18 N 1.243343 2.054148 2.958637 0
M  V30 19 C 1.056840 1.091465 1.926997 0
M  V30 20 C -2.072286 -0.924478 -0.144723 0
M  V30 21 C -3.173419 -0.133572 -0.338793 0
M  V30 22 C -4.437565 -0.604464 -0.613789 0
M  V30 23 N -4.646068 -1.931840 -0.706439 0
M  V30 24 C -3.581743 -2.767150 -0.521511 0
M  V30 25 C -2.324018 -2.276252 -0.247056 0
M  V30 26 C -1.331379 -3.219193 -0.080407 0
M  V30 27 H 2.513359 -5.578059 2.787978 0
M  V30 28 H 3.842046 -6.332928 0.886426 0
M  V30 29 H 3.360385 -5.426279 -1.349922 0
M  V30 30 H 1.159024 -1.132049 0.496253 0
M  V30 31 H -1.361224 1.632461 0.077322 0
M  V30 32 H 1.378327 1.199375 -0.211084 0
M  V30 33 H 0.790188 3.317132 -0.653555 0
M  V30 34 H -0.446514 3.467281 0.588190 0
M  V30 35 H 2.108730 4.628986 0.666232 0
M  V30 36 H 2.425351 3.111091 1.575768 0
M  V30 37 H 1.749227 4.574059 3.203479 0
M  V30 38 H 0.237538 5.149087 2.280993 0
M  V30 39 H -0.028205 3.326589 4.105724 0
M  V30 40 H -0.688434 2.859912 2.517964 0
M  V30 41 H 1.176775 1.519397 3.874401 0
M  V30 42 H 2.068234 0.585478 1.825730 0
M  V30 43 H 0.384266 0.248968 2.263192 0
M  V30 44 H -3.119783 0.923610 -0.287569 0
M  V30 45 H -5.302421 0.045162 -0.765149 0
M  V30 46 H -3.765849 -3.838088 -0.599487 0
M  V30 47 H -1.534848 -4.268451 -0.161348 0
M  V30 END ATOM
M  V30 BEGIN BOND
M  V30 1 1 1 2
M  V30 2 2 2 3
M  V30 3 1 3 4
M  V30 4 2 4 5
M  V30 5 1 5 6
M  V30 6 1 6 7
M  V30 7 2 6 8
M  V30 8 1 8 9
M  V30 9 2 9 10
M  V30 10 1 10 11
M  V30 11 1 11 12
M  V30 12 1 12 13
M  V30 13 1 13 14
M  V30 14 1 14 15
M  V30 15 1 15 16
M  V30 16 1 16 17
M  V30 17 1 17 18
M  V30 18 1 18 19
M  V30 19 2 11 20
M  V30 20 1 20 21
M  V30 21 2 21 22
M  V30 22 1 22 23
M  V30 23 2 23 24
M  V30 24 1 24 25
M  V30 25 2 25 26
M  V30 26 1 8 2
M  V30 27 1 26 9
M  V30 28 1 19 13
M  V30 29 1 25 20
M  V30 30 1 3 27
M  V30 31 1 4 28
M  V30 32 1 5 29
M  V30 33 1 10 30
M  V30 34 1 12 31
M  V30 35 1 13 32 CFG=3
M  V30 36 1 14 33
M  V30 37 1 14 34
M  V30 38 1 15 35
M  V30 39 1 15 36
M  V30 40 1 16 37
M  V30 41 1 16 38
M  V30 42 1 17 39
M  V30 43 1 17 40
M  V30 44 1 18 41
M  V30 45 1 19 42
M  V30 46 1 19 43
M  V30 47 1 21 44
M  V30 48 1 22 45
M  V30 49 1 24 46
M  V30 50 1 26 47
M  V30 END BOND
M  V30 END CTAB
M  END
>  <Dataset>  (804) 
ChEMBL_Kinases

>  <Ligand_Instance>  (804) 
nan

>  <PDB_ID>  (804) 
nan

>  <Standardized_SMILES>  (804) 
Fc1cccc(F)c1-c1cc(N[C@H]2CCCCNC2)c2ccncc2c1

>  <Name>  (804) 
nan

>  <Pocket>  (804) 
nan

>  <ATP_Site>  (804) 
nan

>  <Peripheral>  (804) 
nan

>  <Num_H_Atoms_ProtBoundConf>  (804) 
nan

>  <Num_Resolved_Atoms>  (804) 
nan

>  <Num_Not_Resolved_Atoms>  (804) 
nan

$$$$
CHEMBL4574041
     RDKit          3D

  0  0  0  0  0  0  0  0  0  0999 V3000
M  V30 BEGIN CTAB
M  V30 COUNTS 40 43 0 0 0
M  V30 BEGIN ATOM
M  V30 1 C 1.671434 -6.837553 2.636540 0
M  V30 2 O 0.981946 -5.725501 3.158605 0
M  V30 3 C 0.872345 -4.581968 2.380045 0
M  V30 4 C 1.414440 -4.479157 1.098701 0
M  V30 5 C 1.274733 -3.316667 0.369279 0
M  V30 6 C 0.596584 -2.208970 0.870434 0
M  V30 7 C 0.425261 -0.963127 0.132591 0
M  V30 8 C 0.366703 0.172554 0.913836 0
M  V30 9 N 0.209819 1.351836 0.303931 0
M  V30 10 C 0.099649 1.576447 -0.999461 0
M  V30 11 C -0.062051 2.616674 -1.882492 0
M  V30 12 C -0.169495 4.045096 -1.400966 0
M  V30 13 C -0.331142 5.025137 -2.364677 0
M  V30 14 C -0.443807 6.383720 -2.063242 0
M  V30 15 N -0.389566 6.734539 -0.760850 0
M  V30 16 C -0.232878 5.794854 0.187944 0
M  V30 17 C -0.120647 4.450937 -0.098570 0
M  V30 18 S -0.127530 2.193528 -3.464473 0
M  V30 19 N 0.067885 0.355912 -3.239410 0
M  V30 20 C 0.155039 0.471142 -1.783351 0
M  V30 21 C 0.317790 -0.808974 -1.233199 0
M  V30 22 C 0.081112 -2.363927 2.139848 0
M  V30 23 C 0.198491 -3.494774 2.890032 0
M  V30 24 O -0.344190 -3.574983 4.152454 0
M  V30 25 C -1.050187 -2.532608 4.772796 0
M  V30 26 H 1.075361 -7.271262 1.816398 0
M  V30 27 H 2.632891 -6.499766 2.205929 0
M  V30 28 H 1.903826 -7.585182 3.432477 0
M  V30 29 H 1.943292 -5.316384 0.684161 0
M  V30 30 H 1.693053 -3.244449 -0.613086 0
M  V30 31 H 0.430483 0.268424 1.996446 0
M  V30 32 H -0.382705 4.816757 -3.423329 0
M  V30 33 H -0.568918 7.135272 -2.818703 0
M  V30 34 H -0.179850 6.004239 1.268046 0
M  V30 35 H 0.005646 3.679863 0.646377 0
M  V30 36 H 0.385978 -1.813050 -1.681437 0
M  V30 37 H -0.453469 -1.491410 2.535400 0
M  V30 38 H -0.337583 -1.850173 5.313316 0
M  V30 39 H -1.705054 -2.977885 5.553592 0
M  V30 40 H -1.701209 -1.987608 4.073895 0
M  V30 END ATOM
M  V30 BEGIN BOND
M  V30 1 1 1 2
M  V30 2 1 2 3
M  V30 3 2 3 4
M  V30 4 1 4 5
M  V30 5 2 5 6
M  V30 6 1 6 7
M  V30 7 1 7 8
M  V30 8 2 8 9
M  V30 9 1 9 10
M  V30 10 2 10 11
M  V30 11 1 11 12
M  V30 12 2 12 13
M  V30 13 1 13 14
M  V30 14 2 14 15
M  V30 15 1 15 16
M  V30 16 2 16 17
M  V30 17 1 11 18
M  V30 18 1 18 19
M  V30 19 2 19 20
M  V30 20 1 20 21
M  V30 21 1 6 22
M  V30 22 2 22 23
M  V30 23 1 23 24
M  V30 24 1 24 25
M  V30 25 1 23 3
M  V30 26 2 21 7
M  V30 27 1 20 10
M  V30 28 1 17 12
M  V30 29 1 1 26
M  V30 30 1 1 27
M  V30 31 1 1 28
M  V30 32 1 4 29
M  V30 33 1 5 30
M  V30 34 1 8 31
M  V30 35 1 13 32
M  V30 36 1 14 33
M  V30 37 1 16 34
M  V30 38 1 17 35
M  V30 39 1 21 36
M  V30 40 1 22 37
M  V30 41 1 25 38
M  V30 42 1 25 39
M  V30 43 1 25 40
M  V30 END BOND
M  V30 END CTAB
M  END
>  <Dataset>  (805) 
ChEMBL_Kinases

>  <Ligand_Instance>  (805) 
nan

>  <PDB_ID>  (805) 
nan

>  <Standardized_SMILES>  (805) 
COc1ccc(-c2cnc3c(-c4ccncc4)snc3c2)cc1OC

>  <Name>  (805) 
nan

>  <Pocket>  (805) 
nan

>  <ATP_Site>  (805) 
nan

>  <Peripheral>  (805) 
nan

>  <Num_H_Atoms_ProtBoundConf>  (805) 
nan

>  <Num_Resolved_Atoms>  (805) 
nan

>  <Num_Not_Resolved_Atoms>  (805) 
nan

$$$$
CHEMBL4574986
     RDKit          3D

  0  0  0  0  0  0  0  0  0  0999 V3000
M  V30 BEGIN CTAB
M  V30 COUNTS 115 117 0 0 0
M  V30 BEGIN ATOM
M  V30 1 C 5.683450 -7.054453 1.824033 0
M  V30 2 C 5.384470 -5.831125 2.644227 0
M  V30 3 C 4.193635 -5.074960 2.104518 0
M  V30 4 C 4.407582 -4.600930 0.694120 0
M  V30 5 C 5.553704 -3.672334 0.517213 0
M  V30 6 C 5.735407 -3.176231 -0.915463 0
M  V30 7 C 4.513242 -2.490819 -1.404064 0
M  V30 8 C 4.621535 -1.888240 -2.820135 0
M  V30 9 C 3.230975 -1.336501 -3.013827 0
M  V30 10 C 2.240244 -2.077787 -3.683431 0
M  V30 11 C 0.945472 -1.546873 -3.725840 0
M  V30 12 C 0.491317 -0.329270 -3.166131 0
M  V30 13 C 1.482402 0.355772 -2.529280 0
M  V30 14 C 2.763641 -0.152682 -2.481282 0
M  V30 15 C 1.476577 1.563292 -1.755113 0
M  V30 16 O 2.382544 2.154669 -1.127099 0
M  V30 17 O 0.670483 2.497578 -1.361058 0
M  V30 18 C 0.404804 3.606460 -0.676568 0
M  V30 19 C -0.964386 4.251489 -0.780650 0
M  V30 20 C -0.858961 4.831088 -2.259230 0
M  V30 21 C -0.959589 5.491147 0.069846 0
M  V30 22 C -2.191554 3.536202 -0.720905 0 CFG=2
M  V30 23 O -3.055697 4.208952 -1.642999 0
M  V30 24 O -3.049109 3.340643 0.345676 0
M  V30 25 C -4.230034 2.693434 0.024146 0 CFG=1
M  V30 26 C -4.585438 2.565468 -1.414461 0
M  V30 27 C -3.392731 2.102931 -2.111633 0
M  V30 28 C -3.552942 1.824686 -3.386030 0
M  V30 29 C -4.822617 1.966482 -4.054083 0
M  V30 30 O -5.963756 2.321227 -3.725884 0
M  V30 31 O -4.996299 1.681662 -5.397247 0
M  V30 32 C -6.259088 1.833005 -6.037030 0
M  V30 33 C -2.136339 2.085727 -1.262487 0 CFG=2
M  V30 34 O -1.853636 1.216315 -0.367556 0
M  V30 35 C -1.558786 0.329483 0.535322 0
M  V30 36 O -1.002677 0.406257 -0.509746 0
M  V30 37 C -1.270631 -0.634427 1.571710 0
M  V30 38 C -1.217613 -0.029357 2.941679 0
M  V30 39 C -0.827171 -1.041335 4.006116 0
M  V30 40 C 0.561768 -1.581405 3.748250 0
M  V30 41 C 0.897926 -2.570663 4.845218 0
M  V30 42 C 0.858429 -1.942117 6.228608 0
M  V30 43 C 1.857334 -0.812323 6.297756 0
M  V30 44 C -4.697499 1.496329 0.730726 0
M  V30 45 C -5.110030 0.231455 -0.035630 0 CFG=2
M  V30 46 C -5.606333 -0.684175 1.105743 0
M  V30 47 O -4.599155 -0.968130 1.988517 0
M  V30 48 O -4.174882 -0.429411 -0.667564 0
M  V30 49 C -3.647290 -1.091246 -1.665056 0
M  V30 50 O -4.813594 -0.828462 -2.052155 0
M  V30 51 C -2.579048 -1.812355 -2.347270 0
M  V30 52 C -1.837391 -1.261800 -3.467980 0
M  V30 53 O -0.827928 -0.390161 -3.540771 0
M  V30 54 H 5.696380 -7.943195 2.510809 0
M  V30 55 H 6.679860 -7.042599 1.336185 0
M  V30 56 H 4.866020 -7.266582 1.090540 0
M  V30 57 H 5.218094 -6.109462 3.701742 0
M  V30 58 H 6.254433 -5.111926 2.573048 0
M  V30 59 H 3.921032 -4.237142 2.789603 0
M  V30 60 H 3.324271 -5.780109 2.172788 0
M  V30 61 H 3.446918 -4.070566 0.413347 0
M  V30 62 H 4.496069 -5.445025 -0.024402 0
M  V30 63 H 5.546707 -2.805965 1.199596 0
M  V30 64 H 6.503124 -4.216667 0.753088 0
M  V30 65 H 6.637005 -2.552438 -0.930886 0
M  V30 66 H 5.946194 -4.099814 -1.519077 0
M  V30 67 H 3.671897 -3.237904 -1.410396 0
M  V30 68 H 4.241760 -1.704253 -0.660422 0
M  V30 69 H 4.849881 -2.671512 -3.521164 0
M  V30 70 H 5.299024 -1.031414 -2.785606 0
M  V30 71 H 2.629152 -3.002706 -4.093210 0
M  V30 72 H 0.412055 -2.327938 -4.300925 0
M  V30 73 H 3.612830 0.355502 -1.986915 0
M  V30 74 H 0.733549 3.595261 0.419821 0
M  V30 75 H 1.140217 4.395167 -1.029038 0
M  V30 76 H -1.635910 5.614587 -2.317845 0
M  V30 77 H -1.119066 3.986145 -2.912587 0
M  V30 78 H 0.124427 5.272226 -2.394426 0
M  V30 79 H -1.525088 6.339473 -0.314356 0
M  V30 80 H -1.428514 5.269770 1.074612 0
M  V30 81 H 0.063966 5.834823 0.318365 0
M  V30 82 H -3.264779 5.071116 -1.210143 0
M  V30 83 H -4.955191 3.534753 0.333731 0
M  V30 84 H -5.347820 1.780533 -1.569642 0
M  V30 85 H -5.113827 3.444237 -1.871560 0
M  V30 86 H -2.678264 1.502624 -3.913401 0
M  V30 87 H -6.121120 1.456908 -7.086986 0
M  V30 88 H -7.042197 1.252345 -5.562068 0
M  V30 89 H -6.488679 2.922712 -6.115583 0
M  V30 90 H -1.432866 2.136389 -2.110817 0
M  V30 91 H -1.987833 -1.477351 1.637856 0
M  V30 92 H -0.248940 -1.064351 1.360798 0
M  V30 93 H -2.205869 0.401220 3.229007 0
M  V30 94 H -0.477559 0.784676 2.956212 0
M  V30 95 H -0.869189 -0.551152 4.985654 0
M  V30 96 H -1.510298 -1.908117 3.888769 0
M  V30 97 H 0.567581 -2.199698 2.804644 0
M  V30 98 H 1.324216 -0.781533 3.677849 0
M  V30 99 H 0.215228 -3.434936 4.824865 0
M  V30 100 H 1.977172 -2.909178 4.737574 0
M  V30 101 H -0.149380 -1.665659 6.562082 0
M  V30 102 H 1.242296 -2.719763 6.935933 0
M  V30 103 H 2.477172 -0.800232 5.365094 0
M  V30 104 H 1.371079 0.175053 6.456874 0
M  V30 105 H 2.597529 -0.932410 7.123344 0
M  V30 106 H -5.682641 1.696743 1.270316 0
M  V30 107 H -4.087255 1.143514 1.588162 0
M  V30 108 H -6.109810 0.371760 -0.556670 0
M  V30 109 H -6.519159 -0.254080 1.564462 0
M  V30 110 H -5.899311 -1.659292 0.620479 0
M  V30 111 H -4.899805 -1.643642 2.669575 0
M  V30 112 H -2.996273 -2.832247 -2.617326 0
M  V30 113 H -1.825739 -2.099725 -1.549640 0
M  V30 114 H -1.536021 -2.147040 -4.146441 0
M  V30 115 H -2.664887 -0.829073 -4.168688 0
M  V30 END ATOM
M  V30 BEGIN BOND
M  V30 1 1 1 2
M  V30 2 1 2 3
M  V30 3 1 3 4
M  V30 4 1 4 5
M  V30 5 1 5 6
M  V30 6 1 6 7
M  V30 7 1 7 8
M  V30 8 1 8 9
M  V30 9 2 9 10
M  V30 10 1 10 11
M  V30 11 2 11 12
M  V30 12 1 12 13
M  V30 13 2 13 14
M  V30 14 1 13 15
M  V30 15 2 15 16
M  V30 16 1 15 17
M  V30 17 1 17 18
M  V30 18 1 18 19
M  V30 19 1 19 20
M  V30 20 1 19 21
M  V30 21 1 19 22
M  V30 22 1 22 23 CFG=3
M  V30 23 1 22 24
M  V30 24 1 24 25
M  V30 25 1 25 26
M  V30 26 1 26 27
M  V30 27 2 27 28
M  V30 28 1 28 29
M  V30 29 2 29 30
M  V30 30 1 29 31
M  V30 31 1 31 32
M  V30 32 1 27 33
M  V30 33 1 33 34
M  V30 34 1 34 35
M  V30 35 2 35 36
M  V30 36 1 35 37
M  V30 37 1 37 38
M  V30 38 1 38 39
M  V30 39 1 39 40
M  V30 40 1 40 41
M  V30 41 1 41 42
M  V30 42 1 42 43
M  V30 43 1 25 44
M  V30 44 1 44 45
M  V30 45 1 45 46
M  V30 46 1 46 47
M  V30 47 1 45 48
M  V30 48 1 48 49
M  V30 49 2 49 50
M  V30 50 1 49 51
M  V30 51 1 51 52
M  V30 52 1 52 53
M  V30 53 1 14 9
M  V30 54 1 33 22
M  V30 55 1 53 12
M  V30 56 1 1 54
M  V30 57 1 1 55
M  V30 58 1 1 56
M  V30 59 1 2 57
M  V30 60 1 2 58
M  V30 61 1 3 59
M  V30 62 1 3 60
M  V30 63 1 4 61
M  V30 64 1 4 62
M  V30 65 1 5 63
M  V30 66 1 5 64
M  V30 67 1 6 65
M  V30 68 1 6 66
M  V30 69 1 7 67
M  V30 70 1 7 68
M  V30 71 1 8 69
M  V30 72 1 8 70
M  V30 73 1 10 71
M  V30 74 1 11 72
M  V30 75 1 14 73
M  V30 76 1 18 74
M  V30 77 1 18 75
M  V30 78 1 20 76
M  V30 79 1 20 77
M  V30 80 1 20 78
M  V30 81 1 21 79
M  V30 82 1 21 80
M  V30 83 1 21 81
M  V30 84 1 23 82
M  V30 85 1 25 83 CFG=1
M  V30 86 1 26 84
M  V30 87 1 26 85
M  V30 88 1 28 86
M  V30 89 1 32 87
M  V30 90 1 32 88
M  V30 91 1 32 89
M  V30 92 1 33 90 CFG=3
M  V30 93 1 37 91
M  V30 94 1 37 92
M  V30 95 1 38 93
M  V30 96 1 38 94
M  V30 97 1 39 95
M  V30 98 1 39 96
M  V30 99 1 40 97
M  V30 100 1 40 98
M  V30 101 1 41 99
M  V30 102 1 41 100
M  V30 103 1 42 101
M  V30 104 1 42 102
M  V30 105 1 43 103
M  V30 106 1 43 104
M  V30 107 1 43 105
M  V30 108 1 44 106
M  V30 109 1 44 107
M  V30 110 1 45 108 CFG=3
M  V30 111 1 46 109
M  V30 112 1 46 110
M  V30 113 1 47 111
M  V30 114 1 51 112
M  V30 115 1 51 113
M  V30 116 1 52 114
M  V30 117 1 52 115
M  V30 END BOND
M  V30 END CTAB
M  END
>  <Dataset>  (806) 
ChEMBL_Kinases

>  <Ligand_Instance>  (806) 
nan

>  <PDB_ID>  (806) 
nan

>  <Standardized_SMILES>  (806) 
CCCCCCCCc1ccc2c(c1)C(=O)OCC(C)(C)[C@]1(O)O[C@@H](C/C(=C\C(=O)OC)[C@@H]1OC(=O)CCCCCCC)C[C@H](CO)OC(=O)CCO2

>  <Name>  (806) 
nan

>  <Pocket>  (806) 
nan

>  <ATP_Site>  (806) 
nan

>  <Peripheral>  (806) 
nan

>  <Num_H_Atoms_ProtBoundConf>  (806) 
nan

>  <Num_Resolved_Atoms>  (806) 
nan

>  <Num_Not_Resolved_Atoms>  (806) 
nan

$$$$
CHEMBL4635532
     RDKit          3D

  0  0  0  0  0  0  0  0  0  0999 V3000
M  V30 BEGIN CTAB
M  V30 COUNTS 59 63 0 0 0
M  V30 BEGIN ATOM
M  V30 1 C 1.990734 2.442381 5.222119 0
M  V30 2 C 3.224636 1.711540 5.591805 0
M  V30 3 C 4.247137 2.637079 6.276367 0
M  V30 4 C 3.943945 1.078166 4.459072 0
M  V30 5 N 3.263251 0.101245 3.693289 0
M  V30 6 C 2.267842 -0.022827 2.693705 0
M  V30 7 C 1.648600 1.061793 2.112186 0
M  V30 8 C 0.692089 1.038407 1.123706 0
M  V30 9 C 0.042740 2.171835 0.514511 0
M  V30 10 C -0.893678 1.929858 -0.464906 0
M  V30 11 C -1.547178 2.981994 -1.082704 0
M  V30 12 C -1.284156 4.284412 -0.741132 0
M  V30 13 C -0.341766 4.566013 0.246611 0
M  V30 14 C 0.296773 3.482860 0.847278 0
M  V30 15 N 0.349292 -0.209476 0.702866 0
M  V30 16 N 0.913285 -1.283152 1.227302 0
M  V30 17 C 0.734880 -2.589700 0.972729 0
M  V30 18 C -0.194000 -3.125553 -0.015371 0
M  V30 19 C -0.325440 -2.620739 -1.291894 0
M  V30 20 C -1.218294 -3.160682 -2.194621 0
M  V30 21 C -2.005556 -4.232012 -1.825654 0
M  V30 22 C -2.989927 -4.910512 -2.659408 0
M  V30 23 O -3.714769 -5.887485 -2.337326 0
M  V30 24 N -3.223164 -4.488697 -3.999424 0
M  V30 25 C -4.182969 -5.119333 -4.873610 0
M  V30 26 C -4.768597 -4.422351 -6.021448 0
M  V30 27 C -3.635845 -5.365850 -6.307619 0
M  V30 28 C -1.861208 -4.732625 -0.529004 0
M  V30 29 C -0.968384 -4.200165 0.388419 0
M  V30 30 C 1.532155 -3.384256 1.753136 0
M  V30 31 N 2.225450 -2.522385 2.515359 0
M  V30 32 C 1.838655 -1.255408 2.184199 0
M  V30 33 H 1.542010 2.878347 6.169391 0
M  V30 34 H 2.124865 3.223692 4.459989 0
M  V30 35 H 1.231001 1.715113 4.876998 0
M  V30 36 H 2.949709 0.991910 6.401220 0
M  V30 37 H 3.984193 2.765015 7.355602 0
M  V30 38 H 5.216292 2.124879 6.250462 0
M  V30 39 H 4.325846 3.598687 5.736412 0
M  V30 40 H 4.163570 1.942876 3.738457 0
M  V30 41 H 4.959365 0.739204 4.755985 0
M  V30 42 H 3.630157 -0.863167 3.979675 0
M  V30 43 H 1.891082 2.074323 2.400168 0
M  V30 44 H -1.159502 0.932944 -0.792875 0
M  V30 45 H -2.285854 2.817074 -1.853995 0
M  V30 46 H -1.786240 5.111302 -1.214856 0
M  V30 47 H -0.106025 5.576891 0.544334 0
M  V30 48 H 1.013472 3.718306 1.599745 0
M  V30 49 H 0.279654 -1.786718 -1.596094 0
M  V30 50 H -1.352179 -2.795610 -3.202786 0
M  V30 51 H -2.710752 -3.691306 -4.436110 0
M  V30 52 H -4.745564 -5.977164 -4.429349 0
M  V30 53 H -4.532594 -3.355412 -6.228254 0
M  V30 54 H -5.773000 -4.708809 -6.379731 0
M  V30 55 H -3.891946 -6.356234 -6.753855 0
M  V30 56 H -2.631637 -4.988018 -6.537768 0
M  V30 57 H -2.451401 -5.566752 -0.191491 0
M  V30 58 H -0.895805 -4.629408 1.388079 0
M  V30 59 H 1.623621 -4.461275 1.789657 0
M  V30 END ATOM
M  V30 BEGIN BOND
M  V30 1 1 1 2
M  V30 2 1 2 3
M  V30 3 1 2 4
M  V30 4 1 4 5
M  V30 5 1 5 6
M  V30 6 2 6 7
M  V30 7 1 7 8
M  V30 8 1 8 9
M  V30 9 2 9 10
M  V30 10 1 10 11
M  V30 11 2 11 12
M  V30 12 1 12 13
M  V30 13 2 13 14
M  V30 14 2 8 15
M  V30 15 1 15 16
M  V30 16 1 16 17
M  V30 17 1 17 18
M  V30 18 2 18 19
M  V30 19 1 19 20
M  V30 20 2 20 21
M  V30 21 1 21 22
M  V30 22 2 22 23
M  V30 23 1 22 24
M  V30 24 1 24 25
M  V30 25 1 25 26
M  V30 26 1 26 27
M  V30 27 1 21 28
M  V30 28 2 28 29
M  V30 29 2 17 30
M  V30 30 1 30 31
M  V30 31 2 31 32
M  V30 32 1 32 6
M  V30 33 1 14 9
M  V30 34 1 32 16
M  V30 35 1 29 18
M  V30 36 1 27 25
M  V30 37 1 1 33
M  V30 38 1 1 34
M  V30 39 1 1 35
M  V30 40 1 2 36
M  V30 41 1 3 37
M  V30 42 1 3 38
M  V30 43 1 3 39
M  V30 44 1 4 40
M  V30 45 1 4 41
M  V30 46 1 5 42
M  V30 47 1 7 43
M  V30 48 1 10 44
M  V30 49 1 11 45
M  V30 50 1 12 46
M  V30 51 1 13 47
M  V30 52 1 14 48
M  V30 53 1 19 49
M  V30 54 1 20 50
M  V30 55 1 24 51
M  V30 56 1 25 52
M  V30 57 1 26 53
M  V30 58 1 26 54
M  V30 59 1 27 55
M  V30 60 1 27 56
M  V30 61 1 28 57
M  V30 62 1 29 58
M  V30 63 1 30 59
M  V30 END BOND
M  V30 END CTAB
M  END
>  <Dataset>  (807) 
ChEMBL_Kinases

>  <Ligand_Instance>  (807) 
nan

>  <PDB_ID>  (807) 
nan

>  <Standardized_SMILES>  (807) 
CC(C)CNc1cc(-c2ccccc2)nn2c(-c3ccc(C(=O)NC4CC4)cc3)cnc12

>  <Name>  (807) 
nan

>  <Pocket>  (807) 
nan

>  <ATP_Site>  (807) 
nan

>  <Peripheral>  (807) 
nan

>  <Num_H_Atoms_ProtBoundConf>  (807) 
nan

>  <Num_Resolved_Atoms>  (807) 
nan

>  <Num_Not_Resolved_Atoms>  (807) 
nan

$$$$
CHEMBL4635556
     RDKit          3D

  0  0  0  0  0  0  0  0  0  0999 V3000
M  V30 BEGIN CTAB
M  V30 COUNTS 54 58 0 0 0
M  V30 BEGIN ATOM
M  V30 1 N -0.622019 -4.066240 6.015490 0
M  V30 2 C 0.343674 -3.248002 5.272856 0
M  V30 3 C 0.078685 -3.407754 3.792463 0
M  V30 4 N 0.967325 -2.648762 2.974487 0
M  V30 5 C 0.796203 -1.215691 3.058756 0
M  V30 6 C -0.311354 -0.880583 2.069807 0
M  V30 7 N 0.330180 -0.935170 0.757270 0
M  V30 8 C 0.215744 -0.010701 -0.320882 0
M  V30 9 N 1.365646 0.668051 -0.447311 0
M  V30 10 C 1.602869 1.645480 -1.333099 0
M  V30 11 C 2.859418 2.371936 -1.454413 0
M  V30 12 C 2.983446 3.358354 -2.409379 0
M  V30 13 C 4.157068 4.069065 -2.556580 0
M  V30 14 N 5.198303 3.785966 -1.745042 0
M  V30 15 C 5.067766 2.832778 -0.827686 0
M  V30 16 C 3.921988 2.079600 -0.622894 0
M  V30 17 N 0.572767 1.936085 -2.142279 0
M  V30 18 C -0.603721 1.273400 -2.046801 0
M  V30 19 S -2.107692 1.401870 -2.925969 0
M  V30 20 C -2.994845 0.065936 -1.999022 0
M  V30 21 C -2.064269 -0.330897 -1.130971 0
M  V30 22 C -0.839573 0.287065 -1.152488 0
M  V30 23 C -2.648178 -1.441206 -0.328653 0
M  V30 24 C -3.521944 -2.259394 -1.255516 0
M  V30 25 C -4.782721 -1.504337 -1.585148 0
M  V30 26 C -4.365770 -0.265939 -2.323711 0
M  V30 27 C 1.168411 -2.071764 0.576413 0
M  V30 28 C 1.072708 -3.124531 1.623318 0
M  V30 29 H -0.723039 -3.672623 6.978011 0
M  V30 30 H -1.546189 -3.961030 5.498938 0
M  V30 31 H 1.353028 -3.655904 5.509828 0
M  V30 32 H 0.188970 -2.219114 5.647483 0
M  V30 33 H 0.200557 -4.470389 3.557655 0
M  V30 34 H -0.991584 -3.151884 3.648613 0
M  V30 35 H 1.717932 -0.738077 2.716748 0
M  V30 36 H 0.554668 -0.961155 4.096259 0
M  V30 37 H -0.658428 0.139484 2.335351 0
M  V30 38 H -1.172930 -1.535294 2.173803 0
M  V30 39 H 2.142278 3.590749 -3.068104 0
M  V30 40 H 4.183842 4.842599 -3.340195 0
M  V30 41 H 5.931973 2.642133 -0.198711 0
M  V30 42 H 3.859797 1.312649 0.136151 0
M  V30 43 H -3.259245 -1.112852 0.516183 0
M  V30 44 H -1.856041 -2.149029 0.011246 0
M  V30 45 H -3.011926 -2.510142 -2.206619 0
M  V30 46 H -3.803015 -3.208821 -0.759130 0
M  V30 47 H -5.418627 -2.138733 -2.244805 0
M  V30 48 H -5.345531 -1.222829 -0.670394 0
M  V30 49 H -5.080327 0.571934 -2.100130 0
M  V30 50 H -4.471863 -0.457323 -3.406792 0
M  V30 51 H 0.909466 -2.523093 -0.406407 0
M  V30 52 H 2.217515 -1.719988 0.458006 0
M  V30 53 H 1.953831 -3.793265 1.551321 0
M  V30 54 H 0.175731 -3.786071 1.441373 0
M  V30 END ATOM
M  V30 BEGIN BOND
M  V30 1 1 1 2
M  V30 2 1 2 3
M  V30 3 1 3 4
M  V30 4 1 4 5
M  V30 5 1 5 6
M  V30 6 1 6 7
M  V30 7 1 7 8
M  V30 8 2 8 9
M  V30 9 1 9 10
M  V30 10 1 10 11
M  V30 11 2 11 12
M  V30 12 1 12 13
M  V30 13 2 13 14
M  V30 14 1 14 15
M  V30 15 2 15 16
M  V30 16 2 10 17
M  V30 17 1 17 18
M  V30 18 1 18 19
M  V30 19 1 19 20
M  V30 20 2 20 21
M  V30 21 1 21 22
M  V30 22 1 21 23
M  V30 23 1 23 24
M  V30 24 1 24 25
M  V30 25 1 25 26
M  V30 26 1 7 27
M  V30 27 1 27 28
M  V30 28 1 28 4
M  V30 29 1 22 8
M  V30 30 1 16 11
M  V30 31 2 22 18
M  V30 32 1 26 20
M  V30 33 1 1 29
M  V30 34 1 1 30
M  V30 35 1 2 31
M  V30 36 1 2 32
M  V30 37 1 3 33
M  V30 38 1 3 34
M  V30 39 1 5 35
M  V30 40 1 5 36
M  V30 41 1 6 37
M  V30 42 1 6 38
M  V30 43 1 12 39
M  V30 44 1 13 40
M  V30 45 1 15 41
M  V30 46 1 16 42
M  V30 47 1 23 43
M  V30 48 1 23 44
M  V30 49 1 24 45
M  V30 50 1 24 46
M  V30 51 1 25 47
M  V30 52 1 25 48
M  V30 53 1 26 49
M  V30 54 1 26 50
M  V30 55 1 27 51
M  V30 56 1 27 52
M  V30 57 1 28 53
M  V30 58 1 28 54
M  V30 END BOND
M  V30 END CTAB
M  END
>  <Dataset>  (808) 
ChEMBL_Kinases

>  <Ligand_Instance>  (808) 
nan

>  <PDB_ID>  (808) 
nan

>  <Standardized_SMILES>  (808) 
NCCN1CCN(c2nc(-c3ccncc3)nc3sc4c(c23)CCCC4)CC1

>  <Name>  (808) 
nan

>  <Pocket>  (808) 
nan

>  <ATP_Site>  (808) 
nan

>  <Peripheral>  (808) 
nan

>  <Num_H_Atoms_ProtBoundConf>  (808) 
nan

>  <Num_Resolved_Atoms>  (808) 
nan

>  <Num_Not_Resolved_Atoms>  (808) 
nan

$$$$
CHEMBL4570292
     RDKit          3D

  0  0  0  0  0  0  0  0  0  0999 V3000
M  V30 BEGIN CTAB
M  V30 COUNTS 50 54 0 0 0
M  V30 BEGIN ATOM
M  V30 1 C 3.508759 -3.472515 0.617024 0
M  V30 2 C 2.886292 -2.938922 1.848177 0
M  V30 3 C 3.209585 -3.511700 3.084719 0
M  V30 4 C 2.591450 -2.957585 4.176333 0
M  V30 5 C 1.706333 -1.916194 4.138054 0
M  V30 6 C 1.418506 -1.382984 2.884057 0
M  V30 7 C 0.504106 -0.282540 2.622924 0
M  V30 8 N 0.421649 1.020333 2.940972 0
M  V30 9 N -0.666549 1.552422 2.413345 0
M  V30 10 C -1.239842 2.883980 2.434283 0
M  V30 11 C -0.678490 3.677705 1.290007 0
M  V30 12 S -0.018129 5.186154 1.274677 0
M  V30 13 N -0.695288 3.071206 0.007880 0
M  V30 14 C -0.310727 3.394937 -1.299439 0
M  V30 15 C 1.062602 3.216053 -1.475058 0
M  V30 16 C 1.682523 3.465057 -2.699552 0
M  V30 17 C 0.872528 3.900100 -3.742908 0
M  V30 18 C -0.508945 4.092988 -3.611375 0
M  V30 19 F -1.299125 4.507895 -4.619346 0
M  V30 20 C -1.049196 3.829151 -2.379609 0
M  V30 21 C -1.342458 0.586847 1.719123 0
M  V30 22 C -0.612438 -0.605242 1.835614 0
M  V30 23 C -1.045553 -1.855347 1.199158 0
M  V30 24 C -1.275900 -3.048511 1.749054 0
M  V30 25 C -1.694409 -4.092736 0.958373 0
M  V30 26 C -1.990121 -5.393860 1.300328 0
M  V30 27 N -2.386573 -6.269491 0.380146 0
M  V30 28 C -2.542722 -6.022626 -0.926318 0
M  V30 29 C -2.268677 -4.743319 -1.360702 0
M  V30 30 C -1.853406 -3.829002 -0.396445 0
M  V30 31 S -1.395344 -2.064421 -0.530048 0
M  V30 32 N 2.019942 -1.914165 1.779434 0
M  V30 33 H 2.975661 -4.359263 0.210326 0
M  V30 34 H 4.557928 -3.718026 0.844897 0
M  V30 35 H 3.469121 -2.694624 -0.199828 0
M  V30 36 H 3.897800 -4.333175 3.187279 0
M  V30 37 H 2.818789 -3.369746 5.128222 0
M  V30 38 H 1.209674 -1.466900 4.980449 0
M  V30 39 H -0.907295 3.335307 3.383237 0
M  V30 40 H -2.327253 2.887727 2.418749 0
M  V30 41 H -1.054877 2.121039 -0.228766 0
M  V30 42 H 1.775035 2.880568 -0.718419 0
M  V30 43 H 2.748899 3.334247 -2.862971 0
M  V30 44 H 1.340161 4.092070 -4.684557 0
M  V30 45 H -2.085780 3.935349 -2.145972 0
M  V30 46 H -2.282734 0.652437 1.159595 0
M  V30 47 H -1.123104 -3.164948 2.834729 0
M  V30 48 H -1.922120 -5.786154 2.314364 0
M  V30 49 H -2.864411 -6.721704 -1.688217 0
M  V30 50 H -2.334354 -4.349307 -2.376730 0
M  V30 END ATOM
M  V30 BEGIN BOND
M  V30 1 1 1 2
M  V30 2 2 2 3
M  V30 3 1 3 4
M  V30 4 2 4 5
M  V30 5 1 5 6
M  V30 6 1 6 7
M  V30 7 2 7 8
M  V30 8 1 8 9
M  V30 9 1 9 10
M  V30 10 1 10 11
M  V30 11 2 11 12
M  V30 12 1 11 13
M  V30 13 1 13 14
M  V30 14 2 14 15
M  V30 15 1 15 16
M  V30 16 2 16 17
M  V30 17 1 17 18
M  V30 18 1 18 19
M  V30 19 2 18 20
M  V30 20 1 9 21
M  V30 21 2 21 22
M  V30 22 1 22 23
M  V30 23 2 23 24
M  V30 24 1 24 25
M  V30 25 2 25 26
M  V30 26 1 26 27
M  V30 27 2 27 28
M  V30 28 1 28 29
M  V30 29 2 29 30
M  V30 30 1 30 31
M  V30 31 2 6 32
M  V30 32 1 32 2
M  V30 33 1 22 7
M  V30 34 1 31 23
M  V30 35 1 20 14
M  V30 36 1 30 25
M  V30 37 1 1 33
M  V30 38 1 1 34
M  V30 39 1 1 35
M  V30 40 1 3 36
M  V30 41 1 4 37
M  V30 42 1 5 38
M  V30 43 1 10 39
M  V30 44 1 10 40
M  V30 45 1 13 41
M  V30 46 1 15 42
M  V30 47 1 16 43
M  V30 48 1 17 44
M  V30 49 1 20 45
M  V30 50 1 21 46
M  V30 51 1 24 47
M  V30 52 1 26 48
M  V30 53 1 28 49
M  V30 54 1 29 50
M  V30 END BOND
M  V30 END CTAB
M  END
>  <Dataset>  (809) 
ChEMBL_Kinases

>  <Ligand_Instance>  (809) 
nan

>  <PDB_ID>  (809) 
nan

>  <Standardized_SMILES>  (809) 
Cc1cccc(-c2nn(CC(=S)Nc3cccc(F)c3)cc2-c2cc3cnccc3s2)n1

>  <Name>  (809) 
nan

>  <Pocket>  (809) 
nan

>  <ATP_Site>  (809) 
nan

>  <Peripheral>  (809) 
nan

>  <Num_H_Atoms_ProtBoundConf>  (809) 
nan

>  <Num_Resolved_Atoms>  (809) 
nan

>  <Num_Not_Resolved_Atoms>  (809) 
nan

$$$$
CHEMBL4635633
     RDKit          3D

  0  0  0  0  0  0  0  0  0  0999 V3000
M  V30 BEGIN CTAB
M  V30 COUNTS 59 62 0 0 0
M  V30 BEGIN ATOM
M  V30 1 C 5.874406 -2.423569 3.572304 0
M  V30 2 C 4.569906 -1.751083 3.409195 0
M  V30 3 O 3.549702 -2.432134 3.646507 0
M  V30 4 N 4.367643 -0.419702 3.012963 0
M  V30 5 C 3.282464 0.476182 2.766662 0
M  V30 6 C 2.356693 0.123136 1.661985 0 CFG=1
M  V30 7 C 3.030770 0.016865 0.313566 0
M  V30 8 C 2.136709 -0.619590 -0.674025 0
M  V30 9 C 0.658452 -0.511300 -0.431701 0 CFG=2
M  V30 10 N 0.263929 0.872831 -0.602088 0
M  V30 11 C -1.022037 1.487681 -0.653126 0
M  V30 12 C -1.147418 2.883196 -0.719011 0
M  V30 13 C 0.044056 3.770133 -0.750275 0
M  V30 14 O 0.577269 3.806570 0.550104 0
M  V30 15 C -2.407046 3.433506 -0.761972 0
M  V30 16 N -3.522896 2.688978 -0.744198 0
M  V30 17 C -3.437593 1.327024 -0.682453 0
M  V30 18 C -4.622079 0.601070 -0.689301 0
M  V30 19 C -4.504738 -0.779503 -0.651476 0
M  V30 20 C -3.258868 -1.387200 -0.609517 0
M  V30 21 C -3.258696 -2.842737 -0.623914 0
M  V30 22 C -4.379363 -3.610510 -0.608751 0
M  V30 23 C -4.404768 -4.980100 -0.643611 0
M  V30 24 Cl -5.877171 -5.898939 -0.621162 0
M  V30 25 C -3.222056 -5.683293 -0.698987 0
M  V30 26 O -3.221042 -7.069902 -0.734723 0
M  V30 27 C -2.047363 -4.956254 -0.717157 0
M  V30 28 Cl -0.542738 -5.865563 -0.788502 0
M  V30 29 C -2.107280 -3.598794 -0.680242 0
M  V30 30 N -2.153865 -0.624136 -0.603124 0
M  V30 31 C -2.197626 0.724796 -0.637641 0
M  V30 32 C 0.285556 -0.907609 0.976014 0
M  V30 33 C 1.541623 -1.123204 1.826249 0
M  V30 34 H 5.830079 -3.451479 3.161339 0
M  V30 35 H 6.668252 -1.832538 3.043897 0
M  V30 36 H 6.119846 -2.458559 4.641737 0
M  V30 37 H 5.316970 0.036621 2.853649 0
M  V30 38 H 2.647958 0.418227 3.720195 0
M  V30 39 H 3.590493 1.525847 2.698358 0
M  V30 40 H 1.595360 0.961351 1.534198 0
M  V30 41 H 3.926722 -0.623933 0.477853 0
M  V30 42 H 3.356391 1.007030 -0.068081 0
M  V30 43 H 2.360252 -1.718457 -0.706655 0
M  V30 44 H 2.418933 -0.251122 -1.677986 0
M  V30 45 H 0.093851 -1.132794 -1.133863 0
M  V30 46 H 1.062784 1.560658 -0.708699 0
M  V30 47 H 0.761482 3.380372 -1.468270 0
M  V30 48 H -0.320402 4.792245 -1.022017 0
M  V30 49 H 0.727950 4.747380 0.806412 0
M  V30 50 H -2.489571 4.493599 -0.810971 0
M  V30 51 H -5.548881 1.164421 -0.723625 0
M  V30 52 H -5.492516 -1.225264 -0.661554 0
M  V30 53 H -5.358811 -3.171082 -0.565353 0
M  V30 54 H -3.449676 -7.547506 0.142429 0
M  V30 55 H -1.132587 -3.139611 -0.713530 0
M  V30 56 H -0.268955 -0.090098 1.467312 0
M  V30 57 H -0.242899 -1.867572 0.999441 0
M  V30 58 H 1.211253 -1.287124 2.845438 0
M  V30 59 H 2.080057 -2.032394 1.469300 0
M  V30 END ATOM
M  V30 BEGIN BOND
M  V30 1 1 1 2
M  V30 2 2 2 3
M  V30 3 1 2 4
M  V30 4 1 4 5
M  V30 5 1 5 6
M  V30 6 1 6 7
M  V30 7 1 7 8
M  V30 8 1 8 9
M  V30 9 1 9 10
M  V30 10 1 10 11
M  V30 11 2 11 12
M  V30 12 1 12 13
M  V30 13 1 13 14
M  V30 14 1 12 15
M  V30 15 2 15 16
M  V30 16 1 16 17
M  V30 17 2 17 18
M  V30 18 1 18 19
M  V30 19 2 19 20
M  V30 20 1 20 21
M  V30 21 2 21 22
M  V30 22 1 22 23
M  V30 23 1 23 24
M  V30 24 2 23 25
M  V30 25 1 25 26
M  V30 26 1 25 27
M  V30 27 1 27 28
M  V30 28 2 27 29
M  V30 29 1 20 30
M  V30 30 2 30 31
M  V30 31 1 9 32
M  V30 32 1 32 33
M  V30 33 1 33 6
M  V30 34 1 31 11
M  V30 35 1 31 17
M  V30 36 1 29 21
M  V30 37 1 1 34
M  V30 38 1 1 35
M  V30 39 1 1 36
M  V30 40 1 4 37
M  V30 41 1 5 38
M  V30 42 1 5 39
M  V30 43 1 6 40 CFG=3
M  V30 44 1 7 41
M  V30 45 1 7 42
M  V30 46 1 8 43
M  V30 47 1 8 44
M  V30 48 1 9 45 CFG=3
M  V30 49 1 10 46
M  V30 50 1 13 47
M  V30 51 1 13 48
M  V30 52 1 14 49
M  V30 53 1 15 50
M  V30 54 1 18 51
M  V30 55 1 19 52
M  V30 56 1 22 53
M  V30 57 1 26 54
M  V30 58 1 29 55
M  V30 59 1 32 56
M  V30 60 1 32 57
M  V30 61 1 33 58
M  V30 62 1 33 59
M  V30 END BOND
M  V30 END CTAB
M  END
>  <Dataset>  (810) 
ChEMBL_Kinases

>  <Ligand_Instance>  (810) 
nan

>  <PDB_ID>  (810) 
nan

>  <Standardized_SMILES>  (810) 
CC(=O)NC[C@H]1CC[C@H](Nc2c(CO)cnc3ccc(-c4cc(Cl)c(O)c(Cl)c4)nc23)CC1

>  <Name>  (810) 
nan

>  <Pocket>  (810) 
nan

>  <ATP_Site>  (810) 
nan

>  <Peripheral>  (810) 
nan

>  <Num_H_Atoms_ProtBoundConf>  (810) 
nan

>  <Num_Resolved_Atoms>  (810) 
nan

>  <Num_Not_Resolved_Atoms>  (810) 
nan

$$$$
CHEMBL4635659
     RDKit          3D

  0  0  0  0  0  0  0  0  0  0999 V3000
M  V30 BEGIN CTAB
M  V30 COUNTS 58 62 0 0 0
M  V30 BEGIN ATOM
M  V30 1 O 2.125301 -5.931400 -0.807988 0
M  V30 2 C 1.099654 -5.144318 -1.346766 0
M  V30 3 C 1.136892 -3.781375 -0.808025 0
M  V30 4 C 1.176763 -2.658275 -0.348567 0
M  V30 5 C 1.233269 -1.333784 0.218599 0
M  V30 6 C 2.505096 -0.876433 0.568178 0
M  V30 7 C 2.605744 0.403279 1.119707 0
M  V30 8 C 1.494983 1.200104 1.318369 0
M  V30 9 N 1.707410 2.483745 1.886528 0
M  V30 10 C 1.273920 3.181671 3.082583 0
M  V30 11 C 2.417746 3.940880 3.724134 0
M  V30 12 O 3.293983 4.485969 2.820352 0
M  V30 13 C 2.690830 4.625967 1.561785 0
M  V30 14 C 2.595484 3.241097 0.990553 0
M  V30 15 C 0.280246 0.673248 0.946568 0
M  V30 16 N -0.856281 1.483809 1.146869 0
M  V30 17 C -2.230102 1.242469 0.879580 0
M  V30 18 N -2.689499 1.567514 -0.346016 0
M  V30 19 C -4.010211 1.327383 -0.572486 0
M  V30 20 N -4.839187 0.802805 0.334982 0
M  V30 21 C -4.406539 0.464390 1.580130 0
M  V30 22 N -5.018786 -0.068782 2.661696 0
M  V30 23 C -4.061414 -0.176824 3.619065 0
M  V30 24 C -2.852083 0.287011 3.139971 0
M  V30 25 C -3.061379 0.698113 1.840898 0
M  V30 26 C 0.091529 -0.575074 0.397410 0
M  V30 27 C -0.191807 -5.824564 -1.029690 0
M  V30 28 C -1.377172 -5.297144 -1.795141 0
M  V30 29 C -1.144437 -5.171818 -3.258756 0
M  V30 30 C 0.184393 -4.579245 -3.628904 0
M  V30 31 C 1.332893 -5.119436 -2.834552 0
M  V30 32 H 2.763414 -5.385132 -0.287075 0
M  V30 33 H 3.383391 -1.487615 0.419110 0
M  V30 34 H 3.614179 0.704368 1.370848 0
M  V30 35 H 0.934243 2.413563 3.817819 0
M  V30 36 H 0.453404 3.870223 2.889714 0
M  V30 37 H 2.984166 3.210229 4.361044 0
M  V30 38 H 2.000945 4.776960 4.331480 0
M  V30 39 H 1.678942 5.055285 1.730572 0
M  V30 40 H 3.311973 5.240278 0.886226 0
M  V30 41 H 2.297129 3.190998 -0.056219 0
M  V30 42 H 3.590920 2.729525 1.123074 0
M  V30 43 H -0.919855 2.445539 1.540145 0
M  V30 44 H -4.525765 1.530965 -1.496531 0
M  V30 45 H -6.034841 -0.342829 2.739143 0
M  V30 46 H -4.282519 -0.583972 4.613387 0
M  V30 47 H -1.911388 0.319546 3.690894 0
M  V30 48 H -0.869493 -0.951108 0.120564 0
M  V30 49 H -0.069463 -6.918379 -1.086369 0
M  V30 50 H -0.421633 -5.595532 0.052632 0
M  V30 51 H -1.738105 -4.350051 -1.338303 0
M  V30 52 H -2.203466 -6.041320 -1.638940 0
M  V30 53 H -1.334908 -6.113872 -3.823740 0
M  V30 54 H -1.922638 -4.458610 -3.653146 0
M  V30 55 H 0.199298 -3.474699 -3.622293 0
M  V30 56 H 0.376324 -4.862066 -4.697381 0
M  V30 57 H 2.195166 -4.414677 -3.021995 0
M  V30 58 H 1.687950 -6.116451 -3.138455 0
M  V30 END ATOM
M  V30 BEGIN BOND
M  V30 1 1 1 2
M  V30 2 1 2 3
M  V30 3 3 3 4
M  V30 4 1 4 5
M  V30 5 2 5 6
M  V30 6 1 6 7
M  V30 7 2 7 8
M  V30 8 1 8 9
M  V30 9 1 9 10
M  V30 10 1 10 11
M  V30 11 1 11 12
M  V30 12 1 12 13
M  V30 13 1 13 14
M  V30 14 1 8 15
M  V30 15 1 15 16
M  V30 16 1 16 17
M  V30 17 2 17 18
M  V30 18 1 18 19
M  V30 19 2 19 20
M  V30 20 1 20 21
M  V30 21 1 21 22
M  V30 22 1 22 23
M  V30 23 2 23 24
M  V30 24 1 24 25
M  V30 25 2 15 26
M  V30 26 1 2 27
M  V30 27 1 27 28
M  V30 28 1 28 29
M  V30 29 1 29 30
M  V30 30 1 30 31
M  V30 31 1 31 2
M  V30 32 1 26 5
M  V30 33 1 14 9
M  V30 34 1 25 17
M  V30 35 2 25 21
M  V30 36 1 1 32
M  V30 37 1 6 33
M  V30 38 1 7 34
M  V30 39 1 10 35
M  V30 40 1 10 36
M  V30 41 1 11 37
M  V30 42 1 11 38
M  V30 43 1 13 39
M  V30 44 1 13 40
M  V30 45 1 14 41
M  V30 46 1 14 42
M  V30 47 1 16 43
M  V30 48 1 19 44
M  V30 49 1 22 45
M  V30 50 1 23 46
M  V30 51 1 24 47
M  V30 52 1 26 48
M  V30 53 1 27 49
M  V30 54 1 27 50
M  V30 55 1 28 51
M  V30 56 1 28 52
M  V30 57 1 29 53
M  V30 58 1 29 54
M  V30 59 1 30 55
M  V30 60 1 30 56
M  V30 61 1 31 57
M  V30 62 1 31 58
M  V30 END BOND
M  V30 END CTAB
M  END
>  <Dataset>  (811) 
ChEMBL_Kinases

>  <Ligand_Instance>  (811) 
nan

>  <PDB_ID>  (811) 
nan

>  <Standardized_SMILES>  (811) 
OC1(C#Cc2ccc(N3CCOCC3)c(Nc3ncnc4[nH]ccc34)c2)CCCCC1

>  <Name>  (811) 
nan

>  <Pocket>  (811) 
nan

>  <ATP_Site>  (811) 
nan

>  <Peripheral>  (811) 
nan

>  <Num_H_Atoms_ProtBoundConf>  (811) 
nan

>  <Num_Resolved_Atoms>  (811) 
nan

>  <Num_Not_Resolved_Atoms>  (811) 
nan

$$$$
CHEMBL4570285
     RDKit          3D

  0  0  0  0  0  0  0  0  0  0999 V3000
M  V30 BEGIN CTAB
M  V30 COUNTS 42 45 0 0 0
M  V30 BEGIN ATOM
M  V30 1 C 0.070030 -4.904594 3.698758 0
M  V30 2 C 1.163896 -4.925552 2.859399 0
M  V30 3 N 1.472698 -3.772252 2.240871 0
M  V30 4 C 0.768625 -2.644847 2.414459 0
M  V30 5 C 1.185784 -1.505291 1.716596 0
M  V30 6 N 2.309427 -1.462994 0.848949 0
M  V30 7 C 2.917993 -0.462298 0.043666 0
M  V30 8 C 2.154558 0.062070 -1.105771 0 CFG=1
M  V30 9 C 1.773736 -0.993071 -2.118933 0
M  V30 10 C 0.857208 -0.506912 -3.165065 0
M  V30 11 C 0.542207 0.929865 -3.183976 0
M  V30 12 N 0.679236 1.648978 -1.971769 0
M  V30 13 C 0.896769 0.824772 -0.791431 0
M  V30 14 N 0.435475 -0.417789 1.939129 0
M  V30 15 C -0.623071 -0.329477 2.729093 0
M  V30 16 C -1.406052 0.882565 2.939200 0
M  V30 17 C -2.518989 1.074745 3.736314 0
M  V30 18 N -2.932411 2.364775 3.637299 0
M  V30 19 N -2.139292 3.020388 2.812271 0
M  V30 20 C -1.223320 2.135641 2.391832 0
M  V30 21 C -1.040966 -1.446301 3.419971 0
M  V30 22 C -0.319315 -2.602775 3.242286 0
M  V30 23 N -0.618201 -3.761456 3.854930 0
M  V30 24 H -0.241355 -5.803355 4.235532 0
M  V30 25 H 1.681066 -5.870563 2.770349 0
M  V30 26 H 2.772824 -2.408478 0.819144 0
M  V30 27 H 3.890207 -0.838883 -0.349415 0
M  V30 28 H 3.182407 0.416251 0.693058 0
M  V30 29 H 2.867345 0.741032 -1.678750 0
M  V30 30 H 2.738993 -1.398270 -2.542114 0
M  V30 31 H 1.351319 -1.834443 -1.530935 0
M  V30 32 H -0.096077 -1.111731 -3.122521 0
M  V30 33 H 1.291326 -0.789565 -4.163526 0
M  V30 34 H -0.516863 1.062274 -3.544706 0
M  V30 35 H 1.152936 1.462451 -3.970213 0
M  V30 36 H -0.063336 2.373291 -1.796501 0
M  V30 37 H -0.000861 0.177941 -0.731440 0
M  V30 38 H 1.020820 1.525234 0.057648 0
M  V30 39 H -2.998068 0.307338 4.355140 0
M  V30 40 H -2.232691 4.028416 2.557543 0
M  V30 41 H -0.453714 2.438635 1.699953 0
M  V30 42 H -1.887410 -1.478310 4.085390 0
M  V30 END ATOM
M  V30 BEGIN BOND
M  V30 1 2 1 2
M  V30 2 1 2 3
M  V30 3 2 3 4
M  V30 4 1 4 5
M  V30 5 1 5 6
M  V30 6 1 6 7
M  V30 7 1 7 8
M  V30 8 1 8 9
M  V30 9 1 9 10
M  V30 10 1 10 11
M  V30 11 1 11 12
M  V30 12 1 12 13
M  V30 13 2 5 14
M  V30 14 1 14 15
M  V30 15 1 15 16
M  V30 16 1 16 17
M  V30 17 2 17 18
M  V30 18 1 18 19
M  V30 19 1 19 20
M  V30 20 2 15 21
M  V30 21 1 21 22
M  V30 22 2 22 23
M  V30 23 1 23 1
M  V30 24 1 22 4
M  V30 25 1 13 8
M  V30 26 2 20 16
M  V30 27 1 1 24
M  V30 28 1 2 25
M  V30 29 1 6 26
M  V30 30 1 7 27
M  V30 31 1 7 28
M  V30 32 1 8 29 CFG=3
M  V30 33 1 9 30
M  V30 34 1 9 31
M  V30 35 1 10 32
M  V30 36 1 10 33
M  V30 37 1 11 34
M  V30 38 1 11 35
M  V30 39 1 12 36
M  V30 40 1 13 37
M  V30 41 1 13 38
M  V30 42 1 17 39
M  V30 43 1 19 40
M  V30 44 1 20 41
M  V30 45 1 21 42
M  V30 END BOND
M  V30 END CTAB
M  END
>  <Dataset>  (812) 
ChEMBL_Kinases

>  <Ligand_Instance>  (812) 
nan

>  <PDB_ID>  (812) 
nan

>  <Standardized_SMILES>  (812) 
c1cnc2c(NC[C@H]3CCCNC3)nc(-c3cn[nH]c3)cc2n1

>  <Name>  (812) 
nan

>  <Pocket>  (812) 
nan

>  <ATP_Site>  (812) 
nan

>  <Peripheral>  (812) 
nan

>  <Num_H_Atoms_ProtBoundConf>  (812) 
nan

>  <Num_Resolved_Atoms>  (812) 
nan

>  <Num_Not_Resolved_Atoms>  (812) 
nan

$$$$
CHEMBL4635670
     RDKit          3D

  0  0  0  0  0  0  0  0  0  0999 V3000
M  V30 BEGIN CTAB
M  V30 COUNTS 64 67 0 0 0
M  V30 BEGIN ATOM
M  V30 1 C 3.842674 -4.580068 3.602834 0
M  V30 2 C 2.693605 -4.106048 2.681388 0
M  V30 3 O 2.634074 -2.717649 2.719866 0
M  V30 4 C 1.775037 -1.873632 2.070528 0
M  V30 5 O 1.488043 -3.026939 1.765964 0
M  V30 6 C 1.848065 -0.429831 2.218345 0
M  V30 7 C 2.857325 0.018830 3.039907 0
M  V30 8 N 2.914138 1.352076 3.137200 0
M  V30 9 C 2.077470 2.173213 2.502939 0
M  V30 10 C 2.254316 3.519270 2.694039 0
M  V30 11 C 1.412737 4.405423 2.057527 0
M  V30 12 C 0.402435 3.938530 1.235640 0
M  V30 13 C -0.524104 4.820309 0.536321 0
M  V30 14 C -0.466571 6.195160 0.629836 0
M  V30 15 C -1.383317 6.952298 -0.059611 0
M  V30 16 N -2.342319 6.371318 -0.829049 0
M  V30 17 C -2.425583 5.039548 -0.941013 0
M  V30 18 O -3.408618 4.432498 -1.730176 0
M  V30 19 C -1.505542 4.250825 -0.250420 0
M  V30 20 N 0.311188 2.603788 1.113001 0
M  V30 21 C 1.087370 1.703400 1.697030 0
M  V30 22 C 0.936056 0.347882 1.523660 0
M  V30 23 N -0.108761 -0.101396 0.697490 0
M  V30 24 C -0.791098 -1.250300 0.176611 0 CFG=1
M  V30 25 C -1.598318 -2.026480 1.158702 0
M  V30 26 C -1.897887 -3.397550 0.522723 0
M  V30 27 C -2.621226 -3.278545 -0.752390 0 CFG=2
M  V30 28 C -2.212121 -4.065808 -1.928993 0
M  V30 29 N -0.908158 -3.921268 -2.476269 0
M  V30 30 C -0.834487 -4.578597 -3.802156 0
M  V30 31 C 0.097845 -4.682702 -1.693782 0
M  V30 32 C -2.879682 -1.812363 -1.076164 0
M  V30 33 C -1.677009 -0.944824 -1.019198 0
M  V30 34 H 4.574395 -3.747322 3.647937 0
M  V30 35 H 3.466568 -4.780652 4.606748 0
M  V30 36 H 4.325529 -5.452766 3.125919 0
M  V30 37 H 2.884706 -4.535182 1.666623 0
M  V30 38 H 1.792983 -4.566683 3.115752 0
M  V30 39 H 3.528424 -0.650573 3.548145 0
M  V30 40 H 3.035309 3.879012 3.330705 0
M  V30 41 H 1.557906 5.463539 2.209776 0
M  V30 42 H 0.280915 6.685606 1.229569 0
M  V30 43 H -1.380117 8.044062 -0.019742 0
M  V30 44 H -4.259176 4.043225 -1.309121 0
M  V30 45 H -1.620104 3.169064 -0.376907 0
M  V30 46 H -0.664045 0.661166 0.252068 0
M  V30 47 H 0.042253 -1.944561 -0.155982 0
M  V30 48 H -1.060037 -2.198454 2.084123 0
M  V30 49 H -2.564003 -1.511385 1.382542 0
M  V30 50 H -2.517700 -3.901783 1.336785 0
M  V30 51 H -0.970017 -3.951497 0.512090 0
M  V30 52 H -3.690239 -3.656658 -0.524038 0
M  V30 53 H -2.327659 -5.162428 -1.637089 0
M  V30 54 H -2.971396 -3.978047 -2.765252 0
M  V30 55 H -0.911772 -3.795356 -4.601287 0
M  V30 56 H 0.148281 -5.056310 -3.955477 0
M  V30 57 H -1.635985 -5.305144 -3.957324 0
M  V30 58 H 0.843849 -5.167692 -2.397178 0
M  V30 59 H -0.360834 -5.489291 -1.104126 0
M  V30 60 H 0.702061 -4.006535 -1.086905 0
M  V30 61 H -3.614657 -1.447114 -0.332190 0
M  V30 62 H -3.370131 -1.722888 -2.051919 0
M  V30 63 H -1.092868 -0.938064 -1.972333 0
M  V30 64 H -2.009551 0.104962 -0.890526 0
M  V30 END ATOM
M  V30 BEGIN BOND
M  V30 1 1 1 2
M  V30 2 1 2 3
M  V30 3 1 3 4
M  V30 4 2 4 5
M  V30 5 1 4 6
M  V30 6 2 6 7
M  V30 7 1 7 8
M  V30 8 2 8 9
M  V30 9 1 9 10
M  V30 10 2 10 11
M  V30 11 1 11 12
M  V30 12 1 12 13
M  V30 13 2 13 14
M  V30 14 1 14 15
M  V30 15 2 15 16
M  V30 16 1 16 17
M  V30 17 1 17 18
M  V30 18 2 17 19
M  V30 19 2 12 20
M  V30 20 1 20 21
M  V30 21 2 21 22
M  V30 22 1 22 23
M  V30 23 1 23 24
M  V30 24 1 24 25
M  V30 25 1 25 26
M  V30 26 1 26 27
M  V30 27 1 27 28
M  V30 28 1 28 29
M  V30 29 1 29 30
M  V30 30 1 29 31
M  V30 31 1 27 32
M  V30 32 1 32 33
M  V30 33 1 22 6
M  V30 34 1 33 24
M  V30 35 1 21 9
M  V30 36 1 19 13
M  V30 37 1 1 34
M  V30 38 1 1 35
M  V30 39 1 1 36
M  V30 40 1 2 37
M  V30 41 1 2 38
M  V30 42 1 7 39
M  V30 43 1 10 40
M  V30 44 1 11 41
M  V30 45 1 14 42
M  V30 46 1 15 43
M  V30 47 1 18 44
M  V30 48 1 19 45
M  V30 49 1 23 46
M  V30 50 1 24 47 CFG=3
M  V30 51 1 25 48
M  V30 52 1 25 49
M  V30 53 1 26 50
M  V30 54 1 26 51
M  V30 55 1 27 52 CFG=1
M  V30 56 1 28 53
M  V30 57 1 28 54
M  V30 58 1 30 55
M  V30 59 1 30 56
M  V30 60 1 30 57
M  V30 61 1 31 58
M  V30 62 1 31 59
M  V30 63 1 31 60
M  V30 64 1 32 61
M  V30 65 1 32 62
M  V30 66 1 33 63
M  V30 67 1 33 64
M  V30 END BOND
M  V30 END CTAB
M  END
>  <Dataset>  (813) 
ChEMBL_Kinases

>  <Ligand_Instance>  (813) 
nan

>  <PDB_ID>  (813) 
nan

>  <Standardized_SMILES>  (813) 
CCOC(=O)c1cnc2ccc(-c3ccnc(O)c3)nc2c1N[C@H]1CC[C@H](CN(C)C)CC1

>  <Name>  (813) 
nan

>  <Pocket>  (813) 
nan

>  <ATP_Site>  (813) 
nan

>  <Peripheral>  (813) 
nan

>  <Num_H_Atoms_ProtBoundConf>  (813) 
nan

>  <Num_Resolved_Atoms>  (813) 
nan

>  <Num_Not_Resolved_Atoms>  (813) 
nan

$$$$
CHEMBL4635680
     RDKit          3D

  0  0  0  0  0  0  0  0  0  0999 V3000
M  V30 BEGIN CTAB
M  V30 COUNTS 46 49 0 0 0
M  V30 BEGIN ATOM
M  V30 1 O 0.187905 -0.619452 1.888343 0
M  V30 2 C 0.651191 0.540033 2.039008 0
M  V30 3 N 1.653251 0.805833 2.990687 0
M  V30 4 C 2.249305 -0.176044 3.874046 0
M  V30 5 C 2.900401 -1.236236 2.975084 0
M  V30 6 C 3.549986 -2.304140 3.849491 0
M  V30 7 C 4.089566 -3.349558 2.891455 0
M  V30 8 C 5.057634 -2.629752 1.969088 0
M  V30 9 O 5.207572 -1.285880 2.286822 0
M  V30 10 C 3.976370 -0.624005 2.126772 0
M  V30 11 C 0.115981 1.627201 1.187649 0
M  V30 12 N 0.486337 2.924545 1.204562 0
M  V30 13 N -0.216487 3.605242 0.295119 0
M  V30 14 C -1.056649 2.766043 -0.330589 0
M  V30 15 C -1.999201 2.911910 -1.336098 0
M  V30 16 C -2.742025 1.835785 -1.796012 0
M  V30 17 C -2.548316 0.565232 -1.243024 0
M  V30 18 C -3.282867 -0.601077 -1.669303 0
M  V30 19 C -3.777030 -1.421067 -0.683545 0
M  V30 20 C -4.501824 -2.577759 -0.892300 0
M  V30 21 C -4.750687 -2.939972 -2.220967 0
M  V30 22 C -4.269003 -2.138935 -3.244918 0
M  V30 23 F -4.503576 -2.479221 -4.537502 0
M  V30 24 C -3.548734 -0.991040 -2.980792 0
M  V30 25 F -3.052626 -0.168542 -3.944386 0
M  V30 26 C -1.611207 0.443943 -0.249952 0
M  V30 27 C -0.860855 1.502359 0.222613 0
M  V30 28 H 1.973706 1.812673 3.038536 0
M  V30 29 H 1.503546 -0.639134 4.541333 0
M  V30 30 H 3.033270 0.300766 4.472869 0
M  V30 31 H 2.147940 -1.780204 2.370254 0
M  V30 32 H 4.442977 -1.865558 4.353758 0
M  V30 33 H 2.864461 -2.768702 4.555734 0
M  V30 34 H 3.214599 -3.649987 2.263112 0
M  V30 35 H 4.547533 -4.202338 3.426482 0
M  V30 36 H 4.754126 -2.694263 0.912318 0
M  V30 37 H 6.088188 -3.073856 2.077243 0
M  V30 38 H 4.183085 0.437724 2.394617 0
M  V30 39 H 3.717631 -0.638390 1.048743 0
M  V30 40 H -0.119691 4.626460 0.109105 0
M  V30 41 H -2.149974 3.905381 -1.767777 0
M  V30 42 H -3.477102 1.957021 -2.582271 0
M  V30 43 H -3.614154 -1.189092 0.369091 0
M  V30 44 H -4.875208 -3.198665 -0.099644 0
M  V30 45 H -5.309908 -3.830097 -2.466241 0
M  V30 46 H -1.441139 -0.541657 0.199288 0
M  V30 END ATOM
M  V30 BEGIN BOND
M  V30 1 2 1 2
M  V30 2 1 2 3
M  V30 3 1 3 4
M  V30 4 1 4 5
M  V30 5 1 5 6
M  V30 6 1 6 7
M  V30 7 1 7 8
M  V30 8 1 8 9
M  V30 9 1 9 10
M  V30 10 1 2 11
M  V30 11 2 11 12
M  V30 12 1 12 13
M  V30 13 1 13 14
M  V30 14 2 14 15
M  V30 15 1 15 16
M  V30 16 2 16 17
M  V30 17 1 17 18
M  V30 18 2 18 19
M  V30 19 1 19 20
M  V30 20 2 20 21
M  V30 21 1 21 22
M  V30 22 1 22 23
M  V30 23 2 22 24
M  V30 24 1 24 25
M  V30 25 1 17 26
M  V30 26 2 26 27
M  V30 27 1 10 5
M  V30 28 1 27 11
M  V30 29 1 27 14
M  V30 30 1 24 18
M  V30 31 1 3 28
M  V30 32 1 4 29
M  V30 33 1 4 30
M  V30 34 1 5 31
M  V30 35 1 6 32
M  V30 36 1 6 33
M  V30 37 1 7 34
M  V30 38 1 7 35
M  V30 39 1 8 36
M  V30 40 1 8 37
M  V30 41 1 10 38
M  V30 42 1 10 39
M  V30 43 1 13 40
M  V30 44 1 15 41
M  V30 45 1 16 42
M  V30 46 1 19 43
M  V30 47 1 20 44
M  V30 48 1 21 45
M  V30 49 1 26 46
M  V30 END BOND
M  V30 END CTAB
M  END
>  <Dataset>  (814) 
ChEMBL_Kinases

>  <Ligand_Instance>  (814) 
nan

>  <PDB_ID>  (814) 
nan

>  <Standardized_SMILES>  (814) 
O=C(NCC1CCCOC1)c1n[nH]c2ccc(-c3cccc(F)c3F)cc12

>  <Name>  (814) 
nan

>  <Pocket>  (814) 
nan

>  <ATP_Site>  (814) 
nan

>  <Peripheral>  (814) 
nan

>  <Num_H_Atoms_ProtBoundConf>  (814) 
nan

>  <Num_Resolved_Atoms>  (814) 
nan

>  <Num_Not_Resolved_Atoms>  (814) 
nan

$$$$
CHEMBL4635693
     RDKit          3D

  0  0  0  0  0  0  0  0  0  0999 V3000
M  V30 BEGIN CTAB
M  V30 COUNTS 54 58 0 0 0
M  V30 BEGIN ATOM
M  V30 1 N 8.585852 0.381216 -4.445679 0
M  V30 2 C 8.528408 0.041061 -3.325781 0
M  V30 3 C 8.462603 -0.404947 -1.938401 0
M  V30 4 C 9.672672 -0.709670 -1.378507 0
M  V30 5 C 9.607794 -1.131491 -0.060337 0
M  V30 6 C 8.408388 -1.230655 0.616032 0
M  V30 7 C 7.225389 -0.898663 -0.037749 0
M  V30 8 C 7.221815 -0.473829 -1.342777 0
M  V30 9 N 6.096053 -0.131387 -2.075562 0
M  V30 10 C 4.726411 -0.071769 -1.723080 0
M  V30 11 N 4.395899 1.171496 -1.282809 0
M  V30 12 C 3.084267 1.218174 -0.955270 0
M  V30 13 C 2.263925 2.244795 -0.465735 0
M  V30 14 C 0.927071 2.005810 -0.225020 0
M  V30 15 C 0.436000 0.718828 -0.484907 0
M  V30 16 C -0.988473 0.468474 -0.243267 0
M  V30 17 C -1.662648 1.136704 0.759642 0
M  V30 18 C -3.018111 0.864404 0.925907 0
M  V30 19 C -3.653063 -0.058454 0.092730 0
M  V30 20 N -5.022927 -0.177497 0.423135 0
M  V30 21 C -5.674252 -1.023688 1.313124 0
M  V30 22 O -5.466924 -1.942883 2.136135 0
M  V30 23 C -7.094194 -1.182548 1.687603 0
M  V30 24 C -7.189682 -2.245117 2.730514 0
M  V30 25 C -7.371001 -3.590194 2.538568 0
M  V30 26 C -7.440593 -4.472377 3.598868 0
M  V30 27 C -7.326477 -4.007286 4.902533 0
M  V30 28 F -7.388260 -4.840860 5.970051 0
M  V30 29 C -7.141281 -2.652449 5.134870 0
M  V30 30 C -7.079967 -1.822780 4.036398 0
M  V30 31 C -2.930139 -0.697222 -0.892597 0
M  V30 32 C -1.573715 -0.451402 -1.089088 0
M  V30 33 C 1.297561 -0.247728 -0.963630 0
M  V30 34 N 2.601955 -0.019251 -1.200882 0
M  V30 35 N 3.580064 -0.788748 -1.656848 0
M  V30 36 H 10.597612 -0.630804 -1.911127 0
M  V30 37 H 10.505841 -1.395989 0.480624 0
M  V30 38 H 8.367881 -1.561177 1.647690 0
M  V30 39 H 6.250284 -0.971979 0.477156 0
M  V30 40 H 6.174409 0.145400 -3.086428 0
M  V30 41 H 2.657892 3.227185 -0.274050 0
M  V30 42 H 0.302465 2.791263 0.149809 0
M  V30 43 H -1.062664 1.823514 1.336166 0
M  V30 44 H -3.457524 1.438175 1.738969 0
M  V30 45 H -5.702159 0.462035 -0.048507 0
M  V30 46 H -7.731922 -1.494167 0.834060 0
M  V30 47 H -7.429465 -0.215558 2.128815 0
M  V30 48 H -7.456791 -3.914337 1.514705 0
M  V30 49 H -7.585611 -5.535659 3.465118 0
M  V30 50 H -7.050112 -2.268565 6.136562 0
M  V30 51 H -6.942684 -0.779384 4.271137 0
M  V30 52 H -3.520152 -1.389009 -1.474476 0
M  V30 53 H -1.069999 -0.987443 -1.881681 0
M  V30 54 H 0.943234 -1.245022 -1.174025 0
M  V30 END ATOM
M  V30 BEGIN BOND
M  V30 1 3 1 2
M  V30 2 1 2 3
M  V30 3 2 3 4
M  V30 4 1 4 5
M  V30 5 2 5 6
M  V30 6 1 6 7
M  V30 7 2 7 8
M  V30 8 1 8 9
M  V30 9 1 9 10
M  V30 10 1 10 11
M  V30 11 2 11 12
M  V30 12 1 12 13
M  V30 13 2 13 14
M  V30 14 1 14 15
M  V30 15 1 15 16
M  V30 16 2 16 17
M  V30 17 1 17 18
M  V30 18 2 18 19
M  V30 19 1 19 20
M  V30 20 1 20 21
M  V30 21 2 21 22
M  V30 22 1 21 23
M  V30 23 1 23 24
M  V30 24 2 24 25
M  V30 25 1 25 26
M  V30 26 2 26 27
M  V30 27 1 27 28
M  V30 28 1 27 29
M  V30 29 2 29 30
M  V30 30 1 19 31
M  V30 31 2 31 32
M  V30 32 2 15 33
M  V30 33 1 33 34
M  V30 34 1 34 35
M  V30 35 1 8 3
M  V30 36 2 35 10
M  V30 37 1 34 12
M  V30 38 1 32 16
M  V30 39 1 30 24
M  V30 40 1 4 36
M  V30 41 1 5 37
M  V30 42 1 6 38
M  V30 43 1 7 39
M  V30 44 1 9 40
M  V30 45 1 13 41
M  V30 46 1 14 42
M  V30 47 1 17 43
M  V30 48 1 18 44
M  V30 49 1 20 45
M  V30 50 1 23 46
M  V30 51 1 23 47
M  V30 52 1 25 48
M  V30 53 1 26 49
M  V30 54 1 29 50
M  V30 55 1 30 51
M  V30 56 1 31 52
M  V30 57 1 32 53
M  V30 58 1 33 54
M  V30 END BOND
M  V30 END CTAB
M  END
>  <Dataset>  (815) 
ChEMBL_Kinases

>  <Ligand_Instance>  (815) 
nan

>  <PDB_ID>  (815) 
nan

>  <Standardized_SMILES>  (815) 
N#Cc1ccccc1Nc1nc2ccc(-c3ccc(NC(=O)Cc4ccc(F)cc4)cc3)cn2n1

>  <Name>  (815) 
nan

>  <Pocket>  (815) 
nan

>  <ATP_Site>  (815) 
nan

>  <Peripheral>  (815) 
nan

>  <Num_H_Atoms_ProtBoundConf>  (815) 
nan

>  <Num_Resolved_Atoms>  (815) 
nan

>  <Num_Not_Resolved_Atoms>  (815) 
nan

$$$$
CHEMBL4635720
     RDKit          3D

  0  0  0  0  0  0  0  0  0  0999 V3000
M  V30 BEGIN CTAB
M  V30 COUNTS 60 63 0 0 0
M  V30 BEGIN ATOM
M  V30 1 C 0.817160 1.453762 6.298391 0
M  V30 2 O 0.495330 1.235449 4.941945 0
M  V30 3 C 1.443264 1.199533 3.925582 0
M  V30 4 C 2.815370 1.365786 4.059324 0
M  V30 5 C 3.645522 1.304122 2.959130 0
M  V30 6 N 5.017912 1.512082 3.241193 0
M  V30 7 S 6.274598 0.581784 2.531487 0
M  V30 8 C 6.124461 -1.121828 2.966268 0
M  V30 9 O 6.251992 0.765727 1.018422 0
M  V30 10 O 7.622469 1.073250 3.006416 0
M  V30 11 C 3.167178 1.078030 1.689971 0
M  V30 12 C 1.807774 0.910298 1.532832 0
M  V30 13 C 0.944487 0.968945 2.634084 0
M  V30 14 N -0.470050 0.814658 2.377108 0
M  V30 15 C -0.939401 0.502716 1.054425 0
M  V30 16 N -1.051398 1.233116 -0.080371 0
M  V30 17 C -1.541554 0.700489 -1.189849 0
M  V30 18 C -1.962151 -0.604805 -1.262240 0
M  V30 19 C -1.846887 -1.335745 -0.108801 0
M  V30 20 N -1.344095 -0.806034 1.042143 0
M  V30 21 N -2.241151 -2.693822 0.045056 0
M  V30 22 C -2.278917 -3.148085 1.442092 0
M  V30 23 C -2.610795 -3.702007 -0.846655 0
M  V30 24 C -2.656159 -4.987267 -0.395154 0
M  V30 25 C -3.005673 -6.079839 -1.153161 0
M  V30 26 C -3.340561 -5.862800 -2.490197 0
M  V30 27 C -3.297297 -4.571123 -2.953330 0
M  V30 28 C -2.942235 -3.455190 -2.183649 0
M  V30 29 C -2.986946 -2.204811 -2.949730 0
M  V30 30 O -3.578030 -2.258953 -4.052771 0
M  V30 31 N -2.427799 -0.909907 -2.585291 0
M  V30 32 C -2.338029 0.100524 -3.623556 0
M  V30 33 C -3.353242 1.181405 -3.607555 0
M  V30 34 C -1.032496 0.324584 -4.257556 0
M  V30 35 H 1.518213 2.335632 6.401988 0
M  V30 36 H 1.391543 0.611329 6.739388 0
M  V30 37 H -0.096106 1.613593 6.874340 0
M  V30 38 H 3.168311 1.542631 5.072329 0
M  V30 39 H 5.283603 2.282080 3.926778 0
M  V30 40 H 5.070904 -1.425209 3.082961 0
M  V30 41 H 6.627376 -1.267925 3.964901 0
M  V30 42 H 6.642119 -1.768080 2.208273 0
M  V30 43 H 3.871720 1.037784 0.852944 0
M  V30 44 H 1.395841 0.732565 0.558435 0
M  V30 45 H -1.086476 0.945796 3.202775 0
M  V30 46 H -1.589520 1.345647 -2.016399 0
M  V30 47 H -2.308044 -2.249018 2.132128 0
M  V30 48 H -3.264703 -3.637897 1.679929 0
M  V30 49 H -1.399396 -3.707875 1.745194 0
M  V30 50 H -2.391201 -5.136046 0.642740 0
M  V30 51 H -3.029337 -7.089866 -0.747947 0
M  V30 52 H -3.624210 -6.676750 -3.140786 0
M  V30 53 H -3.558434 -4.407628 -3.992428 0
M  V30 54 H -2.780741 -0.532283 -4.475948 0
M  V30 55 H -3.960508 1.138494 -2.652353 0
M  V30 56 H -4.151818 1.152355 -4.400127 0
M  V30 57 H -2.936808 2.222015 -3.769964 0
M  V30 58 H -1.235603 0.826539 -5.255463 0
M  V30 59 H -0.558618 -0.660978 -4.567678 0
M  V30 60 H -0.224086 0.864088 -3.827141 0
M  V30 END ATOM
M  V30 BEGIN BOND
M  V30 1 1 1 2
M  V30 2 1 2 3
M  V30 3 2 3 4
M  V30 4 1 4 5
M  V30 5 1 5 6
M  V30 6 1 6 7
M  V30 7 1 7 8
M  V30 8 2 7 9
M  V30 9 2 7 10
M  V30 10 2 5 11
M  V30 11 1 11 12
M  V30 12 2 12 13
M  V30 13 1 13 14
M  V30 14 1 14 15
M  V30 15 2 15 16
M  V30 16 1 16 17
M  V30 17 2 17 18
M  V30 18 1 18 19
M  V30 19 2 19 20
M  V30 20 1 19 21
M  V30 21 1 21 22
M  V30 22 1 21 23
M  V30 23 2 23 24
M  V30 24 1 24 25
M  V30 25 2 25 26
M  V30 26 1 26 27
M  V30 27 2 27 28
M  V30 28 1 28 29
M  V30 29 2 29 30
M  V30 30 1 29 31
M  V30 31 1 31 32
M  V30 32 1 32 33
M  V30 33 1 32 34
M  V30 34 1 13 3
M  V30 35 1 20 15
M  V30 36 1 28 23
M  V30 37 1 31 18
M  V30 38 1 1 35
M  V30 39 1 1 36
M  V30 40 1 1 37
M  V30 41 1 4 38
M  V30 42 1 6 39
M  V30 43 1 8 40
M  V30 44 1 8 41
M  V30 45 1 8 42
M  V30 46 1 11 43
M  V30 47 1 12 44
M  V30 48 1 14 45
M  V30 49 1 17 46
M  V30 50 1 22 47
M  V30 51 1 22 48
M  V30 52 1 22 49
M  V30 53 1 24 50
M  V30 54 1 25 51
M  V30 55 1 26 52
M  V30 56 1 27 53
M  V30 57 1 32 54
M  V30 58 1 33 55
M  V30 59 1 33 56
M  V30 60 1 33 57
M  V30 61 1 34 58
M  V30 62 1 34 59
M  V30 63 1 34 60
M  V30 END BOND
M  V30 END CTAB
M  END
>  <Dataset>  (816) 
ChEMBL_Kinases

>  <Ligand_Instance>  (816) 
nan

>  <PDB_ID>  (816) 
nan

>  <Standardized_SMILES>  (816) 
COc1cc(NS(C)(=O)=O)ccc1Nc1ncc2c(n1)N(C)c1ccccc1C(=O)N2C(C)C

>  <Name>  (816) 
nan

>  <Pocket>  (816) 
nan

>  <ATP_Site>  (816) 
nan

>  <Peripheral>  (816) 
nan

>  <Num_H_Atoms_ProtBoundConf>  (816) 
nan

>  <Num_Resolved_Atoms>  (816) 
nan

>  <Num_Not_Resolved_Atoms>  (816) 
nan

$$$$
CHEMBL4570284
     RDKit          3D

  0  0  0  0  0  0  0  0  0  0999 V3000
M  V30 BEGIN CTAB
M  V30 COUNTS 70 75 0 0 0
M  V30 BEGIN ATOM
M  V30 1 C -0.219741 -1.241635 3.076806 0
M  V30 2 C 0.932176 -0.477961 2.473626 0
M  V30 3 C 0.740201 0.040532 1.189157 0
M  V30 4 C 1.807769 0.756276 0.625882 0
M  V30 5 C 1.475775 1.253834 -0.706113 0
M  V30 6 C 1.650762 2.618815 -0.983139 0
M  V30 7 N 1.245449 2.852899 -2.265267 0
M  V30 8 N 0.830392 1.712491 -2.797254 0
M  V30 9 C 0.337241 1.325902 -3.985890 0
M  V30 10 N 0.156960 2.267311 -5.033114 0
M  V30 11 C -0.993750 3.104614 -5.142618 0
M  V30 12 C -2.310837 2.415008 -5.217627 0
M  V30 13 N -2.621307 1.597175 -4.062153 0
M  V30 14 C -3.939723 0.986650 -4.311158 0
M  V30 15 C -4.274333 0.026068 -3.193538 0
M  V30 16 O -3.917852 0.528334 -1.939205 0
M  V30 17 C -3.844869 1.921054 -1.942403 0
M  V30 18 C -2.767234 2.432885 -2.868487 0
M  V30 19 C -0.011492 -0.007287 -4.234148 0
M  V30 20 C 0.143085 -0.968493 -3.258925 0
M  V30 21 O -0.206494 -2.268774 -3.544577 0
M  V30 22 C -0.082921 -3.329981 -2.656036 0
M  V30 23 C -0.991274 -3.872342 -1.777595 0
M  V30 24 C -0.618334 -4.938349 -0.992156 0
M  V30 25 C 0.631128 -5.522317 -1.017836 0
M  V30 26 C 1.533156 -4.950072 -1.918795 0
M  V30 27 C 1.204530 -3.874237 -2.732358 0
M  V30 28 N 0.643460 -0.569793 -2.051093 0
M  V30 29 C 0.961396 0.732993 -1.872377 0
M  V30 30 C 2.992442 0.946304 1.293207 0
M  V30 31 C 3.168695 0.426460 2.567349 0
M  V30 32 C 2.135421 -0.279946 3.143616 0
M  V30 33 C 2.163863 -0.863894 4.474692 0
M  V30 34 O 2.386762 0.095418 5.265142 0
M  V30 35 N 1.997615 -2.191346 4.969940 0
M  V30 36 C 2.086971 -2.383886 6.404003 0
M  V30 37 C 1.219416 -3.403425 7.054684 0
M  V30 38 C 2.672966 -3.720860 6.893977 0
M  V30 39 H -0.126222 -2.333884 2.892327 0
M  V30 40 H -0.283359 -0.980848 4.163673 0
M  V30 41 H -1.162081 -0.884754 2.609481 0
M  V30 42 H -0.211272 -0.134777 0.705426 0
M  V30 43 H 2.021489 3.461909 -0.409990 0
M  V30 44 H 0.973782 2.240734 -5.677051 0
M  V30 45 H -0.936292 3.773183 -6.027475 0
M  V30 46 H -0.978428 3.794992 -4.252199 0
M  V30 47 H -3.081974 3.238333 -5.273552 0
M  V30 48 H -2.408540 1.841928 -6.144922 0
M  V30 49 H -3.842043 0.360849 -5.233761 0
M  V30 50 H -4.638522 1.811980 -4.439960 0
M  V30 51 H -5.350724 -0.239500 -3.257942 0
M  V30 52 H -3.651866 -0.896723 -3.369571 0
M  V30 53 H -3.590260 2.245053 -0.912534 0
M  V30 54 H -4.848235 2.377295 -2.157956 0
M  V30 55 H -1.824851 2.508016 -2.288718 0
M  V30 56 H -3.120839 3.448019 -3.200560 0
M  V30 57 H -0.412735 -0.247609 -5.232498 0
M  V30 58 H -1.947856 -3.375568 -1.802412 0
M  V30 59 H -1.353464 -5.329720 -0.327056 0
M  V30 60 H 0.886528 -6.352182 -0.393261 0
M  V30 61 H 2.538077 -5.392133 -1.960716 0
M  V30 62 H 2.019595 -3.530428 -3.389832 0
M  V30 63 H 3.767265 1.505761 0.789279 0
M  V30 64 H 4.087259 0.555951 3.119675 0
M  V30 65 H 1.830409 -2.842289 4.173267 0
M  V30 66 H 2.321295 -1.484289 6.972669 0
M  V30 67 H 0.452187 -3.948956 6.447757 0
M  V30 68 H 0.887337 -3.171829 8.078668 0
M  V30 69 H 2.991675 -4.467504 6.155865 0
M  V30 70 H 3.294722 -3.685169 7.838106 0
M  V30 END ATOM
M  V30 BEGIN BOND
M  V30 1 1 1 2
M  V30 2 2 2 3
M  V30 3 1 3 4
M  V30 4 1 4 5
M  V30 5 1 5 6
M  V30 6 2 6 7
M  V30 7 1 7 8
M  V30 8 1 8 9
M  V30 9 1 9 10
M  V30 10 1 10 11
M  V30 11 1 11 12
M  V30 12 1 12 13
M  V30 13 1 13 14
M  V30 14 1 14 15
M  V30 15 1 15 16
M  V30 16 1 16 17
M  V30 17 1 17 18
M  V30 18 2 9 19
M  V30 19 1 19 20
M  V30 20 1 20 21
M  V30 21 1 21 22
M  V30 22 2 22 23
M  V30 23 1 23 24
M  V30 24 2 24 25
M  V30 25 1 25 26
M  V30 26 2 26 27
M  V30 27 2 20 28
M  V30 28 1 28 29
M  V30 29 2 4 30
M  V30 30 1 30 31
M  V30 31 2 31 32
M  V30 32 1 32 33
M  V30 33 2 33 34
M  V30 34 1 33 35
M  V30 35 1 35 36
M  V30 36 1 36 37
M  V30 37 1 37 38
M  V30 38 1 32 2
M  V30 39 1 38 36
M  V30 40 2 29 5
M  V30 41 1 29 8
M  V30 42 1 18 13
M  V30 43 1 27 22
M  V30 44 1 1 39
M  V30 45 1 1 40
M  V30 46 1 1 41
M  V30 47 1 3 42
M  V30 48 1 6 43
M  V30 49 1 10 44
M  V30 50 1 11 45
M  V30 51 1 11 46
M  V30 52 1 12 47
M  V30 53 1 12 48
M  V30 54 1 14 49
M  V30 55 1 14 50
M  V30 56 1 15 51
M  V30 57 1 15 52
M  V30 58 1 17 53
M  V30 59 1 17 54
M  V30 60 1 18 55
M  V30 61 1 18 56
M  V30 62 1 19 57
M  V30 63 1 23 58
M  V30 64 1 24 59
M  V30 65 1 25 60
M  V30 66 1 26 61
M  V30 67 1 27 62
M  V30 68 1 30 63
M  V30 69 1 31 64
M  V30 70 1 35 65
M  V30 71 1 36 66
M  V30 72 1 37 67
M  V30 73 1 37 68
M  V30 74 1 38 69
M  V30 75 1 38 70
M  V30 END BOND
M  V30 END CTAB
M  END
>  <Dataset>  (817) 
ChEMBL_Kinases

>  <Ligand_Instance>  (817) 
nan

>  <PDB_ID>  (817) 
nan

>  <Standardized_SMILES>  (817) 
Cc1cc(-c2cnn3c(NCCN4CCOCC4)cc(Oc4ccccc4)nc23)ccc1C(=O)NC1CC1

>  <Name>  (817) 
nan

>  <Pocket>  (817) 
nan

>  <ATP_Site>  (817) 
nan

>  <Peripheral>  (817) 
nan

>  <Num_H_Atoms_ProtBoundConf>  (817) 
nan

>  <Num_Resolved_Atoms>  (817) 
nan

>  <Num_Not_Resolved_Atoms>  (817) 
nan

$$$$
CHEMBL4634949
     RDKit          3D

  0  0  0  0  0  0  0  0  0  0999 V3000
M  V30 BEGIN CTAB
M  V30 COUNTS 60 64 0 0 0
M  V30 BEGIN ATOM
M  V30 1 C -1.566436 -3.725390 1.324601 0
M  V30 2 C -0.162717 -3.423787 0.962869 0
M  V30 3 C 0.441304 -2.214896 1.326062 0
M  V30 4 C 1.768447 -1.896922 0.999559 0
M  V30 5 C 2.171881 -0.573474 1.473585 0
M  V30 6 C 3.305782 -0.189438 2.164191 0
M  V30 7 N 3.301519 1.134473 2.409755 0
M  V30 8 C 2.140920 1.597361 1.863057 0
M  V30 9 C 1.634784 2.884449 1.825063 0
M  V30 10 N 2.335743 3.956634 2.407442 0
M  V30 11 C 1.845749 5.322327 2.396981 0
M  V30 12 C 0.537258 5.364991 3.153274 0
M  V30 13 C 0.741722 4.900585 4.584151 0
M  V30 14 F 1.664144 5.769448 5.159044 0
M  V30 15 F 1.273991 3.644077 4.634203 0
M  V30 16 F -0.444445 4.999667 5.274912 0
M  V30 17 N 0.454821 3.103734 1.217726 0
M  V30 18 C -0.231951 2.101564 0.653522 0
M  V30 19 O -1.458174 2.389485 0.032951 0
M  V30 20 C -2.191062 1.349794 -0.565525 0
M  V30 21 C -3.140830 0.572620 0.044628 0
M  V30 22 C -3.805871 -0.425325 -0.630504 0
M  V30 23 C -3.536163 -0.679699 -1.960318 0
M  V30 24 C -2.570974 0.099072 -2.607719 0
M  V30 25 C -1.900499 1.110747 -1.912406 0
M  V30 26 C 0.300265 0.831879 0.709527 0
M  V30 27 N 1.475922 0.569358 1.307192 0
M  V30 28 C 2.521312 -2.809807 0.289215 0
M  V30 29 C 1.957216 -4.016819 -0.087305 0
M  V30 30 C 0.649162 -4.296862 0.250137 0
M  V30 31 C 0.015150 -5.575580 -0.136950 0
M  V30 32 O -0.338793 -6.498576 0.653468 0
M  V30 33 N -0.184933 -5.710522 -1.547867 0
M  V30 34 C -0.792233 -6.877675 -2.185553 0
M  V30 35 C -1.751814 -6.518639 -3.368832 0
M  V30 36 C -0.462095 -7.210692 -3.573111 0
M  V30 37 H -2.291517 -3.314570 0.596777 0
M  V30 38 H -1.699180 -4.798901 1.501968 0
M  V30 39 H -1.812843 -3.202694 2.292280 0
M  V30 40 H -0.234476 -1.557824 1.896071 0
M  V30 41 H 4.074192 -0.924942 2.444459 0
M  V30 42 H 3.253224 3.788257 2.874723 0
M  V30 43 H 2.542709 6.028312 2.846383 0
M  V30 44 H 1.582936 5.630601 1.339172 0
M  V30 45 H 0.233018 6.439569 3.177992 0
M  V30 46 H -0.281624 4.837927 2.633208 0
M  V30 47 H -3.336434 0.791725 1.090238 0
M  V30 48 H -4.549870 -1.029327 -0.140986 0
M  V30 49 H -4.072143 -1.474863 -2.484049 0
M  V30 50 H -2.371177 -0.111389 -3.648804 0
M  V30 51 H -1.146404 1.702021 -2.459537 0
M  V30 52 H -0.319991 0.092725 0.222821 0
M  V30 53 H 3.529054 -2.496331 0.076445 0
M  V30 54 H 2.558684 -4.713949 -0.639439 0
M  V30 55 H 0.099892 -4.959244 -2.237828 0
M  V30 56 H -1.129445 -7.721453 -1.550473 0
M  V30 57 H -1.781856 -5.434724 -3.657834 0
M  V30 58 H -2.712520 -7.051163 -3.379019 0
M  V30 59 H 0.336301 -6.658773 -4.155728 0
M  V30 60 H -0.511962 -8.264119 -3.914994 0
M  V30 END ATOM
M  V30 BEGIN BOND
M  V30 1 1 1 2
M  V30 2 2 2 3
M  V30 3 1 3 4
M  V30 4 1 4 5
M  V30 5 2 5 6
M  V30 6 1 6 7
M  V30 7 2 7 8
M  V30 8 1 8 9
M  V30 9 1 9 10
M  V30 10 1 10 11
M  V30 11 1 11 12
M  V30 12 1 12 13
M  V30 13 1 13 14
M  V30 14 1 13 15
M  V30 15 1 13 16
M  V30 16 2 9 17
M  V30 17 1 17 18
M  V30 18 1 18 19
M  V30 19 1 19 20
M  V30 20 2 20 21
M  V30 21 1 21 22
M  V30 22 2 22 23
M  V30 23 1 23 24
M  V30 24 2 24 25
M  V30 25 2 18 26
M  V30 26 1 26 27
M  V30 27 2 4 28
M  V30 28 1 28 29
M  V30 29 2 29 30
M  V30 30 1 30 31
M  V30 31 2 31 32
M  V30 32 1 31 33
M  V30 33 1 33 34
M  V30 34 1 34 35
M  V30 35 1 35 36
M  V30 36 1 30 2
M  V30 37 1 36 34
M  V30 38 1 27 5
M  V30 39 1 27 8
M  V30 40 1 25 20
M  V30 41 1 1 37
M  V30 42 1 1 38
M  V30 43 1 1 39
M  V30 44 1 3 40
M  V30 45 1 6 41
M  V30 46 1 10 42
M  V30 47 1 11 43
M  V30 48 1 11 44
M  V30 49 1 12 45
M  V30 50 1 12 46
M  V30 51 1 21 47
M  V30 52 1 22 48
M  V30 53 1 23 49
M  V30 54 1 24 50
M  V30 55 1 25 51
M  V30 56 1 26 52
M  V30 57 1 28 53
M  V30 58 1 29 54
M  V30 59 1 33 55
M  V30 60 1 34 56
M  V30 61 1 35 57
M  V30 62 1 35 58
M  V30 63 1 36 59
M  V30 64 1 36 60
M  V30 END BOND
M  V30 END CTAB
M  END
>  <Dataset>  (818) 
ChEMBL_Kinases

>  <Ligand_Instance>  (818) 
nan

>  <PDB_ID>  (818) 
nan

>  <Standardized_SMILES>  (818) 
Cc1cc(-c2cnc3c(NCCC(F)(F)F)nc(Oc4ccccc4)cn23)ccc1C(=O)NC1CC1

>  <Name>  (818) 
nan

>  <Pocket>  (818) 
nan

>  <ATP_Site>  (818) 
nan

>  <Peripheral>  (818) 
nan

>  <Num_H_Atoms_ProtBoundConf>  (818) 
nan

>  <Num_Resolved_Atoms>  (818) 
nan

>  <Num_Not_Resolved_Atoms>  (818) 
nan

$$$$
CHEMBL4569914
     RDKit          3D

  0  0  0  0  0  0  0  0  0  0999 V3000
M  V30 BEGIN CTAB
M  V30 COUNTS 39 42 0 0 0
M  V30 BEGIN ATOM
M  V30 1 C 0.009656 -6.304935 0.384670 0
M  V30 2 C 1.243766 -5.967739 1.119922 0
M  V30 3 N 2.084506 -6.875302 1.641108 0
M  V30 4 N 3.058191 -6.194197 2.213786 0
M  V30 5 C 2.906985 -4.848402 2.098940 0
M  V30 6 C 1.751043 -4.736706 1.402634 0
M  V30 7 C 1.170195 -3.465630 1.031002 0
M  V30 8 C 1.511128 -2.126687 1.211922 0
M  V30 9 C 0.678826 -1.190287 0.695192 0
M  V30 10 N 0.849936 0.139351 0.773977 0
M  V30 11 C -0.013631 1.016162 0.239275 0
M  V30 12 C 0.217540 2.470884 0.351109 0 CFG=1
M  V30 13 N 0.013238 3.210553 -0.843383 0
M  V30 14 C -0.880869 4.289421 -0.584968 0
M  V30 15 C -1.616740 3.999462 0.704927 0
M  V30 16 C -0.638701 3.097693 1.430284 0 CFG=2
M  V30 17 C 0.153076 3.840299 2.455332 0
M  V30 18 N -1.115084 0.664473 -0.416123 0
M  V30 19 C -1.391242 -0.640553 -0.558460 0
M  V30 20 O -2.341016 -1.208066 -1.118826 0
M  V30 21 C -0.510082 -1.529132 -0.013007 0
M  V30 22 S -0.450113 -3.407637 0.056558 0
M  V30 23 H 0.116217 -6.004873 -0.693076 0
M  V30 24 H -0.878082 -5.799242 0.830101 0
M  V30 25 H -0.169709 -7.393025 0.364826 0
M  V30 26 H 3.861314 -6.675924 2.704781 0
M  V30 27 H 3.521821 -4.053927 2.454052 0
M  V30 28 H 2.419071 -1.975907 1.754683 0
M  V30 29 H 1.276974 2.613821 0.646850 0
M  V30 30 H -0.054377 2.725600 -1.727625 0
M  V30 31 H -0.259068 5.211454 -0.437481 0
M  V30 32 H -1.614664 4.510193 -1.371702 0
M  V30 33 H -2.559835 3.464893 0.465041 0
M  V30 34 H -1.835950 4.939659 1.246268 0
M  V30 35 H -1.237124 2.276614 1.903928 0
M  V30 36 H -0.085320 4.928837 2.502755 0
M  V30 37 H -0.028165 3.392304 3.448290 0
M  V30 38 H 1.246364 3.676235 2.231341 0
M  V30 39 H -1.823110 1.289461 -0.852790 0
M  V30 END ATOM
M  V30 BEGIN BOND
M  V30 1 1 1 2
M  V30 2 2 2 3
M  V30 3 1 3 4
M  V30 4 1 4 5
M  V30 5 2 5 6
M  V30 6 1 6 7
M  V30 7 2 7 8
M  V30 8 1 8 9
M  V30 9 1 9 10
M  V30 10 2 10 11
M  V30 11 1 11 12
M  V30 12 1 12 13
M  V30 13 1 13 14
M  V30 14 1 14 15
M  V30 15 1 15 16
M  V30 16 1 16 17
M  V30 17 1 11 18
M  V30 18 1 18 19
M  V30 19 2 19 20
M  V30 20 1 19 21
M  V30 21 1 21 22
M  V30 22 1 6 2
M  V30 23 1 22 7
M  V30 24 2 21 9
M  V30 25 1 16 12
M  V30 26 1 1 23
M  V30 27 1 1 24
M  V30 28 1 1 25
M  V30 29 1 4 26
M  V30 30 1 5 27
M  V30 31 1 8 28
M  V30 32 1 12 29 CFG=1
M  V30 33 1 13 30
M  V30 34 1 14 31
M  V30 35 1 14 32
M  V30 36 1 15 33
M  V30 37 1 15 34
M  V30 38 1 16 35 CFG=1
M  V30 39 1 17 36
M  V30 40 1 17 37
M  V30 41 1 17 38
M  V30 42 1 18 39
M  V30 END BOND
M  V30 END CTAB
M  END
>  <Dataset>  (819) 
ChEMBL_Kinases

>  <Ligand_Instance>  (819) 
nan

>  <PDB_ID>  (819) 
nan

>  <Standardized_SMILES>  (819) 
Cc1n[nH]cc1-c1cc2nc([C@H]3NCC[C@@H]3C)[nH]c(=O)c2s1

>  <Name>  (819) 
nan

>  <Pocket>  (819) 
nan

>  <ATP_Site>  (819) 
nan

>  <Peripheral>  (819) 
nan

>  <Num_H_Atoms_ProtBoundConf>  (819) 
nan

>  <Num_Resolved_Atoms>  (819) 
nan

>  <Num_Not_Resolved_Atoms>  (819) 
nan

$$$$
CHEMBL4569903
     RDKit          3D

  0  0  0  0  0  0  0  0  0  0999 V3000
M  V30 BEGIN CTAB
M  V30 COUNTS 51 55 0 0 0
M  V30 BEGIN ATOM
M  V30 1 O -2.548365 -0.433069 2.023284 0
M  V30 2 C -2.119086 -0.300905 0.848884 0
M  V30 3 C -0.804679 0.279043 0.585724 0
M  V30 4 C -0.215215 0.482020 -0.576649 0
M  V30 5 C 1.100616 1.063892 -0.806125 0
M  V30 6 C 1.560016 1.192550 -2.115192 0
M  V30 7 N 2.766439 1.718675 -2.383672 0
M  V30 8 C 3.562224 2.135847 -1.383728 0
M  V30 9 N 4.802059 2.690532 -1.408464 0
M  V30 10 C 5.180141 2.935893 -0.134745 0
M  V30 11 C 4.148836 2.523747 0.708965 0
M  V30 12 C 4.206238 2.641622 2.163808 0
M  V30 13 C 5.309205 2.264934 2.909698 0
M  V30 14 C 5.367379 2.377674 4.287051 0
M  V30 15 C 4.277546 2.888690 4.950153 0
M  V30 16 C 3.171991 3.268039 4.219354 0
M  V30 17 C 3.099856 3.161421 2.845997 0
M  V30 18 C 3.122508 2.016010 -0.083600 0
M  V30 19 C 1.890841 1.481662 0.243062 0
M  V30 20 N -2.988555 -0.748318 -0.179521 0
M  V30 21 C -4.306954 -1.341136 -0.013504 0
M  V30 22 C -4.156313 -2.752285 0.409641 0
M  V30 23 C -4.106872 -3.274933 1.681361 0
M  V30 24 C -3.950995 -4.629401 1.891101 0
M  V30 25 C -3.835443 -5.542528 0.845116 0
M  V30 26 C -3.881741 -5.047562 -0.441566 0
M  V30 27 C -4.038114 -3.690068 -0.624596 0
M  V30 28 C -3.741500 -6.178101 -1.392555 0
M  V30 29 C -3.117602 -7.251367 -0.515684 0
M  V30 30 O -3.673794 -6.923774 0.756918 0
M  V30 31 H -0.228067 0.588212 1.455035 0
M  V30 32 H -0.813168 0.164466 -1.431434 0
M  V30 33 H 0.975216 0.879370 -2.966204 0
M  V30 34 H 5.348145 2.882576 -2.296636 0
M  V30 35 H 6.144570 3.382989 0.110241 0
M  V30 36 H 6.185184 1.856929 2.402617 0
M  V30 37 H 6.226820 2.083749 4.873258 0
M  V30 38 H 4.199068 3.028476 6.035544 0
M  V30 39 H 2.274786 3.683067 4.702138 0
M  V30 40 H 2.203826 3.475053 2.311550 0
M  V30 41 H 1.600347 1.411169 1.261025 0
M  V30 42 H -2.652791 -0.644867 -1.170050 0
M  V30 43 H -4.876836 -1.315662 -0.960212 0
M  V30 44 H -4.912566 -0.782544 0.732583 0
M  V30 45 H -4.200486 -2.556675 2.469317 0
M  V30 46 H -3.918740 -4.982829 2.902271 0
M  V30 47 H -4.067805 -3.355051 -1.670662 0
M  V30 48 H -4.740233 -6.578943 -1.721282 0
M  V30 49 H -3.094713 -5.926989 -2.260454 0
M  V30 50 H -3.465990 -8.240029 -0.855637 0
M  V30 51 H -2.019531 -7.187980 -0.508863 0
M  V30 END ATOM
M  V30 BEGIN BOND
M  V30 1 2 1 2
M  V30 2 1 2 3
M  V30 3 2 3 4
M  V30 4 1 4 5
M  V30 5 2 5 6
M  V30 6 1 6 7
M  V30 7 2 7 8
M  V30 8 1 8 9
M  V30 9 1 9 10
M  V30 10 2 10 11
M  V30 11 1 11 12
M  V30 12 2 12 13
M  V30 13 1 13 14
M  V30 14 2 14 15
M  V30 15 1 15 16
M  V30 16 2 16 17
M  V30 17 1 11 18
M  V30 18 2 18 19
M  V30 19 1 2 20
M  V30 20 1 20 21
M  V30 21 1 21 22
M  V30 22 2 22 23
M  V30 23 1 23 24
M  V30 24 2 24 25
M  V30 25 1 25 26
M  V30 26 2 26 27
M  V30 27 1 26 28
M  V30 28 1 28 29
M  V30 29 1 29 30
M  V30 30 1 19 5
M  V30 31 1 27 22
M  V30 32 1 18 8
M  V30 33 1 30 25
M  V30 34 1 17 12
M  V30 35 1 3 31
M  V30 36 1 4 32
M  V30 37 1 6 33
M  V30 38 1 9 34
M  V30 39 1 10 35
M  V30 40 1 13 36
M  V30 41 1 14 37
M  V30 42 1 15 38
M  V30 43 1 16 39
M  V30 44 1 17 40
M  V30 45 1 19 41
M  V30 46 1 20 42
M  V30 47 1 21 43
M  V30 48 1 21 44
M  V30 49 1 23 45
M  V30 50 1 24 46
M  V30 51 1 27 47
M  V30 52 1 28 48
M  V30 53 1 28 49
M  V30 54 1 29 50
M  V30 55 1 29 51
M  V30 END BOND
M  V30 END CTAB
M  END
>  <Dataset>  (820) 
ChEMBL_Kinases

>  <Ligand_Instance>  (820) 
nan

>  <PDB_ID>  (820) 
nan

>  <Standardized_SMILES>  (820) 
O=C(/C=C/c1cnc2[nH]cc(-c3ccccc3)c2c1)NCc1ccc2c(c1)CCO2

>  <Name>  (820) 
nan

>  <Pocket>  (820) 
nan

>  <ATP_Site>  (820) 
nan

>  <Peripheral>  (820) 
nan

>  <Num_H_Atoms_ProtBoundConf>  (820) 
nan

>  <Num_Resolved_Atoms>  (820) 
nan

>  <Num_Not_Resolved_Atoms>  (820) 
nan

$$$$
CHEMBL4569877
     RDKit          3D

  0  0  0  0  0  0  0  0  0  0999 V3000
M  V30 BEGIN CTAB
M  V30 COUNTS 51 55 0 0 0
M  V30 BEGIN ATOM
M  V30 1 C 5.761483 -2.125927 6.318489 0
M  V30 2 O 5.013036 -2.804677 5.327653 0
M  V30 3 C 4.727651 -2.100538 4.167042 0
M  V30 4 C 5.118849 -0.790628 3.899191 0
M  V30 5 C 4.793797 -0.160954 2.722798 0
M  V30 6 C 4.059168 -0.792914 1.737888 0
M  V30 7 S 3.585773 -0.096372 0.211571 0
M  V30 8 O 4.693640 0.821266 -0.238480 0
M  V30 9 O 3.560240 -1.224801 -0.798014 0
M  V30 10 N 2.107865 0.730937 0.288315 0
M  V30 11 C 0.985695 -0.062239 0.649279 0
M  V30 12 C -0.307527 0.741062 0.338953 0
M  V30 13 C -0.513779 0.569430 -1.097473 0
M  V30 14 C 0.760094 1.015073 -1.645904 0
M  V30 15 S 0.647064 0.854436 -3.359366 0
M  V30 16 C -1.102931 0.192858 -3.354695 0
M  V30 17 N -1.909471 -0.175619 -4.377842 0
M  V30 18 C -3.150644 -0.621710 -4.132926 0
M  V30 19 N -3.451732 -0.648464 -2.850584 0
M  V30 20 C -2.699394 -0.300635 -1.832542 0
M  V30 21 N -3.306640 -0.432662 -0.574701 0
M  V30 22 C -4.639730 -0.759155 -0.265201 0
M  V30 23 C -5.640361 -0.576123 -1.195319 0
M  V30 24 C -6.956520 -0.896850 -0.927134 0
M  V30 25 C -7.362710 -1.418911 0.279124 0
M  V30 26 Br -9.149262 -1.889271 0.735582 0
M  V30 27 C -6.389629 -1.614943 1.232722 0
M  V30 28 C -5.093402 -1.283682 0.927767 0
M  V30 29 C -1.431667 0.160323 -1.998463 0
M  V30 30 C 1.916322 1.525972 -0.890712 0
M  V30 31 C 3.693101 -2.087256 2.043107 0
M  V30 32 C 3.993658 -2.761572 3.205689 0
M  V30 33 H 5.993517 -2.775588 7.190879 0
M  V30 34 H 5.132271 -1.239916 6.628881 0
M  V30 35 H 6.655267 -1.699215 5.824556 0
M  V30 36 H 5.692574 -0.309473 4.675958 0
M  V30 37 H 5.105413 0.862372 2.521211 0
M  V30 38 H 0.929517 -0.961215 0.031283 0
M  V30 39 H 1.009571 -0.259669 1.733975 0
M  V30 40 H -1.063385 0.470721 1.039216 0
M  V30 41 H -0.023385 1.826354 0.566023 0
M  V30 42 H -3.663447 -0.872271 -5.039054 0
M  V30 43 H -2.859988 -0.309048 0.337828 0
M  V30 44 H -5.564876 -0.179817 -2.186609 0
M  V30 45 H -7.789700 -0.774119 -1.626916 0
M  V30 46 H -6.645102 -2.020297 2.201574 0
M  V30 47 H -4.355715 -1.457425 1.719088 0
M  V30 48 H 2.809419 1.432095 -1.514964 0
M  V30 49 H 1.797760 2.603609 -0.617970 0
M  V30 50 H 3.104929 -2.663439 1.314723 0
M  V30 51 H 3.671026 -3.785818 3.379165 0
M  V30 END ATOM
M  V30 BEGIN BOND
M  V30 1 1 1 2
M  V30 2 1 2 3
M  V30 3 2 3 4
M  V30 4 1 4 5
M  V30 5 2 5 6
M  V30 6 1 6 7
M  V30 7 2 7 8
M  V30 8 2 7 9
M  V30 9 1 7 10
M  V30 10 1 10 11
M  V30 11 1 11 12
M  V30 12 1 12 13
M  V30 13 2 13 14
M  V30 14 1 14 15
M  V30 15 1 15 16
M  V30 16 2 16 17
M  V30 17 1 17 18
M  V30 18 2 18 19
M  V30 19 1 19 20
M  V30 20 1 20 21
M  V30 21 1 21 22
M  V30 22 2 22 23
M  V30 23 1 23 24
M  V30 24 2 24 25
M  V30 25 1 25 26
M  V30 26 1 25 27
M  V30 27 2 27 28
M  V30 28 2 20 29
M  V30 29 1 14 30
M  V30 30 1 6 31
M  V30 31 2 31 32
M  V30 32 1 32 3
M  V30 33 1 30 10
M  V30 34 1 29 13
M  V30 35 1 29 16
M  V30 36 1 28 22
M  V30 37 1 1 33
M  V30 38 1 1 34
M  V30 39 1 1 35
M  V30 40 1 4 36
M  V30 41 1 5 37
M  V30 42 1 11 38
M  V30 43 1 11 39
M  V30 44 1 12 40
M  V30 45 1 12 41
M  V30 46 1 18 42
M  V30 47 1 21 43
M  V30 48 1 23 44
M  V30 49 1 24 45
M  V30 50 1 27 46
M  V30 51 1 28 47
M  V30 52 1 30 48
M  V30 53 1 30 49
M  V30 54 1 31 50
M  V30 55 1 32 51
M  V30 END BOND
M  V30 END CTAB
M  END
>  <Dataset>  (821) 
ChEMBL_Kinases

>  <Ligand_Instance>  (821) 
nan

>  <PDB_ID>  (821) 
nan

>  <Standardized_SMILES>  (821) 
COc1ccc(S(=O)(=O)N2CCc3c(sc4ncnc(Nc5ccc(Br)cc5)c34)C2)cc1

>  <Name>  (821) 
nan

>  <Pocket>  (821) 
nan

>  <ATP_Site>  (821) 
nan

>  <Peripheral>  (821) 
nan

>  <Num_H_Atoms_ProtBoundConf>  (821) 
nan

>  <Num_Resolved_Atoms>  (821) 
nan

>  <Num_Not_Resolved_Atoms>  (821) 
nan

$$$$
CHEMBL4569690
     RDKit          3D

  0  0  0  0  0  0  0  0  0  0999 V3000
M  V30 BEGIN CTAB
M  V30 COUNTS 43 46 0 0 0
M  V30 BEGIN ATOM
M  V30 1 C 0.360068 -2.734190 5.371317 0
M  V30 2 C -0.854272 -2.959937 4.505234 0
M  V30 3 N -0.582163 -2.603873 3.107467 0
M  V30 4 C -0.759880 -1.389882 2.529228 0
M  V30 5 O -1.192690 -0.396509 3.144623 0
M  V30 6 N -0.400697 -1.460234 1.241255 0
M  V30 7 C -0.460375 -0.363818 0.336999 0
M  V30 8 C 0.618758 0.479043 0.190014 0
M  V30 9 C 0.655234 1.552235 -0.648872 0
M  V30 10 C 1.738777 2.491335 -0.870571 0
M  V30 11 C 1.544659 3.510449 -1.778786 0
M  V30 12 C 2.514942 4.451365 -2.057139 0
M  V30 13 Cl 2.216770 5.726010 -3.220096 0
M  V30 14 C 3.743891 4.418856 -1.432297 0
M  V30 15 C 3.959315 3.408873 -0.520989 0
M  V30 16 C 2.974920 2.493602 -0.269989 0
M  V30 17 F 3.265393 1.551827 0.623432 0
M  V30 18 N -0.477081 1.741804 -1.351927 0
M  V30 19 C -1.559814 0.946629 -1.244762 0
M  V30 20 C -1.605648 -0.142600 -0.397630 0
M  V30 21 C -2.787078 -1.033509 -0.262123 0
M  V30 22 C 0.004793 -2.724725 1.008804 0
M  V30 23 C 0.468836 -3.300743 -0.155112 0
M  V30 24 C 0.817141 -4.633013 -0.101084 0
M  V30 25 N 0.719243 -5.373386 1.032914 0
M  V30 26 C 0.259268 -4.787720 2.171470 0
M  V30 27 C -0.106824 -3.446856 2.175955 0
M  V30 28 H 1.298178 -3.082632 4.864537 0
M  V30 29 H 0.236860 -3.397187 6.268660 0
M  V30 30 H 0.438617 -1.707001 5.756996 0
M  V30 31 H -1.685959 -2.378227 4.922572 0
M  V30 32 H -1.067170 -4.052146 4.540228 0
M  V30 33 H 1.469992 0.264394 0.776125 0
M  V30 34 H 0.602966 3.632342 -2.335000 0
M  V30 35 H 4.518925 5.141354 -1.631416 0
M  V30 36 H 4.918163 3.374480 -0.026259 0
M  V30 37 H -2.419239 1.177675 -1.847949 0
M  V30 38 H -3.462624 -0.808145 -1.096300 0
M  V30 39 H -2.458013 -2.082087 -0.191645 0
M  V30 40 H -3.359252 -0.784476 0.679397 0
M  V30 41 H 0.544996 -2.708855 -1.053714 0
M  V30 42 H 1.177769 -5.089068 -0.996948 0
M  V30 43 H 0.145272 -5.300839 3.132173 0
M  V30 END ATOM
M  V30 BEGIN BOND
M  V30 1 1 1 2
M  V30 2 1 2 3
M  V30 3 1 3 4
M  V30 4 2 4 5
M  V30 5 1 4 6
M  V30 6 1 6 7
M  V30 7 2 7 8
M  V30 8 1 8 9
M  V30 9 1 9 10
M  V30 10 2 10 11
M  V30 11 1 11 12
M  V30 12 1 12 13
M  V30 13 2 12 14
M  V30 14 1 14 15
M  V30 15 2 15 16
M  V30 16 1 16 17
M  V30 17 2 9 18
M  V30 18 1 18 19
M  V30 19 2 19 20
M  V30 20 1 20 21
M  V30 21 1 6 22
M  V30 22 2 22 23
M  V30 23 1 23 24
M  V30 24 2 24 25
M  V30 25 1 25 26
M  V30 26 2 26 27
M  V30 27 1 27 3
M  V30 28 1 20 7
M  V30 29 1 27 22
M  V30 30 1 16 10
M  V30 31 1 1 28
M  V30 32 1 1 29
M  V30 33 1 1 30
M  V30 34 1 2 31
M  V30 35 1 2 32
M  V30 36 1 8 33
M  V30 37 1 11 34
M  V30 38 1 14 35
M  V30 39 1 15 36
M  V30 40 1 19 37
M  V30 41 1 21 38
M  V30 42 1 21 39
M  V30 43 1 21 40
M  V30 44 1 23 41
M  V30 45 1 24 42
M  V30 46 1 26 43
M  V30 END BOND
M  V30 END CTAB
M  END
>  <Dataset>  (822) 
ChEMBL_Kinases

>  <Ligand_Instance>  (822) 
nan

>  <PDB_ID>  (822) 
nan

>  <Standardized_SMILES>  (822) 
CCn1c(=O)n(-c2cc(-c3cc(Cl)ccc3F)ncc2C)c2ccncc21

>  <Name>  (822) 
nan

>  <Pocket>  (822) 
nan

>  <ATP_Site>  (822) 
nan

>  <Peripheral>  (822) 
nan

>  <Num_H_Atoms_ProtBoundConf>  (822) 
nan

>  <Num_Resolved_Atoms>  (822) 
nan

>  <Num_Not_Resolved_Atoms>  (822) 
nan

$$$$
CHEMBL4569626
     RDKit          3D

  0  0  0  0  0  0  0  0  0  0999 V3000
M  V30 BEGIN CTAB
M  V30 COUNTS 73 78 0 0 0
M  V30 BEGIN ATOM
M  V30 1 C 2.027996 -1.254791 4.973162 0
M  V30 2 O 1.722911 -1.729386 3.671830 0
M  V30 3 C 1.917407 -1.006294 2.510727 0
M  V30 4 C 2.424493 0.255682 2.460616 0
M  V30 5 C 2.613248 0.965236 1.299162 0
M  V30 6 N 3.142528 2.282607 1.297864 0
M  V30 7 C 3.549067 3.047713 0.160324 0
M  V30 8 C 2.823253 4.362693 0.003153 0
M  V30 9 N 2.243704 4.795708 1.271678 0
M  V30 10 C 0.916435 4.300451 1.453044 0
M  V30 11 C 0.186577 4.698301 2.692360 0
M  V30 12 O -0.204052 5.901169 2.075796 0
M  V30 13 C -0.127130 5.217620 0.849283 0
M  V30 14 C 3.148289 4.478471 2.367815 0
M  V30 15 C 3.316434 2.990418 2.530749 0
M  V30 16 C 2.239961 0.280003 0.170111 0
M  V30 17 C 1.721960 -0.990891 0.135086 0
M  V30 18 C 1.550782 -1.663809 1.335298 0
M  V30 19 N 1.020218 -2.981986 1.350030 0
M  V30 20 C 0.606902 -3.751102 0.202621 0
M  V30 21 N -0.658802 -3.700653 -0.237921 0
M  V30 22 C -1.028959 -4.439796 -1.325152 0
M  V30 23 O -2.218339 -4.394287 -1.740508 0
M  V30 24 C -3.465038 -4.354674 -2.186378 0 CFG=1
M  V30 25 C -4.415906 -4.914893 -1.143832 0
M  V30 26 C -5.646398 -4.134388 -0.927663 0
M  V30 27 O -5.625843 -2.791326 -1.042977 0
M  V30 28 C -4.525869 -2.175131 -1.558461 0
M  V30 29 C -5.042452 -0.890960 -2.218166 0
M  V30 30 C -3.529535 -1.715559 -0.539204 0
M  V30 31 C -3.955061 -2.996089 -2.673642 0
M  V30 32 C -0.061857 -5.224923 -1.936596 0
M  V30 33 C -0.086431 -6.072401 -3.020896 0
M  V30 34 C 1.206069 -6.590486 -3.161097 0
M  V30 35 N 1.997849 -6.071409 -2.187056 0
M  V30 36 C 1.240631 -5.247897 -1.446395 0
M  V30 37 N 1.550837 -4.503284 -0.377053 0
M  V30 38 H 1.434276 -0.352311 5.223314 0
M  V30 39 H 1.828528 -2.088457 5.687489 0
M  V30 40 H 3.087592 -0.925061 5.001539 0
M  V30 41 H 2.663733 0.640123 3.421235 0
M  V30 42 H 3.367110 2.476673 -0.770677 0
M  V30 43 H 4.645976 3.244190 0.289105 0
M  V30 44 H 2.065537 4.335543 -0.788228 0
M  V30 45 H 3.566228 5.126532 -0.285805 0
M  V30 46 H 0.767411 3.223090 1.229341 0
M  V30 47 H -0.739937 4.079133 2.823293 0
M  V30 48 H 0.738740 4.918612 3.601252 0
M  V30 49 H -1.077074 4.675235 0.641781 0
M  V30 50 H 0.213405 5.920632 0.070776 0
M  V30 51 H 2.728202 4.910645 3.284884 0
M  V30 52 H 4.119335 4.974796 2.125992 0
M  V30 53 H 4.301608 2.776815 3.003642 0
M  V30 54 H 2.545196 2.648322 3.270222 0
M  V30 55 H 2.340983 0.734871 -0.797998 0
M  V30 56 H 1.441036 -1.495829 -0.763310 0
M  V30 57 H 0.911236 -3.460926 2.280665 0
M  V30 58 H -3.538717 -5.015442 -3.114828 0
M  V30 59 H -3.875091 -5.086277 -0.174944 0
M  V30 60 H -4.687168 -5.938564 -1.472455 0
M  V30 61 H -6.478159 -4.498713 -1.605155 0
M  V30 62 H -6.021396 -4.383895 0.107576 0
M  V30 63 H -5.895983 -1.111469 -2.907228 0
M  V30 64 H -4.269657 -0.390208 -2.828598 0
M  V30 65 H -5.345294 -0.154305 -1.441050 0
M  V30 66 H -2.658188 -1.288491 -1.069112 0
M  V30 67 H -3.983649 -0.883414 0.049492 0
M  V30 68 H -3.161884 -2.517430 0.122193 0
M  V30 69 H -4.780072 -3.166373 -3.397076 0
M  V30 70 H -3.151044 -2.478699 -3.231944 0
M  V30 71 H -0.947754 -6.295305 -3.645365 0
M  V30 72 H 1.503315 -7.301733 -3.942936 0
M  V30 73 H 3.006473 -6.337597 -2.121667 0
M  V30 END ATOM
M  V30 BEGIN BOND
M  V30 1 1 1 2
M  V30 2 1 2 3
M  V30 3 2 3 4
M  V30 4 1 4 5
M  V30 5 1 5 6
M  V30 6 1 6 7
M  V30 7 1 7 8
M  V30 8 1 8 9
M  V30 9 1 9 10
M  V30 10 1 10 11
M  V30 11 1 11 12
M  V30 12 1 12 13
M  V30 13 1 9 14
M  V30 14 1 14 15
M  V30 15 2 5 16
M  V30 16 1 16 17
M  V30 17 2 17 18
M  V30 18 1 18 19
M  V30 19 1 19 20
M  V30 20 2 20 21
M  V30 21 1 21 22
M  V30 22 1 22 23
M  V30 23 1 23 24
M  V30 24 1 24 25
M  V30 25 1 25 26
M  V30 26 1 26 27
M  V30 27 1 27 28
M  V30 28 1 28 29
M  V30 29 1 28 30
M  V30 30 1 28 31
M  V30 31 2 22 32
M  V30 32 1 32 33
M  V30 33 2 33 34
M  V30 34 1 34 35
M  V30 35 1 35 36
M  V30 36 2 36 37
M  V30 37 1 18 3
M  V30 38 1 37 20
M  V30 39 1 15 6
M  V30 40 1 31 24
M  V30 41 1 36 32
M  V30 42 1 13 10
M  V30 43 1 1 38
M  V30 44 1 1 39
M  V30 45 1 1 40
M  V30 46 1 4 41
M  V30 47 1 7 42
M  V30 48 1 7 43
M  V30 49 1 8 44
M  V30 50 1 8 45
M  V30 51 1 10 46
M  V30 52 1 11 47
M  V30 53 1 11 48
M  V30 54 1 13 49
M  V30 55 1 13 50
M  V30 56 1 14 51
M  V30 57 1 14 52
M  V30 58 1 15 53
M  V30 59 1 15 54
M  V30 60 1 16 55
M  V30 61 1 17 56
M  V30 62 1 19 57
M  V30 63 1 24 58 CFG=3
M  V30 64 1 25 59
M  V30 65 1 25 60
M  V30 66 1 26 61
M  V30 67 1 26 62
M  V30 68 1 29 63
M  V30 69 1 29 64
M  V30 70 1 29 65
M  V30 71 1 30 66
M  V30 72 1 30 67
M  V30 73 1 30 68
M  V30 74 1 31 69
M  V30 75 1 31 70
M  V30 76 1 33 71
M  V30 77 1 34 72
M  V30 78 1 35 73
M  V30 END BOND
M  V30 END CTAB
M  END
>  <Dataset>  (823) 
ChEMBL_Kinases

>  <Ligand_Instance>  (823) 
nan

>  <PDB_ID>  (823) 
nan

>  <Standardized_SMILES>  (823) 
COc1cc(N2CCN(C3COC3)CC2)ccc1Nc1nc(O[C@H]2CCOC(C)(C)C2)c2cc[nH]c2n1

>  <Name>  (823) 
nan

>  <Pocket>  (823) 
nan

>  <ATP_Site>  (823) 
nan

>  <Peripheral>  (823) 
nan

>  <Num_H_Atoms_ProtBoundConf>  (823) 
nan

>  <Num_Resolved_Atoms>  (823) 
nan

>  <Num_Not_Resolved_Atoms>  (823) 
nan

$$$$
CHEMBL4569479
     RDKit          3D

  0  0  0  0  0  0  0  0  0  0999 V3000
M  V30 BEGIN CTAB
M  V30 COUNTS 44 46 0 0 0
M  V30 BEGIN ATOM
M  V30 1 C -0.501553 -4.185725 1.729913 0
M  V30 2 C -0.047485 -2.819166 1.361762 0
M  V30 3 C 0.753235 -2.710741 0.103681 0
M  V30 4 C -0.076645 -3.204232 -1.056617 0
M  V30 5 C 2.060244 -3.486722 0.211597 0
M  V30 6 N 1.848202 -4.879569 0.453321 0
M  V30 7 C 1.069696 -1.282123 -0.147964 0
M  V30 8 C 1.793414 -0.913132 -1.261471 0
M  V30 9 C 2.063035 0.425382 -1.450260 0
M  V30 10 C 1.609048 1.373675 -0.530444 0
M  V30 11 C 0.869465 1.007156 0.608555 0
M  V30 12 C 0.577872 2.193973 1.379628 0
M  V30 13 C 1.744941 2.713533 1.961324 0
M  V30 14 C 1.713195 3.839608 2.772299 0
M  V30 15 N 0.537875 4.449789 3.007486 0
M  V30 16 C -0.583429 3.979193 2.468000 0
M  V30 17 N -1.879165 4.341780 2.466597 0
M  V30 18 N -2.601021 3.526186 1.727727 0
M  V30 19 C -1.822160 2.543790 1.175440 0
M  V30 20 C -2.253325 1.415553 0.313109 0
M  V30 21 F -3.613277 1.686488 0.045140 0
M  V30 22 F -2.362279 0.234539 1.043886 0
M  V30 23 F -1.624864 1.302563 -0.871778 0
M  V30 24 C -0.573341 2.862369 1.661047 0
M  V30 25 C 0.649460 -0.331601 0.717712 0
M  V30 26 H -1.569234 -4.176721 2.097139 0
M  V30 27 H -0.468494 -4.949782 0.959762 0
M  V30 28 H 0.061215 -4.602776 2.615176 0
M  V30 29 H -0.969612 -2.200937 1.190619 0
M  V30 30 H 0.526986 -2.421760 2.236852 0
M  V30 31 H -0.693398 -2.327999 -1.404060 0
M  V30 32 H -0.677057 -4.088450 -0.861654 0
M  V30 33 H 0.631357 -3.403783 -1.894074 0
M  V30 34 H 2.628215 -3.059541 1.057349 0
M  V30 35 H 2.620881 -3.325151 -0.729916 0
M  V30 36 H 2.123107 -5.522975 -0.300314 0
M  V30 37 H 2.052842 -5.198927 1.406877 0
M  V30 38 H 2.102236 -1.715840 -1.917331 0
M  V30 39 H 2.632255 0.642949 -2.339152 0
M  V30 40 H 1.914011 2.364443 -0.842256 0
M  V30 41 H 2.751218 2.316996 1.850489 0
M  V30 42 H 2.586507 4.268060 3.237008 0
M  V30 43 H -2.288653 5.170912 2.984435 0
M  V30 44 H 0.082365 -0.522104 1.640948 0
M  V30 END ATOM
M  V30 BEGIN BOND
M  V30 1 1 1 2
M  V30 2 1 2 3
M  V30 3 1 3 4
M  V30 4 1 3 5
M  V30 5 1 5 6
M  V30 6 1 3 7
M  V30 7 2 7 8
M  V30 8 1 8 9
M  V30 9 2 9 10
M  V30 10 1 10 11
M  V30 11 1 11 12
M  V30 12 2 12 13
M  V30 13 1 13 14
M  V30 14 2 14 15
M  V30 15 1 15 16
M  V30 16 1 16 17
M  V30 17 1 17 18
M  V30 18 2 18 19
M  V30 19 1 19 20
M  V30 20 1 20 21
M  V30 21 1 20 22
M  V30 22 1 20 23
M  V30 23 1 19 24
M  V30 24 2 11 25
M  V30 25 1 25 7
M  V30 26 1 24 12
M  V30 27 2 24 16
M  V30 28 1 1 26
M  V30 29 1 1 27
M  V30 30 1 1 28
M  V30 31 1 2 29
M  V30 32 1 2 30
M  V30 33 1 4 31
M  V30 34 1 4 32
M  V30 35 1 4 33
M  V30 36 1 5 34
M  V30 37 1 5 35
M  V30 38 1 6 36
M  V30 39 1 6 37
M  V30 40 1 8 38
M  V30 41 1 9 39
M  V30 42 1 10 40
M  V30 43 1 13 41
M  V30 44 1 14 42
M  V30 45 1 17 43
M  V30 46 1 25 44
M  V30 END BOND
M  V30 END CTAB
M  END
>  <Dataset>  (824) 
ChEMBL_Kinases

>  <Ligand_Instance>  (824) 
nan

>  <PDB_ID>  (824) 
nan

>  <Standardized_SMILES>  (824) 
CCC(C)(CN)c1cccc(-c2ccnc3[nH]nc(C(F)(F)F)c23)c1

>  <Name>  (824) 
nan

>  <Pocket>  (824) 
nan

>  <ATP_Site>  (824) 
nan

>  <Peripheral>  (824) 
nan

>  <Num_H_Atoms_ProtBoundConf>  (824) 
nan

>  <Num_Resolved_Atoms>  (824) 
nan

>  <Num_Not_Resolved_Atoms>  (824) 
nan

$$$$
CHEMBL4569437
     RDKit          3D

  0  0  0  0  0  0  0  0  0  0999 V3000
M  V30 BEGIN CTAB
M  V30 COUNTS 48 51 0 0 0
M  V30 BEGIN ATOM
M  V30 1 C 2.261118 -3.757558 -0.964645 0
M  V30 2 C 1.604696 -2.455170 -0.468832 0
M  V30 3 C 1.100501 -1.746640 -1.700720 0
M  V30 4 C 2.766277 -1.652715 0.115246 0
M  V30 5 C 2.389331 -0.359531 0.677124 0
M  V30 6 C 2.097800 -0.411284 2.045850 0
M  V30 7 C 1.732560 0.681185 2.779289 0
M  V30 8 C 1.646169 1.900460 2.137956 0
M  V30 9 F 1.289891 3.059242 2.774371 0
M  V30 10 C 1.931866 1.946045 0.801032 0
M  V30 11 C 2.302184 0.855400 0.043057 0
M  V30 12 N 0.571394 -2.678854 0.486581 0
M  V30 13 C -0.466626 -1.810957 0.916016 0
M  V30 14 N -0.668087 -0.583066 0.412438 0
M  V30 15 C -1.653979 0.250104 0.770882 0
M  V30 16 C -1.848698 1.575280 0.196083 0
M  V30 17 C -1.056672 2.121655 -0.791441 0
M  V30 18 C -1.270382 3.379724 -1.317622 0
M  V30 19 N -2.288568 4.138625 -0.872276 0
M  V30 20 C -3.093758 3.653422 0.091990 0
M  V30 21 C -2.876628 2.395342 0.615268 0
M  V30 22 N -2.518095 -0.164754 1.710170 0
M  V30 23 C -2.410481 -1.393857 2.291986 0
M  V30 24 C -3.300409 -1.816749 3.257071 0
M  V30 25 N -3.208445 -3.032865 3.844897 0
M  V30 26 C -2.202675 -3.863234 3.468225 0
M  V30 27 C -1.327871 -3.414935 2.501751 0
M  V30 28 C -1.374348 -2.192502 1.872906 0
M  V30 29 H 2.798102 -4.285854 -0.176554 0
M  V30 30 H 2.980354 -3.473400 -1.756916 0
M  V30 31 H 1.488845 -4.382415 -1.460041 0
M  V30 32 H 0.261709 -2.348082 -2.112630 0
M  V30 33 H 0.800755 -0.723606 -1.433699 0
M  V30 34 H 1.877667 -1.654909 -2.470144 0
M  V30 35 H 3.534533 -1.494956 -0.697449 0
M  V30 36 H 3.318570 -2.294643 0.861687 0
M  V30 37 H 2.137905 -1.331487 2.643950 0
M  V30 38 H 1.505592 0.656974 3.831210 0
M  V30 39 H 1.865725 2.904306 0.289065 0
M  V30 40 H 2.536363 0.853820 -1.007619 0
M  V30 41 H 0.661467 -3.629612 0.876956 0
M  V30 42 H -0.232924 1.542392 -1.172581 0
M  V30 43 H -0.596323 3.735669 -2.096528 0
M  V30 44 H -3.935352 4.231030 0.488091 0
M  V30 45 H -3.558070 2.041732 1.399177 0
M  V30 46 H -4.112545 -1.181184 3.580314 0
M  V30 47 H -2.149066 -4.815535 3.943727 0
M  V30 48 H -0.567349 -4.139264 2.270056 0
M  V30 END ATOM
M  V30 BEGIN BOND
M  V30 1 1 1 2
M  V30 2 1 2 3
M  V30 3 1 2 4
M  V30 4 1 4 5
M  V30 5 2 5 6
M  V30 6 1 6 7
M  V30 7 2 7 8
M  V30 8 1 8 9
M  V30 9 1 8 10
M  V30 10 2 10 11
M  V30 11 1 2 12
M  V30 12 1 12 13
M  V30 13 2 13 14
M  V30 14 1 14 15
M  V30 15 1 15 16
M  V30 16 2 16 17
M  V30 17 1 17 18
M  V30 18 2 18 19
M  V30 19 1 19 20
M  V30 20 2 20 21
M  V30 21 2 15 22
M  V30 22 1 22 23
M  V30 23 2 23 24
M  V30 24 1 24 25
M  V30 25 2 25 26
M  V30 26 1 26 27
M  V30 27 2 27 28
M  V30 28 1 11 5
M  V30 29 1 28 13
M  V30 30 1 21 16
M  V30 31 1 28 23
M  V30 32 1 1 29
M  V30 33 1 1 30
M  V30 34 1 1 31
M  V30 35 1 3 32
M  V30 36 1 3 33
M  V30 37 1 3 34
M  V30 38 1 4 35
M  V30 39 1 4 36
M  V30 40 1 6 37
M  V30 41 1 7 38
M  V30 42 1 10 39
M  V30 43 1 11 40
M  V30 44 1 12 41
M  V30 45 1 17 42
M  V30 46 1 18 43
M  V30 47 1 20 44
M  V30 48 1 21 45
M  V30 49 1 24 46
M  V30 50 1 26 47
M  V30 51 1 27 48
M  V30 END BOND
M  V30 END CTAB
M  END
>  <Dataset>  (825) 
ChEMBL_Kinases

>  <Ligand_Instance>  (825) 
nan

>  <PDB_ID>  (825) 
nan

>  <Standardized_SMILES>  (825) 
CC(C)(Cc1ccc(F)cc1)Nc1nc(-c2ccncc2)nc2cnccc12

>  <Name>  (825) 
nan

>  <Pocket>  (825) 
nan

>  <ATP_Site>  (825) 
nan

>  <Peripheral>  (825) 
nan

>  <Num_H_Atoms_ProtBoundConf>  (825) 
nan

>  <Num_Resolved_Atoms>  (825) 
nan

>  <Num_Not_Resolved_Atoms>  (825) 
nan

$$$$
CHEMBL4569409
     RDKit          3D

  0  0  0  0  0  0  0  0  0  0999 V3000
M  V30 BEGIN CTAB
M  V30 COUNTS 54 58 0 0 0
M  V30 BEGIN ATOM
M  V30 1 O 0.720030 -5.070557 -0.527306 0
M  V30 2 C -0.159913 -4.290279 -0.083504 0
M  V30 3 C 0.000203 -2.856933 0.232922 0
M  V30 4 C 1.118600 -2.056907 0.121883 0
M  V30 5 C 1.069980 -0.725160 0.472547 0
M  V30 6 C 2.171868 0.238760 0.407620 0
M  V30 7 C 3.404075 -0.181067 -0.044190 0
M  V30 8 C 4.388006 0.784051 -0.075475 0
M  V30 9 N 4.229765 2.066085 0.293764 0
M  V30 10 C 2.974921 2.382789 0.725770 0
M  V30 11 N 2.616859 3.703918 1.157632 0
M  V30 12 C 1.347060 4.235495 1.653524 0
M  V30 13 C 1.434461 5.702157 1.952536 0
M  V30 14 C 1.233026 6.090835 3.372002 0
M  V30 15 O 0.273218 5.321868 4.026002 0
M  V30 16 C 0.823526 4.044211 4.120078 0
M  V30 17 C 0.757529 3.420450 2.746245 0
M  V30 18 N 1.974792 1.513651 0.785889 0
M  V30 19 C -0.174686 -0.291901 0.931081 0
M  V30 20 C -1.318734 -1.051759 1.059416 0
M  V30 21 C -1.209477 -2.379428 0.692783 0
M  V30 22 C -2.236603 -3.455355 0.707592 0
M  V30 23 N -1.507327 -4.623835 0.210687 0
M  V30 24 C -2.147279 -5.923340 0.065189 0
M  V30 25 C -2.747325 -6.077972 -1.288933 0
M  V30 26 C -4.055478 -5.688099 -1.512828 0
M  V30 27 C -4.641306 -5.818298 -2.757390 0
M  V30 28 C -3.898423 -6.354246 -3.811127 0
M  V30 29 Cl -4.616614 -6.530838 -5.400282 0
M  V30 30 C -2.595117 -6.743673 -3.591858 0
M  V30 31 F -1.880448 -7.262755 -4.619716 0
M  V30 32 C -1.990012 -6.617132 -2.336146 0
M  V30 33 H 2.045047 -2.431160 -0.232500 0
M  V30 34 H 3.636970 -1.186364 -0.364159 0
M  V30 35 H 5.394865 0.537954 -0.420027 0
M  V30 36 H 3.413331 4.407602 1.105208 0
M  V30 37 H 0.658832 4.145072 0.761130 0
M  V30 38 H 2.455358 6.053880 1.640230 0
M  V30 39 H 0.726943 6.322466 1.332802 0
M  V30 40 H 0.881892 7.142046 3.432020 0
M  V30 41 H 2.180774 5.938651 3.962297 0
M  V30 42 H 0.183696 3.456069 4.793879 0
M  V30 43 H 1.863617 4.159404 4.484729 0
M  V30 44 H -0.337734 3.229119 2.562079 0
M  V30 45 H 1.194359 2.404644 2.827878 0
M  V30 46 H -0.258037 0.761797 1.221099 0
M  V30 47 H -2.220395 -0.608485 1.424291 0
M  V30 48 H -3.096481 -3.213895 0.051015 0
M  V30 49 H -2.593820 -3.694293 1.731683 0
M  V30 50 H -1.399068 -6.730112 0.273415 0
M  V30 51 H -2.958160 -6.029315 0.839931 0
M  V30 52 H -4.588625 -5.278101 -0.661416 0
M  V30 53 H -5.683105 -5.499348 -2.903569 0
M  V30 54 H -0.968474 -6.915818 -2.139725 0
M  V30 END ATOM
M  V30 BEGIN BOND
M  V30 1 2 1 2
M  V30 2 1 2 3
M  V30 3 2 3 4
M  V30 4 1 4 5
M  V30 5 1 5 6
M  V30 6 2 6 7
M  V30 7 1 7 8
M  V30 8 2 8 9
M  V30 9 1 9 10
M  V30 10 1 10 11
M  V30 11 1 11 12
M  V30 12 1 12 13
M  V30 13 1 13 14
M  V30 14 1 14 15
M  V30 15 1 15 16
M  V30 16 1 16 17
M  V30 17 2 10 18
M  V30 18 2 5 19
M  V30 19 1 19 20
M  V30 20 2 20 21
M  V30 21 1 21 22
M  V30 22 1 22 23
M  V30 23 1 23 24
M  V30 24 1 24 25
M  V30 25 2 25 26
M  V30 26 1 26 27
M  V30 27 2 27 28
M  V30 28 1 28 29
M  V30 29 1 28 30
M  V30 30 1 30 31
M  V30 31 2 30 32
M  V30 32 1 23 2
M  V30 33 1 32 25
M  V30 34 1 21 3
M  V30 35 1 18 6
M  V30 36 1 17 12
M  V30 37 1 4 33
M  V30 38 1 7 34
M  V30 39 1 8 35
M  V30 40 1 11 36
M  V30 41 1 12 37
M  V30 42 1 13 38
M  V30 43 1 13 39
M  V30 44 1 14 40
M  V30 45 1 14 41
M  V30 46 1 16 42
M  V30 47 1 16 43
M  V30 48 1 17 44
M  V30 49 1 17 45
M  V30 50 1 19 46
M  V30 51 1 20 47
M  V30 52 1 22 48
M  V30 53 1 22 49
M  V30 54 1 24 50
M  V30 55 1 24 51
M  V30 56 1 26 52
M  V30 57 1 27 53
M  V30 58 1 32 54
M  V30 END BOND
M  V30 END CTAB
M  END
>  <Dataset>  (826) 
ChEMBL_Kinases

>  <Ligand_Instance>  (826) 
nan

>  <PDB_ID>  (826) 
nan

>  <Standardized_SMILES>  (826) 
O=C1c2cc(-c3ccnc(NC4CCOCC4)n3)ccc2CN1Cc1ccc(Cl)c(F)c1

>  <Name>  (826) 
nan

>  <Pocket>  (826) 
nan

>  <ATP_Site>  (826) 
nan

>  <Peripheral>  (826) 
nan

>  <Num_H_Atoms_ProtBoundConf>  (826) 
nan

>  <Num_Resolved_Atoms>  (826) 
nan

>  <Num_Not_Resolved_Atoms>  (826) 
nan

$$$$
CHEMBL4569395
     RDKit          3D

  0  0  0  0  0  0  0  0  0  0999 V3000
M  V30 BEGIN CTAB
M  V30 COUNTS 59 61 0 0 0
M  V30 BEGIN ATOM
M  V30 1 C 0.324037 -3.612054 3.199619 0
M  V30 2 C 1.129931 -3.229019 2.020407 0
M  V30 3 O 1.663092 -4.201778 1.429578 0
M  V30 4 O 1.323469 -1.929736 1.550910 0
M  V30 5 C 2.132744 -1.691509 0.389896 0 CFG=2
M  V30 6 C 3.352887 -0.983141 0.945503 0
M  V30 7 C 3.116598 0.369506 1.466291 0
M  V30 8 C 1.905103 1.093404 1.068113 0
M  V30 9 C 1.241846 1.659348 2.340248 0
M  V30 10 C 2.213556 2.341143 0.230088 0
M  V30 11 C 0.795640 0.280637 0.420371 0 CFG=1
M  V30 12 C -0.233923 1.206179 -0.141315 0
M  V30 13 C -1.614039 1.082282 0.443250 0 CFG=1
M  V30 14 O -2.430422 2.071980 -0.137119 0
M  V30 15 C -2.249406 -0.251833 0.290245 0
M  V30 16 C -2.524526 -0.686804 -0.958244 0
M  V30 17 C -2.696303 -2.147712 -0.858090 0 CFG=1
M  V30 18 C -1.503456 -2.962708 -0.618773 0
M  V30 19 C -0.269221 -2.760813 -1.390973 0
M  V30 20 C 0.364468 -1.437050 -1.352918 0
M  V30 21 O -0.034373 -0.732548 -2.275153 0
M  V30 22 C 1.346070 -0.761883 -0.491500 0 CFG=2
M  V30 23 C 2.390751 -0.195770 -1.469080 0
M  V30 24 C -3.494086 -2.190675 0.475841 0 CFG=2
M  V30 25 C -4.913268 -1.794815 0.296741 0
M  V30 26 C -2.683460 -1.250980 1.300796 0
M  V30 27 O -2.346325 -1.155730 2.509513 0
M  V30 28 H -0.350067 -2.777063 3.479818 0
M  V30 29 H 0.981070 -3.758992 4.102457 0
M  V30 30 H -0.321144 -4.491163 2.998054 0
M  V30 31 H 2.517521 -2.596056 -0.071078 0
M  V30 32 H 3.718191 -1.685831 1.727434 0
M  V30 33 H 4.149201 -0.995771 0.177973 0
M  V30 34 H 3.238665 0.336111 2.588196 0
M  V30 35 H 3.999063 1.025127 1.189434 0
M  V30 36 H 0.645131 0.867889 2.831816 0
M  V30 37 H 2.073562 1.885727 3.046223 0
M  V30 38 H 0.706034 2.591183 2.156012 0
M  V30 39 H 1.790372 3.266726 0.667724 0
M  V30 40 H 3.315930 2.533063 0.212267 0
M  V30 41 H 1.838525 2.296017 -0.789773 0
M  V30 42 H 0.303219 -0.252773 1.260516 0
M  V30 43 H 0.063557 2.255656 0.187684 0
M  V30 44 H -0.239906 1.302347 -1.244629 0
M  V30 45 H -1.542997 1.326160 1.519607 0
M  V30 46 H -2.139420 2.963257 0.209774 0
M  V30 47 H -2.601811 -0.043454 -1.821167 0
M  V30 48 H -3.390607 -2.547332 -1.620208 0
M  V30 49 H -1.820412 -4.040666 -0.790291 0
M  V30 50 H -1.238882 -2.990233 0.479880 0
M  V30 51 H -0.447080 -3.120448 -2.446199 0
M  V30 52 H 0.442900 -3.571388 -1.026552 0
M  V30 53 H 2.886797 -1.131097 -1.867982 0
M  V30 54 H 3.194022 0.347488 -0.988338 0
M  V30 55 H 1.935184 0.249510 -2.357666 0
M  V30 56 H -3.437631 -3.181827 0.947087 0
M  V30 57 H -5.097886 -0.707872 0.337740 0
M  V30 58 H -5.213050 -2.113370 -0.739634 0
M  V30 59 H -5.596564 -2.383781 0.969125 0
M  V30 END ATOM
M  V30 BEGIN BOND
M  V30 1 1 1 2
M  V30 2 2 2 3
M  V30 3 1 2 4
M  V30 4 1 4 5
M  V30 5 1 5 6
M  V30 6 1 6 7
M  V30 7 1 7 8
M  V30 8 1 8 9
M  V30 9 1 8 10
M  V30 10 1 8 11
M  V30 11 1 11 12
M  V30 12 1 12 13
M  V30 13 1 13 14
M  V30 14 1 13 15
M  V30 15 2 15 16
M  V30 16 1 16 17
M  V30 17 1 17 18
M  V30 18 1 18 19
M  V30 19 1 19 20
M  V30 20 2 20 21
M  V30 21 1 20 22
M  V30 22 1 22 23 CFG=3
M  V30 23 1 17 24
M  V30 24 1 24 25
M  V30 25 1 24 26
M  V30 26 2 26 27
M  V30 27 1 22 5
M  V30 28 1 22 11
M  V30 29 1 26 15
M  V30 30 1 1 28
M  V30 31 1 1 29
M  V30 32 1 1 30
M  V30 33 1 5 31 CFG=3
M  V30 34 1 6 32
M  V30 35 1 6 33
M  V30 36 1 7 34
M  V30 37 1 7 35
M  V30 38 1 9 36
M  V30 39 1 9 37
M  V30 40 1 9 38
M  V30 41 1 10 39
M  V30 42 1 10 40
M  V30 43 1 10 41
M  V30 44 1 11 42 CFG=1
M  V30 45 1 12 43
M  V30 46 1 12 44
M  V30 47 1 13 45 CFG=1
M  V30 48 1 14 46
M  V30 49 1 16 47
M  V30 50 1 17 48 CFG=3
M  V30 51 1 18 49
M  V30 52 1 18 50
M  V30 53 1 19 51
M  V30 54 1 19 52
M  V30 55 1 23 53
M  V30 56 1 23 54
M  V30 57 1 23 55
M  V30 58 1 24 56 CFG=1
M  V30 59 1 25 57
M  V30 60 1 25 58
M  V30 61 1 25 59
M  V30 END BOND
M  V30 END CTAB
M  END
>  <Dataset>  (827) 
ChEMBL_Kinases

>  <Ligand_Instance>  (827) 
nan

>  <PDB_ID>  (827) 
nan

>  <Standardized_SMILES>  (827) 
CC(=O)O[C@@H]1CCC(C)(C)[C@H]2C[C@@H](O)C3=C[C@@H](CCC(=O)[C@@]21C)[C@H](C)C3=O

>  <Name>  (827) 
nan

>  <Pocket>  (827) 
nan

>  <ATP_Site>  (827) 
nan

>  <Peripheral>  (827) 
nan

>  <Num_H_Atoms_ProtBoundConf>  (827) 
nan

>  <Num_Resolved_Atoms>  (827) 
nan

>  <Num_Not_Resolved_Atoms>  (827) 
nan

$$$$
CHEMBL4569388
     RDKit          3D

  0  0  0  0  0  0  0  0  0  0999 V3000
M  V30 BEGIN CTAB
M  V30 COUNTS 52 56 0 0 0
M  V30 BEGIN ATOM
M  V30 1 C -1.414438 1.781486 -6.611654 0
M  V30 2 C -0.340368 1.249872 -5.755000 0
M  V30 3 C -0.544824 0.618189 -4.545041 0
M  V30 4 N 0.651709 0.264728 -4.039225 0
M  V30 5 C 1.006023 -0.404543 -2.835093 0
M  V30 6 C 1.349262 -1.733814 -2.961581 0
M  V30 7 C 1.702891 -2.438149 -1.833263 0
M  V30 8 C 1.749942 -1.936999 -0.554791 0
M  V30 9 C 1.397650 -0.605516 -0.467090 0
M  V30 10 C 1.035254 0.161863 -1.551437 0
M  V30 11 C 1.278444 0.292603 0.681143 0
M  V30 12 O 2.258289 1.007440 0.908567 0
M  V30 13 N 0.432144 0.711079 1.723712 0
M  V30 14 C -0.410905 1.128340 2.762764 0
M  V30 15 C -1.089792 2.288565 2.812714 0
M  V30 16 C -1.872742 2.440258 3.921835 0
M  V30 17 C -1.947241 1.467152 4.897028 0
M  V30 18 C -1.219787 0.319518 4.754137 0
M  V30 19 N -0.461152 0.172464 3.687892 0
M  V30 20 C -1.177529 -0.876557 5.583873 0
M  V30 21 N -1.536034 -0.893639 6.877890 0
M  V30 22 N -1.406405 -2.141710 7.334841 0
M  V30 23 C -0.963783 -2.875809 6.295527 0
M  V30 24 N -0.806776 -2.130891 5.187336 0
M  V30 25 C -0.388521 -2.224888 3.826028 0
M  V30 26 C -0.259122 -3.640454 3.271334 0
M  V30 27 C 0.259697 -3.482952 1.814096 0
M  V30 28 C 1.635294 -2.930825 1.750774 0
M  V30 29 O 2.124415 -2.733911 0.480052 0
M  V30 30 C 1.597728 0.648126 -4.880849 0
M  V30 31 N 0.985660 1.248981 -5.926425 0
M  V30 32 H -1.123244 2.667808 -7.192028 0
M  V30 33 H -1.774363 0.994530 -7.332956 0
M  V30 34 H -2.316191 2.054422 -6.018857 0
M  V30 35 H -1.476303 0.409734 -4.032608 0
M  V30 36 H 1.344103 -2.224819 -3.925278 0
M  V30 37 H 1.971511 -3.496055 -1.968039 0
M  V30 38 H 0.782737 1.212769 -1.468165 0
M  V30 39 H -0.321923 0.175968 1.254486 0
M  V30 40 H -0.849532 2.815280 1.933513 0
M  V30 41 H -2.412491 3.363412 3.965301 0
M  V30 42 H -2.536490 1.535568 5.770663 0
M  V30 43 H -0.736949 -3.937648 6.266914 0
M  V30 44 H 0.607701 -1.798841 3.759887 0
M  V30 45 H -1.156830 -1.780968 3.117484 0
M  V30 46 H 0.376635 -4.293249 3.862482 0
M  V30 47 H -1.258390 -4.105010 3.158347 0
M  V30 48 H -0.441909 -2.802314 1.320220 0
M  V30 49 H 0.230723 -4.448412 1.309486 0
M  V30 50 H 2.368492 -3.642373 2.258223 0
M  V30 51 H 1.786138 -1.960434 2.292688 0
M  V30 52 H 2.675932 0.614083 -4.958165 0
M  V30 END ATOM
M  V30 BEGIN BOND
M  V30 1 1 1 2
M  V30 2 2 2 3
M  V30 3 1 3 4
M  V30 4 1 4 5
M  V30 5 2 5 6
M  V30 6 1 6 7
M  V30 7 2 7 8
M  V30 8 1 8 9
M  V30 9 2 9 10
M  V30 10 1 9 11
M  V30 11 2 11 12
M  V30 12 1 11 13
M  V30 13 1 13 14
M  V30 14 2 14 15
M  V30 15 1 15 16
M  V30 16 2 16 17
M  V30 17 1 17 18
M  V30 18 2 18 19
M  V30 19 1 18 20
M  V30 20 2 20 21
M  V30 21 1 21 22
M  V30 22 2 22 23
M  V30 23 1 23 24
M  V30 24 1 24 25
M  V30 25 1 25 26
M  V30 26 1 26 27
M  V30 27 1 27 28
M  V30 28 1 28 29
M  V30 29 1 4 30
M  V30 30 2 30 31
M  V30 31 1 31 2
M  V30 32 1 10 5
M  V30 33 1 19 14
M  V30 34 1 24 20
M  V30 35 1 29 8
M  V30 36 1 1 32
M  V30 37 1 1 33
M  V30 38 1 1 34
M  V30 39 1 3 35
M  V30 40 1 6 36
M  V30 41 1 7 37
M  V30 42 1 10 38
M  V30 43 1 13 39
M  V30 44 1 15 40
M  V30 45 1 16 41
M  V30 46 1 17 42
M  V30 47 1 23 43
M  V30 48 1 25 44
M  V30 49 1 25 45
M  V30 50 1 26 46
M  V30 51 1 26 47
M  V30 52 1 27 48
M  V30 53 1 27 49
M  V30 54 1 28 50
M  V30 55 1 28 51
M  V30 56 1 30 52
M  V30 END BOND
M  V30 END CTAB
M  END
>  <Dataset>  (828) 
ChEMBL_Kinases

>  <Ligand_Instance>  (828) 
nan

>  <PDB_ID>  (828) 
nan

>  <Standardized_SMILES>  (828) 
Cc1cn(-c2ccc3c(c2)C(=O)Nc2cccc(n2)-c2nncn2CCCCO3)cn1

>  <Name>  (828) 
nan

>  <Pocket>  (828) 
nan

>  <ATP_Site>  (828) 
nan

>  <Peripheral>  (828) 
nan

>  <Num_H_Atoms_ProtBoundConf>  (828) 
nan

>  <Num_Resolved_Atoms>  (828) 
nan

>  <Num_Not_Resolved_Atoms>  (828) 
nan

$$$$
CHEMBL4569321
     RDKit          3D

  0  0  0  0  0  0  0  0  0  0999 V3000
M  V30 BEGIN CTAB
M  V30 COUNTS 62 65 0 0 0
M  V30 BEGIN ATOM
M  V30 1 C 2.588549 -0.852456 5.059133 0
M  V30 2 C 3.640794 -0.238867 4.192408 0
M  V30 3 C 3.307958 -0.326844 2.750560 0
M  V30 4 O 2.153586 -0.850555 2.600014 0
M  V30 5 N 4.074725 0.074302 1.630724 0
M  V30 6 C 3.636357 -0.063394 0.257884 0
M  V30 7 C 2.686440 1.033392 -0.038576 0
M  V30 8 C 3.326862 2.180287 -0.473792 0
M  V30 9 C 2.576874 3.287453 -0.803252 0
M  V30 10 C 1.208096 3.290211 -0.713618 0
M  V30 11 O 0.473303 4.400980 -1.045451 0
M  V30 12 C 0.943274 5.629534 -1.499697 0
M  V30 13 C 0.526604 2.141924 -0.275537 0
M  V30 14 N -0.885761 2.117387 -0.171272 0
M  V30 15 C -1.790501 1.091861 0.194798 0
M  V30 16 N -1.410190 -0.163775 0.486325 0
M  V30 17 C -2.285666 -1.124714 0.833564 0
M  V30 18 N -2.048021 -2.476825 1.141330 0
M  V30 19 C -2.161786 -3.790589 0.695992 0
M  V30 20 C -2.946771 -4.544288 1.583701 0
M  V30 21 C -3.233622 -5.888448 1.371486 0
M  V30 22 C -2.679066 -6.407274 0.217203 0
M  V30 23 C -1.905126 -5.747719 -0.700241 0
M  V30 24 C -1.671002 -4.426703 -0.414843 0
M  V30 25 C -0.866917 -3.607946 -1.293375 0
M  V30 26 O -0.428779 -2.436600 -1.359169 0
M  V30 27 N -0.348453 -4.182463 -2.489366 0
M  V30 28 C 0.440829 -3.300430 -3.307330 0
M  V30 29 C -3.617526 -0.766907 0.882332 0
M  V30 30 C -4.822895 -1.412794 1.180214 0
M  V30 31 C -5.847508 -0.521760 1.053593 0
M  V30 32 N -5.364584 0.682307 0.685200 0
M  V30 33 C -4.033819 0.495555 0.593487 0
M  V30 34 N -3.097754 1.396198 0.254131 0
M  V30 35 C 1.321804 1.066595 0.040294 0
M  V30 36 H 3.065744 -1.667335 5.663730 0
M  V30 37 H 1.811753 -1.380323 4.423904 0
M  V30 38 H 2.100880 -0.186730 5.776762 0
M  V30 39 H 3.804866 0.840570 4.420102 0
M  V30 40 H 4.609167 -0.741314 4.377653 0
M  V30 41 H 5.001636 0.485230 1.902153 0
M  V30 42 H 3.071717 -1.025722 0.145715 0
M  V30 43 H 4.520310 -0.036484 -0.401273 0
M  V30 44 H 4.396144 2.311200 -0.588725 0
M  V30 45 H 3.039593 4.208952 -1.149380 0
M  V30 46 H 0.209015 6.152421 -2.170904 0
M  V30 47 H 1.044152 6.314961 -0.631633 0
M  V30 48 H 1.877181 5.577765 -2.094944 0
M  V30 49 H -1.323117 3.049149 -0.422115 0
M  V30 50 H -1.619218 -2.303545 2.091268 0
M  V30 51 H -3.402369 -4.164959 2.513625 0
M  V30 52 H -3.833693 -6.480637 2.040315 0
M  V30 53 H -2.888245 -7.468023 0.018097 0
M  V30 54 H -1.535794 -6.271025 -1.555786 0
M  V30 55 H -0.476202 -5.178781 -2.843152 0
M  V30 56 H -0.074089 -2.338598 -3.535873 0
M  V30 57 H 1.348628 -3.032200 -2.733949 0
M  V30 58 H 0.808202 -3.791865 -4.249169 0
M  V30 59 H -4.925866 -2.453423 1.465190 0
M  V30 60 H -6.905808 -0.691836 1.209170 0
M  V30 61 H -5.890566 1.561769 0.509582 0
M  V30 62 H 0.904489 0.131907 0.384489 0
M  V30 END ATOM
M  V30 BEGIN BOND
M  V30 1 1 1 2
M  V30 2 1 2 3
M  V30 3 2 3 4
M  V30 4 1 3 5
M  V30 5 1 5 6
M  V30 6 1 6 7
M  V30 7 2 7 8
M  V30 8 1 8 9
M  V30 9 2 9 10
M  V30 10 1 10 11
M  V30 11 1 11 12
M  V30 12 1 10 13
M  V30 13 1 13 14
M  V30 14 1 14 15
M  V30 15 2 15 16
M  V30 16 1 16 17
M  V30 17 1 17 18
M  V30 18 1 18 19
M  V30 19 2 19 20
M  V30 20 1 20 21
M  V30 21 2 21 22
M  V30 22 1 22 23
M  V30 23 2 23 24
M  V30 24 1 24 25
M  V30 25 2 25 26
M  V30 26 1 25 27
M  V30 27 1 27 28
M  V30 28 2 17 29
M  V30 29 1 29 30
M  V30 30 2 30 31
M  V30 31 1 31 32
M  V30 32 1 32 33
M  V30 33 2 33 34
M  V30 34 2 13 35
M  V30 35 1 35 7
M  V30 36 1 34 15
M  V30 37 1 24 19
M  V30 38 1 33 29
M  V30 39 1 1 36
M  V30 40 1 1 37
M  V30 41 1 1 38
M  V30 42 1 2 39
M  V30 43 1 2 40
M  V30 44 1 5 41
M  V30 45 1 6 42
M  V30 46 1 6 43
M  V30 47 1 8 44
M  V30 48 1 9 45
M  V30 49 1 12 46
M  V30 50 1 12 47
M  V30 51 1 12 48
M  V30 52 1 14 49
M  V30 53 1 18 50
M  V30 54 1 20 51
M  V30 55 1 21 52
M  V30 56 1 22 53
M  V30 57 1 23 54
M  V30 58 1 27 55
M  V30 59 1 28 56
M  V30 60 1 28 57
M  V30 61 1 28 58
M  V30 62 1 30 59
M  V30 63 1 31 60
M  V30 64 1 32 61
M  V30 65 1 35 62
M  V30 END BOND
M  V30 END CTAB
M  END
>  <Dataset>  (829) 
ChEMBL_Kinases

>  <Ligand_Instance>  (829) 
nan

>  <PDB_ID>  (829) 
nan

>  <Standardized_SMILES>  (829) 
CCC(=O)NCc1ccc(OC)c(Nc2nc(Nc3ccccc3C(=O)NC)c3cc[nH]c3n2)c1

>  <Name>  (829) 
nan

>  <Pocket>  (829) 
nan

>  <ATP_Site>  (829) 
nan

>  <Peripheral>  (829) 
nan

>  <Num_H_Atoms_ProtBoundConf>  (829) 
nan

>  <Num_Resolved_Atoms>  (829) 
nan

>  <Num_Not_Resolved_Atoms>  (829) 
nan

$$$$
CHEMBL4569165
     RDKit          3D

  0  0  0  0  0  0  0  0  0  0999 V3000
M  V30 BEGIN CTAB
M  V30 COUNTS 49 52 0 0 0
M  V30 BEGIN ATOM
M  V30 1 C -2.833255 -6.564598 3.118611 0
M  V30 2 N -2.013931 -6.458984 1.907385 0
M  V30 3 C -1.513864 -5.304128 1.449761 0
M  V30 4 C -0.777171 -5.523995 0.279620 0
M  V30 5 C -0.106239 -4.455533 -0.457517 0
M  V30 6 C 0.363334 -3.404340 0.322463 0
M  V30 7 N 0.986517 -2.406419 -0.343184 0
M  V30 8 C 1.134100 -2.447098 -1.686543 0
M  V30 9 C 1.730405 -1.544666 -2.551486 0
M  V30 10 C 2.351673 -0.294516 -2.121220 0
M  V30 11 C 3.610938 0.071367 -2.653876 0
M  V30 12 S 3.919036 1.720867 -1.770925 0
M  V30 13 C 2.440567 1.716199 -0.869586 0
M  V30 14 C 2.095604 2.781986 0.035853 0
M  V30 15 O 2.922599 3.724213 0.144919 0
M  V30 16 N 0.869412 2.721177 0.745527 0
M  V30 17 C 0.532777 3.816078 1.667734 0
M  V30 18 C -0.798196 3.495108 2.268173 0
M  V30 19 C -1.322713 4.511725 3.245538 0
M  V30 20 N -2.621221 4.015295 3.704259 0
M  V30 21 C -0.472163 4.653052 4.470781 0
M  V30 22 F -1.111389 5.625284 5.262598 0
M  V30 23 F -0.418747 3.466828 5.159318 0
M  V30 24 F 0.779724 5.194750 4.222700 0
M  V30 25 C 1.768581 0.553955 -1.213498 0
M  V30 26 C 1.644684 -2.005898 -3.849412 0
M  V30 27 N 0.988259 -3.194880 -3.735850 0
M  V30 28 N 0.690792 -3.450866 -2.471702 0
M  V30 29 C 0.064670 -4.460177 -1.831944 0
M  V30 30 C -0.882014 -6.900823 0.082561 0
M  V30 31 N -1.628419 -7.406907 1.080005 0
M  V30 32 H -3.833703 -6.150052 2.874525 0
M  V30 33 H -2.845402 -7.599271 3.492682 0
M  V30 34 H -2.403376 -5.841051 3.869381 0
M  V30 35 H -1.649513 -4.318595 1.909014 0
M  V30 36 H 0.249559 -3.363843 1.396643 0
M  V30 37 H 4.193232 -0.433937 -3.338359 0
M  V30 38 H 0.245049 1.901592 0.590818 0
M  V30 39 H 0.547198 4.734740 1.084942 0
M  V30 40 H 1.299513 3.881617 2.467875 0
M  V30 41 H -1.559535 3.420948 1.450299 0
M  V30 42 H -0.758940 2.522659 2.811087 0
M  V30 43 H -1.445103 5.517222 2.778140 0
M  V30 44 H -3.361842 4.206583 2.974784 0
M  V30 45 H -2.578772 2.999652 3.921751 0
M  V30 46 H 0.815485 0.387458 -0.739035 0
M  V30 47 H 2.012557 -1.535673 -4.755522 0
M  V30 48 H -0.322920 -5.309484 -2.394594 0
M  V30 49 H -0.404938 -7.372073 -0.759891 0
M  V30 END ATOM
M  V30 BEGIN BOND
M  V30 1 1 1 2
M  V30 2 1 2 3
M  V30 3 2 3 4
M  V30 4 1 4 5
M  V30 5 1 5 6
M  V30 6 2 6 7
M  V30 7 1 7 8
M  V30 8 2 8 9
M  V30 9 1 9 10
M  V30 10 2 10 11
M  V30 11 1 11 12
M  V30 12 1 12 13
M  V30 13 1 13 14
M  V30 14 2 14 15
M  V30 15 1 14 16
M  V30 16 1 16 17
M  V30 17 1 17 18
M  V30 18 1 18 19
M  V30 19 1 19 20
M  V30 20 1 19 21
M  V30 21 1 21 22
M  V30 22 1 21 23
M  V30 23 1 21 24
M  V30 24 2 13 25
M  V30 25 1 9 26
M  V30 26 2 26 27
M  V30 27 1 27 28
M  V30 28 1 28 29
M  V30 29 1 4 30
M  V30 30 2 30 31
M  V30 31 1 31 2
M  V30 32 2 29 5
M  V30 33 1 28 8
M  V30 34 1 25 10
M  V30 35 1 1 32
M  V30 36 1 1 33
M  V30 37 1 1 34
M  V30 38 1 3 35
M  V30 39 1 6 36
M  V30 40 1 11 37
M  V30 41 1 16 38
M  V30 42 1 17 39
M  V30 43 1 17 40
M  V30 44 1 18 41
M  V30 45 1 18 42
M  V30 46 1 19 43
M  V30 47 1 20 44
M  V30 48 1 20 45
M  V30 49 1 25 46
M  V30 50 1 26 47
M  V30 51 1 29 48
M  V30 52 1 30 49
M  V30 END BOND
M  V30 END CTAB
M  END
>  <Dataset>  (830) 
ChEMBL_Kinases

>  <Ligand_Instance>  (830) 
nan

>  <PDB_ID>  (830) 
nan

>  <Standardized_SMILES>  (830) 
Cn1cc(-c2cnc3c(-c4csc(C(=O)NCCC(N)C(F)(F)F)c4)cnn3c2)cn1

>  <Name>  (830) 
nan

>  <Pocket>  (830) 
nan

>  <ATP_Site>  (830) 
nan

>  <Peripheral>  (830) 
nan

>  <Num_H_Atoms_ProtBoundConf>  (830) 
nan

>  <Num_Resolved_Atoms>  (830) 
nan

>  <Num_Not_Resolved_Atoms>  (830) 
nan

$$$$
CHEMBL4569982
     RDKit          3D

  0  0  0  0  0  0  0  0  0  0999 V3000
M  V30 BEGIN CTAB
M  V30 COUNTS 49 53 0 0 0
M  V30 BEGIN ATOM
M  V30 1 C -0.240482 -3.204896 3.996602 0
M  V30 2 C 0.601167 -3.186267 2.750521 0
M  V30 3 C 1.714079 -4.029603 2.666638 0
M  V30 4 C 2.497313 -4.023606 1.536081 0
M  V30 5 C 2.152447 -3.172219 0.507581 0
M  V30 6 C 1.051351 -2.357543 0.625516 0
M  V30 7 C 0.518374 -1.373861 -0.338322 0
M  V30 8 N 1.165494 -0.215249 -0.611054 0
M  V30 9 N 0.450241 0.482143 -1.499762 0
M  V30 10 C 0.986675 1.790747 -1.912167 0
M  V30 11 C 0.442615 2.850065 -0.986192 0
M  V30 12 O -0.558859 3.538074 -1.294918 0
M  V30 13 N 1.193659 2.936853 0.215356 0
M  V30 14 C 1.229351 3.659371 1.436219 0
M  V30 15 C 1.891059 4.823188 1.749376 0
M  V30 16 C 1.788560 5.377603 3.032667 0
M  V30 17 C 1.004312 4.704013 3.942919 0
M  V30 18 C 0.303258 3.528375 3.712721 0
M  V30 19 C 0.454064 3.041824 2.420114 0
M  V30 20 C -0.667419 -0.178869 -1.835953 0
M  V30 21 C -0.619724 -1.329644 -1.111610 0
M  V30 22 C -1.589385 -2.400066 -1.097655 0
M  V30 23 C -2.883190 -2.220887 -0.715694 0
M  V30 24 C -3.764201 -3.274242 -0.711190 0
M  V30 25 C -3.353512 -4.520704 -1.091684 0
M  V30 26 N -4.298752 -5.614712 -1.078180 0
M  V30 27 S -3.213142 -6.920148 -1.649736 0
M  V30 28 N -1.749016 -6.092880 -1.858813 0
M  V30 29 C -2.081397 -4.678747 -1.464022 0
M  V30 30 C -1.202594 -3.660323 -1.475051 0
M  V30 31 N 0.274948 -2.353725 1.728989 0
M  V30 32 H -1.251020 -3.609500 3.767078 0
M  V30 33 H 0.243674 -3.803879 4.763824 0
M  V30 34 H -0.349702 -2.171036 4.407595 0
M  V30 35 H 1.976367 -4.696011 3.480676 0
M  V30 36 H 3.377578 -4.648473 1.392708 0
M  V30 37 H 2.669428 -3.058531 -0.433351 0
M  V30 38 H 0.559026 2.008202 -2.908691 0
M  V30 39 H 2.089589 1.796543 -1.945618 0
M  V30 40 H 2.040502 2.322639 0.415958 0
M  V30 41 H 2.457449 5.226858 0.944525 0
M  V30 42 H 2.323327 6.285905 3.234788 0
M  V30 43 H 0.905219 5.113481 4.960162 0
M  V30 44 H -0.297107 3.037959 4.459691 0
M  V30 45 H -0.108789 2.113265 2.256843 0
M  V30 46 H -1.396166 0.192222 -2.539179 0
M  V30 47 H -3.194109 -1.234689 -0.416063 0
M  V30 48 H -4.756219 -3.045748 -0.398210 0
M  V30 49 H -0.193441 -3.860722 -1.786434 0
M  V30 END ATOM
M  V30 BEGIN BOND
M  V30 1 1 1 2
M  V30 2 2 2 3
M  V30 3 1 3 4
M  V30 4 2 4 5
M  V30 5 1 5 6
M  V30 6 1 6 7
M  V30 7 2 7 8
M  V30 8 1 8 9
M  V30 9 1 9 10
M  V30 10 1 10 11
M  V30 11 2 11 12
M  V30 12 1 11 13
M  V30 13 1 13 14
M  V30 14 2 14 15
M  V30 15 1 15 16
M  V30 16 2 16 17
M  V30 17 1 17 18
M  V30 18 2 18 19
M  V30 19 1 9 20
M  V30 20 2 20 21
M  V30 21 1 21 22
M  V30 22 1 22 23
M  V30 23 2 23 24
M  V30 24 1 24 25
M  V30 25 2 25 26
M  V30 26 1 26 27
M  V30 27 1 27 28
M  V30 28 2 28 29
M  V30 29 1 29 30
M  V30 30 2 6 31
M  V30 31 1 31 2
M  V30 32 1 21 7
M  V30 33 2 30 22
M  V30 34 1 19 14
M  V30 35 1 29 25
M  V30 36 1 1 32
M  V30 37 1 1 33
M  V30 38 1 1 34
M  V30 39 1 3 35
M  V30 40 1 4 36
M  V30 41 1 5 37
M  V30 42 1 10 38
M  V30 43 1 10 39
M  V30 44 1 13 40
M  V30 45 1 15 41
M  V30 46 1 16 42
M  V30 47 1 17 43
M  V30 48 1 18 44
M  V30 49 1 19 45
M  V30 50 1 20 46
M  V30 51 1 23 47
M  V30 52 1 24 48
M  V30 53 1 30 49
M  V30 END BOND
M  V30 END CTAB
M  END
>  <Dataset>  (831) 
ChEMBL_Kinases

>  <Ligand_Instance>  (831) 
nan

>  <PDB_ID>  (831) 
nan

>  <Standardized_SMILES>  (831) 
Cc1cccc(-c2nn(CC(=O)Nc3ccccc3)cc2-c2ccc3nsnc3c2)n1

>  <Name>  (831) 
nan

>  <Pocket>  (831) 
nan

>  <ATP_Site>  (831) 
nan

>  <Peripheral>  (831) 
nan

>  <Num_H_Atoms_ProtBoundConf>  (831) 
nan

>  <Num_Resolved_Atoms>  (831) 
nan

>  <Num_Not_Resolved_Atoms>  (831) 
nan

$$$$
CHEMBL4572218
     RDKit          3D

  0  0  0  0  0  0  0  0  0  0999 V3000
M  V30 BEGIN CTAB
M  V30 COUNTS 43 47 0 0 0
M  V30 BEGIN ATOM
M  V30 1 C -2.820194 -5.911679 -0.360108 0
M  V30 2 C -1.348239 -6.138985 -0.342922 0
M  V30 3 N -0.712051 -7.310054 -0.628724 0
M  V30 4 N 0.593857 -7.166582 -0.519115 0
M  V30 5 C 0.877566 -5.901359 -0.157990 0
M  V30 6 C -0.320061 -5.266814 -0.049105 0
M  V30 7 C -0.496449 -3.878741 0.320751 0
M  V30 8 C 0.382697 -2.925684 0.628715 0
M  V30 9 C -0.052269 -1.669930 0.948448 0
M  V30 10 N 0.619757 -0.554632 1.289543 0
M  V30 11 C -0.004364 0.599587 1.571281 0
M  V30 12 C 0.843147 1.783378 1.940485 0 CFG=1
M  V30 13 C 2.284205 1.513940 1.563491 0
M  V30 14 C 2.932140 2.884152 1.398536 0
M  V30 15 C 2.457210 3.393619 0.044151 0
M  V30 16 C 0.978724 3.068486 -0.092795 0
M  V30 17 N 0.391544 2.974759 1.247092 0
M  V30 18 C 0.907664 4.095846 2.010922 0
M  V30 19 C 2.336921 3.782992 2.451910 0
M  V30 20 N -1.335118 0.789335 1.551281 0
M  V30 21 C -2.098694 -0.265090 1.221881 0
M  V30 22 O -3.339153 -0.293796 1.147056 0
M  V30 23 C -1.438090 -1.458523 0.931392 0
M  V30 24 S -2.085884 -3.119258 0.442501 0
M  V30 25 H -3.176743 -5.419970 0.575148 0
M  V30 26 H -3.322055 -6.899426 -0.404396 0
M  V30 27 H -3.127104 -5.376781 -1.284014 0
M  V30 28 H 1.273026 -7.963424 -0.700307 0
M  V30 29 H 1.865894 -5.476435 0.011435 0
M  V30 30 H 1.434880 -3.175675 0.617205 0
M  V30 31 H 0.736839 1.969665 3.023632 0
M  V30 32 H 2.296090 0.964540 0.611604 0
M  V30 33 H 2.720063 0.963892 2.423626 0
M  V30 34 H 4.027663 2.851349 1.426291 0
M  V30 35 H 3.065883 2.827757 -0.713732 0
M  V30 36 H 2.664412 4.466853 -0.097992 0
M  V30 37 H 0.432740 3.879463 -0.618019 0
M  V30 38 H 0.857693 2.098098 -0.652100 0
M  V30 39 H 0.285017 4.275909 2.915972 0
M  V30 40 H 0.989510 5.026917 1.411482 0
M  V30 41 H 2.921107 4.708183 2.613901 0
M  V30 42 H 2.314913 3.213554 3.408065 0
M  V30 43 H -1.839727 1.661182 1.762312 0
M  V30 END ATOM
M  V30 BEGIN BOND
M  V30 1 1 1 2
M  V30 2 2 2 3
M  V30 3 1 3 4
M  V30 4 1 4 5
M  V30 5 2 5 6
M  V30 6 1 6 7
M  V30 7 2 7 8
M  V30 8 1 8 9
M  V30 9 1 9 10
M  V30 10 2 10 11
M  V30 11 1 11 12
M  V30 12 1 12 13
M  V30 13 1 13 14
M  V30 14 1 14 15
M  V30 15 1 15 16
M  V30 16 1 16 17
M  V30 17 1 17 18
M  V30 18 1 18 19
M  V30 19 1 11 20
M  V30 20 1 20 21
M  V30 21 2 21 22
M  V30 22 1 21 23
M  V30 23 1 23 24
M  V30 24 1 6 2
M  V30 25 1 24 7
M  V30 26 2 23 9
M  V30 27 1 17 12
M  V30 28 1 19 14
M  V30 29 1 1 25
M  V30 30 1 1 26
M  V30 31 1 1 27
M  V30 32 1 4 28
M  V30 33 1 5 29
M  V30 34 1 8 30
M  V30 35 1 12 31 CFG=1
M  V30 36 1 13 32
M  V30 37 1 13 33
M  V30 38 1 14 34
M  V30 39 1 15 35
M  V30 40 1 15 36
M  V30 41 1 16 37
M  V30 42 1 16 38
M  V30 43 1 18 39
M  V30 44 1 18 40
M  V30 45 1 19 41
M  V30 46 1 19 42
M  V30 47 1 20 43
M  V30 END BOND
M  V30 END CTAB
M  END
>  <Dataset>  (832) 
ChEMBL_Kinases

>  <Ligand_Instance>  (832) 
nan

>  <PDB_ID>  (832) 
nan

>  <Standardized_SMILES>  (832) 
Cc1n[nH]cc1-c1cc2nc([C@H]3CC4CCN3CC4)[nH]c(=O)c2s1

>  <Name>  (832) 
nan

>  <Pocket>  (832) 
nan

>  <ATP_Site>  (832) 
nan

>  <Peripheral>  (832) 
nan

>  <Num_H_Atoms_ProtBoundConf>  (832) 
nan

>  <Num_Resolved_Atoms>  (832) 
nan

>  <Num_Not_Resolved_Atoms>  (832) 
nan

$$$$
CHEMBL4634969
     RDKit          3D

  0  0  0  0  0  0  0  0  0  0999 V3000
M  V30 BEGIN CTAB
M  V30 COUNTS 36 38 0 0 0
M  V30 BEGIN ATOM
M  V30 1 C -0.474285 -2.296052 3.212775 0
M  V30 2 C -0.246358 -3.171734 2.015869 0
M  V30 3 C -0.118187 -4.602691 2.512380 0
M  V30 4 C 0.995911 -2.770767 1.264149 0
M  V30 5 N 0.876158 -1.400663 0.804598 0
M  V30 6 C 0.331104 -1.024621 -0.390438 0
M  V30 7 C 0.338892 0.343364 -0.571673 0
M  V30 8 C -0.183727 1.011762 -1.761722 0
M  V30 9 C 0.054045 0.616791 -3.064642 0
M  V30 10 C -0.493184 1.326162 -4.117097 0
M  V30 11 N -1.265938 2.410205 -3.932954 0
M  V30 12 C -1.514078 2.817806 -2.666464 0
M  V30 13 C -0.979950 2.127616 -1.594476 0
M  V30 14 C 0.920771 0.840861 0.574057 0
M  V30 15 C 1.182880 2.137824 0.931880 0
M  V30 16 C 1.792912 2.349887 2.173768 0
M  V30 17 N 2.092722 1.289556 2.953797 0
M  V30 18 C 1.830995 0.009072 2.594492 0
M  V30 19 C 1.230665 -0.236283 1.378033 0
M  V30 20 H 0.393597 -2.359735 3.897658 0
M  V30 21 H -0.747770 -1.256727 2.933839 0
M  V30 22 H -1.341837 -2.692745 3.810161 0
M  V30 23 H -1.095643 -3.175982 1.313788 0
M  V30 24 H 0.450634 -5.209787 1.773092 0
M  V30 25 H -1.136659 -5.024956 2.610661 0
M  V30 26 H 0.345460 -4.623400 3.524787 0
M  V30 27 H 1.083333 -3.409284 0.349648 0
M  V30 28 H 1.907099 -2.870031 1.888026 0
M  V30 29 H -0.067138 -1.744375 -1.119972 0
M  V30 30 H 0.677956 -0.257491 -3.193911 0
M  V30 31 H -0.281256 0.981926 -5.120207 0
M  V30 32 H -2.135695 3.686878 -2.578272 0
M  V30 33 H -1.251536 2.551827 -0.652283 0
M  V30 34 H 0.925807 2.942995 0.278122 0
M  V30 35 H 2.023832 3.359174 2.508507 0
M  V30 36 H 2.092135 -0.803252 3.255010 0
M  V30 END ATOM
M  V30 BEGIN BOND
M  V30 1 1 1 2
M  V30 2 1 2 3
M  V30 3 1 2 4
M  V30 4 1 4 5
M  V30 5 1 5 6
M  V30 6 2 6 7
M  V30 7 1 7 8
M  V30 8 2 8 9
M  V30 9 1 9 10
M  V30 10 2 10 11
M  V30 11 1 11 12
M  V30 12 2 12 13
M  V30 13 1 7 14
M  V30 14 2 14 15
M  V30 15 1 15 16
M  V30 16 2 16 17
M  V30 17 1 17 18
M  V30 18 2 18 19
M  V30 19 1 19 5
M  V30 20 1 13 8
M  V30 21 1 19 14
M  V30 22 1 1 20
M  V30 23 1 1 21
M  V30 24 1 1 22
M  V30 25 1 2 23
M  V30 26 1 3 24
M  V30 27 1 3 25
M  V30 28 1 3 26
M  V30 29 1 4 27
M  V30 30 1 4 28
M  V30 31 1 6 29
M  V30 32 1 9 30
M  V30 33 1 10 31
M  V30 34 1 12 32
M  V30 35 1 13 33
M  V30 36 1 15 34
M  V30 37 1 16 35
M  V30 38 1 18 36
M  V30 END BOND
M  V30 END CTAB
M  END
>  <Dataset>  (833) 
ChEMBL_Kinases

>  <Ligand_Instance>  (833) 
nan

>  <PDB_ID>  (833) 
nan

>  <Standardized_SMILES>  (833) 
CC(C)Cn1cc(-c2ccncc2)c2ccncc21

>  <Name>  (833) 
nan

>  <Pocket>  (833) 
nan

>  <ATP_Site>  (833) 
nan

>  <Peripheral>  (833) 
nan

>  <Num_H_Atoms_ProtBoundConf>  (833) 
nan

>  <Num_Resolved_Atoms>  (833) 
nan

>  <Num_Not_Resolved_Atoms>  (833) 
nan

$$$$
CHEMBL4634997
     RDKit          3D

  0  0  0  0  0  0  0  0  0  0999 V3000
M  V30 BEGIN CTAB
M  V30 COUNTS 67 72 0 0 0
M  V30 BEGIN ATOM
M  V30 1 C 2.598097 1.538622 4.772570 0
M  V30 2 C 1.418570 1.313751 3.899754 0
M  V30 3 C 1.671540 0.757840 2.636426 0
M  V30 4 C 0.656735 0.487608 1.709402 0
M  V30 5 C 1.072443 -0.081021 0.433425 0
M  V30 6 C 2.171141 0.489716 -0.221516 0
M  V30 7 N 2.404920 -0.173800 -1.393570 0
M  V30 8 C 1.462132 -1.130067 -1.445338 0
M  V30 9 C 1.245283 -2.081928 -2.420177 0
M  V30 10 N 2.060640 -2.178401 -3.598653 0
M  V30 11 C 1.731891 -3.220192 -4.547867 0
M  V30 12 C 2.583252 -3.236634 -5.772227 0
M  V30 13 C 2.521033 -1.995298 -6.592366 0
M  V30 14 F 2.933723 -0.922789 -5.847583 0
M  V30 15 F 1.247611 -1.715770 -7.049597 0
M  V30 16 F 3.362832 -2.076932 -7.688311 0
M  V30 17 C 0.176846 -2.942661 -2.184093 0
M  V30 18 C -0.623636 -2.860753 -1.050856 0
M  V30 19 C -1.752417 -3.805719 -0.849584 0
M  V30 20 C -3.112370 -3.218615 -0.948230 0
M  V30 21 C -3.968364 -3.289812 0.145337 0
M  V30 22 C -5.260715 -2.777525 0.171191 0
M  V30 23 F -6.034136 -2.885803 1.273669 0
M  V30 24 C -5.728836 -2.151272 -0.974934 0
M  V30 25 C -4.899587 -2.057832 -2.098650 0
M  V30 26 C -3.623682 -2.587190 -2.062405 0
M  V30 27 O -2.809798 -2.488750 -3.182436 0
M  V30 28 C -1.504710 -4.995582 -0.014149 0
M  V30 29 C -1.611698 -5.204529 -1.475671 0
M  V30 30 N -0.352060 -1.893174 -0.126032 0
M  V30 31 N 0.665781 -1.082248 -0.363020 0
M  V30 32 C -0.643383 0.791418 2.081085 0
M  V30 33 C -0.926410 1.339590 3.317231 0
M  V30 34 C 0.084426 1.601096 4.221321 0
M  V30 35 C -0.138684 2.188629 5.556066 0
M  V30 36 O -0.950860 1.657816 6.367979 0
M  V30 37 N 0.580595 3.361653 5.900758 0
M  V30 38 C 0.574446 4.147039 7.103359 0
M  V30 39 C 1.765266 4.871945 7.575381 0
M  V30 40 C 0.655555 5.675521 6.953561 0
M  V30 41 H 3.296249 0.675354 4.739819 0
M  V30 42 H 2.223516 1.656677 5.809679 0
M  V30 43 H 3.120540 2.449506 4.488481 0
M  V30 44 H 2.711342 0.523841 2.361199 0
M  V30 45 H 2.833146 1.322244 0.027532 0
M  V30 46 H 2.817174 -1.491587 -3.661945 0
M  V30 47 H 1.760496 -4.183204 -4.001813 0
M  V30 48 H 0.666563 -3.006531 -4.848925 0
M  V30 49 H 3.643310 -3.433040 -5.506567 0
M  V30 50 H 2.263689 -4.105145 -6.400580 0
M  V30 51 H 0.009798 -3.692284 -2.957686 0
M  V30 52 H -3.619116 -3.774774 1.046095 0
M  V30 53 H -6.737209 -1.769219 -0.908596 0
M  V30 54 H -5.295377 -1.566128 -2.967633 0
M  V30 55 H -2.613335 -1.610428 -3.646533 0
M  V30 56 H -2.284944 -5.465295 0.613336 0
M  V30 57 H -0.486334 -5.152191 0.404164 0
M  V30 58 H -2.521280 -5.667957 -1.886311 0
M  V30 59 H -0.708442 -5.386682 -2.086802 0
M  V30 60 H -1.414329 0.576327 1.354534 0
M  V30 61 H -1.938554 1.573071 3.599038 0
M  V30 62 H 1.245939 3.764414 5.182658 0
M  V30 63 H -0.120221 3.788006 7.886757 0
M  V30 64 H 1.881187 5.031813 8.665883 0
M  V30 65 H 2.724262 4.862150 7.027347 0
M  V30 66 H 0.016276 6.307049 7.603513 0
M  V30 67 H 0.833005 6.105848 5.956882 0
M  V30 END ATOM
M  V30 BEGIN BOND
M  V30 1 1 1 2
M  V30 2 2 2 3
M  V30 3 1 3 4
M  V30 4 1 4 5
M  V30 5 2 5 6
M  V30 6 1 6 7
M  V30 7 2 7 8
M  V30 8 1 8 9
M  V30 9 1 9 10
M  V30 10 1 10 11
M  V30 11 1 11 12
M  V30 12 1 12 13
M  V30 13 1 13 14
M  V30 14 1 13 15
M  V30 15 1 13 16
M  V30 16 2 9 17
M  V30 17 1 17 18
M  V30 18 1 18 19
M  V30 19 1 19 20
M  V30 20 2 20 21
M  V30 21 1 21 22
M  V30 22 1 22 23
M  V30 23 2 22 24
M  V30 24 1 24 25
M  V30 25 2 25 26
M  V30 26 1 26 27
M  V30 27 1 19 28
M  V30 28 1 28 29
M  V30 29 2 18 30
M  V30 30 1 30 31
M  V30 31 2 4 32
M  V30 32 1 32 33
M  V30 33 2 33 34
M  V30 34 1 34 35
M  V30 35 2 35 36
M  V30 36 1 35 37
M  V30 37 1 37 38
M  V30 38 1 38 39
M  V30 39 1 39 40
M  V30 40 1 34 2
M  V30 41 1 40 38
M  V30 42 1 31 5
M  V30 43 1 31 8
M  V30 44 1 29 19
M  V30 45 1 26 20
M  V30 46 1 1 41
M  V30 47 1 1 42
M  V30 48 1 1 43
M  V30 49 1 3 44
M  V30 50 1 6 45
M  V30 51 1 10 46
M  V30 52 1 11 47
M  V30 53 1 11 48
M  V30 54 1 12 49
M  V30 55 1 12 50
M  V30 56 1 17 51
M  V30 57 1 21 52
M  V30 58 1 24 53
M  V30 59 1 25 54
M  V30 60 1 27 55
M  V30 61 1 28 56
M  V30 62 1 28 57
M  V30 63 1 29 58
M  V30 64 1 29 59
M  V30 65 1 32 60
M  V30 66 1 33 61
M  V30 67 1 37 62
M  V30 68 1 38 63
M  V30 69 1 39 64
M  V30 70 1 39 65
M  V30 71 1 40 66
M  V30 72 1 40 67
M  V30 END BOND
M  V30 END CTAB
M  END
>  <Dataset>  (834) 
ChEMBL_Kinases

>  <Ligand_Instance>  (834) 
nan

>  <PDB_ID>  (834) 
nan

>  <Standardized_SMILES>  (834) 
Cc1cc(-c2cnc3c(NCCC(F)(F)F)cc(C4(c5cc(F)ccc5O)CC4)nn23)ccc1C(=O)NC1CC1

>  <Name>  (834) 
nan

>  <Pocket>  (834) 
nan

>  <ATP_Site>  (834) 
nan

>  <Peripheral>  (834) 
nan

>  <Num_H_Atoms_ProtBoundConf>  (834) 
nan

>  <Num_Resolved_Atoms>  (834) 
nan

>  <Num_Not_Resolved_Atoms>  (834) 
nan

$$$$
CHEMBL4635026
     RDKit          3D

  0  0  0  0  0  0  0  0  0  0999 V3000
M  V30 BEGIN CTAB
M  V30 COUNTS 59 63 0 0 0
M  V30 BEGIN ATOM
M  V30 1 C 3.212779 -0.150789 6.566712 0
M  V30 2 C 3.952396 0.676562 5.556940 0
M  V30 3 C 4.962025 1.513840 6.352248 0
M  V30 4 C 4.753051 -0.133819 4.587291 0
M  V30 5 N 4.009452 -1.055412 3.795535 0
M  V30 6 C 2.978302 -0.593815 2.932518 0
M  V30 7 N 2.696970 0.724004 2.858185 0
M  V30 8 C 1.707935 1.152037 2.030673 0
M  V30 9 C 0.963626 0.259241 1.244549 0
M  V30 10 C -0.052310 0.950006 0.475836 0
M  V30 11 C 0.424573 2.012450 -0.304434 0
M  V30 12 C -0.373773 2.855514 -1.087560 0
M  V30 13 C -1.725300 2.584821 -1.060070 0
M  V30 14 C -2.265500 1.558977 -0.317600 0
M  V30 15 C -1.441945 0.776717 0.420628 0
M  V30 16 N 1.291434 -1.031524 1.359909 0
M  V30 17 C 0.689055 -2.004531 0.671519 0
M  V30 18 C -0.348531 -2.176064 -0.322851 0
M  V30 19 C -0.534977 -1.560686 -1.561908 0
M  V30 20 C -1.597510 -1.842817 -2.387421 0
M  V30 21 C -2.533662 -2.773044 -1.993169 0
M  V30 22 C -3.668355 -3.086800 -2.854260 0
M  V30 23 O -4.544839 -3.939917 -2.514175 0
M  V30 24 N -3.908664 -2.502042 -4.108399 0
M  V30 25 C -5.035725 -2.815806 -4.960211 0
M  V30 26 C -5.469261 -1.940021 -6.041787 0
M  V30 27 C -4.624506 -3.087736 -6.433644 0
M  V30 28 C -2.432743 -3.431681 -0.787030 0
M  V30 29 C -1.348831 -3.106779 -0.005867 0
M  V30 30 C 1.361297 -3.151051 1.118080 0
M  V30 31 N 2.299443 -2.805798 2.015997 0
M  V30 32 C 2.259129 -1.488584 2.166131 0
M  V30 33 H 3.871753 -0.452284 7.430027 0
M  V30 34 H 2.413194 0.468154 7.034095 0
M  V30 35 H 2.785148 -1.077818 6.180828 0
M  V30 36 H 3.271315 1.406417 5.082942 0
M  V30 37 H 5.768321 1.916621 5.716596 0
M  V30 38 H 5.481218 0.846849 7.099702 0
M  V30 39 H 4.476552 2.307361 6.926647 0
M  V30 40 H 5.553404 -0.638651 5.163020 0
M  V30 41 H 5.307862 0.614282 3.949384 0
M  V30 42 H 4.220745 -2.074430 3.847477 0
M  V30 43 H 1.572971 2.224140 2.053971 0
M  V30 44 H 1.498694 2.248994 -0.343378 0
M  V30 45 H 0.077286 3.652900 -1.660282 0
M  V30 46 H -2.371943 3.213476 -1.651257 0
M  V30 47 H -3.319483 1.327069 -0.279500 0
M  V30 48 H -1.752170 -0.061204 1.049030 0
M  V30 49 H 0.269607 -0.841285 -1.772251 0
M  V30 50 H -1.641673 -1.311086 -3.315975 0
M  V30 51 H -3.243154 -1.787510 -4.476398 0
M  V30 52 H -5.717328 -3.566223 -4.553336 0
M  V30 53 H -5.068465 -0.929761 -6.219667 0
M  V30 54 H -6.545642 -2.017288 -6.338260 0
M  V30 55 H -3.566465 -2.900693 -6.709731 0
M  V30 56 H -5.091270 -3.975608 -6.927576 0
M  V30 57 H -3.160781 -4.153166 -0.483756 0
M  V30 58 H -1.303939 -3.650919 0.943808 0
M  V30 59 H 1.228076 -4.188729 0.851021 0
M  V30 END ATOM
M  V30 BEGIN BOND
M  V30 1 1 1 2
M  V30 2 1 2 3
M  V30 3 1 2 4
M  V30 4 1 4 5
M  V30 5 1 5 6
M  V30 6 2 6 7
M  V30 7 1 7 8
M  V30 8 2 8 9
M  V30 9 1 9 10
M  V30 10 2 10 11
M  V30 11 1 11 12
M  V30 12 2 12 13
M  V30 13 1 13 14
M  V30 14 2 14 15
M  V30 15 1 9 16
M  V30 16 1 16 17
M  V30 17 1 17 18
M  V30 18 2 18 19
M  V30 19 1 19 20
M  V30 20 2 20 21
M  V30 21 1 21 22
M  V30 22 2 22 23
M  V30 23 1 22 24
M  V30 24 1 24 25
M  V30 25 1 25 26
M  V30 26 1 26 27
M  V30 27 1 21 28
M  V30 28 2 28 29
M  V30 29 2 17 30
M  V30 30 1 30 31
M  V30 31 2 31 32
M  V30 32 1 32 6
M  V30 33 1 15 10
M  V30 34 1 32 16
M  V30 35 1 29 18
M  V30 36 1 27 25
M  V30 37 1 1 33
M  V30 38 1 1 34
M  V30 39 1 1 35
M  V30 40 1 2 36
M  V30 41 1 3 37
M  V30 42 1 3 38
M  V30 43 1 3 39
M  V30 44 1 4 40
M  V30 45 1 4 41
M  V30 46 1 5 42
M  V30 47 1 8 43
M  V30 48 1 11 44
M  V30 49 1 12 45
M  V30 50 1 13 46
M  V30 51 1 14 47
M  V30 52 1 15 48
M  V30 53 1 19 49
M  V30 54 1 20 50
M  V30 55 1 24 51
M  V30 56 1 25 52
M  V30 57 1 26 53
M  V30 58 1 26 54
M  V30 59 1 27 55
M  V30 60 1 27 56
M  V30 61 1 28 57
M  V30 62 1 29 58
M  V30 63 1 30 59
M  V30 END BOND
M  V30 END CTAB
M  END
>  <Dataset>  (835) 
ChEMBL_Kinases

>  <Ligand_Instance>  (835) 
nan

>  <PDB_ID>  (835) 
nan

>  <Standardized_SMILES>  (835) 
CC(C)CNc1ncc(-c2ccccc2)n2c(-c3ccc(C(=O)NC4CC4)cc3)cnc12

>  <Name>  (835) 
nan

>  <Pocket>  (835) 
nan

>  <ATP_Site>  (835) 
nan

>  <Peripheral>  (835) 
nan

>  <Num_H_Atoms_ProtBoundConf>  (835) 
nan

>  <Num_Resolved_Atoms>  (835) 
nan

>  <Num_Not_Resolved_Atoms>  (835) 
nan

$$$$
CHEMBL4635162
     RDKit          3D

  0  0  0  0  0  0  0  0  0  0999 V3000
M  V30 BEGIN CTAB
M  V30 COUNTS 71 77 0 0 0
M  V30 BEGIN ATOM
M  V30 1 C 4.142642 4.319164 0.769086 0
M  V30 2 N 4.790616 3.027561 0.896292 0
M  V30 3 C 6.149420 3.156990 1.383708 0
M  V30 4 C 3.988920 2.106386 1.684911 0 CFG=1
M  V30 5 C 2.669282 1.944559 0.998070 0
M  V30 6 C 1.962826 0.666772 1.264786 0 CFG=1
M  V30 7 C 1.135551 0.643482 2.526394 0
M  V30 8 C -0.113093 -0.116309 2.128301 0
M  V30 9 C 0.182850 -0.524241 0.747018 0 CFG=1
M  V30 10 O 0.983093 0.509053 0.258600 0
M  V30 11 C 0.934219 -1.827340 0.720026 0
M  V30 12 C 0.375806 -2.947596 0.372637 0
M  V30 13 C -1.018910 -3.085086 -0.027344 0
M  V30 14 C -1.837926 -1.850167 -0.048492 0 CFG=2
M  V30 15 C -2.790284 -1.738984 1.089142 0
M  V30 16 C -2.573057 -1.615666 -1.345810 0 CFG=1
M  V30 17 C -3.752096 -2.421651 -1.598592 0
M  V30 18 C -3.588708 -3.413457 -2.579170 0
M  V30 19 C -4.625877 -4.277627 -2.955239 0
M  V30 20 C -5.854208 -4.143170 -2.333179 0
M  V30 21 C -6.914818 -4.964262 -2.659660 0
M  V30 22 N -8.112174 -4.820157 -2.040981 0
M  V30 23 C -8.298420 -3.882110 -1.100777 0
M  V30 24 C -7.280060 -3.011711 -0.711734 0
M  V30 25 C -6.069091 -3.173947 -1.352686 0
M  V30 26 C -5.004753 -2.363804 -1.037646 0
M  V30 27 C -2.966526 -0.161360 -1.217891 0
M  V30 28 C -1.901751 0.464790 -0.302792 0
M  V30 29 C -0.931148 -0.650559 -0.192303 0 CFG=1
M  V30 30 C 2.340917 -1.750912 1.106539 0
M  V30 31 C 2.840557 -0.526611 1.146222 0
M  V30 32 C 4.312723 -0.323729 1.072233 0 CFG=1
M  V30 33 O 4.740920 -0.107578 -0.251100 0
M  V30 34 C 4.764933 0.852288 1.889909 0 CFG=2
M  V30 35 O 4.706118 0.447872 3.237487 0
M  V30 36 H 3.460260 4.314153 -0.097687 0
M  V30 37 H 3.678125 4.670548 1.702083 0
M  V30 38 H 4.964235 5.035021 0.519520 0
M  V30 39 H 6.499792 4.214618 1.341975 0
M  V30 40 H 6.847447 2.520832 0.808101 0
M  V30 41 H 6.199431 2.836751 2.440193 0
M  V30 42 H 3.819291 2.586588 2.673393 0
M  V30 43 H 2.018236 2.778265 1.331613 0
M  V30 44 H 2.818012 2.113508 -0.092260 0
M  V30 45 H 1.653027 0.240500 3.398863 0
M  V30 46 H 0.904652 1.719096 2.753949 0
M  V30 47 H -0.189009 -0.953383 2.858657 0
M  V30 48 H -0.965086 0.588747 2.191468 0
M  V30 49 H 0.971515 -3.848867 0.374807 0
M  V30 50 H -1.019536 -3.563972 -1.040387 0
M  V30 51 H -1.498088 -3.810251 0.689802 0
M  V30 52 H -3.482982 -2.594923 1.075784 0
M  V30 53 H -2.299669 -1.769374 2.085638 0
M  V30 54 H -3.394307 -0.811725 1.076914 0
M  V30 55 H -1.813489 -1.790981 -2.144617 0
M  V30 56 H -2.643191 -3.581013 -3.117020 0
M  V30 57 H -4.463721 -5.027295 -3.712266 0
M  V30 58 H -6.732739 -5.715781 -3.426444 0
M  V30 59 H -9.262506 -3.758675 -0.595570 0
M  V30 60 H -7.437733 -2.254334 0.050445 0
M  V30 61 H -5.155724 -1.620610 -0.300389 0
M  V30 62 H -2.888067 0.269867 -2.229854 0
M  V30 63 H -3.935584 -0.050325 -0.736843 0
M  V30 64 H -1.428029 1.314880 -0.844481 0
M  V30 65 H -2.313112 0.853174 0.629428 0
M  V30 66 H -0.465046 -0.748804 -1.218789 0
M  V30 67 H 2.921877 -2.631294 1.339624 0
M  V30 68 H 4.843920 -1.216254 1.436941 0
M  V30 69 H 4.615277 -0.967352 -0.746426 0
M  V30 70 H 5.848221 0.978763 1.684150 0
M  V30 71 H 5.573082 0.109589 3.573318 0
M  V30 END ATOM
M  V30 BEGIN BOND
M  V30 1 1 1 2
M  V30 2 1 2 3
M  V30 3 1 2 4
M  V30 4 1 4 5
M  V30 5 1 6 5 CFG=3
M  V30 6 1 6 7
M  V30 7 1 7 8
M  V30 8 1 9 8 CFG=1
M  V30 9 1 9 10
M  V30 10 1 9 11
M  V30 11 2 11 12
M  V30 12 1 12 13
M  V30 13 1 13 14
M  V30 14 1 14 15 CFG=1
M  V30 15 1 14 16
M  V30 16 1 16 17
M  V30 17 2 17 18
M  V30 18 1 18 19
M  V30 19 2 19 20
M  V30 20 1 20 21
M  V30 21 2 21 22
M  V30 22 1 22 23
M  V30 23 2 23 24
M  V30 24 1 24 25
M  V30 25 2 25 26
M  V30 26 1 16 27
M  V30 27 1 27 28
M  V30 28 1 28 29
M  V30 29 1 11 30
M  V30 30 2 30 31
M  V30 31 1 31 32
M  V30 32 1 32 33
M  V30 33 1 32 34
M  V30 34 1 34 35
M  V30 35 1 34 4
M  V30 36 1 10 6
M  V30 37 1 29 14
M  V30 38 1 31 6
M  V30 39 1 29 9
M  V30 40 1 26 17
M  V30 41 1 25 20
M  V30 42 1 1 36
M  V30 43 1 1 37
M  V30 44 1 1 38
M  V30 45 1 3 39
M  V30 46 1 3 40
M  V30 47 1 3 41
M  V30 48 1 4 42 CFG=1
M  V30 49 1 5 43
M  V30 50 1 5 44
M  V30 51 1 7 45
M  V30 52 1 7 46
M  V30 53 1 8 47
M  V30 54 1 8 48
M  V30 55 1 12 49
M  V30 56 1 13 50
M  V30 57 1 13 51
M  V30 58 1 15 52
M  V30 59 1 15 53
M  V30 60 1 15 54
M  V30 61 1 16 55 CFG=3
M  V30 62 1 18 56
M  V30 63 1 19 57
M  V30 64 1 21 58
M  V30 65 1 23 59
M  V30 66 1 24 60
M  V30 67 1 26 61
M  V30 68 1 27 62
M  V30 69 1 27 63
M  V30 70 1 28 64
M  V30 71 1 28 65
M  V30 72 1 29 66 CFG=3
M  V30 73 1 30 67
M  V30 74 1 32 68 CFG=1
M  V30 75 1 33 69
M  V30 76 1 34 70 CFG=3
M  V30 77 1 35 71
M  V30 END BOND
M  V30 END CTAB
M  END
>  <Dataset>  (836) 
ChEMBL_Kinases

>  <Ligand_Instance>  (836) 
nan

>  <PDB_ID>  (836) 
nan

>  <Standardized_SMILES>  (836) 
CN(C)[C@H]1C[C@@]23CC[C@@]4(O2)C(=CC[C@]2(C)[C@@H](c5ccc6cnccc6c5)CC[C@H]24)C=C3[C@@H](O)[C@@H]1O

>  <Name>  (836) 
nan

>  <Pocket>  (836) 
nan

>  <ATP_Site>  (836) 
nan

>  <Peripheral>  (836) 
nan

>  <Num_H_Atoms_ProtBoundConf>  (836) 
nan

>  <Num_Resolved_Atoms>  (836) 
nan

>  <Num_Not_Resolved_Atoms>  (836) 
nan

$$$$
CHEMBL4635193
     RDKit          3D

  0  0  0  0  0  0  0  0  0  0999 V3000
M  V30 BEGIN CTAB
M  V30 COUNTS 50 53 0 0 0
M  V30 BEGIN ATOM
M  V30 1 C -2.548966 -6.912561 2.860672 0
M  V30 2 C -1.780735 -6.058689 1.931909 0
M  V30 3 C -0.901924 -5.061330 2.314417 0
M  V30 4 C -0.200109 -4.284316 1.416588 0
M  V30 5 C 0.719071 -3.236840 1.849751 0
M  V30 6 C 1.466408 -3.251902 2.993929 0
M  V30 7 C 2.289709 -2.174144 3.251126 0
M  V30 8 C 2.337009 -1.123721 2.359409 0
M  V30 9 N 3.069044 0.024981 2.412651 0
M  V30 10 C 2.783563 0.760760 1.305011 0
M  V30 11 N 3.074126 1.978602 0.630644 0
M  V30 12 C 2.264880 3.124288 0.919475 0
M  V30 13 O 1.336585 3.051511 1.738029 0
M  V30 14 N 2.583613 4.305907 0.231524 0
M  V30 15 C 1.889681 5.580883 0.373952 0
M  V30 16 C 0.594633 5.589997 -0.323114 0
M  V30 17 C -0.628250 5.226709 0.214677 0
M  V30 18 C -1.802565 5.261142 -0.509351 0
M  V30 19 C -1.771293 5.677594 -1.840251 0
M  V30 20 C -0.551445 6.038466 -2.371608 0
M  V30 21 C 0.644740 6.010519 -1.657533 0
M  V30 22 N 1.883183 0.042002 0.602693 0
M  V30 23 N 1.602077 -1.106462 1.231916 0
M  V30 24 C 0.798534 -2.163473 0.985927 0
M  V30 25 C -0.420873 -4.554812 0.079923 0
M  V30 26 C -1.280097 -5.531130 -0.377791 0
M  V30 27 C -1.431836 -5.725530 -1.848780 0
M  V30 28 C -1.961393 -6.284193 0.575717 0
M  V30 29 O -2.830686 -7.272107 0.109743 0
M  V30 30 H -2.677528 -6.504772 3.866072 0
M  V30 31 H -3.574899 -7.107082 2.436626 0
M  V30 32 H -2.093203 -7.925452 2.988597 0
M  V30 33 H -0.788365 -4.916032 3.384644 0
M  V30 34 H 1.382035 -4.094318 3.638942 0
M  V30 35 H 2.893309 -2.129362 4.123697 0
M  V30 36 H 3.869635 1.922803 -0.028702 0
M  V30 37 H 3.382896 4.327933 -0.458817 0
M  V30 38 H 2.499522 6.428254 0.071510 0
M  V30 39 H 1.659774 5.674779 1.472528 0
M  V30 40 H -0.627431 4.907927 1.249818 0
M  V30 41 H -2.733505 4.955315 -0.006475 0
M  V30 42 H -2.688686 5.705668 -2.410938 0
M  V30 43 H -0.610207 6.353234 -3.422624 0
M  V30 44 H 1.510443 6.326021 -2.227133 0
M  V30 45 H 0.245805 -2.060934 0.056530 0
M  V30 46 H 0.113138 -3.964684 -0.664280 0
M  V30 47 H -1.655972 -4.730541 -2.286185 0
M  V30 48 H -2.159684 -6.497104 -2.098115 0
M  V30 49 H -0.442176 -6.011111 -2.266784 0
M  V30 50 H -3.830066 -7.234131 0.289102 0
M  V30 END ATOM
M  V30 BEGIN BOND
M  V30 1 1 1 2
M  V30 2 2 2 3
M  V30 3 1 3 4
M  V30 4 1 4 5
M  V30 5 1 5 6
M  V30 6 2 6 7
M  V30 7 1 7 8
M  V30 8 2 8 9
M  V30 9 1 9 10
M  V30 10 1 10 11
M  V30 11 1 11 12
M  V30 12 2 12 13
M  V30 13 1 12 14
M  V30 14 1 14 15
M  V30 15 1 15 16
M  V30 16 2 16 17
M  V30 17 1 17 18
M  V30 18 2 18 19
M  V30 19 1 19 20
M  V30 20 2 20 21
M  V30 21 2 10 22
M  V30 22 1 22 23
M  V30 23 1 23 24
M  V30 24 2 4 25
M  V30 25 1 25 26
M  V30 26 1 26 27
M  V30 27 2 26 28
M  V30 28 1 28 29
M  V30 29 1 28 2
M  V30 30 2 24 5
M  V30 31 1 23 8
M  V30 32 1 21 16
M  V30 33 1 1 30
M  V30 34 1 1 31
M  V30 35 1 1 32
M  V30 36 1 3 33
M  V30 37 1 6 34
M  V30 38 1 7 35
M  V30 39 1 11 36
M  V30 40 1 14 37
M  V30 41 1 15 38
M  V30 42 1 15 39
M  V30 43 1 17 40
M  V30 44 1 18 41
M  V30 45 1 19 42
M  V30 46 1 20 43
M  V30 47 1 21 44
M  V30 48 1 24 45
M  V30 49 1 25 46
M  V30 50 1 27 47
M  V30 51 1 27 48
M  V30 52 1 27 49
M  V30 53 1 29 50
M  V30 END BOND
M  V30 END CTAB
M  END
>  <Dataset>  (837) 
ChEMBL_Kinases

>  <Ligand_Instance>  (837) 
nan

>  <PDB_ID>  (837) 
nan

>  <Standardized_SMILES>  (837) 
Cc1cc(-c2ccc3nc(NC(=O)NCc4ccccc4)nn3c2)cc(C)c1O

>  <Name>  (837) 
nan

>  <Pocket>  (837) 
nan

>  <ATP_Site>  (837) 
nan

>  <Peripheral>  (837) 
nan

>  <Num_H_Atoms_ProtBoundConf>  (837) 
nan

>  <Num_Resolved_Atoms>  (837) 
nan

>  <Num_Not_Resolved_Atoms>  (837) 
nan

$$$$
CHEMBL4572065
     RDKit          3D

  0  0  0  0  0  0  0  0  0  0999 V3000
M  V30 BEGIN CTAB
M  V30 COUNTS 51 55 0 0 0
M  V30 BEGIN ATOM
M  V30 1 F 1.454481 -6.160822 0.456575 0
M  V30 2 C 1.389199 -4.801045 0.356757 0
M  V30 3 C 0.851165 -4.215857 -0.769498 0
M  V30 4 C 0.762088 -2.824090 -0.916596 0
M  V30 5 C 1.232313 -2.035382 0.105616 0
M  V30 6 C 1.261288 -0.574753 0.213758 0
M  V30 7 N 2.294181 0.227843 0.336468 0
M  V30 8 C 2.306616 1.400065 0.432676 0
M  V30 9 C 3.343253 2.467759 0.556517 0
M  V30 10 C 2.990531 3.764099 -0.059934 0
M  V30 11 C 2.069878 4.599841 0.768177 0
M  V30 12 N 2.583645 4.831094 2.122634 0
M  V30 13 C 2.567388 3.488369 2.731825 0
M  V30 14 C 3.641698 2.700192 2.043785 0
M  V30 15 S 0.467902 1.794907 0.363055 0
M  V30 16 C 0.029475 0.028036 0.193936 0
M  V30 17 C -1.401337 -0.362857 0.075233 0
M  V30 18 C -2.003118 0.137160 -1.057530 0
M  V30 19 C -3.329712 -0.107402 -1.367969 0
M  V30 20 N -4.016948 -0.872858 -0.491874 0
M  V30 21 C -3.447577 -1.376481 0.629531 0
M  V30 22 N -4.188244 -2.184468 1.529487 0
M  V30 23 C -4.044782 -3.588843 1.310168 0
M  V30 24 C -3.221729 -4.078438 0.309365 0
M  V30 25 C -3.075772 -5.442494 0.084271 0
M  V30 26 N -3.759972 -6.295378 0.868707 0
M  V30 27 C -4.554945 -5.798518 1.835827 0
M  V30 28 N -4.707534 -4.478598 2.067550 0
M  V30 29 N -2.172293 -1.121555 0.896041 0
M  V30 30 C 1.772080 -2.663438 1.233695 0
M  V30 31 C 1.866783 -4.026982 1.394760 0
M  V30 32 H 0.471249 -4.794589 -1.590028 0
M  V30 33 H 0.367679 -2.276448 -1.738350 0
M  V30 34 H 4.304255 2.057185 0.147302 0
M  V30 35 H 2.507130 3.618882 -1.053270 0
M  V30 36 H 3.949229 4.330112 -0.178298 0
M  V30 37 H 1.072435 4.149013 0.934555 0
M  V30 38 H 1.847657 5.580861 0.272227 0
M  V30 39 H 1.823544 5.343451 2.619560 0
M  V30 40 H 2.820206 3.526323 3.799827 0
M  V30 41 H 1.567548 3.007633 2.606975 0
M  V30 42 H 4.572556 3.276200 2.098999 0
M  V30 43 H 3.792515 1.740781 2.574108 0
M  V30 44 H -1.502574 0.763574 -1.806626 0
M  V30 45 H -3.809169 0.294367 -2.274393 0
M  V30 46 H -4.804107 -1.865790 2.307003 0
M  V30 47 H -2.671595 -3.402002 -0.321287 0
M  V30 48 H -2.420576 -5.757581 -0.708469 0
M  V30 49 H -5.058687 -6.542000 2.410907 0
M  V30 50 H 2.170549 -2.109976 2.098524 0
M  V30 51 H 2.287860 -4.495808 2.272386 0
M  V30 END ATOM
M  V30 BEGIN BOND
M  V30 1 1 1 2
M  V30 2 2 2 3
M  V30 3 1 3 4
M  V30 4 2 4 5
M  V30 5 1 5 6
M  V30 6 1 6 7
M  V30 7 2 7 8
M  V30 8 1 8 9
M  V30 9 1 9 10
M  V30 10 1 10 11
M  V30 11 1 11 12
M  V30 12 1 12 13
M  V30 13 1 13 14
M  V30 14 1 8 15
M  V30 15 1 15 16
M  V30 16 1 16 17
M  V30 17 2 17 18
M  V30 18 1 18 19
M  V30 19 2 19 20
M  V30 20 1 20 21
M  V30 21 1 21 22
M  V30 22 1 22 23
M  V30 23 2 23 24
M  V30 24 1 24 25
M  V30 25 2 25 26
M  V30 26 1 26 27
M  V30 27 2 27 28
M  V30 28 2 21 29
M  V30 29 1 5 30
M  V30 30 2 30 31
M  V30 31 1 31 2
M  V30 32 2 16 6
M  V30 33 1 29 17
M  V30 34 1 14 9
M  V30 35 1 28 23
M  V30 36 1 3 32
M  V30 37 1 4 33
M  V30 38 1 9 34
M  V30 39 1 10 35
M  V30 40 1 10 36
M  V30 41 1 11 37
M  V30 42 1 11 38
M  V30 43 1 12 39
M  V30 44 1 13 40
M  V30 45 1 13 41
M  V30 46 1 14 42
M  V30 47 1 14 43
M  V30 48 1 18 44
M  V30 49 1 19 45
M  V30 50 1 22 46
M  V30 51 1 24 47
M  V30 52 1 25 48
M  V30 53 1 27 49
M  V30 54 1 30 50
M  V30 55 1 31 51
M  V30 END BOND
M  V30 END CTAB
M  END
>  <Dataset>  (838) 
ChEMBL_Kinases

>  <Ligand_Instance>  (838) 
nan

>  <PDB_ID>  (838) 
nan

>  <Standardized_SMILES>  (838) 
Fc1ccc(-c2nc(C3CCNCC3)sc2-c2ccnc(Nc3ccncn3)n2)cc1

>  <Name>  (838) 
nan

>  <Pocket>  (838) 
nan

>  <ATP_Site>  (838) 
nan

>  <Peripheral>  (838) 
nan

>  <Num_H_Atoms_ProtBoundConf>  (838) 
nan

>  <Num_Resolved_Atoms>  (838) 
nan

>  <Num_Not_Resolved_Atoms>  (838) 
nan

$$$$
CHEMBL4635214
     RDKit          3D

  0  0  0  0  0  0  0  0  0  0999 V3000
M  V30 BEGIN CTAB
M  V30 COUNTS 67 72 0 0 0
M  V30 BEGIN ATOM
M  V30 1 O -1.245545 -2.922522 3.634213 0
M  V30 2 C -0.197975 -2.213972 3.479210 0
M  V30 3 C 1.200858 -2.575728 3.416089 0
M  V30 4 C 1.757586 -2.876803 2.169196 0
M  V30 5 C 3.096118 -3.223424 2.105033 0
M  V30 6 N 3.690661 -3.537520 0.831108 0
M  V30 7 C 2.806019 -3.457303 -0.277834 0
M  V30 8 C 2.613880 -2.287662 -1.018662 0
M  V30 9 C 1.729368 -2.264546 -2.102757 0
M  V30 10 O 1.721454 -0.997780 -2.662151 0
M  V30 11 C 0.877447 0.026443 -2.268954 0
M  V30 12 C 1.502926 1.183269 -1.791293 0
M  V30 13 N 0.519972 2.064809 -1.458193 0
M  V30 14 C 0.637860 3.405910 -0.917242 0
M  V30 15 C -0.363206 4.440637 -1.232020 0
M  V30 16 C -0.338404 3.836257 0.154766 0
M  V30 17 N -0.671938 1.511864 -1.705451 0
M  V30 18 C -0.471015 0.284352 -2.194060 0
M  V30 19 C -1.419604 -0.765663 -2.638108 0
M  V30 20 C -1.757399 -1.681826 -1.472842 0
M  V30 21 C -3.066800 -1.221083 -0.879175 0
M  V30 22 O -4.131473 -1.479498 -1.726935 0
M  V30 23 C -3.781664 -1.219779 -3.038474 0
M  V30 24 C -2.758291 -0.129088 -3.034343 0
M  V30 25 C 1.055684 -3.425698 -2.417078 0
M  V30 26 C 1.275730 -4.551945 -1.661147 0
M  V30 27 N 2.122298 -4.559548 -0.629811 0
M  V30 28 C 3.863287 -3.268799 3.260332 0
M  V30 29 C 3.302375 -2.967452 4.501116 0
M  V30 30 C 1.957243 -2.620383 4.555786 0
M  V30 31 F 1.427266 -2.330261 5.770069 0
M  V30 32 N -0.682427 -0.878250 3.367930 0
M  V30 33 C -2.108152 -0.664114 3.449265 0
M  V30 34 C -2.497371 0.756450 3.629482 0
M  V30 35 O -1.662754 1.566465 4.330157 0
M  V30 36 C -0.339959 1.217795 4.394662 0
M  V30 37 C 0.009865 0.385863 3.177953 0
M  V30 38 H 1.120499 -2.829949 1.281089 0
M  V30 39 H 4.685865 -3.793172 0.794887 0
M  V30 40 H 3.226623 -1.457346 -0.634886 0
M  V30 41 H 2.546582 1.483151 -1.648806 0
M  V30 42 H 1.680044 3.744273 -0.791295 0
M  V30 43 H -0.024365 5.482110 -1.368668 0
M  V30 44 H -1.298760 4.218468 -1.792885 0
M  V30 45 H -1.148050 3.146190 0.454696 0
M  V30 46 H 0.027435 4.504415 0.956321 0
M  V30 47 H -1.042073 -1.383030 -3.451843 0
M  V30 48 H -1.853161 -2.734081 -1.777692 0
M  V30 49 H -0.963979 -1.631668 -0.711038 0
M  V30 50 H -3.275604 -1.824585 0.048775 0
M  V30 51 H -3.017894 -0.178396 -0.525076 0
M  V30 52 H -3.341673 -2.132589 -3.497252 0
M  V30 53 H -4.675122 -0.975857 -3.650100 0
M  V30 54 H -3.013899 0.705943 -2.363292 0
M  V30 55 H -2.693321 0.279616 -4.063376 0
M  V30 56 H 0.409520 -3.274653 -3.268940 0
M  V30 57 H 0.694380 -5.409108 -1.995165 0
M  V30 58 H 4.911664 -3.537522 3.231551 0
M  V30 59 H 3.928188 -3.012669 5.379770 0
M  V30 60 H -2.622516 -1.362545 4.152553 0
M  V30 61 H -2.506383 -0.977320 2.439286 0
M  V30 62 H -2.777752 1.256550 2.656272 0
M  V30 63 H -3.477119 0.745708 4.192597 0
M  V30 64 H -0.170642 0.598404 5.286303 0
M  V30 65 H 0.286640 2.130404 4.361000 0
M  V30 66 H -0.378974 0.917698 2.263835 0
M  V30 67 H 1.100693 0.241877 3.046315 0
M  V30 END ATOM
M  V30 BEGIN BOND
M  V30 1 2 1 2
M  V30 2 1 2 3
M  V30 3 2 3 4
M  V30 4 1 4 5
M  V30 5 1 5 6
M  V30 6 1 6 7
M  V30 7 2 7 8
M  V30 8 1 8 9
M  V30 9 1 9 10
M  V30 10 1 10 11
M  V30 11 2 11 12
M  V30 12 1 12 13
M  V30 13 1 13 14
M  V30 14 1 14 15
M  V30 15 1 15 16
M  V30 16 1 13 17
M  V30 17 2 17 18
M  V30 18 1 18 19
M  V30 19 1 19 20
M  V30 20 1 20 21
M  V30 21 1 21 22
M  V30 22 1 22 23
M  V30 23 1 23 24
M  V30 24 2 9 25
M  V30 25 1 25 26
M  V30 26 2 26 27
M  V30 27 2 5 28
M  V30 28 1 28 29
M  V30 29 2 29 30
M  V30 30 1 30 31
M  V30 31 1 2 32
M  V30 32 1 32 33
M  V30 33 1 33 34
M  V30 34 1 34 35
M  V30 35 1 35 36
M  V30 36 1 36 37
M  V30 37 1 30 3
M  V30 38 1 37 32
M  V30 39 1 27 7
M  V30 40 1 18 11
M  V30 41 1 24 19
M  V30 42 1 16 14
M  V30 43 1 4 38
M  V30 44 1 6 39
M  V30 45 1 8 40
M  V30 46 1 12 41
M  V30 47 1 14 42
M  V30 48 1 15 43
M  V30 49 1 15 44
M  V30 50 1 16 45
M  V30 51 1 16 46
M  V30 52 1 19 47
M  V30 53 1 20 48
M  V30 54 1 20 49
M  V30 55 1 21 50
M  V30 56 1 21 51
M  V30 57 1 23 52
M  V30 58 1 23 53
M  V30 59 1 24 54
M  V30 60 1 24 55
M  V30 61 1 25 56
M  V30 62 1 26 57
M  V30 63 1 28 58
M  V30 64 1 29 59
M  V30 65 1 33 60
M  V30 66 1 33 61
M  V30 67 1 34 62
M  V30 68 1 34 63
M  V30 69 1 36 64
M  V30 70 1 36 65
M  V30 71 1 37 66
M  V30 72 1 37 67
M  V30 END BOND
M  V30 END CTAB
M  END
>  <Dataset>  (839) 
ChEMBL_Kinases

>  <Ligand_Instance>  (839) 
nan

>  <PDB_ID>  (839) 
nan

>  <Standardized_SMILES>  (839) 
O=C(c1cc(Nc2cc(Oc3cn(C4CC4)nc3C3CCOCC3)ccn2)ccc1F)N1CCOCC1

>  <Name>  (839) 
nan

>  <Pocket>  (839) 
nan

>  <ATP_Site>  (839) 
nan

>  <Peripheral>  (839) 
nan

>  <Num_H_Atoms_ProtBoundConf>  (839) 
nan

>  <Num_Resolved_Atoms>  (839) 
nan

>  <Num_Not_Resolved_Atoms>  (839) 
nan

$$$$
CHEMBL4635281
     RDKit          3D

  0  0  0  0  0  0  0  0  0  0999 V3000
M  V30 BEGIN CTAB
M  V30 COUNTS 30 29 0 0 0
M  V30 BEGIN ATOM
M  V30 1 C -1.516216 1.155100 3.684189 0
M  V30 2 O -0.476319 0.212285 3.749425 0
M  V30 3 C 0.629408 0.744932 3.097149 0
M  V30 4 S 2.054793 -0.272872 3.055561 0
M  V30 5 C 2.033322 -1.787504 2.161603 0
M  V30 6 C 1.022442 -2.799752 2.682649 0
M  V30 7 C 2.145679 -1.744326 0.678238 0
M  V30 8 C 1.104893 -1.002652 -0.074749 0
M  V30 9 S 1.388239 -1.097188 -1.879021 0
M  V30 10 C 0.125359 -0.207989 -2.790174 0
M  V30 11 C -1.243529 -0.831125 -2.665799 0
M  V30 12 O -2.133644 -0.059329 -3.410648 0
M  V30 13 H -1.237207 2.116090 4.172305 0
M  V30 14 H -2.457751 0.798654 4.107183 0
M  V30 15 H -1.710965 1.443471 2.612488 0
M  V30 16 H 0.820373 1.725566 3.633992 0
M  V30 17 H 0.307357 1.057879 2.093649 0
M  V30 18 H 3.028525 -2.308678 2.470789 0
M  V30 19 H 1.369603 -3.331894 3.591122 0
M  V30 20 H 0.862236 -3.586487 1.920666 0
M  V30 21 H 0.042459 -2.347838 2.897934 0
M  V30 22 H 2.102129 -2.811463 0.295850 0
M  V30 23 H 3.172722 -1.326784 0.457851 0
M  V30 24 H 1.193788 0.083746 0.213687 0
M  V30 25 H 0.123884 -1.422742 0.113065 0
M  V30 26 H 0.406795 -0.239880 -3.861709 0
M  V30 27 H 0.031869 0.857010 -2.496163 0
M  V30 28 H -1.272854 -1.859601 -3.106652 0
M  V30 29 H -1.634683 -0.841225 -1.631229 0
M  V30 30 H -3.079835 -0.332543 -3.190347 0
M  V30 END ATOM
M  V30 BEGIN BOND
M  V30 1 1 1 2
M  V30 2 1 2 3
M  V30 3 1 3 4
M  V30 4 1 4 5
M  V30 5 1 5 6
M  V30 6 1 5 7
M  V30 7 1 7 8
M  V30 8 1 8 9
M  V30 9 1 9 10
M  V30 10 1 10 11
M  V30 11 1 11 12
M  V30 12 1 1 13
M  V30 13 1 1 14
M  V30 14 1 1 15
M  V30 15 1 3 16
M  V30 16 1 3 17
M  V30 17 1 5 18
M  V30 18 1 6 19
M  V30 19 1 6 20
M  V30 20 1 6 21
M  V30 21 1 7 22
M  V30 22 1 7 23
M  V30 23 1 8 24
M  V30 24 1 8 25
M  V30 25 1 10 26
M  V30 26 1 10 27
M  V30 27 1 11 28
M  V30 28 1 11 29
M  V30 29 1 12 30
M  V30 END BOND
M  V30 END CTAB
M  END
>  <Dataset>  (840) 
ChEMBL_Kinases

>  <Ligand_Instance>  (840) 
nan

>  <PDB_ID>  (840) 
nan

>  <Standardized_SMILES>  (840) 
COCSC(C)CCSCCO

>  <Name>  (840) 
nan

>  <Pocket>  (840) 
nan

>  <ATP_Site>  (840) 
nan

>  <Peripheral>  (840) 
nan

>  <Num_H_Atoms_ProtBoundConf>  (840) 
nan

>  <Num_Resolved_Atoms>  (840) 
nan

>  <Num_Not_Resolved_Atoms>  (840) 
nan

$$$$
CHEMBL4635321
     RDKit          3D

  0  0  0  0  0  0  0  0  0  0999 V3000
M  V30 BEGIN CTAB
M  V30 COUNTS 61 64 0 0 0
M  V30 BEGIN ATOM
M  V30 1 C -0.058969 -4.052103 5.044590 0
M  V30 2 O 0.529120 -5.129609 4.347329 0
M  V30 3 C 1.182805 -4.920642 3.143067 0
M  V30 4 C 1.266150 -3.654099 2.611101 0
M  V30 5 C 1.905591 -3.404329 1.418734 0
M  V30 6 C 2.058929 -2.119917 0.747847 0
M  V30 7 C 3.353959 -1.853878 0.307210 0
M  V30 8 N 3.535095 -0.663929 -0.318865 0
M  V30 9 C 2.493357 0.184611 -0.485330 0
M  V30 10 C 1.186001 -0.074168 -0.046023 0
M  V30 11 C 0.259407 0.987105 -0.384040 0
M  V30 12 C -0.898982 1.021637 -1.100694 0
M  V30 13 C -1.631338 2.180917 -1.259218 0
M  V30 14 C -1.236832 3.380230 -0.702422 0
M  V30 15 C -2.119723 4.552518 -0.951657 0
M  V30 16 C -3.475088 4.384760 -0.329580 0
M  V30 17 C -4.578848 4.029335 -1.262920 0
M  V30 18 N -4.412374 4.490639 -2.612588 0
M  V30 19 C -3.442930 5.577341 -2.696579 0
M  V30 20 C -2.120116 4.893262 -2.407599 0
M  V30 21 C -0.066811 3.384272 0.030514 0
M  V30 22 C 0.652801 2.213903 0.178619 0
M  V30 23 C 0.982185 -1.274916 0.591978 0
M  V30 24 C -0.345344 -1.570054 1.079966 0
M  V30 25 C 2.459423 -4.494329 0.785096 0
M  V30 26 C 2.394239 -5.776100 1.290267 0
M  V30 27 O 2.929091 -6.910789 0.703397 0
M  V30 28 C 3.626891 -6.889279 -0.520988 0
M  V30 29 C 1.746101 -5.994041 2.487782 0
M  V30 30 O 1.639802 -7.258488 3.059245 0
M  V30 31 C 0.553329 -8.126158 2.781019 0
M  V30 32 H -0.636198 -3.364283 4.404421 0
M  V30 33 H 0.710775 -3.527759 5.643081 0
M  V30 34 H -0.775883 -4.528560 5.773848 0
M  V30 35 H 0.836925 -2.807857 3.108632 0
M  V30 36 H 4.169335 -2.546348 0.450831 0
M  V30 37 H 2.809359 1.088493 -1.003628 0
M  V30 38 H -1.176209 0.076572 -1.538125 0
M  V30 39 H -2.527369 2.099781 -1.840782 0
M  V30 40 H -1.617649 5.395583 -0.420368 0
M  V30 41 H -3.385002 3.548957 0.399541 0
M  V30 42 H -3.748144 5.255900 0.303330 0
M  V30 43 H -4.806488 2.943017 -1.304909 0
M  V30 44 H -5.509164 4.515352 -0.894773 0
M  V30 45 H -3.999458 3.715882 -3.211033 0
M  V30 46 H -3.738634 6.286512 -1.888172 0
M  V30 47 H -3.476275 6.017144 -3.704142 0
M  V30 48 H -2.117853 3.994205 -3.066565 0
M  V30 49 H -1.310704 5.596960 -2.663840 0
M  V30 50 H 0.227014 4.327334 0.457653 0
M  V30 51 H 1.560424 2.364420 0.785162 0
M  V30 52 H -1.109755 -1.139626 0.413510 0
M  V30 53 H -0.523979 -2.684920 1.143373 0
M  V30 54 H -0.586035 -1.192229 2.087331 0
M  V30 55 H 2.979811 -4.386741 -0.155656 0
M  V30 56 H 3.127083 -6.146301 -1.175940 0
M  V30 57 H 4.693558 -6.591001 -0.372265 0
M  V30 58 H 3.569303 -7.917683 -0.967206 0
M  V30 59 H 0.765808 -8.584848 1.794298 0
M  V30 60 H -0.421987 -7.638941 2.829484 0
M  V30 61 H 0.622653 -8.943334 3.519081 0
M  V30 END ATOM
M  V30 BEGIN BOND
M  V30 1 1 1 2
M  V30 2 1 2 3
M  V30 3 2 3 4
M  V30 4 1 4 5
M  V30 5 1 5 6
M  V30 6 2 6 7
M  V30 7 1 7 8
M  V30 8 2 8 9
M  V30 9 1 9 10
M  V30 10 1 10 11
M  V30 11 2 11 12
M  V30 12 1 12 13
M  V30 13 2 13 14
M  V30 14 1 14 15
M  V30 15 1 15 16
M  V30 16 1 16 17
M  V30 17 1 17 18
M  V30 18 1 18 19
M  V30 19 1 19 20
M  V30 20 1 14 21
M  V30 21 2 21 22
M  V30 22 2 10 23
M  V30 23 1 23 24
M  V30 24 2 5 25
M  V30 25 1 25 26
M  V30 26 1 26 27
M  V30 27 1 27 28
M  V30 28 2 26 29
M  V30 29 1 29 30
M  V30 30 1 30 31
M  V30 31 1 29 3
M  V30 32 1 23 6
M  V30 33 1 22 11
M  V30 34 1 20 15
M  V30 35 1 1 32
M  V30 36 1 1 33
M  V30 37 1 1 34
M  V30 38 1 4 35
M  V30 39 1 7 36
M  V30 40 1 9 37
M  V30 41 1 12 38
M  V30 42 1 13 39
M  V30 43 1 15 40
M  V30 44 1 16 41
M  V30 45 1 16 42
M  V30 46 1 17 43
M  V30 47 1 17 44
M  V30 48 1 18 45
M  V30 49 1 19 46
M  V30 50 1 19 47
M  V30 51 1 20 48
M  V30 52 1 20 49
M  V30 53 1 21 50
M  V30 54 1 22 51
M  V30 55 1 24 52
M  V30 56 1 24 53
M  V30 57 1 24 54
M  V30 58 1 25 55
M  V30 59 1 28 56
M  V30 60 1 28 57
M  V30 61 1 28 58
M  V30 62 1 31 59
M  V30 63 1 31 60
M  V30 64 1 31 61
M  V30 END BOND
M  V30 END CTAB
M  END
>  <Dataset>  (841) 
ChEMBL_Kinases

>  <Ligand_Instance>  (841) 
nan

>  <PDB_ID>  (841) 
nan

>  <Standardized_SMILES>  (841) 
COc1cc(-c2cncc(-c3ccc(C4CCNCC4)cc3)c2C)cc(OC)c1OC

>  <Name>  (841) 
nan

>  <Pocket>  (841) 
nan

>  <ATP_Site>  (841) 
nan

>  <Peripheral>  (841) 
nan

>  <Num_H_Atoms_ProtBoundConf>  (841) 
nan

>  <Num_Resolved_Atoms>  (841) 
nan

>  <Num_Not_Resolved_Atoms>  (841) 
nan

$$$$
CHEMBL4571899
     RDKit          3D

  0  0  0  0  0  0  0  0  0  0999 V3000
M  V30 BEGIN CTAB
M  V30 COUNTS 52 55 0 0 0
M  V30 BEGIN ATOM
M  V30 1 C 3.136963 -3.561584 -3.079124 0
M  V30 2 O 4.477238 -3.711531 -2.649936 0
M  V30 3 C 4.924585 -2.891569 -1.622768 0
M  V30 4 C 6.242926 -3.033934 -1.195374 0
M  V30 5 C 6.682830 -2.215777 -0.173134 0
M  V30 6 C 5.864830 -1.274640 0.428210 0
M  V30 7 C 4.556965 -1.121589 0.016165 0
M  V30 8 C 3.579091 -0.176403 0.551862 0
M  V30 9 C 3.978411 1.049982 1.039727 0
M  V30 10 N 3.066435 1.904565 1.527149 0
M  V30 11 C 1.748540 1.617606 1.564571 0
M  V30 12 N 0.835220 2.567960 2.094881 0
M  V30 13 C -0.573387 2.484739 2.226539 0
M  V30 14 C -1.298818 3.517343 2.781410 0
M  V30 15 N -2.623297 3.484274 2.924286 0
M  V30 16 C -3.355275 2.427179 2.532130 0
M  V30 17 C -4.776036 2.478933 2.725207 0
M  V30 18 N -5.933822 2.512938 2.868425 0
M  V30 19 C -2.707266 1.341741 1.962630 0
M  V30 20 O -3.529996 0.310314 1.592989 0
M  V30 21 C -3.190621 -0.899145 1.004103 0
M  V30 22 C -3.665756 -2.042072 1.879504 0
M  V30 23 C -5.165016 -2.113724 1.821454 0
M  V30 24 C -5.589044 -2.514530 0.421641 0
M  V30 25 N -4.531051 -2.272727 -0.541477 0
M  V30 26 C -3.932503 -0.965767 -0.330806 0
M  V30 27 C -1.339910 1.421839 1.835919 0
M  V30 28 N 1.402874 0.417138 1.081437 0
M  V30 29 C 2.239982 -0.498836 0.576481 0
M  V30 30 C 4.134282 -1.952137 -1.011180 0
M  V30 31 H 2.897380 -4.310547 -3.878127 0
M  V30 32 H 3.016769 -2.577240 -3.528868 0
M  V30 33 H 2.414819 -3.661283 -2.249271 0
M  V30 34 H 6.900369 -3.759029 -1.646771 0
M  V30 35 H 7.712049 -2.316589 0.171020 0
M  V30 36 H 6.183742 -0.623121 1.228702 0
M  V30 37 H 5.017075 1.349029 1.042011 0
M  V30 38 H 1.259597 3.467758 2.442725 0
M  V30 39 H -0.792922 4.418812 3.129979 0
M  V30 40 H -2.114818 -0.963464 0.855187 0
M  V30 41 H -3.346418 -1.834785 2.920484 0
M  V30 42 H -3.262210 -3.025839 1.532306 0
M  V30 43 H -5.484496 -2.920750 2.504422 0
M  V30 44 H -5.561013 -1.122963 2.122291 0
M  V30 45 H -6.476093 -1.924944 0.132801 0
M  V30 46 H -5.865744 -3.576802 0.374462 0
M  V30 47 H -3.858581 -3.039101 -0.641682 0
M  V30 48 H -3.267795 -0.762733 -1.195014 0
M  V30 49 H -4.744777 -0.215735 -0.380616 0
M  V30 50 H -0.889331 0.555256 1.389246 0
M  V30 51 H 1.853051 -1.436009 0.213550 0
M  V30 52 H 3.114310 -1.907052 -1.408070 0
M  V30 END ATOM
M  V30 BEGIN BOND
M  V30 1 1 1 2
M  V30 2 1 2 3
M  V30 3 2 3 4
M  V30 4 1 4 5
M  V30 5 2 5 6
M  V30 6 1 6 7
M  V30 7 1 7 8
M  V30 8 2 8 9
M  V30 9 1 9 10
M  V30 10 2 10 11
M  V30 11 1 11 12
M  V30 12 1 12 13
M  V30 13 2 13 14
M  V30 14 1 14 15
M  V30 15 2 15 16
M  V30 16 1 16 17
M  V30 17 3 17 18
M  V30 18 1 16 19
M  V30 19 1 19 20
M  V30 20 1 20 21
M  V30 21 1 21 22
M  V30 22 1 22 23
M  V30 23 1 23 24
M  V30 24 1 24 25
M  V30 25 1 25 26
M  V30 26 2 19 27
M  V30 27 1 11 28
M  V30 28 2 28 29
M  V30 29 2 7 30
M  V30 30 1 30 3
M  V30 31 1 29 8
M  V30 32 1 27 13
M  V30 33 1 26 21
M  V30 34 1 1 31
M  V30 35 1 1 32
M  V30 36 1 1 33
M  V30 37 1 4 34
M  V30 38 1 5 35
M  V30 39 1 6 36
M  V30 40 1 9 37
M  V30 41 1 12 38
M  V30 42 1 14 39
M  V30 43 1 21 40
M  V30 44 1 22 41
M  V30 45 1 22 42
M  V30 46 1 23 43
M  V30 47 1 23 44
M  V30 48 1 24 45
M  V30 49 1 24 46
M  V30 50 1 25 47
M  V30 51 1 26 48
M  V30 52 1 26 49
M  V30 53 1 27 50
M  V30 54 1 29 51
M  V30 55 1 30 52
M  V30 END BOND
M  V30 END CTAB
M  END
>  <Dataset>  (842) 
ChEMBL_Kinases

>  <Ligand_Instance>  (842) 
nan

>  <PDB_ID>  (842) 
nan

>  <Standardized_SMILES>  (842) 
COc1cccc(-c2cnc(Nc3cnc(C#N)c(OC4CCCNC4)c3)nc2)c1

>  <Name>  (842) 
nan

>  <Pocket>  (842) 
nan

>  <ATP_Site>  (842) 
nan

>  <Peripheral>  (842) 
nan

>  <Num_H_Atoms_ProtBoundConf>  (842) 
nan

>  <Num_Resolved_Atoms>  (842) 
nan

>  <Num_Not_Resolved_Atoms>  (842) 
nan

$$$$
CHEMBL4635482
     RDKit          3D

  0  0  0  0  0  0  0  0  0  0999 V3000
M  V30 BEGIN CTAB
M  V30 COUNTS 49 52 0 0 0
M  V30 BEGIN ATOM
M  V30 1 N 1.121941 -6.874189 2.496066 0
M  V30 2 C 0.490826 -5.709426 1.994291 0
M  V30 3 C 0.849508 -4.540074 2.629491 0
M  V30 4 C 0.247343 -3.367371 2.162475 0
M  V30 5 C -0.660546 -3.432658 1.107922 0
M  V30 6 C -1.289067 -2.208780 0.620455 0
M  V30 7 C -0.581210 -1.045724 0.395305 0
M  V30 8 C -1.175094 0.099932 -0.061681 0
M  V30 9 N -0.439065 1.295195 -0.282605 0
M  V30 10 C 0.988863 1.374408 0.000114 0 CFG=1
M  V30 11 C 1.611865 2.667366 -0.425791 0
M  V30 12 C 3.116722 2.407006 -0.503316 0
M  V30 13 C 3.712952 2.320708 0.886494 0
M  V30 14 C 2.826354 2.982080 1.912933 0
M  V30 15 N 1.563584 2.393908 2.119481 0
M  V30 16 C 1.262663 1.168936 1.476784 0
M  V30 17 C -2.518800 -0.002045 -0.275891 0
M  V30 18 C -3.244965 1.075156 -0.736336 0
M  V30 19 C -4.604052 1.057870 -0.979025 0
M  V30 20 N -5.285468 -0.080083 -0.756875 0
M  V30 21 C -4.629422 -1.168123 -0.305911 0
M  V30 22 C -3.267755 -1.129956 -0.069105 0
M  V30 23 C -2.649014 -2.275047 0.392568 0
M  V30 24 C -0.975010 -4.657051 0.512951 0
M  V30 25 F -1.859814 -4.729920 -0.516552 0
M  V30 26 C -0.394845 -5.827490 0.955150 0
M  V30 27 H 1.262301 -7.846884 2.144978 0
M  V30 28 H 1.609389 -6.953492 3.415432 0
M  V30 29 H 1.556208 -4.507274 3.446893 0
M  V30 30 H 0.479899 -2.411531 2.612095 0
M  V30 31 H 0.457292 -1.135030 0.604401 0
M  V30 32 H -0.820528 2.171440 -0.643146 0
M  V30 33 H 1.485869 0.550621 -0.542765 0
M  V30 34 H 1.354653 3.537692 0.183497 0
M  V30 35 H 1.309955 2.811598 -1.504457 0
M  V30 36 H 3.632957 3.136049 -1.159151 0
M  V30 37 H 3.231033 1.408494 -0.986714 0
M  V30 38 H 4.650275 2.918228 0.862053 0
M  V30 39 H 3.993700 1.299328 1.190400 0
M  V30 40 H 3.398153 2.922514 2.880547 0
M  V30 41 H 2.744221 4.058412 1.692817 0
M  V30 42 H 0.765791 3.044567 2.049974 0
M  V30 43 H 1.986139 0.356119 1.676658 0
M  V30 44 H 0.286441 0.814308 1.926367 0
M  V30 45 H -2.780213 2.027675 -0.941429 0
M  V30 46 H -5.155118 1.904104 -1.337215 0
M  V30 47 H -5.224624 -2.069951 -0.139919 0
M  V30 48 H -3.212274 -3.180872 0.565739 0
M  V30 49 H -0.637112 -6.758193 0.499154 0
M  V30 END ATOM
M  V30 BEGIN BOND
M  V30 1 1 1 2
M  V30 2 2 2 3
M  V30 3 1 3 4
M  V30 4 2 4 5
M  V30 5 1 5 6
M  V30 6 2 6 7
M  V30 7 1 7 8
M  V30 8 1 8 9
M  V30 9 1 9 10
M  V30 10 1 10 11
M  V30 11 1 11 12
M  V30 12 1 12 13
M  V30 13 1 13 14
M  V30 14 1 14 15
M  V30 15 1 15 16
M  V30 16 2 8 17
M  V30 17 1 17 18
M  V30 18 2 18 19
M  V30 19 1 19 20
M  V30 20 2 20 21
M  V30 21 1 21 22
M  V30 22 2 22 23
M  V30 23 1 5 24
M  V30 24 1 24 25
M  V30 25 2 24 26
M  V30 26 1 26 2
M  V30 27 1 23 6
M  V30 28 1 16 10
M  V30 29 1 22 17
M  V30 30 1 1 27
M  V30 31 1 1 28
M  V30 32 1 3 29
M  V30 33 1 4 30
M  V30 34 1 7 31
M  V30 35 1 9 32
M  V30 36 1 10 33 CFG=3
M  V30 37 1 11 34
M  V30 38 1 11 35
M  V30 39 1 12 36
M  V30 40 1 12 37
M  V30 41 1 13 38
M  V30 42 1 13 39
M  V30 43 1 14 40
M  V30 44 1 14 41
M  V30 45 1 15 42
M  V30 46 1 16 43
M  V30 47 1 16 44
M  V30 48 1 18 45
M  V30 49 1 19 46
M  V30 50 1 21 47
M  V30 51 1 23 48
M  V30 52 1 26 49
M  V30 END BOND
M  V30 END CTAB
M  END
>  <Dataset>  (843) 
ChEMBL_Kinases

>  <Ligand_Instance>  (843) 
nan

>  <PDB_ID>  (843) 
nan

>  <Standardized_SMILES>  (843) 
Nc1ccc(-c2cc(N[C@H]3CCCCNC3)c3ccncc3c2)c(F)c1

>  <Name>  (843) 
nan

>  <Pocket>  (843) 
nan

>  <ATP_Site>  (843) 
nan

>  <Peripheral>  (843) 
nan

>  <Num_H_Atoms_ProtBoundConf>  (843) 
nan

>  <Num_Resolved_Atoms>  (843) 
nan

>  <Num_Not_Resolved_Atoms>  (843) 
nan

$$$$
CHEMBL4571588
     RDKit          3D

  0  0  0  0  0  0  0  0  0  0999 V3000
M  V30 BEGIN CTAB
M  V30 COUNTS 50 52 0 0 0
M  V30 BEGIN ATOM
M  V30 1 C 1.883479 -2.175795 2.676986 0
M  V30 2 C 3.333334 -2.526971 2.430696 0
M  V30 3 C 3.564854 -3.912279 2.990157 0
M  V30 4 N 4.210337 -1.553864 3.101935 0
M  V30 5 C 4.097296 -0.185858 2.720874 0
M  V30 6 N 4.867709 0.755918 3.293947 0
M  V30 7 C 4.729637 2.036483 2.905433 0
M  V30 8 C 3.829832 2.437429 1.940138 0
M  V30 9 Cl 3.622884 4.094148 1.409565 0
M  V30 10 C 3.042176 1.466445 1.355836 0
M  V30 11 C 2.041747 1.718148 0.320641 0
M  V30 12 C 2.123110 2.497446 -0.815257 0
M  V30 13 N 0.933202 2.424898 -1.479612 0
M  V30 14 C 0.126406 1.613162 -0.766731 0
M  V30 15 C -1.244561 1.283569 -1.157196 0
M  V30 16 O -1.715115 1.776871 -2.216262 0
M  V30 17 N -2.033247 0.414831 -0.345909 0
M  V30 18 C -3.412551 0.075000 -0.726413 0 CFG=2
M  V30 19 C -4.302882 0.660962 0.317800 0
M  V30 20 O -5.628177 0.405646 0.040612 0
M  V30 21 C -3.534626 -1.371060 -0.907505 0
M  V30 22 C -4.454249 -2.300276 -0.486737 0
M  V30 23 C -4.331060 -3.634573 -0.808182 0
M  V30 24 C -3.282006 -4.109691 -1.567017 0
M  V30 25 C -2.340708 -3.200347 -2.005184 0
M  V30 26 Cl -1.041309 -3.861971 -2.958312 0
M  V30 27 C -2.469803 -1.849648 -1.677023 0
M  V30 28 C 0.777487 1.152495 0.360145 0
M  V30 29 N 3.225852 0.213745 1.783775 0
M  V30 30 H 1.803278 -1.712238 3.691668 0
M  V30 31 H 1.468469 -1.538415 1.894623 0
M  V30 32 H 1.229212 -3.080406 2.737415 0
M  V30 33 H 3.503295 -2.526567 1.343939 0
M  V30 34 H 2.883914 -4.036387 3.856897 0
M  V30 35 H 4.626553 -4.091810 3.250972 0
M  V30 36 H 3.214654 -4.626373 2.192878 0
M  V30 37 H 4.904492 -1.815034 3.836627 0
M  V30 38 H 5.341009 2.816390 3.353742 0
M  V30 39 H 2.998117 3.069364 -1.117861 0
M  V30 40 H 0.710133 2.914665 -2.372064 0
M  V30 41 H -1.660964 -0.006751 0.539851 0
M  V30 42 H -3.644773 0.606740 -1.689365 0
M  V30 43 H -4.017614 0.339789 1.343297 0
M  V30 44 H -4.136086 1.766549 0.316149 0
M  V30 45 H -5.971734 1.018502 -0.654585 0
M  V30 46 H -5.236877 -1.863164 0.096538 0
M  V30 47 H -5.131235 -4.249344 -0.406945 0
M  V30 48 H -3.283882 -5.177501 -1.759860 0
M  V30 49 H -1.639440 -1.274595 -2.104820 0
M  V30 50 H 0.321953 0.480283 1.088970 0
M  V30 END ATOM
M  V30 BEGIN BOND
M  V30 1 1 1 2
M  V30 2 1 2 3
M  V30 3 1 2 4
M  V30 4 1 4 5
M  V30 5 2 5 6
M  V30 6 1 6 7
M  V30 7 2 7 8
M  V30 8 1 8 9
M  V30 9 1 8 10
M  V30 10 1 10 11
M  V30 11 2 11 12
M  V30 12 1 12 13
M  V30 13 1 13 14
M  V30 14 1 14 15
M  V30 15 2 15 16
M  V30 16 1 15 17
M  V30 17 1 17 18
M  V30 18 1 18 19
M  V30 19 1 19 20
M  V30 20 1 18 21
M  V30 21 2 21 22
M  V30 22 1 22 23
M  V30 23 2 23 24
M  V30 24 1 24 25
M  V30 25 1 25 26
M  V30 26 2 25 27
M  V30 27 2 14 28
M  V30 28 2 10 29
M  V30 29 1 29 5
M  V30 30 1 28 11
M  V30 31 1 27 21
M  V30 32 1 1 30
M  V30 33 1 1 31
M  V30 34 1 1 32
M  V30 35 1 2 33
M  V30 36 1 3 34
M  V30 37 1 3 35
M  V30 38 1 3 36
M  V30 39 1 4 37
M  V30 40 1 7 38
M  V30 41 1 12 39
M  V30 42 1 13 40
M  V30 43 1 17 41
M  V30 44 1 18 42 CFG=3
M  V30 45 1 19 43
M  V30 46 1 19 44
M  V30 47 1 20 45
M  V30 48 1 22 46
M  V30 49 1 23 47
M  V30 50 1 24 48
M  V30 51 1 27 49
M  V30 52 1 28 50
M  V30 END BOND
M  V30 END CTAB
M  END
>  <Dataset>  (844) 
ChEMBL_Kinases

>  <Ligand_Instance>  (844) 
nan

>  <PDB_ID>  (844) 
nan

>  <Standardized_SMILES>  (844) 
CC(C)Nc1ncc(Cl)c(-c2c[nH]c(C(=O)N[C@H](CO)c3cccc(Cl)c3)c2)n1

>  <Name>  (844) 
nan

>  <Pocket>  (844) 
nan

>  <ATP_Site>  (844) 
nan

>  <Peripheral>  (844) 
nan

>  <Num_H_Atoms_ProtBoundConf>  (844) 
nan

>  <Num_Resolved_Atoms>  (844) 
nan

>  <Num_Not_Resolved_Atoms>  (844) 
nan

$$$$
CHEMBL4635397
     RDKit          3D

  0  0  0  0  0  0  0  0  0  0999 V3000
M  V30 BEGIN CTAB
M  V30 COUNTS 56 61 0 0 0
M  V30 BEGIN ATOM
M  V30 1 C 2.346948 -4.916638 4.546384 0
M  V30 2 C 2.853098 -4.646158 3.164555 0
M  V30 3 O 4.244880 -4.664681 3.114711 0
M  V30 4 C 2.418616 -3.342365 2.628448 0
M  V30 5 C 2.055906 -2.287778 2.173997 0
M  V30 6 C 1.599045 -1.035837 1.625913 0
M  V30 7 C 1.901294 0.196690 2.161336 0
M  V30 8 C 1.479412 1.406761 1.657371 0
M  V30 9 C 0.692293 1.382896 0.527467 0
M  V30 10 N 0.231890 2.591814 -0.060221 0
M  V30 11 C 0.461730 3.208717 -1.353201 0
M  V30 12 C -0.304448 4.502789 -1.245060 0
M  V30 13 C -0.052458 4.813432 0.242204 0
M  V30 14 C -0.634475 3.459441 0.689355 0
M  V30 15 C -1.968461 3.536381 0.039459 0
M  V30 16 N -1.737405 4.283552 -1.190954 0
M  V30 17 C 0.339644 0.198920 -0.074960 0
M  V30 18 N -0.447541 -0.030570 -1.204501 0
M  V30 19 C -1.709132 0.139308 -1.778926 0
M  V30 20 N -2.163232 1.113473 -2.583578 0
M  V30 21 C -3.414935 1.146883 -3.059149 0
M  V30 22 N -4.287237 0.180152 -2.739873 0
M  V30 23 C -3.904396 -0.825471 -1.940468 0
M  V30 24 N -4.607752 -1.890607 -1.494873 0
M  V30 25 C -3.826131 -2.652425 -0.710605 0
M  V30 26 C -2.607960 -2.011412 -0.690549 0
M  V30 27 C -2.600606 -0.865207 -1.441766 0
M  V30 28 C 0.803237 -0.997303 0.489332 0
M  V30 29 C 2.279037 -5.751211 2.292412 0
M  V30 30 N 1.383990 -6.018548 1.666370 0
M  V30 31 C 1.119134 -7.103343 0.965278 0
M  V30 32 C 2.110120 -8.061835 1.014876 0
M  V30 33 S 3.376064 -7.287491 2.103220 0
M  V30 34 H 2.488115 -4.038038 5.221318 0
M  V30 35 H 2.954425 -5.768695 4.942907 0
M  V30 36 H 1.283401 -5.173252 4.577999 0
M  V30 37 H 4.644192 -5.237055 3.797826 0
M  V30 38 H 2.516976 0.223120 3.045454 0
M  V30 39 H 1.738645 2.352779 2.107562 0
M  V30 40 H 1.542840 3.467822 -1.412389 0
M  V30 41 H 0.169408 2.577669 -2.211867 0
M  V30 42 H -0.003152 5.295870 -1.914255 0
M  V30 43 H -0.659695 5.649329 0.588741 0
M  V30 44 H 1.022901 4.873048 0.468273 0
M  V30 45 H -0.613515 3.344182 1.770389 0
M  V30 46 H -2.628046 4.158866 0.711512 0
M  V30 47 H -2.466852 2.572705 -0.123364 0
M  V30 48 H -2.142733 3.844763 -2.023507 0
M  V30 49 H 0.033650 -0.538891 -2.003756 0
M  V30 50 H -3.682930 1.989502 -3.709797 0
M  V30 51 H -5.622145 -2.086332 -1.734124 0
M  V30 52 H -4.148749 -3.555824 -0.233130 0
M  V30 53 H -1.762481 -2.386804 -0.135776 0
M  V30 54 H 0.578983 -1.996550 0.080135 0
M  V30 55 H 0.147864 -7.092801 0.440526 0
M  V30 56 H 1.802232 -9.053608 0.338162 0
M  V30 END ATOM
M  V30 BEGIN BOND
M  V30 1 1 1 2
M  V30 2 1 2 3
M  V30 3 1 2 4
M  V30 4 3 4 5
M  V30 5 1 5 6
M  V30 6 2 6 7
M  V30 7 1 7 8
M  V30 8 2 8 9
M  V30 9 1 9 10
M  V30 10 1 10 11
M  V30 11 1 11 12
M  V30 12 1 12 13
M  V30 13 1 13 14
M  V30 14 1 14 15
M  V30 15 1 15 16
M  V30 16 1 9 17
M  V30 17 1 17 18
M  V30 18 1 18 19
M  V30 19 1 19 20
M  V30 20 2 20 21
M  V30 21 1 21 22
M  V30 22 2 22 23
M  V30 23 1 23 24
M  V30 24 1 24 25
M  V30 25 2 25 26
M  V30 26 1 26 27
M  V30 27 2 17 28
M  V30 28 1 2 29
M  V30 29 2 29 30
M  V30 30 1 30 31
M  V30 31 2 31 32
M  V30 32 1 32 33
M  V30 33 1 28 6
M  V30 34 1 33 29
M  V30 35 1 14 10
M  V30 36 2 27 19
M  V30 37 1 16 12
M  V30 38 1 27 23
M  V30 39 1 1 34
M  V30 40 1 1 35
M  V30 41 1 1 36
M  V30 42 1 3 37
M  V30 43 1 7 38
M  V30 44 1 8 39
M  V30 45 1 11 40
M  V30 46 1 11 41
M  V30 47 1 12 42
M  V30 48 1 13 43
M  V30 49 1 13 44
M  V30 50 1 14 45
M  V30 51 1 15 46
M  V30 52 1 15 47
M  V30 53 1 16 48
M  V30 54 1 18 49
M  V30 55 1 21 50
M  V30 56 1 24 51
M  V30 57 1 25 52
M  V30 58 1 26 53
M  V30 59 1 28 54
M  V30 60 1 31 55
M  V30 61 1 32 56
M  V30 END BOND
M  V30 END CTAB
M  END
>  <Dataset>  (845) 
ChEMBL_Kinases

>  <Ligand_Instance>  (845) 
nan

>  <PDB_ID>  (845) 
nan

>  <Standardized_SMILES>  (845) 
CC(O)(C#Cc1ccc(N2CC3CC2CN3)c(Nc2ncnc3[nH]ccc23)c1)c1nccs1

>  <Name>  (845) 
nan

>  <Pocket>  (845) 
nan

>  <ATP_Site>  (845) 
nan

>  <Peripheral>  (845) 
nan

>  <Num_H_Atoms_ProtBoundConf>  (845) 
nan

>  <Num_Resolved_Atoms>  (845) 
nan

>  <Num_Not_Resolved_Atoms>  (845) 
nan

$$$$
CHEMBL4571409
     RDKit          3D

  0  0  0  0  0  0  0  0  0  0999 V3000
M  V30 BEGIN CTAB
M  V30 COUNTS 46 49 0 0 0
M  V30 BEGIN ATOM
M  V30 1 C -2.828739 -5.306019 1.809546 0
M  V30 2 C -1.569352 -4.594214 2.259745 0
M  V30 3 C -1.579055 -3.232614 1.709214 0
M  V30 4 C -1.065257 -2.805965 0.502966 0
M  V30 5 C -1.248860 -1.432791 0.297059 0
M  V30 6 C -0.840685 -0.776571 -0.920084 0
M  V30 7 N -1.376095 -1.258932 -2.076602 0
M  V30 8 N -0.933255 -0.580657 -3.121609 0
M  V30 9 C -0.088647 0.374520 -2.705374 0
M  V30 10 C 0.655562 1.351238 -3.329552 0
M  V30 11 C 1.414695 2.134065 -2.485682 0
M  V30 12 N 1.460467 1.990839 -1.127207 0
M  V30 13 C 0.733961 1.038568 -0.529526 0
M  V30 14 N 0.851615 0.897453 0.874733 0
M  V30 15 C 1.726207 1.828533 1.554170 0
M  V30 16 C 1.702911 1.616075 3.074330 0
M  V30 17 C 2.357183 0.302187 3.350951 0
M  V30 18 O 2.569378 -0.472561 2.241126 0
M  V30 19 C 3.459194 0.105855 1.332358 0
M  V30 20 C 3.194990 1.591557 1.185538 0
M  V30 21 C -0.039891 0.238854 -1.337343 0
M  V30 22 N -1.898832 -1.081768 1.447752 0
M  V30 23 C -2.340494 0.275237 1.693841 0
M  V30 24 N -2.083066 -2.113524 2.248899 0
M  V30 25 H -3.517807 -5.450033 2.680990 0
M  V30 26 H -3.384098 -4.733448 1.038999 0
M  V30 27 H -2.565187 -6.318105 1.403297 0
M  V30 28 H -1.509630 -4.566687 3.350065 0
M  V30 29 H -0.681410 -5.143940 1.872276 0
M  V30 30 H -0.572811 -3.496534 -0.194040 0
M  V30 31 H -1.192530 -0.751666 -4.118998 0
M  V30 32 H 0.635530 1.479671 -4.385927 0
M  V30 33 H 2.039333 2.938165 -2.889931 0
M  V30 34 H 0.444191 0.229612 1.545060 0
M  V30 35 H 1.457555 2.873273 1.331777 0
M  V30 36 H 0.648945 1.637360 3.417031 0
M  V30 37 H 2.309562 2.420562 3.528107 0
M  V30 38 H 1.667442 -0.283336 4.014331 0
M  V30 39 H 3.280813 0.426197 3.951740 0
M  V30 40 H 3.252284 -0.362967 0.347896 0
M  V30 41 H 4.501169 -0.076651 1.610105 0
M  V30 42 H 3.393749 2.002984 0.202981 0
M  V30 43 H 3.835204 2.125219 1.917678 0
M  V30 44 H -1.989444 0.597559 2.712543 0
M  V30 45 H -1.944178 0.981253 0.958672 0
M  V30 46 H -3.454320 0.335678 1.643997 0
M  V30 END ATOM
M  V30 BEGIN BOND
M  V30 1 1 1 2
M  V30 2 1 2 3
M  V30 3 1 3 4
M  V30 4 2 4 5
M  V30 5 1 5 6
M  V30 6 2 6 7
M  V30 7 1 7 8
M  V30 8 1 8 9
M  V30 9 2 9 10
M  V30 10 1 10 11
M  V30 11 2 11 12
M  V30 12 1 12 13
M  V30 13 1 13 14
M  V30 14 1 14 15
M  V30 15 1 15 16
M  V30 16 1 16 17
M  V30 17 1 17 18
M  V30 18 1 18 19
M  V30 19 1 19 20
M  V30 20 2 13 21
M  V30 21 1 5 22
M  V30 22 1 22 23
M  V30 23 1 22 24
M  V30 24 2 24 3
M  V30 25 1 21 6
M  V30 26 1 21 9
M  V30 27 1 20 15
M  V30 28 1 1 25
M  V30 29 1 1 26
M  V30 30 1 1 27
M  V30 31 1 2 28
M  V30 32 1 2 29
M  V30 33 1 4 30
M  V30 34 1 8 31
M  V30 35 1 10 32
M  V30 36 1 11 33
M  V30 37 1 14 34
M  V30 38 1 15 35
M  V30 39 1 16 36
M  V30 40 1 16 37
M  V30 41 1 17 38
M  V30 42 1 17 39
M  V30 43 1 19 40
M  V30 44 1 19 41
M  V30 45 1 20 42
M  V30 46 1 20 43
M  V30 47 1 23 44
M  V30 48 1 23 45
M  V30 49 1 23 46
M  V30 END BOND
M  V30 END CTAB
M  END
>  <Dataset>  (846) 
ChEMBL_Kinases

>  <Ligand_Instance>  (846) 
nan

>  <PDB_ID>  (846) 
nan

>  <Standardized_SMILES>  (846) 
CCc1cc(-c2n[nH]c3ccnc(NC4CCOCC4)c23)n(C)n1

>  <Name>  (846) 
nan

>  <Pocket>  (846) 
nan

>  <ATP_Site>  (846) 
nan

>  <Peripheral>  (846) 
nan

>  <Num_H_Atoms_ProtBoundConf>  (846) 
nan

>  <Num_Resolved_Atoms>  (846) 
nan

>  <Num_Not_Resolved_Atoms>  (846) 
nan

$$$$
CHEMBL4571262
     RDKit          3D

  0  0  0  0  0  0  0  0  0  0999 V3000
M  V30 BEGIN CTAB
M  V30 COUNTS 41 43 0 0 0
M  V30 BEGIN ATOM
M  V30 1 C 4.180990 -8.294508 2.090021 0
M  V30 2 C 3.720332 -7.799831 1.074087 0
M  V30 3 C 3.150934 -7.214671 -0.121808 0
M  V30 4 O 2.951186 -7.971001 -1.106019 0
M  V30 5 C 2.856911 -5.792105 -0.082195 0
M  V30 6 C 3.066513 -4.949753 0.990896 0
M  V30 7 C 2.773946 -3.604874 0.979468 0
M  V30 8 C 2.237837 -2.998806 -0.137675 0
M  V30 9 N 1.876085 -1.745854 -0.398277 0
M  V30 10 C 1.428214 -1.313412 -1.379469 0
M  V30 11 N 1.060756 0.146470 -1.538816 0
M  V30 12 C -0.235582 0.561394 -1.210333 0
M  V30 13 O -1.063440 -0.286666 -0.791131 0
M  V30 14 N -0.538526 1.935278 -1.374391 0
M  V30 15 C -1.819649 2.547071 -1.088219 0
M  V30 16 C -1.937590 2.695582 0.382591 0
M  V30 17 C -1.422573 3.888097 0.904667 0
M  V30 18 C -1.471356 4.155546 2.249779 0
M  V30 19 C -2.025720 3.266658 3.135074 0
M  V30 20 O -2.168795 3.347649 4.505059 0
M  V30 21 C -1.699393 4.492079 5.199874 0
M  V30 22 C -2.542546 2.075967 2.631231 0
M  V30 23 C -2.493958 1.805414 1.275991 0
M  V30 24 S 1.321241 -2.767622 -2.529143 0
M  V30 25 C 2.045153 -3.901311 -1.199385 0
M  V30 26 C 2.330810 -5.277716 -1.224958 0
M  V30 27 H 4.593069 -8.735039 2.964482 0
M  V30 28 H 3.490335 -5.406821 1.887726 0
M  V30 29 H 2.977925 -3.039300 1.872570 0
M  V30 30 H 1.846268 0.693177 -1.888271 0
M  V30 31 H 0.212824 2.597399 -1.734643 0
M  V30 32 H -2.616341 1.807715 -1.388970 0
M  V30 33 H -1.934791 3.494883 -1.616482 0
M  V30 34 H -0.955378 4.679398 0.312640 0
M  V30 35 H -1.096626 5.049818 2.726754 0
M  V30 36 H -1.737600 4.281637 6.299058 0
M  V30 37 H -2.364837 5.359895 5.021289 0
M  V30 38 H -0.638312 4.671531 4.927064 0
M  V30 39 H -3.011918 1.284474 3.234862 0
M  V30 40 H -2.883899 0.904467 0.857893 0
M  V30 41 H 2.090336 -5.738361 -2.157807 0
M  V30 END ATOM
M  V30 BEGIN BOND
M  V30 1 3 1 2
M  V30 2 1 2 3
M  V30 3 2 3 4
M  V30 4 1 3 5
M  V30 5 2 5 6
M  V30 6 1 6 7
M  V30 7 2 7 8
M  V30 8 1 8 9
M  V30 9 2 9 10
M  V30 10 1 10 11
M  V30 11 1 11 12
M  V30 12 2 12 13
M  V30 13 1 12 14
M  V30 14 1 14 15
M  V30 15 1 15 16
M  V30 16 2 16 17
M  V30 17 1 17 18
M  V30 18 2 18 19
M  V30 19 1 19 20
M  V30 20 1 20 21
M  V30 21 1 19 22
M  V30 22 2 22 23
M  V30 23 1 10 24
M  V30 24 1 24 25
M  V30 25 2 25 26
M  V30 26 1 26 5
M  V30 27 1 25 8
M  V30 28 1 23 16
M  V30 29 1 1 27
M  V30 30 1 6 28
M  V30 31 1 7 29
M  V30 32 1 11 30
M  V30 33 1 14 31
M  V30 34 1 15 32
M  V30 35 1 15 33
M  V30 36 1 17 34
M  V30 37 1 18 35
M  V30 38 1 21 36
M  V30 39 1 21 37
M  V30 40 1 21 38
M  V30 41 1 22 39
M  V30 42 1 23 40
M  V30 43 1 26 41
M  V30 END BOND
M  V30 END CTAB
M  END
>  <Dataset>  (847) 
ChEMBL_Kinases

>  <Ligand_Instance>  (847) 
nan

>  <PDB_ID>  (847) 
nan

>  <Standardized_SMILES>  (847) 
C#CC(=O)c1ccc2nc(NC(=O)NCc3ccc(OC)cc3)sc2c1

>  <Name>  (847) 
nan

>  <Pocket>  (847) 
nan

>  <ATP_Site>  (847) 
nan

>  <Peripheral>  (847) 
nan

>  <Num_H_Atoms_ProtBoundConf>  (847) 
nan

>  <Num_Resolved_Atoms>  (847) 
nan

>  <Num_Not_Resolved_Atoms>  (847) 
nan

$$$$
CHEMBL4571227
     RDKit          3D

  0  0  0  0  0  0  0  0  0  0999 V3000
M  V30 BEGIN CTAB
M  V30 COUNTS 52 55 0 0 0
M  V30 BEGIN ATOM
M  V30 1 C 2.507877 -5.153474 4.981041 0
M  V30 2 N 1.493146 -4.118633 5.031274 0
M  V30 3 C 0.424676 -4.109768 6.013030 0
M  V30 4 C 1.520926 -3.053922 4.073179 0
M  V30 5 C 2.381406 -1.973474 4.316886 0
M  V30 6 C 2.410007 -0.926655 3.396641 0
M  V30 7 C 1.627128 -0.916106 2.263835 0
M  V30 8 C 1.635757 0.172258 1.289785 0
M  V30 9 C 2.431398 1.288973 1.416677 0
M  V30 10 C 2.366674 2.286914 0.434607 0
M  V30 11 N 3.126513 3.393493 0.518035 0
M  V30 12 C 3.087577 4.369072 -0.409970 0
M  V30 13 C 2.219404 4.200026 -1.485943 0
M  V30 14 N 1.432678 3.093107 -1.606981 0
M  V30 15 C 1.513381 2.151801 -0.649958 0
M  V30 16 C 0.730887 1.019895 -0.744946 0
M  V30 17 N -0.198290 0.812467 -1.828188 0
M  V30 18 C -0.984890 -0.403902 -1.876122 0
M  V30 19 C -1.977682 -0.400461 -3.009160 0
M  V30 20 C -2.962238 0.744612 -2.882134 0
M  V30 21 N -3.526155 0.647210 -1.529936 0
M  V30 22 C -4.397413 -0.499309 -1.505473 0
M  V30 23 C -3.706900 -1.791484 -1.855334 0
M  V30 24 F -3.032107 -2.293883 -0.769899 0
M  V30 25 F -4.690012 -2.707582 -2.175164 0
M  V30 26 C -2.756415 -1.673146 -3.025690 0
M  V30 27 N 0.829103 0.099010 0.214937 0
M  V30 28 C 0.802497 -2.004349 2.078402 0
M  V30 29 N 0.744662 -3.039864 2.945540 0
M  V30 30 H 2.710048 -5.560317 5.993709 0
M  V30 31 H 2.098653 -5.986659 4.380590 0
M  V30 32 H 3.421881 -4.799505 4.474158 0
M  V30 33 H 0.579576 -4.800930 6.845686 0
M  V30 34 H 0.308864 -3.055643 6.363952 0
M  V30 35 H -0.560560 -4.342426 5.532684 0
M  V30 36 H 3.020852 -1.916510 5.182299 0
M  V30 37 H 3.084250 -0.114592 3.608130 0
M  V30 38 H 3.095932 1.398577 2.257926 0
M  V30 39 H 3.685734 5.277556 -0.378295 0
M  V30 40 H 2.171278 4.972692 -2.244579 0
M  V30 41 H -0.309465 1.531399 -2.577223 0
M  V30 42 H -1.557493 -0.544340 -0.924916 0
M  V30 43 H -0.341517 -1.298059 -1.987000 0
M  V30 44 H -1.439822 -0.278974 -3.946909 0
M  V30 45 H -3.783618 0.559463 -3.586801 0
M  V30 46 H -2.519807 1.732630 -3.080597 0
M  V30 47 H -4.104568 1.471088 -1.291362 0
M  V30 48 H -5.337687 -0.357741 -2.101553 0
M  V30 49 H -4.721078 -0.612785 -0.442922 0
M  V30 50 H -3.321693 -1.836326 -3.953747 0
M  V30 51 H -2.030062 -2.508474 -2.949700 0
M  V30 52 H 0.161049 -2.039493 1.191185 0
M  V30 END ATOM
M  V30 BEGIN BOND
M  V30 1 1 1 2
M  V30 2 1 2 3
M  V30 3 1 2 4
M  V30 4 2 4 5
M  V30 5 1 5 6
M  V30 6 2 6 7
M  V30 7 1 7 8
M  V30 8 2 8 9
M  V30 9 1 9 10
M  V30 10 2 10 11
M  V30 11 1 11 12
M  V30 12 2 12 13
M  V30 13 1 13 14
M  V30 14 2 14 15
M  V30 15 1 15 16
M  V30 16 1 16 17
M  V30 17 1 17 18
M  V30 18 1 18 19
M  V30 19 1 19 20
M  V30 20 1 20 21
M  V30 21 1 21 22
M  V30 22 1 22 23
M  V30 23 1 23 24
M  V30 24 1 23 25
M  V30 25 1 23 26
M  V30 26 2 16 27
M  V30 27 1 7 28
M  V30 28 2 28 29
M  V30 29 1 29 4
M  V30 30 1 27 8
M  V30 31 1 15 10
M  V30 32 1 26 19
M  V30 33 1 1 30
M  V30 34 1 1 31
M  V30 35 1 1 32
M  V30 36 1 3 33
M  V30 37 1 3 34
M  V30 38 1 3 35
M  V30 39 1 5 36
M  V30 40 1 6 37
M  V30 41 1 9 38
M  V30 42 1 12 39
M  V30 43 1 13 40
M  V30 44 1 17 41
M  V30 45 1 18 42
M  V30 46 1 18 43
M  V30 47 1 19 44
M  V30 48 1 20 45
M  V30 49 1 20 46
M  V30 50 1 21 47
M  V30 51 1 22 48
M  V30 52 1 22 49
M  V30 53 1 26 50
M  V30 54 1 26 51
M  V30 55 1 28 52
M  V30 END BOND
M  V30 END CTAB
M  END
>  <Dataset>  (848) 
ChEMBL_Kinases

>  <Ligand_Instance>  (848) 
nan

>  <PDB_ID>  (848) 
nan

>  <Standardized_SMILES>  (848) 
CN(C)c1ccc(-c2cc3nccnc3c(NCC3CNCC(F)(F)C3)n2)cn1

>  <Name>  (848) 
nan

>  <Pocket>  (848) 
nan

>  <ATP_Site>  (848) 
nan

>  <Peripheral>  (848) 
nan

>  <Num_H_Atoms_ProtBoundConf>  (848) 
nan

>  <Num_Resolved_Atoms>  (848) 
nan

>  <Num_Not_Resolved_Atoms>  (848) 
nan

$$$$
CHEMBL4635431
     RDKit          3D

  0  0  0  0  0  0  0  0  0  0999 V3000
M  V30 BEGIN CTAB
M  V30 COUNTS 60 64 0 0 0
M  V30 BEGIN ATOM
M  V30 1 C -1.961226 -5.547965 1.978952 0
M  V30 2 O -1.128604 -5.610304 0.846215 0
M  V30 3 C -0.496080 -4.509800 0.347032 0
M  V30 4 C -0.565772 -3.226433 0.845711 0
M  V30 5 C 0.132468 -2.193659 0.241418 0
M  V30 6 C 0.083149 -0.815718 0.718800 0
M  V30 7 C 1.114205 0.088277 0.610457 0
M  V30 8 N 0.985322 1.333096 1.080767 0
M  V30 9 C -0.125046 1.792733 1.679839 0
M  V30 10 C -0.329190 3.043825 2.190583 0
M  V30 11 N 0.612277 4.123934 2.184570 0
M  V30 12 C 0.534846 5.257041 1.297224 0
M  V30 13 C 1.583384 6.221941 1.684289 0 CFG=1
M  V30 14 C 1.050162 7.628513 1.480308 0
M  V30 15 O 2.130936 6.166496 2.910979 0
M  V30 16 C 2.297279 5.045604 3.604610 0 CFG=1
M  V30 17 C 1.846810 5.341982 5.047876 0
M  V30 18 C 1.587621 3.816836 3.183776 0
M  V30 19 S -1.888563 3.138312 2.852103 0
M  V30 20 N -2.377435 1.374156 2.446051 0
M  V30 21 C -1.237197 0.964587 1.846203 0
M  V30 22 C -1.050696 -0.334289 1.334532 0
M  V30 23 C 0.930840 -2.358661 -0.875412 0
M  V30 24 C 1.026958 -3.631203 -1.407386 0
M  V30 25 C 0.314550 -4.627652 -0.773494 0
M  V30 26 N 0.404901 -5.938644 -1.350588 0
M  V30 27 C -0.700184 -5.911445 -2.262849 0
M  V30 28 O -1.183613 -4.722178 -2.076513 0
M  V30 29 C -1.294809 -6.836595 -3.221750 0
M  V30 30 C -0.747402 -8.090316 -3.364053 0
M  V30 31 C -1.330261 -8.971391 -4.291609 0
M  V30 32 C -2.425443 -8.486620 -4.992319 0
M  V30 33 C -2.936257 -7.228832 -4.816460 0
M  V30 34 C -2.384308 -6.358878 -3.920904 0
M  V30 35 H -1.577495 -4.751330 2.642221 0
M  V30 36 H -1.812984 -6.539516 2.501801 0
M  V30 37 H -3.035586 -5.421935 1.703962 0
M  V30 38 H -1.163847 -3.027546 1.703403 0
M  V30 39 H 2.041915 -0.240755 0.126775 0
M  V30 40 H -0.493478 5.678754 1.365753 0
M  V30 41 H 0.627009 4.877300 0.233722 0
M  V30 42 H 2.413182 6.131225 0.922313 0
M  V30 43 H 1.796791 8.363463 1.847764 0
M  V30 44 H 0.826724 7.772744 0.403383 0
M  V30 45 H 0.074940 7.678125 1.996262 0
M  V30 46 H 3.389234 4.803372 3.700037 0
M  V30 47 H 1.713495 4.381165 5.603808 0
M  V30 48 H 2.560145 5.964319 5.582278 0
M  V30 49 H 0.838987 5.772252 4.947014 0
M  V30 50 H 1.235788 3.254701 4.047455 0
M  V30 51 H 2.324683 3.122549 2.673671 0
M  V30 52 H -1.867798 -1.069258 1.418732 0
M  V30 53 H 1.480005 -1.573286 -1.361104 0
M  V30 54 H 1.624954 -3.859541 -2.277389 0
M  V30 55 H 0.876579 -6.896321 -1.426721 0
M  V30 56 H 0.110026 -8.436148 -2.799608 0
M  V30 57 H -0.976903 -9.970177 -4.476823 0
M  V30 58 H -2.956100 -9.083969 -5.738054 0
M  V30 59 H -3.805650 -6.863177 -5.386639 0
M  V30 60 H -2.761565 -5.348721 -3.748101 0
M  V30 END ATOM
M  V30 BEGIN BOND
M  V30 1 1 1 2
M  V30 2 1 2 3
M  V30 3 2 3 4
M  V30 4 1 4 5
M  V30 5 1 5 6
M  V30 6 1 6 7
M  V30 7 2 7 8
M  V30 8 1 8 9
M  V30 9 2 9 10
M  V30 10 1 10 11
M  V30 11 1 11 12
M  V30 12 1 12 13
M  V30 13 1 13 14
M  V30 14 1 13 15
M  V30 15 1 15 16
M  V30 16 1 16 17
M  V30 17 1 16 18
M  V30 18 1 10 19
M  V30 19 1 19 20
M  V30 20 2 20 21
M  V30 21 1 21 22
M  V30 22 2 5 23
M  V30 23 1 23 24
M  V30 24 2 24 25
M  V30 25 1 25 26
M  V30 26 1 26 27
M  V30 27 2 27 28
M  V30 28 1 27 29
M  V30 29 2 29 30
M  V30 30 1 30 31
M  V30 31 2 31 32
M  V30 32 1 32 33
M  V30 33 2 33 34
M  V30 34 1 25 3
M  V30 35 1 34 29
M  V30 36 2 22 6
M  V30 37 1 21 9
M  V30 38 1 18 11
M  V30 39 1 1 35
M  V30 40 1 1 36
M  V30 41 1 1 37
M  V30 42 1 4 38
M  V30 43 1 7 39
M  V30 44 1 12 40
M  V30 45 1 12 41
M  V30 46 1 13 42 CFG=3
M  V30 47 1 14 43
M  V30 48 1 14 44
M  V30 49 1 14 45
M  V30 50 1 16 46 CFG=1
M  V30 51 1 17 47
M  V30 52 1 17 48
M  V30 53 1 17 49
M  V30 54 1 18 50
M  V30 55 1 18 51
M  V30 56 1 22 52
M  V30 57 1 23 53
M  V30 58 1 24 54
M  V30 59 1 26 55
M  V30 60 1 30 56
M  V30 61 1 31 57
M  V30 62 1 32 58
M  V30 63 1 33 59
M  V30 64 1 34 60
M  V30 END BOND
M  V30 END CTAB
M  END
>  <Dataset>  (849) 
ChEMBL_Kinases

>  <Ligand_Instance>  (849) 
nan

>  <PDB_ID>  (849) 
nan

>  <Standardized_SMILES>  (849) 
COc1cc(-c2cnc3c(N4C[C@@H](C)O[C@@H](C)C4)snc3c2)ccc1NC(=O)c1ccccc1

>  <Name>  (849) 
nan

>  <Pocket>  (849) 
nan

>  <ATP_Site>  (849) 
nan

>  <Peripheral>  (849) 
nan

>  <Num_H_Atoms_ProtBoundConf>  (849) 
nan

>  <Num_Resolved_Atoms>  (849) 
nan

>  <Num_Not_Resolved_Atoms>  (849) 
nan

$$$$
CHEMBL4635439
     RDKit          3D

  0  0  0  0  0  0  0  0  0  0999 V3000
M  V30 BEGIN CTAB
M  V30 COUNTS 56 59 0 0 0
M  V30 BEGIN ATOM
M  V30 1 C -1.931298 2.589904 -0.339545 0
M  V30 2 C -0.987425 1.785429 -1.197424 0
M  V30 3 C -1.755632 0.753724 -1.990437 0
M  V30 4 C 0.096122 1.147375 -0.457371 0
M  V30 5 C 1.317381 1.810315 -0.279123 0
M  V30 6 N 2.090961 0.968525 0.436154 0
M  V30 7 N 1.380512 -0.125622 0.670664 0
M  V30 8 C 1.781038 -1.210813 1.355276 0
M  V30 9 N 3.074532 -1.327319 1.936375 0
M  V30 10 C 3.193231 -0.858090 3.303022 0
M  V30 11 C 2.853744 0.577140 3.460322 0
M  V30 12 C 3.889433 1.507738 3.325325 0
M  V30 13 C 3.653450 2.871431 3.458160 0
M  V30 14 C 2.391272 3.359457 3.727787 0
M  V30 15 C 1.392513 2.418615 3.855235 0
M  V30 16 C 1.567494 1.056330 3.733975 0
M  V30 17 C 0.875266 -2.237378 1.482512 0
M  V30 18 C -0.419194 -2.214439 0.946926 0
M  V30 19 N -1.263912 -3.333728 1.159917 0
M  V30 20 C -2.601338 -3.522824 0.659133 0
M  V30 21 C -2.706905 -3.614199 -0.829766 0 CFG=2
M  V30 22 C -1.922203 -4.751912 -1.414260 0
M  V30 23 C -1.893477 -4.383004 -2.882988 0 CFG=1
M  V30 24 O -3.154933 -4.576138 -3.400563 0
M  V30 25 C -1.610496 -2.891240 -2.762569 0
M  V30 26 N -2.305720 -2.464557 -1.560675 0
M  V30 27 N -0.733303 -1.089623 0.277910 0
M  V30 28 C 0.127036 -0.092258 0.146751 0
M  V30 29 H -1.529796 3.616187 -0.206398 0
M  V30 30 H -2.058290 2.168452 0.672478 0
M  V30 31 H -2.871412 2.708147 -0.900214 0
M  V30 32 H -0.611097 2.517733 -1.972392 0
M  V30 33 H -1.106031 -0.069823 -2.334747 0
M  V30 34 H -2.663704 0.412981 -1.434435 0
M  V30 35 H -2.181039 1.217945 -2.926080 0
M  V30 36 H 1.630427 2.788037 -0.619009 0
M  V30 37 H 3.907338 -1.728819 1.417411 0
M  V30 38 H 2.482823 -1.403239 3.985378 0
M  V30 39 H 4.197482 -1.088018 3.731341 0
M  V30 40 H 4.904938 1.187915 3.113268 0
M  V30 41 H 4.462093 3.603988 3.353194 0
M  V30 42 H 2.123917 4.396350 3.845213 0
M  V30 43 H 0.368720 2.734051 4.068906 0
M  V30 44 H 0.774100 0.331261 3.836601 0
M  V30 45 H 1.207644 -3.111398 2.037968 0
M  V30 46 H -0.887565 -4.111350 1.740784 0
M  V30 47 H -3.285050 -2.700283 0.993798 0
M  V30 48 H -3.064157 -4.443564 1.067712 0
M  V30 49 H -3.780892 -3.797799 -1.067358 0
M  V30 50 H -0.882340 -4.747317 -1.033365 0
M  V30 51 H -2.432580 -5.720412 -1.243294 0
M  V30 52 H -1.099256 -4.909901 -3.435328 0
M  V30 53 H -3.758347 -3.808514 -3.282472 0
M  V30 54 H -0.522390 -2.781495 -2.567373 0
M  V30 55 H -1.965682 -2.338310 -3.650527 0
M  V30 56 H -3.134498 -1.881509 -1.888941 0
M  V30 END ATOM
M  V30 BEGIN BOND
M  V30 1 1 1 2
M  V30 2 1 2 3
M  V30 3 1 2 4
M  V30 4 1 4 5
M  V30 5 2 5 6
M  V30 6 1 6 7
M  V30 7 1 7 8
M  V30 8 1 8 9
M  V30 9 1 9 10
M  V30 10 1 10 11
M  V30 11 2 11 12
M  V30 12 1 12 13
M  V30 13 2 13 14
M  V30 14 1 14 15
M  V30 15 2 15 16
M  V30 16 2 8 17
M  V30 17 1 17 18
M  V30 18 1 18 19
M  V30 19 1 19 20
M  V30 20 1 20 21
M  V30 21 1 21 22
M  V30 22 1 22 23
M  V30 23 1 23 24
M  V30 24 1 23 25
M  V30 25 1 25 26
M  V30 26 2 18 27
M  V30 27 1 27 28
M  V30 28 2 28 4
M  V30 29 1 28 7
M  V30 30 1 16 11
M  V30 31 1 26 21
M  V30 32 1 1 29
M  V30 33 1 1 30
M  V30 34 1 1 31
M  V30 35 1 2 32
M  V30 36 1 3 33
M  V30 37 1 3 34
M  V30 38 1 3 35
M  V30 39 1 5 36
M  V30 40 1 9 37
M  V30 41 1 10 38
M  V30 42 1 10 39
M  V30 43 1 12 40
M  V30 44 1 13 41
M  V30 45 1 14 42
M  V30 46 1 15 43
M  V30 47 1 16 44
M  V30 48 1 17 45
M  V30 49 1 19 46
M  V30 50 1 20 47
M  V30 51 1 20 48
M  V30 52 1 21 49 CFG=1
M  V30 53 1 22 50
M  V30 54 1 22 51
M  V30 55 1 23 52 CFG=3
M  V30 56 1 24 53
M  V30 57 1 25 54
M  V30 58 1 25 55
M  V30 59 1 26 56
M  V30 END BOND
M  V30 END CTAB
M  END
>  <Dataset>  (850) 
ChEMBL_Kinases

>  <Ligand_Instance>  (850) 
nan

>  <PDB_ID>  (850) 
nan

>  <Standardized_SMILES>  (850) 
CC(C)c1cnn2c(NCc3ccccc3)cc(NC[C@@H]3C[C@@H](O)CN3)nc12

>  <Name>  (850) 
nan

>  <Pocket>  (850) 
nan

>  <ATP_Site>  (850) 
nan

>  <Peripheral>  (850) 
nan

>  <Num_H_Atoms_ProtBoundConf>  (850) 
nan

>  <Num_Resolved_Atoms>  (850) 
nan

>  <Num_Not_Resolved_Atoms>  (850) 
nan

$$$$
CHEMBL4570911
     RDKit          3D

  0  0  0  0  0  0  0  0  0  0999 V3000
M  V30 BEGIN CTAB
M  V30 COUNTS 48 51 0 0 0
M  V30 BEGIN ATOM
M  V30 1 C 3.964126 -3.795971 0.638497 0
M  V30 2 N 4.504370 -3.744133 -0.696115 0
M  V30 3 N 5.471007 -4.539051 -1.181340 0
M  V30 4 C 5.731324 -4.219365 -2.456314 0
M  V30 5 C 4.874003 -3.179871 -2.743043 0
M  V30 6 C 4.107957 -2.882891 -1.644675 0
M  V30 7 C 3.106131 -1.826307 -1.640711 0
M  V30 8 C 2.831557 -1.027018 -2.732218 0
M  V30 9 O 1.877535 -0.170822 -2.406769 0
M  V30 10 C 1.489837 -0.337755 -1.170772 0
M  V30 11 C 0.453324 0.437593 -0.485090 0
M  V30 12 O -0.083780 1.333748 -1.188087 0
M  V30 13 N 0.125204 0.151999 0.868785 0
M  V30 14 C -0.918573 0.954481 1.513156 0
M  V30 15 C -0.271059 1.610177 2.691010 0
M  V30 16 N 0.179672 0.507093 3.542025 0
M  V30 17 C -0.977185 -0.089347 4.166670 0
M  V30 18 C -2.093628 -0.441748 3.270230 0
M  V30 19 C -2.043063 0.056092 1.866974 0
M  V30 20 C -3.346025 0.690203 1.451608 0
M  V30 21 C -3.804721 1.843161 2.059064 0
M  V30 22 C -4.974024 2.469986 1.732323 0
M  V30 23 C -5.763494 1.941177 0.739646 0
M  V30 24 F -6.933230 2.526707 0.379009 0
M  V30 25 C -5.351082 0.791603 0.101911 0
M  V30 26 F -6.071582 0.210238 -0.884107 0
M  V30 27 C -4.172130 0.192332 0.457890 0
M  V30 28 C 2.246391 -1.373532 -0.664020 0
M  V30 29 H 4.116423 -2.849726 1.210594 0
M  V30 30 H 4.449721 -4.638343 1.195168 0
M  V30 31 H 2.880555 -4.021766 0.683911 0
M  V30 32 H 6.475809 -4.722537 -3.063814 0
M  V30 33 H 4.887147 -2.728994 -3.739512 0
M  V30 34 H 3.258435 -1.016194 -3.722357 0
M  V30 35 H 0.624323 -0.616469 1.384206 0
M  V30 36 H -1.271482 1.684218 0.753217 0
M  V30 37 H -0.889449 2.306370 3.257156 0
M  V30 38 H 0.656256 2.127488 2.369168 0
M  V30 39 H 0.801949 0.836261 4.297560 0
M  V30 40 H -1.308051 0.609058 4.984997 0
M  V30 41 H -0.595773 -0.978865 4.713275 0
M  V30 42 H -2.259683 -1.558756 3.316824 0
M  V30 43 H -3.049817 -0.039087 3.720971 0
M  V30 44 H -1.982204 -0.854540 1.200548 0
M  V30 45 H -3.247897 2.323089 2.846666 0
M  V30 46 H -5.315026 3.372946 2.221087 0
M  V30 47 H -3.828502 -0.725044 -0.040675 0
M  V30 48 H 2.182430 -1.765101 0.320198 0
M  V30 END ATOM
M  V30 BEGIN BOND
M  V30 1 1 1 2
M  V30 2 1 2 3
M  V30 3 2 3 4
M  V30 4 1 4 5
M  V30 5 2 5 6
M  V30 6 1 6 7
M  V30 7 2 7 8
M  V30 8 1 8 9
M  V30 9 1 9 10
M  V30 10 1 10 11
M  V30 11 2 11 12
M  V30 12 1 11 13
M  V30 13 1 13 14
M  V30 14 1 14 15
M  V30 15 1 15 16
M  V30 16 1 16 17
M  V30 17 1 17 18
M  V30 18 1 18 19
M  V30 19 1 19 20
M  V30 20 2 20 21
M  V30 21 1 21 22
M  V30 22 2 22 23
M  V30 23 1 23 24
M  V30 24 1 23 25
M  V30 25 1 25 26
M  V30 26 2 25 27
M  V30 27 2 10 28
M  V30 28 1 6 2
M  V30 29 1 28 7
M  V30 30 1 19 14
M  V30 31 1 27 20
M  V30 32 1 1 29
M  V30 33 1 1 30
M  V30 34 1 1 31
M  V30 35 1 4 32
M  V30 36 1 5 33
M  V30 37 1 8 34
M  V30 38 1 13 35
M  V30 39 1 14 36
M  V30 40 1 15 37
M  V30 41 1 15 38
M  V30 42 1 16 39
M  V30 43 1 17 40
M  V30 44 1 17 41
M  V30 45 1 18 42
M  V30 46 1 18 43
M  V30 47 1 19 44
M  V30 48 1 21 45
M  V30 49 1 22 46
M  V30 50 1 27 47
M  V30 51 1 28 48
M  V30 END BOND
M  V30 END CTAB
M  END
>  <Dataset>  (851) 
ChEMBL_Kinases

>  <Ligand_Instance>  (851) 
nan

>  <PDB_ID>  (851) 
nan

>  <Standardized_SMILES>  (851) 
Cn1nccc1-c1coc(C(=O)NC2CNCCC2c2ccc(F)c(F)c2)c1

>  <Name>  (851) 
nan

>  <Pocket>  (851) 
nan

>  <ATP_Site>  (851) 
nan

>  <Peripheral>  (851) 
nan

>  <Num_H_Atoms_ProtBoundConf>  (851) 
nan

>  <Num_Resolved_Atoms>  (851) 
nan

>  <Num_Not_Resolved_Atoms>  (851) 
nan

$$$$
CHEMBL4570849
     RDKit          3D

  0  0  0  0  0  0  0  0  0  0999 V3000
M  V30 BEGIN CTAB
M  V30 COUNTS 57 60 0 0 0
M  V30 BEGIN ATOM
M  V30 1 C 3.620150 -2.196743 -0.931364 0
M  V30 2 N 2.698602 -2.921839 -0.087230 0
M  V30 3 C 2.166098 -2.287195 1.042824 0
M  V30 4 N 2.509425 -1.030443 1.366305 0
M  V30 5 C 2.039980 -0.391801 2.440143 0
M  V30 6 N 2.541823 0.952235 2.592717 0
M  V30 7 C 1.854067 2.070597 2.007160 0
M  V30 8 C 2.296101 3.386774 2.127131 0
M  V30 9 N 1.578853 4.381657 1.538485 0
M  V30 10 C 0.448033 4.122604 0.840148 0
M  V30 11 C -0.204237 5.267702 0.273338 0
M  V30 12 N -0.744386 6.180961 -0.187755 0
M  V30 13 C -0.031534 2.813036 0.694946 0
M  V30 14 O -1.187577 2.742046 -0.043365 0
M  V30 15 C -1.916294 1.590378 -0.369122 0
M  V30 16 C -2.095750 1.435306 -1.872758 0
M  V30 17 C -2.750288 2.730416 -2.298920 0
M  V30 18 C -4.199673 2.636958 -1.915976 0
M  V30 19 N -4.342677 1.696919 -0.851867 0
M  V30 20 C -3.345650 1.737894 0.170504 0
M  V30 21 C 0.703184 1.811908 1.295919 0
M  V30 22 N 1.163180 -0.976184 3.302644 0
M  V30 23 C 0.767665 -2.243750 3.045267 0
M  V30 24 C 1.278505 -2.867195 1.922111 0
M  V30 25 C 0.792534 -4.214985 1.700894 0
M  V30 26 C 0.864087 -5.102372 2.777462 0
M  V30 27 C 0.432587 -6.422952 2.734953 0
M  V30 28 C -0.104337 -6.896736 1.551792 0
M  V30 29 C -0.191114 -6.052227 0.472077 0
M  V30 30 O -0.715271 -6.456670 -0.737152 0
M  V30 31 C -0.815647 -5.606315 -1.864060 0
M  V30 32 C 0.248292 -4.747820 0.554689 0
M  V30 33 H 3.004949 -1.468432 -1.531776 0
M  V30 34 H 4.251655 -1.540261 -0.262128 0
M  V30 35 H 4.244900 -2.828064 -1.569374 0
M  V30 36 H 2.522293 -3.887631 -0.419863 0
M  V30 37 H 3.413544 1.168571 3.127283 0
M  V30 38 H 3.204244 3.571731 2.690376 0
M  V30 39 H -1.411727 0.718159 0.069234 0
M  V30 40 H -1.184329 1.178447 -2.412354 0
M  V30 41 H -2.789666 0.577165 -2.001958 0
M  V30 42 H -2.593215 2.951655 -3.367585 0
M  V30 43 H -2.332476 3.602786 -1.723884 0
M  V30 44 H -4.739763 2.226129 -2.817852 0
M  V30 45 H -4.652175 3.626850 -1.702594 0
M  V30 46 H -4.638850 0.758997 -1.165355 0
M  V30 47 H -3.471452 2.631335 0.798231 0
M  V30 48 H -3.532000 0.846374 0.823251 0
M  V30 49 H 0.299219 0.837351 1.157096 0
M  V30 50 H 0.074572 -2.719669 3.718792 0
M  V30 51 H 1.275335 -4.793551 3.737412 0
M  V30 52 H 0.508519 -7.061666 3.585530 0
M  V30 53 H -0.464416 -7.898536 1.421077 0
M  V30 54 H -1.479433 -4.775221 -1.586500 0
M  V30 55 H -1.177163 -6.122260 -2.755050 0
M  V30 56 H 0.195135 -5.181171 -2.123584 0
M  V30 57 H 0.175584 -4.075003 -0.289276 0
M  V30 END ATOM
M  V30 BEGIN BOND
M  V30 1 1 1 2
M  V30 2 1 2 3
M  V30 3 2 3 4
M  V30 4 1 4 5
M  V30 5 1 5 6
M  V30 6 1 6 7
M  V30 7 2 7 8
M  V30 8 1 8 9
M  V30 9 2 9 10
M  V30 10 1 10 11
M  V30 11 3 11 12
M  V30 12 1 10 13
M  V30 13 1 13 14
M  V30 14 1 14 15
M  V30 15 1 15 16
M  V30 16 1 16 17
M  V30 17 1 17 18
M  V30 18 1 18 19
M  V30 19 1 19 20
M  V30 20 2 13 21
M  V30 21 2 5 22
M  V30 22 1 22 23
M  V30 23 2 23 24
M  V30 24 1 24 25
M  V30 25 2 25 26
M  V30 26 1 26 27
M  V30 27 2 27 28
M  V30 28 1 28 29
M  V30 29 1 29 30
M  V30 30 1 30 31
M  V30 31 2 29 32
M  V30 32 1 24 3
M  V30 33 1 32 25
M  V30 34 1 21 7
M  V30 35 1 20 15
M  V30 36 1 1 33
M  V30 37 1 1 34
M  V30 38 1 1 35
M  V30 39 1 2 36
M  V30 40 1 6 37
M  V30 41 1 8 38
M  V30 42 1 15 39
M  V30 43 1 16 40
M  V30 44 1 16 41
M  V30 45 1 17 42
M  V30 46 1 17 43
M  V30 47 1 18 44
M  V30 48 1 18 45
M  V30 49 1 19 46
M  V30 50 1 20 47
M  V30 51 1 20 48
M  V30 52 1 21 49
M  V30 53 1 23 50
M  V30 54 1 26 51
M  V30 55 1 27 52
M  V30 56 1 28 53
M  V30 57 1 31 54
M  V30 58 1 31 55
M  V30 59 1 31 56
M  V30 60 1 32 57
M  V30 END BOND
M  V30 END CTAB
M  END
>  <Dataset>  (852) 
ChEMBL_Kinases

>  <Ligand_Instance>  (852) 
nan

>  <PDB_ID>  (852) 
nan

>  <Standardized_SMILES>  (852) 
CNc1nc(Nc2cnc(C#N)c(OC3CCCNC3)c2)ncc1-c1cccc(OC)c1

>  <Name>  (852) 
nan

>  <Pocket>  (852) 
nan

>  <ATP_Site>  (852) 
nan

>  <Peripheral>  (852) 
nan

>  <Num_H_Atoms_ProtBoundConf>  (852) 
nan

>  <Num_Resolved_Atoms>  (852) 
nan

>  <Num_Not_Resolved_Atoms>  (852) 
nan

$$$$
CHEMBL4570737
     RDKit          3D

  0  0  0  0  0  0  0  0  0  0999 V3000
M  V30 BEGIN CTAB
M  V30 COUNTS 48 51 0 0 0
M  V30 BEGIN ATOM
M  V30 1 C 0.587959 -6.677495 1.423469 0
M  V30 2 C 0.884398 -5.285291 1.005319 0
M  V30 3 C 0.325386 -4.220838 1.711147 0
M  V30 4 C 0.619524 -2.938288 1.298491 0
M  V30 5 C 1.430305 -2.615989 0.232828 0
M  V30 6 C 1.695384 -1.237893 -0.147531 0
M  V30 7 C 2.517876 -0.951054 -1.212999 0
M  V30 8 C 2.689977 0.387317 -1.461872 0
M  V30 9 N 3.484855 0.729742 -2.493532 0
M  V30 10 C 3.742891 1.987785 -2.852322 0
M  V30 11 N 3.162047 2.970398 -2.124161 0
M  V30 12 C 2.368710 2.636151 -1.094618 0
M  V30 13 C 2.083443 1.351385 -0.700088 0
M  V30 14 C 1.265718 1.049591 0.359361 0
M  V30 15 N 0.675755 2.073601 1.146915 0
M  V30 16 C -0.214520 2.031256 2.276968 0
M  V30 17 C -1.626554 1.754338 1.870303 0 CFG=1
M  V30 18 C -1.856176 0.457135 1.160924 0
M  V30 19 C -3.341904 0.154812 1.191913 0
M  V30 20 C -4.202786 1.377734 1.386601 0
M  V30 21 N -3.894344 2.071631 2.619542 0
M  V30 22 C -2.558786 1.759382 3.087170 0
M  V30 23 N 1.127051 -0.257587 0.564485 0
M  V30 24 C 1.945563 -3.714833 -0.415055 0
M  V30 25 C 1.696988 -5.024439 -0.061193 0
M  V30 26 H -0.439279 -6.960852 1.067725 0
M  V30 27 H 1.315652 -7.379562 0.975061 0
M  V30 28 H 0.618058 -6.780691 2.541678 0
M  V30 29 H -0.307048 -4.456727 2.541938 0
M  V30 30 H 0.148584 -2.186746 1.899578 0
M  V30 31 H 3.004983 -1.692297 -1.825474 0
M  V30 32 H 4.392044 2.139598 -3.692162 0
M  V30 33 H 1.964976 3.491507 -0.593308 0
M  V30 34 H 0.883138 3.053270 0.910908 0
M  V30 35 H -0.093946 2.929628 2.882225 0
M  V30 36 H 0.155002 1.194062 2.965778 0
M  V30 37 H -2.040449 2.551767 1.210604 0
M  V30 38 H -1.473290 0.467286 0.121362 0
M  V30 39 H -1.373539 -0.360638 1.726596 0
M  V30 40 H -3.608334 -0.632846 1.925077 0
M  V30 41 H -3.602905 -0.268638 0.199371 0
M  V30 42 H -4.162593 2.059722 0.520388 0
M  V30 43 H -5.245110 1.009791 1.468248 0
M  V30 44 H -3.938122 3.094569 2.415104 0
M  V30 45 H -2.218653 2.406472 3.892172 0
M  V30 46 H -2.580249 0.715204 3.458297 0
M  V30 47 H 2.594666 -3.578034 -1.265431 0
M  V30 48 H 2.141677 -5.851608 -0.623075 0
M  V30 END ATOM
M  V30 BEGIN BOND
M  V30 1 1 1 2
M  V30 2 2 2 3
M  V30 3 1 3 4
M  V30 4 2 4 5
M  V30 5 1 5 6
M  V30 6 2 6 7
M  V30 7 1 7 8
M  V30 8 2 8 9
M  V30 9 1 9 10
M  V30 10 2 10 11
M  V30 11 1 11 12
M  V30 12 2 12 13
M  V30 13 1 13 14
M  V30 14 1 14 15
M  V30 15 1 15 16
M  V30 16 1 16 17
M  V30 17 1 17 18
M  V30 18 1 18 19
M  V30 19 1 19 20
M  V30 20 1 20 21
M  V30 21 1 21 22
M  V30 22 2 14 23
M  V30 23 1 5 24
M  V30 24 2 24 25
M  V30 25 1 25 2
M  V30 26 1 23 6
M  V30 27 1 13 8
M  V30 28 1 22 17
M  V30 29 1 1 26
M  V30 30 1 1 27
M  V30 31 1 1 28
M  V30 32 1 3 29
M  V30 33 1 4 30
M  V30 34 1 7 31
M  V30 35 1 10 32
M  V30 36 1 12 33
M  V30 37 1 15 34
M  V30 38 1 16 35
M  V30 39 1 16 36
M  V30 40 1 17 37 CFG=3
M  V30 41 1 18 38
M  V30 42 1 18 39
M  V30 43 1 19 40
M  V30 44 1 19 41
M  V30 45 1 20 42
M  V30 46 1 20 43
M  V30 47 1 21 44
M  V30 48 1 22 45
M  V30 49 1 22 46
M  V30 50 1 24 47
M  V30 51 1 25 48
M  V30 END BOND
M  V30 END CTAB
M  END
>  <Dataset>  (853) 
ChEMBL_Kinases

>  <Ligand_Instance>  (853) 
nan

>  <PDB_ID>  (853) 
nan

>  <Standardized_SMILES>  (853) 
Cc1ccc(-c2cc3ncncc3c(NC[C@H]3CCCNC3)n2)cc1

>  <Name>  (853) 
nan

>  <Pocket>  (853) 
nan

>  <ATP_Site>  (853) 
nan

>  <Peripheral>  (853) 
nan

>  <Num_H_Atoms_ProtBoundConf>  (853) 
nan

>  <Num_Resolved_Atoms>  (853) 
nan

>  <Num_Not_Resolved_Atoms>  (853) 
nan

$$$$
CHEMBL4635451
     RDKit          3D

  0  0  0  0  0  0  0  0  0  0999 V3000
M  V30 BEGIN CTAB
M  V30 COUNTS 61 65 0 0 0
M  V30 BEGIN ATOM
M  V30 1 C 5.232584 -4.150260 3.860407 0
M  V30 2 C 4.266559 -3.086976 4.294171 0
M  V30 3 N 3.393514 -2.767249 3.176990 0
M  V30 4 C 4.059915 -2.109569 2.115011 0
M  V30 5 C 3.296548 -1.225430 1.211156 0
M  V30 6 N 2.067040 -0.728061 1.735418 0
M  V30 7 C 0.878012 -0.208378 1.173778 0
M  V30 8 C 0.669268 1.110785 1.554316 0
M  V30 9 C -0.459757 1.763225 1.080457 0
M  V30 10 C -1.372515 1.145035 0.250135 0
M  V30 11 C -2.520930 1.882440 -0.197961 0
M  V30 12 C -3.493609 2.501858 -0.557361 0
M  V30 13 C -4.679917 3.267102 -0.974195 0
M  V30 14 C -4.616103 3.345889 -2.473134 0
M  V30 15 O -4.607652 4.559434 -0.414242 0
M  V30 16 C -5.948241 2.671114 -0.488018 0
M  V30 17 N -6.453180 2.392498 0.852831 0
M  V30 18 C -7.663836 1.848579 0.679588 0
M  V30 19 C -8.507429 1.509651 -0.528953 0
M  V30 20 S -7.235880 2.132953 -1.782408 0
M  V30 21 C -1.153837 -0.163379 -0.119243 0
M  V30 22 C -0.031664 -0.811214 0.351992 0
M  V30 23 N 0.100107 -2.138241 -0.075099 0
M  V30 24 C 0.865779 -3.088840 -0.758505 0
M  V30 25 N 1.721400 -4.048319 -0.298432 0
M  V30 26 C 2.378918 -4.854186 -1.127734 0
M  V30 27 N 2.228782 -4.757501 -2.447828 0
M  V30 28 C 1.407539 -3.842529 -2.984670 0
M  V30 29 N 1.102561 -3.562824 -4.277666 0
M  V30 30 C 0.232531 -2.560325 -4.323526 0
M  V30 31 C -0.014554 -2.202378 -3.018658 0
M  V30 32 C 0.715612 -2.995862 -2.128799 0
M  V30 33 C 2.098606 -0.781443 3.184088 0
M  V30 34 C 2.181556 -2.213223 3.665685 0
M  V30 35 H 6.292151 -3.861067 4.024867 0
M  V30 36 H 5.045942 -5.092827 4.428497 0
M  V30 37 H 5.083481 -4.396760 2.805026 0
M  V30 38 H 3.643718 -3.488494 5.116504 0
M  V30 39 H 4.780868 -2.163799 4.666278 0
M  V30 40 H 4.614969 -2.876106 1.508917 0
M  V30 41 H 4.867456 -1.476440 2.582074 0
M  V30 42 H 3.169810 -1.744446 0.236183 0
M  V30 43 H 3.918055 -0.307337 0.934306 0
M  V30 44 H 1.318160 1.701425 2.204370 0
M  V30 45 H -0.658404 2.788499 1.352897 0
M  V30 46 H -5.631905 3.301555 -2.903957 0
M  V30 47 H -4.179628 4.325618 -2.760101 0
M  V30 48 H -3.998886 2.519885 -2.892327 0
M  V30 49 H -4.794612 4.451620 0.562889 0
M  V30 50 H -7.916163 1.694117 1.749201 0
M  V30 51 H -9.361211 1.113372 -0.270379 0
M  V30 52 H -1.872091 -0.640410 -0.768834 0
M  V30 53 H -0.681889 -2.811602 0.182973 0
M  V30 54 H 3.044240 -5.595200 -0.684291 0
M  V30 55 H 1.442609 -4.004068 -5.158091 0
M  V30 56 H -0.235427 -2.067179 -5.188278 0
M  V30 57 H -0.682701 -1.413303 -2.709494 0
M  V30 58 H 3.002123 -0.196585 3.510117 0
M  V30 59 H 1.200909 -0.330878 3.597722 0
M  V30 60 H 1.250965 -2.724274 3.343010 0
M  V30 61 H 2.171921 -2.200308 4.755763 0
M  V30 END ATOM
M  V30 BEGIN BOND
M  V30 1 1 1 2
M  V30 2 1 2 3
M  V30 3 1 3 4
M  V30 4 1 4 5
M  V30 5 1 5 6
M  V30 6 1 6 7
M  V30 7 2 7 8
M  V30 8 1 8 9
M  V30 9 2 9 10
M  V30 10 1 10 11
M  V30 11 3 11 12
M  V30 12 1 12 13
M  V30 13 1 13 14
M  V30 14 1 13 15
M  V30 15 1 13 16
M  V30 16 2 16 17
M  V30 17 1 17 18
M  V30 18 2 18 19
M  V30 19 1 19 20
M  V30 20 1 10 21
M  V30 21 2 21 22
M  V30 22 1 22 23
M  V30 23 1 23 24
M  V30 24 2 24 25
M  V30 25 1 25 26
M  V30 26 2 26 27
M  V30 27 1 27 28
M  V30 28 1 28 29
M  V30 29 1 29 30
M  V30 30 2 30 31
M  V30 31 1 31 32
M  V30 32 1 6 33
M  V30 33 1 33 34
M  V30 34 1 34 3
M  V30 35 1 22 7
M  V30 36 1 32 24
M  V30 37 1 20 16
M  V30 38 2 32 28
M  V30 39 1 1 35
M  V30 40 1 1 36
M  V30 41 1 1 37
M  V30 42 1 2 38
M  V30 43 1 2 39
M  V30 44 1 4 40
M  V30 45 1 4 41
M  V30 46 1 5 42
M  V30 47 1 5 43
M  V30 48 1 8 44
M  V30 49 1 9 45
M  V30 50 1 14 46
M  V30 51 1 14 47
M  V30 52 1 14 48
M  V30 53 1 15 49
M  V30 54 1 18 50
M  V30 55 1 19 51
M  V30 56 1 21 52
M  V30 57 1 23 53
M  V30 58 1 26 54
M  V30 59 1 29 55
M  V30 60 1 30 56
M  V30 61 1 31 57
M  V30 62 1 33 58
M  V30 63 1 33 59
M  V30 64 1 34 60
M  V30 65 1 34 61
M  V30 END BOND
M  V30 END CTAB
M  END
>  <Dataset>  (854) 
ChEMBL_Kinases

>  <Ligand_Instance>  (854) 
nan

>  <PDB_ID>  (854) 
nan

>  <Standardized_SMILES>  (854) 
CCN1CCN(c2ccc(C#CC(C)(O)c3nccs3)cc2Nc2ncnc3[nH]ccc23)CC1

>  <Name>  (854) 
nan

>  <Pocket>  (854) 
nan

>  <ATP_Site>  (854) 
nan

>  <Peripheral>  (854) 
nan

>  <Num_H_Atoms_ProtBoundConf>  (854) 
nan

>  <Num_Resolved_Atoms>  (854) 
nan

>  <Num_Not_Resolved_Atoms>  (854) 
nan

$$$$
CHEMBL4570588
     RDKit          3D

  0  0  0  0  0  0  0  0  0  0999 V3000
M  V30 BEGIN CTAB
M  V30 COUNTS 50 53 0 0 0
M  V30 BEGIN ATOM
M  V30 1 C 5.730935 -3.520531 3.554642 0
M  V30 2 N 4.443561 -3.770732 2.934196 0
M  V30 3 C 3.909027 -5.118393 2.889839 0
M  V30 4 C 3.717419 -2.686010 2.374031 0
M  V30 5 C 4.255116 -1.415380 2.433172 0
M  V30 6 C 3.548603 -0.349950 1.886407 0
M  V30 7 C 2.322079 -0.547863 1.288360 0
M  V30 8 C 1.505053 0.499797 0.687632 0
M  V30 9 C 1.879897 1.826130 0.653151 0
M  V30 10 C 1.133097 2.841734 0.094030 0
M  V30 11 N 1.575366 4.117415 0.102962 0
M  V30 12 C 0.771505 5.051852 -0.471655 0
M  V30 13 C -0.450033 4.679083 -1.037121 0
M  V30 14 N -0.900405 3.392435 -1.048345 0
M  V30 15 C -0.076415 2.490235 -0.468889 0
M  V30 16 C -0.460374 1.162760 -0.438909 0
M  V30 17 N -1.710591 0.717553 -1.006815 0
M  V30 18 C -2.116465 -0.659229 -0.979658 0
M  V30 19 C -3.468410 -0.842659 -1.643875 0 CFG=2
M  V30 20 C -4.503018 0.126925 -1.201548 0
M  V30 21 N -5.594102 -0.468323 -0.469694 0
M  V30 22 C -5.165874 -1.593939 0.333376 0
M  V30 23 C -4.524734 -2.611652 -0.528816 0
M  V30 24 O -3.859996 -2.163594 -1.619908 0
M  V30 25 N 0.318584 0.244563 0.120069 0
M  V30 26 C 1.836405 -1.838525 1.259463 0
M  V30 27 N 2.524549 -2.873100 1.791475 0
M  V30 28 H 6.511165 -3.202644 2.848841 0
M  V30 29 H 5.565054 -2.646143 4.241918 0
M  V30 30 H 6.055615 -4.367386 4.191149 0
M  V30 31 H 4.444602 -5.760807 2.161032 0
M  V30 32 H 2.808651 -5.120993 2.732733 0
M  V30 33 H 4.044758 -5.636691 3.878903 0
M  V30 34 H 5.194366 -1.172193 2.875436 0
M  V30 35 H 3.941910 0.649993 1.917563 0
M  V30 36 H 2.822102 2.131842 1.086177 0
M  V30 37 H 1.037193 6.084127 -0.511941 0
M  V30 38 H -1.093970 5.431143 -1.498036 0
M  V30 39 H -2.316253 1.471398 -1.448576 0
M  V30 40 H -1.388163 -1.252823 -1.599051 0
M  V30 41 H -2.065902 -1.122759 0.022995 0
M  V30 42 H -3.259968 -0.629620 -2.727301 0
M  V30 43 H -4.958872 0.682058 -2.043517 0
M  V30 44 H -4.011903 0.859683 -0.496488 0
M  V30 45 H -6.141651 0.205085 0.074107 0
M  V30 46 H -6.078167 -2.032007 0.790531 0
M  V30 47 H -4.541261 -1.266739 1.198736 0
M  V30 48 H -3.855868 -3.277908 0.089161 0
M  V30 49 H -5.318800 -3.318004 -0.896851 0
M  V30 50 H 0.866107 -2.040651 0.794171 0
M  V30 END ATOM
M  V30 BEGIN BOND
M  V30 1 1 1 2
M  V30 2 1 2 3
M  V30 3 1 2 4
M  V30 4 2 4 5
M  V30 5 1 5 6
M  V30 6 2 6 7
M  V30 7 1 7 8
M  V30 8 2 8 9
M  V30 9 1 9 10
M  V30 10 2 10 11
M  V30 11 1 11 12
M  V30 12 2 12 13
M  V30 13 1 13 14
M  V30 14 2 14 15
M  V30 15 1 15 16
M  V30 16 1 16 17
M  V30 17 1 17 18
M  V30 18 1 18 19
M  V30 19 1 19 20
M  V30 20 1 20 21
M  V30 21 1 21 22
M  V30 22 1 22 23
M  V30 23 1 23 24
M  V30 24 2 16 25
M  V30 25 1 7 26
M  V30 26 2 26 27
M  V30 27 1 27 4
M  V30 28 1 25 8
M  V30 29 1 15 10
M  V30 30 1 24 19
M  V30 31 1 1 28
M  V30 32 1 1 29
M  V30 33 1 1 30
M  V30 34 1 3 31
M  V30 35 1 3 32
M  V30 36 1 3 33
M  V30 37 1 5 34
M  V30 38 1 6 35
M  V30 39 1 9 36
M  V30 40 1 12 37
M  V30 41 1 13 38
M  V30 42 1 17 39
M  V30 43 1 18 40
M  V30 44 1 18 41
M  V30 45 1 19 42 CFG=3
M  V30 46 1 20 43
M  V30 47 1 20 44
M  V30 48 1 21 45
M  V30 49 1 22 46
M  V30 50 1 22 47
M  V30 51 1 23 48
M  V30 52 1 23 49
M  V30 53 1 26 50
M  V30 END BOND
M  V30 END CTAB
M  END
>  <Dataset>  (855) 
ChEMBL_Kinases

>  <Ligand_Instance>  (855) 
nan

>  <PDB_ID>  (855) 
nan

>  <Standardized_SMILES>  (855) 
CN(C)c1ccc(-c2cc3nccnc3c(NC[C@@H]3CNCCO3)n2)cn1

>  <Name>  (855) 
nan

>  <Pocket>  (855) 
nan

>  <ATP_Site>  (855) 
nan

>  <Peripheral>  (855) 
nan

>  <Num_H_Atoms_ProtBoundConf>  (855) 
nan

>  <Num_Resolved_Atoms>  (855) 
nan

>  <Num_Not_Resolved_Atoms>  (855) 
nan

$$$$
CHEMBL4571737
     RDKit          3D

  0  0  0  0  0  0  0  0  0  0999 V3000
M  V30 BEGIN CTAB
M  V30 COUNTS 49 53 0 0 0
M  V30 BEGIN ATOM
M  V30 1 C 0.659171 -9.695758 -1.603354 0
M  V30 2 N 0.993099 -8.402403 -1.032063 0
M  V30 3 C 0.715029 -7.186736 -1.520829 0
M  V30 4 C 1.225598 -6.225340 -0.641071 0
M  V30 5 C 1.081336 -4.784841 -0.898830 0
M  V30 6 C 0.982186 -3.925395 0.175961 0
M  V30 7 N 0.848579 -2.595390 -0.044044 0
M  V30 8 C 0.814814 -2.135479 -1.301266 0
M  V30 9 C 0.693784 -0.889055 -1.910247 0
M  V30 10 C 0.559253 0.330330 -1.114822 0
M  V30 11 C 1.367600 1.424807 -1.531411 0
M  V30 12 S 0.906959 2.772572 -0.274364 0
M  V30 13 C -0.191648 1.786301 0.551026 0
M  V30 14 C -1.051709 2.145469 1.782823 0
M  V30 15 O -1.825752 1.314934 2.293891 0
M  V30 16 N -0.868818 3.462818 2.242670 0
M  V30 17 C -1.636347 3.856191 3.379586 0
M  V30 18 C -2.642785 4.942918 3.091833 0
M  V30 19 O -2.092661 6.122501 2.623912 0
M  V30 20 C -0.798418 4.182124 4.608950 0
M  V30 21 C 0.183902 5.313471 4.401107 0
M  V30 22 C -1.000403 5.422096 5.361469 0
M  V30 23 C -0.210633 0.611246 -0.033694 0
M  V30 24 C 0.721354 -1.016504 -3.284633 0
M  V30 25 N 0.860710 -2.354684 -3.523907 0
M  V30 26 N 0.912968 -2.987812 -2.346438 0
M  V30 27 C 1.048106 -4.325307 -2.199128 0
M  V30 28 C 1.810685 -6.949008 0.377142 0
M  V30 29 N 1.648079 -8.257833 0.102529 0
M  V30 30 H 0.253608 -10.364879 -0.791643 0
M  V30 31 H -0.178336 -9.624849 -2.342926 0
M  V30 32 H 1.515742 -10.220359 -2.047403 0
M  V30 33 H 0.185829 -6.980243 -2.439195 0
M  V30 34 H 1.009126 -4.293917 1.194414 0
M  V30 35 H 2.127473 1.462166 -2.435776 0
M  V30 36 H -0.212676 4.149973 1.800790 0
M  V30 37 H -2.254782 2.980646 3.679095 0
M  V30 38 H -3.390676 4.501233 2.412914 0
M  V30 39 H -3.179336 5.183124 4.032580 0
M  V30 40 H -2.692282 6.885378 2.903314 0
M  V30 41 H -0.369122 3.333702 5.187954 0
M  V30 42 H 1.170750 5.278235 4.887586 0
M  V30 43 H 0.172567 5.871172 3.452766 0
M  V30 44 H -1.701871 6.217825 5.057618 0
M  V30 45 H -0.792593 5.437849 6.450454 0
M  V30 46 H -0.848983 -0.222004 0.311414 0
M  V30 47 H 0.644699 -0.195575 -3.984686 0
M  V30 48 H 1.127334 -5.014865 -3.025887 0
M  V30 49 H 2.292390 -6.448295 1.209420 0
M  V30 END ATOM
M  V30 BEGIN BOND
M  V30 1 1 1 2
M  V30 2 1 2 3
M  V30 3 2 3 4
M  V30 4 1 4 5
M  V30 5 1 5 6
M  V30 6 2 6 7
M  V30 7 1 7 8
M  V30 8 2 8 9
M  V30 9 1 9 10
M  V30 10 2 10 11
M  V30 11 1 11 12
M  V30 12 1 12 13
M  V30 13 1 13 14
M  V30 14 2 14 15
M  V30 15 1 14 16
M  V30 16 1 16 17
M  V30 17 1 17 18
M  V30 18 1 18 19
M  V30 19 1 17 20
M  V30 20 1 20 21
M  V30 21 1 21 22
M  V30 22 2 13 23
M  V30 23 1 9 24
M  V30 24 2 24 25
M  V30 25 1 25 26
M  V30 26 1 26 27
M  V30 27 1 4 28
M  V30 28 2 28 29
M  V30 29 1 29 2
M  V30 30 2 27 5
M  V30 31 1 26 8
M  V30 32 1 23 10
M  V30 33 1 22 20
M  V30 34 1 1 30
M  V30 35 1 1 31
M  V30 36 1 1 32
M  V30 37 1 3 33
M  V30 38 1 6 34
M  V30 39 1 11 35
M  V30 40 1 16 36
M  V30 41 1 17 37
M  V30 42 1 18 38
M  V30 43 1 18 39
M  V30 44 1 19 40
M  V30 45 1 20 41
M  V30 46 1 21 42
M  V30 47 1 21 43
M  V30 48 1 22 44
M  V30 49 1 22 45
M  V30 50 1 23 46
M  V30 51 1 24 47
M  V30 52 1 27 48
M  V30 53 1 28 49
M  V30 END BOND
M  V30 END CTAB
M  END
>  <Dataset>  (856) 
ChEMBL_Kinases

>  <Ligand_Instance>  (856) 
nan

>  <PDB_ID>  (856) 
nan

>  <Standardized_SMILES>  (856) 
Cn1cc(-c2cnc3c(-c4csc(C(=O)NC(CO)C5CC5)c4)cnn3c2)cn1

>  <Name>  (856) 
nan

>  <Pocket>  (856) 
nan

>  <ATP_Site>  (856) 
nan

>  <Peripheral>  (856) 
nan

>  <Num_H_Atoms_ProtBoundConf>  (856) 
nan

>  <Num_Resolved_Atoms>  (856) 
nan

>  <Num_Not_Resolved_Atoms>  (856) 
nan

$$$$
CHEMBL4578497
     RDKit          3D

  0  0  0  0  0  0  0  0  0  0999 V3000
M  V30 BEGIN CTAB
M  V30 COUNTS 79 84 0 0 0
M  V30 BEGIN ATOM
M  V30 1 N -2.026528 -2.567421 5.166524 0
M  V30 2 C -2.056096 -1.583195 4.586281 0
M  V30 3 C -2.088276 -0.347026 3.828683 0
M  V30 4 C -1.713527 0.774573 4.586784 0
M  V30 5 N -1.737679 1.926556 3.905739 0
M  V30 6 C -2.069850 2.087731 2.641153 0
M  V30 7 N -2.067196 3.277514 1.872254 0
M  V30 8 C -1.477732 4.482714 2.467825 0
M  V30 9 C -1.486854 5.601165 1.489872 0
M  V30 10 C -2.368275 6.695249 1.549996 0
M  V30 11 C -2.277643 7.671123 0.587891 0
M  V30 12 C -1.371911 7.681443 -0.469376 0
M  V30 13 C -0.502151 6.588110 -0.515956 0
M  V30 14 C -0.584968 5.611885 0.437288 0
M  V30 15 O 0.265760 4.525791 0.405591 0
M  V30 16 C 1.221867 4.424294 -0.615421 0
M  V30 17 F 0.546513 4.389994 -1.818673 0
M  V30 18 F 1.996935 3.284522 -0.493465 0
M  V30 19 F 2.084175 5.501636 -0.653188 0
M  V30 20 N -2.428546 1.015269 1.917903 0
M  V30 21 C -2.444567 -0.211026 2.487936 0
M  V30 22 N -2.731406 -1.503453 1.972598 0
M  V30 23 C -3.015933 -2.742213 1.444166 0
M  V30 24 C -2.210940 -3.219778 0.272149 0
M  V30 25 C -2.682970 -4.581887 -0.154805 0
M  V30 26 C -1.805273 -5.170632 -1.237213 0
M  V30 27 C -1.821805 -4.234333 -2.430947 0
M  V30 28 C -1.365704 -2.893776 -1.990616 0
M  V30 29 C -2.263352 -2.298161 -0.907527 0
M  V30 30 C 0.049208 -2.852604 -1.424763 0
M  V30 31 N 1.038277 -2.836370 -2.420733 0
M  V30 32 C 2.404179 -2.722459 -2.094894 0 CFG=1
M  V30 33 C 2.766020 -1.540515 -1.233974 0
M  V30 34 C 4.292625 -1.516062 -1.178552 0
M  V30 35 C 4.861701 -2.695534 -0.452797 0 CFG=2
M  V30 36 N 6.185018 -2.959472 -1.040530 0
M  V30 37 C 3.995017 -3.914239 -0.530726 0
M  V30 38 C 3.146204 -3.982622 -1.760930 0
M  V30 39 C 0.120461 -3.933180 -0.381148 0
M  V30 40 C -0.353585 -5.278378 -0.834184 0
M  V30 41 C -0.778967 -3.436366 0.769861 0
M  V30 42 H -1.426469 0.745798 5.621943 0
M  V30 43 H -2.453611 3.371653 0.911061 0
M  V30 44 H -0.396312 4.204696 2.621728 0
M  V30 45 H -1.940093 4.719997 3.422307 0
M  V30 46 H -3.083063 6.720350 2.357560 0
M  V30 47 H -2.979423 8.506127 0.669026 0
M  V30 48 H -1.310187 8.446606 -1.212368 0
M  V30 49 H 0.200535 6.594513 -1.333545 0
M  V30 50 H -2.965780 -1.143832 0.983680 0
M  V30 51 H -2.817150 -3.509519 2.288321 0
M  V30 52 H -4.092790 -2.914920 1.256862 0
M  V30 53 H -3.709959 -4.549880 -0.524647 0
M  V30 54 H -2.612142 -5.248100 0.731797 0
M  V30 55 H -2.245208 -6.121331 -1.540340 0
M  V30 56 H -1.132925 -4.573633 -3.228565 0
M  V30 57 H -2.843451 -4.124704 -2.823962 0
M  V30 58 H -1.405807 -2.183496 -2.859281 0
M  V30 59 H -1.771996 -1.312347 -0.720497 0
M  V30 60 H -3.310156 -2.228647 -1.234678 0
M  V30 61 H 0.089181 -1.882369 -0.835037 0
M  V30 62 H 0.753331 -2.187532 -3.173777 0
M  V30 63 H 2.882855 -2.412184 -3.097012 0
M  V30 64 H 2.462571 -0.593042 -1.722568 0
M  V30 65 H 2.401882 -1.539704 -0.219322 0
M  V30 66 H 4.709992 -1.492905 -2.206492 0
M  V30 67 H 4.590000 -0.585767 -0.625451 0
M  V30 68 H 5.082898 -2.399487 0.598672 0
M  V30 69 H 6.922895 -2.448745 -0.538396 0
M  V30 70 H 6.374456 -3.980207 -1.005669 0
M  V30 71 H 3.455687 -4.117315 0.425035 0
M  V30 72 H 4.714550 -4.785942 -0.593070 0
M  V30 73 H 3.861907 -4.304477 -2.587341 0
M  V30 74 H 2.479506 -4.871061 -1.668108 0
M  V30 75 H 1.108329 -4.060262 0.089218 0
M  V30 76 H 0.204038 -5.568736 -1.735175 0
M  V30 77 H -0.214967 -5.970449 0.021943 0
M  V30 78 H -0.799259 -4.209863 1.546812 0
M  V30 79 H -0.305636 -2.484438 1.093066 0
M  V30 END ATOM
M  V30 BEGIN BOND
M  V30 1 3 1 2
M  V30 2 1 2 3
M  V30 3 2 3 4
M  V30 4 1 4 5
M  V30 5 2 5 6
M  V30 6 1 6 7
M  V30 7 1 7 8
M  V30 8 1 8 9
M  V30 9 2 9 10
M  V30 10 1 10 11
M  V30 11 2 11 12
M  V30 12 1 12 13
M  V30 13 2 13 14
M  V30 14 1 14 15
M  V30 15 1 15 16
M  V30 16 1 16 17
M  V30 17 1 16 18
M  V30 18 1 16 19
M  V30 19 1 6 20
M  V30 20 2 20 21
M  V30 21 1 21 22
M  V30 22 1 22 23
M  V30 23 1 23 24
M  V30 24 1 24 25
M  V30 25 1 25 26
M  V30 26 1 26 27
M  V30 27 1 27 28
M  V30 28 1 28 29
M  V30 29 1 28 30
M  V30 30 1 30 31
M  V30 31 1 31 32
M  V30 32 1 32 33
M  V30 33 1 33 34
M  V30 34 1 34 35
M  V30 35 1 35 36
M  V30 36 1 35 37
M  V30 37 1 37 38
M  V30 38 1 30 39
M  V30 39 1 39 40
M  V30 40 1 39 41
M  V30 41 1 21 3
M  V30 42 1 29 24
M  V30 43 1 38 32
M  V30 44 1 14 9
M  V30 45 1 41 24
M  V30 46 1 40 26
M  V30 47 1 4 42
M  V30 48 1 7 43
M  V30 49 1 8 44
M  V30 50 1 8 45
M  V30 51 1 10 46
M  V30 52 1 11 47
M  V30 53 1 12 48
M  V30 54 1 13 49
M  V30 55 1 22 50
M  V30 56 1 23 51
M  V30 57 1 23 52
M  V30 58 1 25 53
M  V30 59 1 25 54
M  V30 60 1 26 55
M  V30 61 1 27 56
M  V30 62 1 27 57
M  V30 63 1 28 58
M  V30 64 1 29 59
M  V30 65 1 29 60
M  V30 66 1 30 61
M  V30 67 1 31 62
M  V30 68 1 32 63 CFG=3
M  V30 69 1 33 64
M  V30 70 1 33 65
M  V30 71 1 34 66
M  V30 72 1 34 67
M  V30 73 1 35 68 CFG=1
M  V30 74 1 36 69
M  V30 75 1 36 70
M  V30 76 1 37 71
M  V30 77 1 37 72
M  V30 78 1 38 73
M  V30 79 1 38 74
M  V30 80 1 39 75
M  V30 81 1 40 76
M  V30 82 1 40 77
M  V30 83 1 41 78
M  V30 84 1 41 79
M  V30 END BOND
M  V30 END CTAB
M  END
>  <Dataset>  (857) 
ChEMBL_Kinases

>  <Ligand_Instance>  (857) 
nan

>  <PDB_ID>  (857) 
nan

>  <Standardized_SMILES>  (857) 
N#Cc1cnc(NCc2ccccc2OC(F)(F)F)nc1NCC12CC3CC(C1)C(N[C@H]1CC[C@H](N)CC1)C(C3)C2

>  <Name>  (857) 
nan

>  <Pocket>  (857) 
nan

>  <ATP_Site>  (857) 
nan

>  <Peripheral>  (857) 
nan

>  <Num_H_Atoms_ProtBoundConf>  (857) 
nan

>  <Num_Resolved_Atoms>  (857) 
nan

>  <Num_Not_Resolved_Atoms>  (857) 
nan

$$$$
CHEMBL4578472
     RDKit          3D

  0  0  0  0  0  0  0  0  0  0999 V3000
M  V30 BEGIN CTAB
M  V30 COUNTS 49 52 0 0 0
M  V30 BEGIN ATOM
M  V30 1 C 2.096947 -4.136240 -2.005896 0
M  V30 2 C 1.379266 -4.505838 -0.716943 0
M  V30 3 C -0.048577 -4.887092 -1.140097 0
M  V30 4 C 2.078440 -5.679827 -0.116921 0
M  V30 5 O 1.214122 -3.404790 0.129933 0
M  V30 6 C 2.204885 -2.634120 0.666051 0
M  V30 7 O 3.389919 -2.945952 0.368879 0
M  V30 8 N 1.830316 -1.551223 1.508591 0
M  V30 9 C 0.430404 -1.253044 1.808130 0
M  V30 10 C 0.294601 0.019198 2.590181 0
M  V30 11 C 1.043635 1.145747 1.984101 0
M  V30 12 C 2.335740 0.718585 1.783295 0
M  V30 13 S 3.160525 2.207425 1.031069 0
M  V30 14 C 1.703664 3.200163 1.076143 0
M  V30 15 N 1.529736 4.462201 0.677749 0
M  V30 16 C 0.334488 5.067229 0.790562 0
M  V30 17 N -0.611967 4.307874 1.317497 0
M  V30 18 C -0.472639 3.042148 1.726419 0
M  V30 19 N -1.683271 2.533887 2.236168 0
M  V30 20 C -2.712532 1.938146 1.455611 0
M  V30 21 C -3.848749 1.468839 2.111786 0
M  V30 22 C -4.856789 0.889243 1.365346 0
M  V30 23 C -4.664824 0.814581 0.001769 0
M  V30 24 C -3.547767 1.271633 -0.678500 0
M  V30 25 Cl -3.400660 1.131269 -2.402721 0
M  V30 26 C -2.541434 1.854001 0.097105 0
M  V30 27 C 0.747418 2.408599 1.617174 0
M  V30 28 C 2.820529 -0.655673 2.134612 0
M  V30 29 H 3.153450 -4.387628 -1.862897 0
M  V30 30 H 1.719294 -4.829000 -2.785576 0
M  V30 31 H 1.872767 -3.086826 -2.208139 0
M  V30 32 H -0.738301 -4.845819 -0.249592 0
M  V30 33 H -0.081848 -5.943834 -1.513354 0
M  V30 34 H -0.436814 -4.246749 -1.936513 0
M  V30 35 H 2.671081 -6.211080 -0.899778 0
M  V30 36 H 2.737488 -5.417539 0.741576 0
M  V30 37 H 1.303768 -6.441863 0.189530 0
M  V30 38 H 0.087167 -2.103720 2.428404 0
M  V30 39 H -0.186451 -1.240106 0.887648 0
M  V30 40 H 0.756250 -0.113413 3.611480 0
M  V30 41 H -0.783114 0.227572 2.716752 0
M  V30 42 H 0.308165 6.068033 0.444353 0
M  V30 43 H -1.765245 2.634427 3.273233 0
M  V30 44 H -3.950872 1.551779 3.190066 0
M  V30 45 H -5.760154 0.508629 1.819980 0
M  V30 46 H -5.442837 0.360239 -0.628356 0
M  V30 47 H -1.648994 2.226469 -0.389976 0
M  V30 48 H 3.823526 -0.841263 1.763579 0
M  V30 49 H 2.749147 -0.802729 3.236091 0
M  V30 END ATOM
M  V30 BEGIN BOND
M  V30 1 1 1 2
M  V30 2 1 2 3
M  V30 3 1 2 4
M  V30 4 1 2 5
M  V30 5 1 5 6
M  V30 6 2 6 7
M  V30 7 1 6 8
M  V30 8 1 8 9
M  V30 9 1 9 10
M  V30 10 1 10 11
M  V30 11 2 11 12
M  V30 12 1 12 13
M  V30 13 1 13 14
M  V30 14 2 14 15
M  V30 15 1 15 16
M  V30 16 2 16 17
M  V30 17 1 17 18
M  V30 18 1 18 19
M  V30 19 1 19 20
M  V30 20 2 20 21
M  V30 21 1 21 22
M  V30 22 2 22 23
M  V30 23 1 23 24
M  V30 24 1 24 25
M  V30 25 2 24 26
M  V30 26 2 18 27
M  V30 27 1 12 28
M  V30 28 1 28 8
M  V30 29 1 27 11
M  V30 30 1 27 14
M  V30 31 1 26 20
M  V30 32 1 1 29
M  V30 33 1 1 30
M  V30 34 1 1 31
M  V30 35 1 3 32
M  V30 36 1 3 33
M  V30 37 1 3 34
M  V30 38 1 4 35
M  V30 39 1 4 36
M  V30 40 1 4 37
M  V30 41 1 9 38
M  V30 42 1 9 39
M  V30 43 1 10 40
M  V30 44 1 10 41
M  V30 45 1 16 42
M  V30 46 1 19 43
M  V30 47 1 21 44
M  V30 48 1 22 45
M  V30 49 1 23 46
M  V30 50 1 26 47
M  V30 51 1 28 48
M  V30 52 1 28 49
M  V30 END BOND
M  V30 END CTAB
M  END
>  <Dataset>  (858) 
ChEMBL_Kinases

>  <Ligand_Instance>  (858) 
nan

>  <PDB_ID>  (858) 
nan

>  <Standardized_SMILES>  (858) 
CC(C)(C)OC(=O)N1CCc2c(sc3ncnc(Nc4cccc(Cl)c4)c23)C1

>  <Name>  (858) 
nan

>  <Pocket>  (858) 
nan

>  <ATP_Site>  (858) 
nan

>  <Peripheral>  (858) 
nan

>  <Num_H_Atoms_ProtBoundConf>  (858) 
nan

>  <Num_Resolved_Atoms>  (858) 
nan

>  <Num_Not_Resolved_Atoms>  (858) 
nan

$$$$
CHEMBL4632384
     RDKit          3D

  0  0  0  0  0  0  0  0  0  0999 V3000
M  V30 BEGIN CTAB
M  V30 COUNTS 47 50 0 0 0
M  V30 BEGIN ATOM
M  V30 1 C -1.994883 -5.412463 3.994567 0
M  V30 2 C -3.116308 -4.650773 3.661155 0
M  V30 3 C -2.988511 -3.632040 2.724351 0
M  V30 4 C -1.765255 -3.416233 2.165053 0
M  V30 5 C -1.653102 -2.345797 1.185610 0
M  V30 6 C -0.466163 -1.671833 1.081931 0
M  V30 7 C -0.285256 -0.630113 0.159509 0
M  V30 8 N 0.924172 0.070140 0.036231 0
M  V30 9 C 1.845735 1.023478 -0.445908 0 CFG=1
M  V30 10 C 1.470229 2.413833 -0.040410 0
M  V30 11 C 2.665801 3.284235 0.285650 0
M  V30 12 C 3.333587 2.949345 1.577307 0
M  V30 13 C 3.072989 1.568504 2.093870 0
M  V30 14 N 3.570142 0.528597 1.230791 0
M  V30 15 C 3.312998 0.731767 -0.150983 0
M  V30 16 C -1.358784 -0.300116 -0.654453 0
M  V30 17 C -1.339750 0.692489 -1.612451 0
M  V30 18 C -2.404948 1.015890 -2.421935 0
M  V30 19 N -3.553529 0.330980 -2.288401 0
M  V30 20 C -3.680587 -0.657670 -1.385009 0
M  V30 21 C -2.587363 -0.944883 -0.597852 0
M  V30 22 C -2.656990 -1.948513 0.339443 0
M  V30 23 C -0.630734 -4.150574 2.470371 0
M  V30 24 C -0.780454 -5.149504 3.396396 0
M  V30 25 H -2.060048 -6.205307 4.713324 0
M  V30 26 H -4.039071 -4.899576 4.158710 0
M  V30 27 H -3.848504 -3.046035 2.466698 0
M  V30 28 H 0.337821 -1.971945 1.742873 0
M  V30 29 H 1.588515 -0.330400 0.733153 0
M  V30 30 H 1.822428 1.011236 -1.585618 0
M  V30 31 H 0.824421 2.442527 0.862915 0
M  V30 32 H 0.949388 2.916613 -0.873017 0
M  V30 33 H 3.385261 3.359290 -0.572484 0
M  V30 34 H 2.235110 4.334127 0.328151 0
M  V30 35 H 2.965100 3.663946 2.351578 0
M  V30 36 H 4.436204 3.126196 1.557808 0
M  V30 37 H 2.001394 1.453338 2.354216 0
M  V30 38 H 3.627637 1.486361 3.057072 0
M  V30 39 H 4.544027 0.245584 1.408464 0
M  V30 40 H 3.946167 1.425399 -0.692897 0
M  V30 41 H 3.490121 -0.269099 -0.647102 0
M  V30 42 H -0.457338 1.254689 -1.758474 0
M  V30 43 H -2.333102 1.803008 -3.155395 0
M  V30 44 H -4.597746 -1.216109 -1.267390 0
M  V30 45 H -3.583503 -2.491896 0.437629 0
M  V30 46 H 0.339405 -3.989907 2.035675 0
M  V30 47 H 0.083366 -5.745059 3.660872 0
M  V30 END ATOM
M  V30 BEGIN BOND
M  V30 1 2 1 2
M  V30 2 1 2 3
M  V30 3 2 3 4
M  V30 4 1 4 5
M  V30 5 2 5 6
M  V30 6 1 6 7
M  V30 7 1 7 8
M  V30 8 1 8 9
M  V30 9 1 9 10
M  V30 10 1 10 11
M  V30 11 1 11 12
M  V30 12 1 12 13
M  V30 13 1 13 14
M  V30 14 1 14 15
M  V30 15 2 7 16
M  V30 16 1 16 17
M  V30 17 2 17 18
M  V30 18 1 18 19
M  V30 19 2 19 20
M  V30 20 1 20 21
M  V30 21 2 21 22
M  V30 22 1 4 23
M  V30 23 2 23 24
M  V30 24 1 24 1
M  V30 25 1 22 5
M  V30 26 1 15 9
M  V30 27 1 21 16
M  V30 28 1 1 25
M  V30 29 1 2 26
M  V30 30 1 3 27
M  V30 31 1 6 28
M  V30 32 1 8 29
M  V30 33 1 9 30 CFG=3
M  V30 34 1 10 31
M  V30 35 1 10 32
M  V30 36 1 11 33
M  V30 37 1 11 34
M  V30 38 1 12 35
M  V30 39 1 12 36
M  V30 40 1 13 37
M  V30 41 1 13 38
M  V30 42 1 14 39
M  V30 43 1 15 40
M  V30 44 1 15 41
M  V30 45 1 17 42
M  V30 46 1 18 43
M  V30 47 1 20 44
M  V30 48 1 22 45
M  V30 49 1 23 46
M  V30 50 1 24 47
M  V30 END BOND
M  V30 END CTAB
M  END
>  <Dataset>  (859) 
ChEMBL_Kinases

>  <Ligand_Instance>  (859) 
nan

>  <PDB_ID>  (859) 
nan

>  <Standardized_SMILES>  (859) 
c1ccc(-c2cc(N[C@H]3CCCCNC3)c3ccncc3c2)cc1

>  <Name>  (859) 
nan

>  <Pocket>  (859) 
nan

>  <ATP_Site>  (859) 
nan

>  <Peripheral>  (859) 
nan

>  <Num_H_Atoms_ProtBoundConf>  (859) 
nan

>  <Num_Resolved_Atoms>  (859) 
nan

>  <Num_Not_Resolved_Atoms>  (859) 
nan

$$$$
CHEMBL4632385
     RDKit          3D

  0  0  0  0  0  0  0  0  0  0999 V3000
M  V30 BEGIN CTAB
M  V30 COUNTS 54 57 0 0 0
M  V30 BEGIN ATOM
M  V30 1 C 3.917715 -5.994009 0.997112 0
M  V30 2 C 4.298913 -4.666685 1.521626 0
M  V30 3 C 5.195420 -4.734963 2.571213 0
M  V30 4 C 5.651515 -3.565860 3.174555 0
M  V30 5 C 5.227045 -2.301569 2.748582 0
M  V30 6 N 5.476392 -1.031855 3.114914 0
M  V30 7 N 4.762880 -0.219555 2.323266 0
M  V30 8 C 4.051329 -0.963257 1.444140 0
M  V30 9 C 3.143232 -0.504713 0.403884 0
M  V30 10 O 2.544908 -1.312052 -0.347660 0
M  V30 11 N 2.859804 0.851466 0.151545 0
M  V30 12 C 2.058058 1.650200 -0.732030 0
M  V30 13 C 0.586662 1.450413 -0.627547 0
M  V30 14 C 0.048844 1.742893 0.754116 0
M  V30 15 C -1.359539 1.330418 0.951424 0
M  V30 16 N -1.999536 0.811432 -0.254230 0
M  V30 17 C -3.436235 0.717981 -0.143303 0
M  V30 18 O -3.707232 1.131893 1.013231 0
M  V30 19 N -4.285558 0.252587 -1.157008 0
M  V30 20 C -5.642822 0.307720 -0.674523 0
M  V30 21 C -6.542980 1.328960 -0.763354 0
M  V30 22 C -7.796579 1.163400 -0.227858 0
M  V30 23 C -8.147930 -0.024433 0.396116 0
M  V30 24 C -7.238056 -1.065626 0.489638 0
M  V30 25 C -5.963369 -0.890173 -0.057839 0
M  V30 26 C -1.380609 0.388841 -1.517939 0
M  V30 27 C 0.093335 0.137062 -1.106694 0
M  V30 28 C 4.323308 -2.286897 1.687348 0
M  V30 29 C 3.870598 -3.440891 1.088915 0
M  V30 30 H 3.239150 -6.504695 1.697942 0
M  V30 31 H 3.425596 -5.864828 0.026509 0
M  V30 32 H 4.838843 -6.617106 0.816150 0
M  V30 33 H 5.599278 -5.647581 2.993124 0
M  V30 34 H 6.355408 -3.579167 4.000990 0
M  V30 35 H 6.127793 -0.833440 3.891971 0
M  V30 36 H 3.420291 1.457907 0.836782 0
M  V30 37 H 2.277386 2.733615 -0.626966 0
M  V30 38 H 2.313151 1.401910 -1.820701 0
M  V30 39 H 0.133484 2.222238 -1.336892 0
M  V30 40 H 0.187344 2.804552 1.006362 0
M  V30 41 H 0.688418 1.134750 1.460238 0
M  V30 42 H -1.955253 2.205436 1.282045 0
M  V30 43 H -1.470022 0.537851 1.744659 0
M  V30 44 H -3.773485 -0.028390 -2.023818 0
M  V30 45 H -6.146991 2.200673 -1.272655 0
M  V30 46 H -8.464218 2.017972 -0.333976 0
M  V30 47 H -9.165911 -0.061834 0.790774 0
M  V30 48 H -7.651853 -1.914544 0.996223 0
M  V30 49 H -5.342937 -1.770718 0.076746 0
M  V30 50 H -1.771501 -0.559627 -1.879223 0
M  V30 51 H -1.366065 1.210436 -2.234368 0
M  V30 52 H -0.014721 -0.539554 -0.229783 0
M  V30 53 H 0.621047 -0.317870 -1.947063 0
M  V30 54 H 3.177212 -3.474166 0.271987 0
M  V30 END ATOM
M  V30 BEGIN BOND
M  V30 1 1 1 2
M  V30 2 2 2 3
M  V30 3 1 3 4
M  V30 4 2 4 5
M  V30 5 1 5 6
M  V30 6 1 6 7
M  V30 7 2 7 8
M  V30 8 1 8 9
M  V30 9 2 9 10
M  V30 10 1 9 11
M  V30 11 1 11 12
M  V30 12 1 12 13
M  V30 13 1 13 14
M  V30 14 1 14 15
M  V30 15 1 15 16
M  V30 16 1 16 17
M  V30 17 2 17 18
M  V30 18 1 17 19
M  V30 19 1 19 20
M  V30 20 2 20 21
M  V30 21 1 21 22
M  V30 22 2 22 23
M  V30 23 1 23 24
M  V30 24 2 24 25
M  V30 25 1 16 26
M  V30 26 1 26 27
M  V30 27 1 8 28
M  V30 28 2 28 29
M  V30 29 1 29 2
M  V30 30 1 28 5
M  V30 31 1 27 13
M  V30 32 1 25 20
M  V30 33 1 1 30
M  V30 34 1 1 31
M  V30 35 1 1 32
M  V30 36 1 3 33
M  V30 37 1 4 34
M  V30 38 1 6 35
M  V30 39 1 11 36
M  V30 40 1 12 37
M  V30 41 1 12 38
M  V30 42 1 13 39
M  V30 43 1 14 40
M  V30 44 1 14 41
M  V30 45 1 15 42
M  V30 46 1 15 43
M  V30 47 1 19 44
M  V30 48 1 21 45
M  V30 49 1 22 46
M  V30 50 1 23 47
M  V30 51 1 24 48
M  V30 52 1 25 49
M  V30 53 1 26 50
M  V30 54 1 26 51
M  V30 55 1 27 52
M  V30 56 1 27 53
M  V30 57 1 29 54
M  V30 END BOND
M  V30 END CTAB
M  END
>  <Dataset>  (860) 
ChEMBL_Kinases

>  <Ligand_Instance>  (860) 
nan

>  <PDB_ID>  (860) 
nan

>  <Standardized_SMILES>  (860) 
Cc1ccc2[nH]nc(C(=O)NCC3CCN(C(=O)Nc4ccccc4)CC3)c2c1

>  <Name>  (860) 
nan

>  <Pocket>  (860) 
nan

>  <ATP_Site>  (860) 
nan

>  <Peripheral>  (860) 
nan

>  <Num_H_Atoms_ProtBoundConf>  (860) 
nan

>  <Num_Resolved_Atoms>  (860) 
nan

>  <Num_Not_Resolved_Atoms>  (860) 
nan

$$$$
CHEMBL4578462
     RDKit          3D

  0  0  0  0  0  0  0  0  0  0999 V3000
M  V30 BEGIN CTAB
M  V30 COUNTS 29 31 0 0 0
M  V30 BEGIN ATOM
M  V30 1 C 0.885549 -3.115714 0.338957 0
M  V30 2 C 1.308033 -2.476159 1.612149 0
M  V30 3 N 1.473764 -3.012897 2.848523 0
M  V30 4 N 1.863231 -2.080010 3.708764 0
M  V30 5 C 1.982062 -0.882777 3.120206 0
M  V30 6 C 2.330602 0.404998 3.470942 0
M  V30 7 C 2.342853 1.443485 2.561492 0
M  V30 8 N 1.992166 1.135324 1.291084 0
M  V30 9 C 1.641036 -0.108901 0.888069 0
M  V30 10 N 1.302270 -0.241132 -0.488698 0
M  V30 11 C -0.047130 -0.108882 -0.917323 0
M  V30 12 C -0.588746 -0.169856 -2.203887 0
M  V30 13 N -1.940179 0.010780 -2.125582 0
M  V30 14 N -2.285048 0.183175 -0.860246 0
M  V30 15 C -3.635952 0.402416 -0.385520 0
M  V30 16 C -1.154126 0.113211 -0.124183 0
M  V30 17 C 1.628677 -1.146236 1.796147 0
M  V30 18 H 1.445824 -2.716333 -0.524810 0
M  V30 19 H 1.064757 -4.206036 0.439817 0
M  V30 20 H -0.231443 -3.025234 0.194307 0
M  V30 21 H 2.065639 -2.214021 4.730776 0
M  V30 22 H 2.602864 0.585404 4.510381 0
M  V30 23 H 2.615270 2.461296 2.825050 0
M  V30 24 H 2.030098 -0.435378 -1.210193 0
M  V30 25 H 0.010203 -0.336774 -3.100083 0
M  V30 26 H -4.220366 1.001051 -1.104917 0
M  V30 27 H -4.100660 -0.611201 -0.223183 0
M  V30 28 H -3.593845 0.881787 0.615659 0
M  V30 29 H -1.064510 0.212214 0.964996 0
M  V30 END ATOM
M  V30 BEGIN BOND
M  V30 1 1 1 2
M  V30 2 2 2 3
M  V30 3 1 3 4
M  V30 4 1 4 5
M  V30 5 2 5 6
M  V30 6 1 6 7
M  V30 7 2 7 8
M  V30 8 1 8 9
M  V30 9 1 9 10
M  V30 10 1 10 11
M  V30 11 1 11 12
M  V30 12 2 12 13
M  V30 13 1 13 14
M  V30 14 1 14 15
M  V30 15 1 14 16
M  V30 16 2 9 17
M  V30 17 1 17 2
M  V30 18 1 17 5
M  V30 19 2 16 11
M  V30 20 1 1 18
M  V30 21 1 1 19
M  V30 22 1 1 20
M  V30 23 1 4 21
M  V30 24 1 6 22
M  V30 25 1 7 23
M  V30 26 1 10 24
M  V30 27 1 12 25
M  V30 28 1 15 26
M  V30 29 1 15 27
M  V30 30 1 15 28
M  V30 31 1 16 29
M  V30 END BOND
M  V30 END CTAB
M  END
>  <Dataset>  (861) 
ChEMBL_Kinases

>  <Ligand_Instance>  (861) 
nan

>  <PDB_ID>  (861) 
nan

>  <Standardized_SMILES>  (861) 
Cc1n[nH]c2ccnc(Nc3cnn(C)c3)c12

>  <Name>  (861) 
nan

>  <Pocket>  (861) 
nan

>  <ATP_Site>  (861) 
nan

>  <Peripheral>  (861) 
nan

>  <Num_H_Atoms_ProtBoundConf>  (861) 
nan

>  <Num_Resolved_Atoms>  (861) 
nan

>  <Num_Not_Resolved_Atoms>  (861) 
nan

$$$$
CHEMBL4632416
     RDKit          3D

  0  0  0  0  0  0  0  0  0  0999 V3000
M  V30 BEGIN CTAB
M  V30 COUNTS 67 71 0 0 0
M  V30 BEGIN ATOM
M  V30 1 C 3.091721 0.170279 0.801349 0
M  V30 2 C 1.991775 0.753119 1.268011 0
M  V30 3 C 1.322062 1.818399 0.483243 0
M  V30 4 C 0.203775 2.504136 0.897045 0
M  V30 5 C -0.452756 3.385739 0.062191 0
M  V30 6 C -0.032477 3.615158 -1.191377 0
M  V30 7 O -0.641737 4.481047 -2.096841 0
M  V30 8 C -1.801654 5.192998 -1.724013 0
M  V30 9 C 1.113771 2.971661 -1.731326 0
M  V30 10 F 1.612363 3.133917 -2.990342 0
M  V30 11 C 1.741699 2.086365 -0.833735 0
M  V30 12 C 1.201137 0.243729 2.415895 0
M  V30 13 C 0.542155 0.595913 3.559233 0
M  V30 14 C -0.362384 -0.341577 4.067772 0
M  V30 15 N -1.044134 0.156913 5.205365 0
M  V30 16 C -0.902223 1.350014 5.965011 0
M  V30 17 C -2.124410 1.582666 6.849025 0
M  V30 18 C -3.378472 1.790374 5.987690 0
M  V30 19 F -3.678301 0.738824 5.178809 0
M  V30 20 F -4.483264 2.110372 6.765628 0
M  V30 21 F -3.071763 2.928012 5.222416 0
M  V30 22 C -0.515321 -1.557110 3.370506 0
M  V30 23 N -1.453851 -2.409853 3.944499 0
M  V30 24 C -1.471548 -3.480004 3.143918 0
M  V30 25 C -0.554284 -3.118173 2.217222 0
M  V30 26 C -0.046959 -3.695137 0.901963 0
M  V30 27 C -1.155719 -3.975884 0.089514 0
M  V30 28 C -0.816944 -4.474328 -1.163978 0
M  V30 29 C 0.496027 -4.673725 -1.568007 0
M  V30 30 C 0.709983 -5.137442 -2.953410 0
M  V30 31 O 1.118154 -6.201108 -3.491315 0
M  V30 32 N 0.346657 -4.075122 -3.877454 0
M  V30 33 C 0.336670 -3.930665 -5.349809 0
M  V30 34 C -0.862129 -3.151022 -5.887954 0
M  V30 35 C 0.567187 -2.604038 -5.943974 0
M  V30 36 C 1.563564 -4.398988 -0.762792 0
M  V30 37 C 2.974149 -4.581549 -1.101941 0
M  V30 38 C 1.257098 -3.905692 0.476704 0
M  V30 39 N 0.173070 -1.932940 2.177420 0
M  V30 40 N 0.657625 -0.896834 2.297370 0
M  V30 41 H 3.491401 -0.596258 1.468978 0
M  V30 42 H 3.596697 0.366003 -0.090055 0
M  V30 43 H -0.167584 2.343268 1.901467 0
M  V30 44 H -1.351244 3.898362 0.430074 0
M  V30 45 H -1.612984 6.072215 -1.097923 0
M  V30 46 H -2.419384 5.425040 -2.647966 0
M  V30 47 H -2.454353 4.492403 -1.113009 0
M  V30 48 H 2.611133 1.599705 -1.232851 0
M  V30 49 H 0.900656 1.586749 3.836770 0
M  V30 50 H -1.787469 -0.476850 5.546651 0
M  V30 51 H -0.641670 2.250435 5.365155 0
M  V30 52 H -0.055538 1.188357 6.694533 0
M  V30 53 H -2.256506 0.711654 7.516547 0
M  V30 54 H -1.994278 2.504176 7.421486 0
M  V30 55 H -1.922342 -4.434169 2.995453 0
M  V30 56 H -2.174486 -3.862847 0.309026 0
M  V30 57 H -1.603824 -4.712365 -1.853592 0
M  V30 58 H 0.014876 -3.144456 -3.456381 0
M  V30 59 H 0.688181 -4.811361 -5.885694 0
M  V30 60 H -1.286633 -3.458993 -6.848504 0
M  V30 61 H -1.528223 -2.707334 -5.145472 0
M  V30 62 H 0.806246 -1.713914 -5.316560 0
M  V30 63 H 1.002476 -2.512087 -6.969428 0
M  V30 64 H 3.244331 -4.000418 -1.983365 0
M  V30 65 H 3.660652 -4.287054 -0.280533 0
M  V30 66 H 3.126388 -5.661570 -1.400231 0
M  V30 67 H 1.953935 -3.627353 1.260668 0
M  V30 END ATOM
M  V30 BEGIN BOND
M  V30 1 2 1 2
M  V30 2 1 2 3
M  V30 3 2 3 4
M  V30 4 1 4 5
M  V30 5 2 5 6
M  V30 6 1 6 7
M  V30 7 1 7 8
M  V30 8 1 6 9
M  V30 9 1 9 10
M  V30 10 2 9 11
M  V30 11 1 2 12
M  V30 12 1 12 13
M  V30 13 2 13 14
M  V30 14 1 14 15
M  V30 15 1 15 16
M  V30 16 1 16 17
M  V30 17 1 17 18
M  V30 18 1 18 19
M  V30 19 1 18 20
M  V30 20 1 18 21
M  V30 21 1 14 22
M  V30 22 2 22 23
M  V30 23 1 23 24
M  V30 24 2 24 25
M  V30 25 1 25 26
M  V30 26 2 26 27
M  V30 27 1 27 28
M  V30 28 2 28 29
M  V30 29 1 29 30
M  V30 30 2 30 31
M  V30 31 1 30 32
M  V30 32 1 32 33
M  V30 33 1 33 34
M  V30 34 1 34 35
M  V30 35 1 29 36
M  V30 36 1 36 37
M  V30 37 2 36 38
M  V30 38 1 25 39
M  V30 39 1 39 40
M  V30 40 1 11 3
M  V30 41 2 40 12
M  V30 42 1 39 22
M  V30 43 1 38 26
M  V30 44 1 35 33
M  V30 45 1 1 41
M  V30 46 1 1 42
M  V30 47 1 4 43
M  V30 48 1 5 44
M  V30 49 1 8 45
M  V30 50 1 8 46
M  V30 51 1 8 47
M  V30 52 1 11 48
M  V30 53 1 13 49
M  V30 54 1 15 50
M  V30 55 1 16 51
M  V30 56 1 16 52
M  V30 57 1 17 53
M  V30 58 1 17 54
M  V30 59 1 24 55
M  V30 60 1 27 56
M  V30 61 1 28 57
M  V30 62 1 32 58
M  V30 63 1 33 59
M  V30 64 1 34 60
M  V30 65 1 34 61
M  V30 66 1 35 62
M  V30 67 1 35 63
M  V30 68 1 37 64
M  V30 69 1 37 65
M  V30 70 1 37 66
M  V30 71 1 38 67
M  V30 END BOND
M  V30 END CTAB
M  END
>  <Dataset>  (862) 
ChEMBL_Kinases

>  <Ligand_Instance>  (862) 
nan

>  <PDB_ID>  (862) 
nan

>  <Standardized_SMILES>  (862) 
C=C(c1ccc(OC)c(F)c1)c1cc(NCCC(F)(F)F)c2ncc(-c3ccc(C(=O)NC4CC4)c(C)c3)n2n1

>  <Name>  (862) 
nan

>  <Pocket>  (862) 
nan

>  <ATP_Site>  (862) 
nan

>  <Peripheral>  (862) 
nan

>  <Num_H_Atoms_ProtBoundConf>  (862) 
nan

>  <Num_Resolved_Atoms>  (862) 
nan

>  <Num_Not_Resolved_Atoms>  (862) 
nan

$$$$
CHEMBL4578265
     RDKit          3D

  0  0  0  0  0  0  0  0  0  0999 V3000
M  V30 BEGIN CTAB
M  V30 COUNTS 49 52 0 0 0
M  V30 BEGIN ATOM
M  V30 1 C -1.403945 -7.510989 3.089743 0
M  V30 2 N -0.728674 -6.927982 1.931867 0
M  V30 3 C -0.499220 -5.642584 1.586897 0
M  V30 4 C 0.194033 -5.624250 0.373174 0
M  V30 5 C 0.613965 -4.394222 -0.306970 0
M  V30 6 C 0.924890 -3.336371 0.555419 0
M  V30 7 N 1.313090 -2.196685 -0.051040 0
M  V30 8 C 1.398177 -2.076374 -1.389778 0
M  V30 9 C 1.769040 -1.011756 -2.187675 0
M  V30 10 C 2.170419 0.290853 -1.657040 0
M  V30 11 C 3.299286 0.960896 -2.156839 0
M  V30 12 S 3.339382 2.533322 -1.142656 0
M  V30 13 C 1.899326 2.111749 -0.216376 0
M  V30 14 C 1.427545 3.062708 0.814935 0
M  V30 15 O 2.091015 4.134590 0.975150 0
M  V30 16 N 0.280527 2.839077 1.627282 0
M  V30 17 C 0.145981 3.985743 2.508049 0
M  V30 18 C -1.072600 3.762803 3.374809 0
M  V30 19 C -2.351627 3.631290 2.615484 0
M  V30 20 N -2.410825 2.553343 1.680743 0
M  V30 21 C -2.645319 4.963354 1.933145 0
M  V30 22 F -2.752703 5.922339 2.946809 0
M  V30 23 F -3.805782 4.913987 1.207694 0
M  V30 24 C 1.495961 0.931266 -0.664912 0
M  V30 25 C 1.678594 -1.433681 -3.497968 0
M  V30 26 N 1.266555 -2.712628 -3.500904 0
M  V30 27 N 1.105466 -3.075218 -2.226933 0
M  V30 28 C 0.706706 -4.253864 -1.676169 0
M  V30 29 C 0.357407 -6.969212 0.027293 0
M  V30 30 N -0.215375 -7.728820 0.997029 0
M  V30 31 H -2.008195 -6.695862 3.539280 0
M  V30 32 H -2.102266 -8.275078 2.695353 0
M  V30 33 H -0.662613 -7.941475 3.789280 0
M  V30 34 H -0.836949 -4.846421 2.213774 0
M  V30 35 H 0.864531 -3.407561 1.641127 0
M  V30 36 H 3.957806 0.545821 -2.985804 0
M  V30 37 H -0.164429 1.924703 1.390585 0
M  V30 38 H 0.045776 4.931961 1.926731 0
M  V30 39 H 1.040471 4.045741 3.178467 0
M  V30 40 H -0.974150 2.835310 3.990027 0
M  V30 41 H -1.206263 4.574727 4.122681 0
M  V30 42 H -3.154458 3.476499 3.361714 0
M  V30 43 H -3.226241 2.707953 1.050144 0
M  V30 44 H -2.587240 1.666447 2.196890 0
M  V30 45 H -1.840019 5.246927 1.217024 0
M  V30 46 H 0.610300 0.556357 -0.172334 0
M  V30 47 H 1.922977 -0.763637 -4.311659 0
M  V30 48 H 0.448531 -5.119993 -2.277199 0
M  V30 49 H 0.874035 -7.272556 -0.890746 0
M  V30 END ATOM
M  V30 BEGIN BOND
M  V30 1 1 1 2
M  V30 2 1 2 3
M  V30 3 2 3 4
M  V30 4 1 4 5
M  V30 5 1 5 6
M  V30 6 2 6 7
M  V30 7 1 7 8
M  V30 8 2 8 9
M  V30 9 1 9 10
M  V30 10 2 10 11
M  V30 11 1 11 12
M  V30 12 1 12 13
M  V30 13 1 13 14
M  V30 14 2 14 15
M  V30 15 1 14 16
M  V30 16 1 16 17
M  V30 17 1 17 18
M  V30 18 1 18 19
M  V30 19 1 19 20
M  V30 20 1 19 21
M  V30 21 1 21 22
M  V30 22 1 21 23
M  V30 23 2 13 24
M  V30 24 1 9 25
M  V30 25 2 25 26
M  V30 26 1 26 27
M  V30 27 1 27 28
M  V30 28 1 4 29
M  V30 29 2 29 30
M  V30 30 1 30 2
M  V30 31 2 28 5
M  V30 32 1 27 8
M  V30 33 1 24 10
M  V30 34 1 1 31
M  V30 35 1 1 32
M  V30 36 1 1 33
M  V30 37 1 3 34
M  V30 38 1 6 35
M  V30 39 1 11 36
M  V30 40 1 16 37
M  V30 41 1 17 38
M  V30 42 1 17 39
M  V30 43 1 18 40
M  V30 44 1 18 41
M  V30 45 1 19 42
M  V30 46 1 20 43
M  V30 47 1 20 44
M  V30 48 1 21 45
M  V30 49 1 24 46
M  V30 50 1 25 47
M  V30 51 1 28 48
M  V30 52 1 29 49
M  V30 END BOND
M  V30 END CTAB
M  END
>  <Dataset>  (863) 
ChEMBL_Kinases

>  <Ligand_Instance>  (863) 
nan

>  <PDB_ID>  (863) 
nan

>  <Standardized_SMILES>  (863) 
Cn1cc(-c2cnc3c(-c4csc(C(=O)NCCC(N)C(F)F)c4)cnn3c2)cn1

>  <Name>  (863) 
nan

>  <Pocket>  (863) 
nan

>  <ATP_Site>  (863) 
nan

>  <Peripheral>  (863) 
nan

>  <Num_H_Atoms_ProtBoundConf>  (863) 
nan

>  <Num_Resolved_Atoms>  (863) 
nan

>  <Num_Not_Resolved_Atoms>  (863) 
nan

$$$$
CHEMBL4578152
     RDKit          3D

  0  0  0  0  0  0  0  0  0  0999 V3000
M  V30 BEGIN CTAB
M  V30 COUNTS 65 68 0 0 0
M  V30 BEGIN ATOM
M  V30 1 C 0.581731 -2.109552 5.033795 0
M  V30 2 C 1.161868 -1.975532 3.673430 0
M  V30 3 C 2.331865 -1.232843 3.556728 0
M  V30 4 C 2.852699 -1.120711 2.284216 0
M  V30 5 C 2.299913 -1.683775 1.154423 0
M  V30 6 C 2.875495 -1.542264 -0.176440 0
M  V30 7 O 2.329501 -2.098105 -1.189516 0
M  V30 8 N 4.050788 -0.805414 -0.479337 0
M  V30 9 C 4.629643 -0.656142 -1.789571 0
M  V30 10 C 3.678804 0.010097 -2.778810 0
M  V30 11 C 3.263970 1.373151 -2.352402 0
M  V30 12 C 2.320409 2.043609 -3.321447 0
M  V30 13 C 2.894536 2.218018 -4.685681 0
M  V30 14 C 4.127121 3.066190 -4.638922 0
M  V30 15 C 3.775375 4.440040 -4.125344 0
M  V30 16 C 3.051671 4.407406 -2.820087 0
M  V30 17 C 1.937274 3.409482 -2.794990 0
M  V30 18 C 1.146975 -2.412222 1.288494 0
M  V30 19 C 0.600964 -2.542953 2.548119 0
M  V30 20 N -0.611508 -3.281405 2.818316 0
M  V30 21 C -1.742636 -2.471721 2.719209 0
M  V30 22 O -1.675324 -1.252113 2.427658 0
M  V30 23 C -3.051798 -3.095055 2.970981 0
M  V30 24 C -3.637159 -4.265434 3.293750 0
M  V30 25 C -4.977039 -4.308750 3.412851 0
M  V30 26 C -5.741622 -3.248467 3.225663 0
M  V30 27 C -7.130403 -2.933828 3.264783 0
M  V30 28 C -7.563620 -1.627806 2.989502 0
M  V30 29 C -8.888086 -1.247566 3.008650 0
M  V30 30 C -9.852514 -2.179190 3.310797 0
M  V30 31 C -9.513680 -3.484116 3.593845 0
M  V30 32 C -8.163624 -3.768395 3.549418 0
M  V30 33 Cl -7.788493 -5.439450 3.917301 0
M  V30 34 S -4.563077 -1.995264 2.835068 0
M  V30 35 H 1.451035 -2.417923 5.684481 0
M  V30 36 H -0.160119 -2.913897 5.113495 0
M  V30 37 H 0.240891 -1.148558 5.468280 0
M  V30 38 H 2.812660 -0.768124 4.406745 0
M  V30 39 H 3.761394 -0.540579 2.208282 0
M  V30 40 H 4.514909 -0.341881 0.339482 0
M  V30 41 H 4.877901 -1.679017 -2.173561 0
M  V30 42 H 5.584814 -0.125746 -1.723436 0
M  V30 43 H 4.235130 -0.003532 -3.745134 0
M  V30 44 H 2.808918 -0.653954 -2.948147 0
M  V30 45 H 4.126157 1.992115 -2.103057 0
M  V30 46 H 2.674921 1.247269 -1.406982 0
M  V30 47 H 1.371863 1.468878 -3.390182 0
M  V30 48 H 3.033443 1.267818 -5.238685 0
M  V30 49 H 2.137983 2.796406 -5.275838 0
M  V30 50 H 4.959607 2.650828 -4.058298 0
M  V30 51 H 4.494702 3.221904 -5.686282 0
M  V30 52 H 4.743896 4.974800 -3.973358 0
M  V30 53 H 3.130528 4.909011 -4.895229 0
M  V30 54 H 2.591594 5.410419 -2.688726 0
M  V30 55 H 3.783734 4.282083 -1.995347 0
M  V30 56 H 1.503290 3.354748 -1.784045 0
M  V30 57 H 1.167569 3.783837 -3.532171 0
M  V30 58 H 0.618759 -2.904360 0.465527 0
M  V30 59 H -0.715790 -4.293317 3.063562 0
M  V30 60 H -2.837160 -4.981788 3.397338 0
M  V30 61 H -5.358440 -5.284044 3.672830 0
M  V30 62 H -6.880106 -0.800520 2.736130 0
M  V30 63 H -9.199771 -0.236347 2.792838 0
M  V30 64 H -10.881658 -1.863519 3.320885 0
M  V30 65 H -10.283733 -4.200734 3.828943 0
M  V30 END ATOM
M  V30 BEGIN BOND
M  V30 1 1 1 2
M  V30 2 2 2 3
M  V30 3 1 3 4
M  V30 4 2 4 5
M  V30 5 1 5 6
M  V30 6 2 6 7
M  V30 7 1 6 8
M  V30 8 1 8 9
M  V30 9 1 9 10
M  V30 10 1 10 11
M  V30 11 1 11 12
M  V30 12 1 12 13
M  V30 13 1 13 14
M  V30 14 1 14 15
M  V30 15 1 15 16
M  V30 16 1 16 17
M  V30 17 1 5 18
M  V30 18 2 18 19
M  V30 19 1 19 20
M  V30 20 1 20 21
M  V30 21 2 21 22
M  V30 22 1 21 23
M  V30 23 2 23 24
M  V30 24 1 24 25
M  V30 25 2 25 26
M  V30 26 1 26 27
M  V30 27 2 27 28
M  V30 28 1 28 29
M  V30 29 2 29 30
M  V30 30 1 30 31
M  V30 31 2 31 32
M  V30 32 1 32 33
M  V30 33 1 26 34
M  V30 34 1 19 2
M  V30 35 1 34 23
M  V30 36 1 17 12
M  V30 37 1 32 27
M  V30 38 1 1 35
M  V30 39 1 1 36
M  V30 40 1 1 37
M  V30 41 1 3 38
M  V30 42 1 4 39
M  V30 43 1 8 40
M  V30 44 1 9 41
M  V30 45 1 9 42
M  V30 46 1 10 43
M  V30 47 1 10 44
M  V30 48 1 11 45
M  V30 49 1 11 46
M  V30 50 1 12 47
M  V30 51 1 13 48
M  V30 52 1 13 49
M  V30 53 1 14 50
M  V30 54 1 14 51
M  V30 55 1 15 52
M  V30 56 1 15 53
M  V30 57 1 16 54
M  V30 58 1 16 55
M  V30 59 1 17 56
M  V30 60 1 17 57
M  V30 61 1 18 58
M  V30 62 1 20 59
M  V30 63 1 24 60
M  V30 64 1 25 61
M  V30 65 1 28 62
M  V30 66 1 29 63
M  V30 67 1 30 64
M  V30 68 1 31 65
M  V30 END BOND
M  V30 END CTAB
M  END
>  <Dataset>  (864) 
ChEMBL_Kinases

>  <Ligand_Instance>  (864) 
nan

>  <PDB_ID>  (864) 
nan

>  <Standardized_SMILES>  (864) 
Cc1ccc(C(=O)NCCCC2CCCCC2)cc1NC(=O)c1ccc(-c2ccccc2Cl)s1

>  <Name>  (864) 
nan

>  <Pocket>  (864) 
nan

>  <ATP_Site>  (864) 
nan

>  <Peripheral>  (864) 
nan

>  <Num_H_Atoms_ProtBoundConf>  (864) 
nan

>  <Num_Resolved_Atoms>  (864) 
nan

>  <Num_Not_Resolved_Atoms>  (864) 
nan

$$$$
CHEMBL4578145
     RDKit          3D

  0  0  0  0  0  0  0  0  0  0999 V3000
M  V30 BEGIN CTAB
M  V30 COUNTS 40 43 0 0 0
M  V30 BEGIN ATOM
M  V30 1 C -0.279128 -4.603280 1.383139 0
M  V30 2 C 0.858830 -3.870843 0.723291 0
M  V30 3 N 1.588789 -3.146898 1.738934 0
M  V30 4 N 2.608143 -3.678688 2.393426 0
M  V30 5 C 3.099477 -2.785071 3.278235 0
M  V30 6 C 2.363503 -1.641068 3.181992 0
M  V30 7 C 1.410165 -1.888495 2.201145 0
M  V30 8 C 0.346481 -1.066844 1.650240 0
M  V30 9 N 0.572174 -0.032768 0.841156 0
M  V30 10 C -0.383859 0.748862 0.312973 0
M  V30 11 N -0.104536 1.844571 -0.547415 0
M  V30 12 C 1.280168 2.144685 -0.884303 0
M  V30 13 C 1.403770 3.369328 -1.803990 0
M  V30 14 C 2.374360 2.017601 0.085364 0
M  V30 15 C 2.285386 1.094530 -1.116400 0
M  V30 16 C -1.649328 0.387644 0.683404 0
M  V30 17 C -2.741235 1.080972 0.232801 0
M  V30 18 C -4.051764 0.787587 0.554492 0
M  V30 19 N -4.299266 -0.268593 1.382147 0
M  V30 20 C -3.265290 -1.006388 1.871096 0
M  V30 21 C -1.975251 -0.674792 1.521637 0
M  V30 22 N -0.928641 -1.401137 2.000763 0
M  V30 23 H -1.187155 -4.542615 0.748084 0
M  V30 24 H -0.483400 -4.221523 2.418355 0
M  V30 25 H 0.008407 -5.663588 1.499454 0
M  V30 26 H 1.543438 -4.544949 0.168017 0
M  V30 27 H 0.454682 -3.145783 -0.029928 0
M  V30 28 H 3.925279 -2.897935 3.965869 0
M  V30 29 H 2.408836 -0.685670 3.695831 0
M  V30 30 H -0.846596 2.424744 -0.934202 0
M  V30 31 H 1.477207 2.978935 -2.827880 0
M  V30 32 H 0.479257 3.984769 -1.771025 0
M  V30 33 H 2.268260 3.990594 -1.546875 0
M  V30 34 H 2.231693 1.629509 1.106721 0
M  V30 35 H 3.236855 2.723049 0.039382 0
M  V30 36 H 3.017706 1.256594 -1.949633 0
M  V30 37 H 2.186107 0.041443 -0.868409 0
M  V30 38 H -2.651710 1.915250 -0.413252 0
M  V30 39 H -4.906563 1.341769 0.193003 0
M  V30 40 H -3.471772 -1.843951 2.528190 0
M  V30 END ATOM
M  V30 BEGIN BOND
M  V30 1 1 1 2
M  V30 2 1 2 3
M  V30 3 1 3 4
M  V30 4 2 4 5
M  V30 5 1 5 6
M  V30 6 2 6 7
M  V30 7 1 7 8
M  V30 8 2 8 9
M  V30 9 1 9 10
M  V30 10 1 10 11
M  V30 11 1 11 12
M  V30 12 1 12 13
M  V30 13 1 12 14
M  V30 14 1 14 15
M  V30 15 2 10 16
M  V30 16 1 16 17
M  V30 17 2 17 18
M  V30 18 1 18 19
M  V30 19 2 19 20
M  V30 20 1 20 21
M  V30 21 2 21 22
M  V30 22 1 7 3
M  V30 23 1 22 8
M  V30 24 1 15 12
M  V30 25 1 21 16
M  V30 26 1 1 23
M  V30 27 1 1 24
M  V30 28 1 1 25
M  V30 29 1 2 26
M  V30 30 1 2 27
M  V30 31 1 5 28
M  V30 32 1 6 29
M  V30 33 1 11 30
M  V30 34 1 13 31
M  V30 35 1 13 32
M  V30 36 1 13 33
M  V30 37 1 14 34
M  V30 38 1 14 35
M  V30 39 1 15 36
M  V30 40 1 15 37
M  V30 41 1 17 38
M  V30 42 1 18 39
M  V30 43 1 20 40
M  V30 END BOND
M  V30 END CTAB
M  END
>  <Dataset>  (865) 
ChEMBL_Kinases

>  <Ligand_Instance>  (865) 
nan

>  <PDB_ID>  (865) 
nan

>  <Standardized_SMILES>  (865) 
CCn1nccc1-c1nc(NC2(C)CC2)c2ccncc2n1

>  <Name>  (865) 
nan

>  <Pocket>  (865) 
nan

>  <ATP_Site>  (865) 
nan

>  <Peripheral>  (865) 
nan

>  <Num_H_Atoms_ProtBoundConf>  (865) 
nan

>  <Num_Resolved_Atoms>  (865) 
nan

>  <Num_Not_Resolved_Atoms>  (865) 
nan

$$$$
CHEMBL4632457
     RDKit          3D

  0  0  0  0  0  0  0  0  0  0999 V3000
M  V30 BEGIN CTAB
M  V30 COUNTS 61 63 0 0 0
M  V30 BEGIN ATOM
M  V30 1 C 4.246690 0.675797 4.398477 0
M  V30 2 C 4.266698 0.374361 2.919527 0
M  V30 3 C 5.256709 -0.740654 2.686341 0
M  V30 4 C 4.718826 1.648000 2.229930 0
M  V30 5 C 2.932338 -0.044131 2.432419 0
M  V30 6 C 2.742202 -0.339697 1.108499 0
M  V30 7 C 1.552026 -0.739644 0.504538 0
M  V30 8 N 1.550389 -1.002595 -0.885460 0
M  V30 9 C 0.401970 -1.094627 -1.693908 0
M  V30 10 N -0.867740 -0.962073 -1.279171 0
M  V30 11 C -1.948130 -1.037288 -2.069652 0
M  V30 12 N -3.271153 -0.889688 -1.544994 0
M  V30 13 C -3.319597 -0.868254 -0.101203 0
M  V30 14 C -4.671725 -0.758183 0.498216 0
M  V30 15 C -5.787431 -0.608603 -0.469692 0
M  V30 16 C -5.606079 -1.368282 -1.764797 0 CFG=2
M  V30 17 N -5.355701 -2.768813 -1.556186 0
M  V30 18 C -4.397112 -0.771908 -2.451245 0
M  V30 19 N -1.795306 -1.265559 -3.410379 0
M  V30 20 C -0.558985 -1.414804 -3.936836 0
M  V30 21 C 0.482519 -1.321816 -3.046538 0
M  V30 22 C 1.778851 -1.492199 -3.679203 0
M  V30 23 N 2.042540 -1.727389 -5.052977 0
M  V30 24 O 3.019942 -1.537169 -3.548965 0
M  V30 25 C 0.509753 -0.825532 1.378136 0
M  V30 26 C 0.593435 -0.551643 2.721518 0
M  V30 27 S -0.791079 -0.688951 3.779668 0
M  V30 28 C -0.772023 -2.318963 4.490843 0
M  V30 29 O -0.709334 0.391387 4.811905 0
M  V30 30 O -2.026029 -0.506553 2.925807 0
M  V30 31 C 1.808034 -0.162468 3.238253 0
M  V30 32 H 3.400915 1.355953 4.667266 0
M  V30 33 H 4.225929 -0.231584 5.011972 0
M  V30 34 H 5.234522 1.183692 4.613119 0
M  V30 35 H 6.279938 -0.288189 2.765524 0
M  V30 36 H 5.115061 -1.261205 1.719529 0
M  V30 37 H 5.214673 -1.447937 3.555513 0
M  V30 38 H 5.025641 2.443805 2.942726 0
M  V30 39 H 5.631710 1.412362 1.646446 0
M  V30 40 H 3.909113 2.094442 1.603583 0
M  V30 41 H 3.632831 -0.246495 0.469284 0
M  V30 42 H 2.466174 -1.140549 -1.350449 0
M  V30 43 H -2.915182 -1.875847 0.213411 0
M  V30 44 H -2.570858 -0.151129 0.261390 0
M  V30 45 H -4.682994 0.130328 1.183133 0
M  V30 46 H -4.936100 -1.614360 1.171011 0
M  V30 47 H -6.741568 -0.962279 -0.027846 0
M  V30 48 H -5.863744 0.473496 -0.777884 0
M  V30 49 H -6.523724 -1.188518 -2.371306 0
M  V30 50 H -4.750170 -3.129658 -2.326053 0
M  V30 51 H -4.932675 -2.901976 -0.612070 0
M  V30 52 H -4.553548 0.296281 -2.708003 0
M  V30 53 H -4.244841 -1.378475 -3.370144 0
M  V30 54 H -0.455031 -1.592652 -4.994718 0
M  V30 55 H 1.377344 -1.988627 -5.839438 0
M  V30 56 H 1.448822 -1.982303 -5.863804 0
M  V30 57 H -0.452956 -1.130880 1.005427 0
M  V30 58 H -0.231927 -2.980504 3.813590 0
M  V30 59 H -0.223185 -2.228795 5.456869 0
M  V30 60 H -1.827777 -2.665889 4.653794 0
M  V30 61 H 1.890293 0.054816 4.290692 0
M  V30 END ATOM
M  V30 BEGIN BOND
M  V30 1 1 1 2
M  V30 2 1 2 3
M  V30 3 1 2 4
M  V30 4 1 2 5
M  V30 5 2 5 6
M  V30 6 1 6 7
M  V30 7 1 7 8
M  V30 8 1 8 9
M  V30 9 2 9 10
M  V30 10 1 10 11
M  V30 11 1 11 12
M  V30 12 1 12 13
M  V30 13 1 13 14
M  V30 14 1 14 15
M  V30 15 1 15 16
M  V30 16 1 16 17
M  V30 17 1 16 18
M  V30 18 2 11 19
M  V30 19 1 19 20
M  V30 20 2 20 21
M  V30 21 1 21 22
M  V30 22 1 22 23
M  V30 23 2 22 24
M  V30 24 2 7 25
M  V30 25 1 25 26
M  V30 26 1 26 27
M  V30 27 1 27 28
M  V30 28 2 27 29
M  V30 29 2 27 30
M  V30 30 2 26 31
M  V30 31 1 31 5
M  V30 32 1 21 9
M  V30 33 1 18 12
M  V30 34 1 1 32
M  V30 35 1 1 33
M  V30 36 1 1 34
M  V30 37 1 3 35
M  V30 38 1 3 36
M  V30 39 1 3 37
M  V30 40 1 4 38
M  V30 41 1 4 39
M  V30 42 1 4 40
M  V30 43 1 6 41
M  V30 44 1 8 42
M  V30 45 1 13 43
M  V30 46 1 13 44
M  V30 47 1 14 45
M  V30 48 1 14 46
M  V30 49 1 15 47
M  V30 50 1 15 48
M  V30 51 1 16 49 CFG=3
M  V30 52 1 17 50
M  V30 53 1 17 51
M  V30 54 1 18 52
M  V30 55 1 18 53
M  V30 56 1 20 54
M  V30 57 1 23 55
M  V30 58 1 23 56
M  V30 59 1 25 57
M  V30 60 1 28 58
M  V30 61 1 28 59
M  V30 62 1 28 60
M  V30 63 1 31 61
M  V30 END BOND
M  V30 END CTAB
M  END
>  <Dataset>  (866) 
ChEMBL_Kinases

>  <Ligand_Instance>  (866) 
nan

>  <PDB_ID>  (866) 
nan

>  <Standardized_SMILES>  (866) 
CC(C)(C)c1cc(Nc2nc(N3CCC[C@H](N)C3)ncc2C(N)=O)cc(S(C)(=O)=O)c1

>  <Name>  (866) 
nan

>  <Pocket>  (866) 
nan

>  <ATP_Site>  (866) 
nan

>  <Peripheral>  (866) 
nan

>  <Num_H_Atoms_ProtBoundConf>  (866) 
nan

>  <Num_Resolved_Atoms>  (866) 
nan

>  <Num_Not_Resolved_Atoms>  (866) 
nan

$$$$
CHEMBL4632465
     RDKit          3D

  0  0  0  0  0  0  0  0  0  0999 V3000
M  V30 BEGIN CTAB
M  V30 COUNTS 45 47 0 0 0
M  V30 BEGIN ATOM
M  V30 1 C -1.492607 -4.704812 -3.210747 0
M  V30 2 O -0.738497 -3.746694 -2.489589 0
M  V30 3 C 0.625104 -3.798689 -2.328787 0
M  V30 4 N 1.443285 -4.743855 -2.817828 0
M  V30 5 N 2.692694 -4.528135 -2.501779 0
M  V30 6 C 3.915197 -5.253254 -2.792289 0
M  V30 7 C 2.684958 -3.388725 -1.772931 0
M  V30 8 C 1.398418 -2.905170 -1.646283 0
M  V30 9 C 1.020968 -1.696802 -0.925859 0
M  V30 10 O 1.894863 -0.997158 -0.353287 0
M  V30 11 N -0.325825 -1.253082 -0.833233 0
M  V30 12 C -0.621454 -0.058043 -0.109719 0
M  V30 13 C -0.594850 1.123070 -0.866386 0
M  V30 14 C -0.866568 2.356757 -0.273987 0
M  V30 15 C -1.156509 2.331618 1.078099 0
M  V30 16 C -1.195667 1.197789 1.867345 0
M  V30 17 C -1.507604 1.241619 3.283954 0
M  V30 18 N -2.453900 0.394425 3.781333 0
M  V30 19 N -2.578597 0.600135 5.077228 0
M  V30 20 C -1.706187 1.578326 5.383022 0
M  V30 21 N -1.040501 1.978791 4.275170 0
M  V30 22 C -0.034478 2.980884 4.139649 0
M  V30 23 C 0.340235 3.494908 5.537979 0
M  V30 24 C 1.237286 2.352761 3.617323 0
M  V30 25 C -0.918669 -0.020244 1.242165 0
M  V30 26 H -2.230113 -4.115793 -3.820601 0
M  V30 27 H -2.079964 -5.273577 -2.450949 0
M  V30 28 H -0.853805 -5.332969 -3.832287 0
M  V30 29 H 3.673773 -6.259236 -3.176141 0
M  V30 30 H 4.565111 -4.729081 -3.525607 0
M  V30 31 H 4.536256 -5.373265 -1.867109 0
M  V30 32 H 3.552743 -2.893941 -1.332415 0
M  V30 33 H -1.101520 -1.785047 -1.284402 0
M  V30 34 H -0.362579 1.103036 -1.927972 0
M  V30 35 H -0.847916 3.263641 -0.846761 0
M  V30 36 H -1.362289 3.305702 1.505380 0
M  V30 37 H -1.578140 1.968087 6.382353 0
M  V30 38 H -0.335503 3.893108 3.594032 0
M  V30 39 H 1.013149 4.379958 5.421844 0
M  V30 40 H -0.574748 3.729412 6.117875 0
M  V30 41 H 0.948124 2.684895 6.000964 0
M  V30 42 H 2.013135 3.111770 3.381275 0
M  V30 43 H 1.075544 1.633335 2.792775 0
M  V30 44 H 1.682590 1.741492 4.445979 0
M  V30 45 H -0.926108 -0.960951 1.781347 0
M  V30 END ATOM
M  V30 BEGIN BOND
M  V30 1 1 1 2
M  V30 2 1 2 3
M  V30 3 2 3 4
M  V30 4 1 4 5
M  V30 5 1 5 6
M  V30 6 1 5 7
M  V30 7 2 7 8
M  V30 8 1 8 9
M  V30 9 2 9 10
M  V30 10 1 9 11
M  V30 11 1 11 12
M  V30 12 2 12 13
M  V30 13 1 13 14
M  V30 14 2 14 15
M  V30 15 1 15 16
M  V30 16 1 16 17
M  V30 17 2 17 18
M  V30 18 1 18 19
M  V30 19 2 19 20
M  V30 20 1 20 21
M  V30 21 1 21 22
M  V30 22 1 22 23
M  V30 23 1 22 24
M  V30 24 2 16 25
M  V30 25 1 8 3
M  V30 26 1 25 12
M  V30 27 1 21 17
M  V30 28 1 1 26
M  V30 29 1 1 27
M  V30 30 1 1 28
M  V30 31 1 6 29
M  V30 32 1 6 30
M  V30 33 1 6 31
M  V30 34 1 7 32
M  V30 35 1 11 33
M  V30 36 1 13 34
M  V30 37 1 14 35
M  V30 38 1 15 36
M  V30 39 1 20 37
M  V30 40 1 22 38
M  V30 41 1 23 39
M  V30 42 1 23 40
M  V30 43 1 23 41
M  V30 44 1 24 42
M  V30 45 1 24 43
M  V30 46 1 24 44
M  V30 47 1 25 45
M  V30 END BOND
M  V30 END CTAB
M  END
>  <Dataset>  (867) 
ChEMBL_Kinases

>  <Ligand_Instance>  (867) 
nan

>  <PDB_ID>  (867) 
nan

>  <Standardized_SMILES>  (867) 
COc1nn(C)cc1C(=O)Nc1cccc(-c2nncn2C(C)C)c1

>  <Name>  (867) 
nan

>  <Pocket>  (867) 
nan

>  <ATP_Site>  (867) 
nan

>  <Peripheral>  (867) 
nan

>  <Num_H_Atoms_ProtBoundConf>  (867) 
nan

>  <Num_Resolved_Atoms>  (867) 
nan

>  <Num_Not_Resolved_Atoms>  (867) 
nan

$$$$
CHEMBL4575812
     RDKit          3D

  0  0  0  0  0  0  0  0  0  0999 V3000
M  V30 BEGIN CTAB
M  V30 COUNTS 44 46 0 0 0
M  V30 BEGIN ATOM
M  V30 1 C 0.955620 -4.949771 2.384559 0
M  V30 2 O 1.823269 -4.871774 1.273471 0
M  V30 3 C 1.884216 -3.747385 0.461738 0
M  V30 4 C 2.748120 -3.717560 -0.613170 0
M  V30 5 C 2.769032 -2.576299 -1.387046 0
M  V30 6 C 1.972124 -1.500175 -1.119159 0
M  V30 7 C 1.780596 -0.245767 -1.708018 0
M  V30 8 C 2.435149 0.230318 -2.826541 0
M  V30 9 C 2.052365 1.502191 -3.201401 0
M  V30 10 N 1.129298 2.184404 -2.522976 0
M  V30 11 C 0.479491 1.724766 -1.421582 0
M  V30 12 C -0.551888 2.487191 -0.691980 0
M  V30 13 C 0.823206 0.442303 -0.990583 0
M  V30 14 N 0.420899 -0.358595 0.027803 0
M  V30 15 C -0.533238 -0.043464 1.029207 0
M  V30 16 C 0.223688 0.533538 2.211445 0
M  V30 17 C -0.686418 0.918905 3.361615 0
M  V30 18 C -1.457044 -0.273521 3.871392 0
M  V30 19 C -1.489806 2.116837 3.131868 0
M  V30 20 N -2.444747 2.234810 2.097494 0
M  V30 21 O -1.858237 3.307061 3.401233 0
M  V30 22 C 1.110915 -1.538960 -0.041642 0
M  V30 23 C 1.063542 -2.673310 0.760005 0
M  V30 24 H -0.115561 -4.855787 2.099297 0
M  V30 25 H 1.140615 -5.870041 2.937463 0
M  V30 26 H 1.189028 -4.089475 3.071377 0
M  V30 27 H 3.398422 -4.541394 -0.867442 0
M  V30 28 H 3.445791 -2.556205 -2.226962 0
M  V30 29 H 3.176503 -0.349849 -3.350381 0
M  V30 30 H 2.536751 1.932604 -4.080333 0
M  V30 31 H -1.582716 2.172357 -0.940866 0
M  V30 32 H -0.527583 3.510474 -1.186280 0
M  V30 33 H -0.335741 2.742031 0.338051 0
M  V30 34 H -0.962438 -1.011874 1.418008 0
M  V30 35 H -1.335325 0.601727 0.825476 0
M  V30 36 H 0.829795 1.392698 1.864961 0
M  V30 37 H 0.984084 -0.193219 2.591332 0
M  V30 38 H 0.008573 1.183831 4.216465 0
M  V30 39 H -2.120782 0.085522 4.686351 0
M  V30 40 H -2.098196 -0.730750 3.105145 0
M  V30 41 H -0.732058 -1.017593 4.238510 0
M  V30 42 H -3.133683 2.327089 1.328642 0
M  V30 43 H -3.407589 2.150912 1.694574 0
M  V30 44 H 0.389842 -2.739622 1.626466 0
M  V30 END ATOM
M  V30 BEGIN BOND
M  V30 1 1 1 2
M  V30 2 1 2 3
M  V30 3 2 3 4
M  V30 4 1 4 5
M  V30 5 2 5 6
M  V30 6 1 6 7
M  V30 7 2 7 8
M  V30 8 1 8 9
M  V30 9 2 9 10
M  V30 10 1 10 11
M  V30 11 1 11 12
M  V30 12 2 11 13
M  V30 13 1 13 14
M  V30 14 1 14 15
M  V30 15 1 15 16
M  V30 16 1 16 17
M  V30 17 1 17 18
M  V30 18 1 17 19
M  V30 19 1 19 20
M  V30 20 2 19 21
M  V30 21 1 14 22
M  V30 22 2 22 23
M  V30 23 1 23 3
M  V30 24 1 22 6
M  V30 25 1 13 7
M  V30 26 1 1 24
M  V30 27 1 1 25
M  V30 28 1 1 26
M  V30 29 1 4 27
M  V30 30 1 5 28
M  V30 31 1 8 29
M  V30 32 1 9 30
M  V30 33 1 12 31
M  V30 34 1 12 32
M  V30 35 1 12 33
M  V30 36 1 15 34
M  V30 37 1 15 35
M  V30 38 1 16 36
M  V30 39 1 16 37
M  V30 40 1 17 38
M  V30 41 1 18 39
M  V30 42 1 18 40
M  V30 43 1 18 41
M  V30 44 1 20 42
M  V30 45 1 20 43
M  V30 46 1 23 44
M  V30 END BOND
M  V30 END CTAB
M  END
>  <Dataset>  (868) 
ChEMBL_Kinases

>  <Ligand_Instance>  (868) 
nan

>  <PDB_ID>  (868) 
nan

>  <Standardized_SMILES>  (868) 
COc1ccc2c3ccnc(C)c3n(CCC(C)C(N)=O)c2c1

>  <Name>  (868) 
nan

>  <Pocket>  (868) 
nan

>  <ATP_Site>  (868) 
nan

>  <Peripheral>  (868) 
nan

>  <Num_H_Atoms_ProtBoundConf>  (868) 
nan

>  <Num_Resolved_Atoms>  (868) 
nan

>  <Num_Not_Resolved_Atoms>  (868) 
nan

$$$$
CHEMBL4632523
     RDKit          3D

  0  0  0  0  0  0  0  0  0  0999 V3000
M  V30 BEGIN CTAB
M  V30 COUNTS 48 51 0 0 0
M  V30 BEGIN ATOM
M  V30 1 N 1.394117 -5.762003 4.363951 0
M  V30 2 C 0.700368 -4.799264 3.557616 0
M  V30 3 C -0.602606 -4.438121 3.876621 0
M  V30 4 C -1.330407 -3.519444 3.146552 0
M  V30 5 C -0.718337 -2.943084 2.051807 0
M  V30 6 C -1.372256 -1.960136 1.195900 0
M  V30 7 C -0.659271 -0.959291 0.551213 0
M  V30 8 C -1.304093 -0.045636 -0.251543 0
M  V30 9 N -0.556661 0.975003 -0.895268 0
M  V30 10 C 0.862856 1.078907 -0.682414 0 CFG=1
M  V30 11 C 1.544057 2.117723 -1.540528 0
M  V30 12 C 3.035197 1.842535 -1.397760 0
M  V30 13 C 3.665527 2.549505 -0.241006 0
M  V30 14 C 3.507817 1.876711 1.082746 0
M  V30 15 N 2.441708 0.895344 1.094178 0
M  V30 16 C 1.171852 1.486081 0.762373 0
M  V30 17 C -2.666009 -0.187156 -0.369386 0
M  V30 18 C -3.382546 0.686058 -1.153191 0
M  V30 19 C -4.749624 0.577106 -1.296500 0
M  V30 20 N -5.439509 -0.396420 -0.669039 0
M  V30 21 C -4.760649 -1.278969 0.115766 0
M  V30 22 C -3.382964 -1.177422 0.266438 0
M  V30 23 C -2.746008 -2.090369 1.067643 0
M  V30 24 C 0.577216 -3.307875 1.741796 0
M  V30 25 N 1.284181 -4.218209 2.473628 0
M  V30 26 H 0.829884 -6.448360 4.911374 0
M  V30 27 H 2.430484 -5.790128 4.413760 0
M  V30 28 H -1.031670 -4.917577 4.739619 0
M  V30 29 H -2.347032 -3.241724 3.400452 0
M  V30 30 H 0.403752 -0.989361 0.741357 0
M  V30 31 H -0.922325 1.697569 -1.536438 0
M  V30 32 H 1.315240 0.083115 -0.830508 0
M  V30 33 H 1.289900 2.048706 -2.601801 0
M  V30 34 H 1.391314 3.143705 -1.158638 0
M  V30 35 H 3.570789 2.155588 -2.321509 0
M  V30 36 H 3.182508 0.743947 -1.305189 0
M  V30 37 H 4.774375 2.567989 -0.457733 0
M  V30 38 H 3.354173 3.620487 -0.233212 0
M  V30 39 H 4.441345 1.401031 1.444626 0
M  V30 40 H 3.291401 2.696687 1.824767 0
M  V30 41 H 2.456317 0.281754 1.910456 0
M  V30 42 H 1.249187 2.611559 0.755831 0
M  V30 43 H 0.350293 1.255478 1.457733 0
M  V30 44 H -2.906065 1.476676 -1.676790 0
M  V30 45 H -5.364998 1.251429 -1.912045 0
M  V30 46 H -5.365256 -2.036761 0.593092 0
M  V30 47 H -3.283680 -2.877099 1.578167 0
M  V30 48 H 1.120132 -2.903499 0.905762 0
M  V30 END ATOM
M  V30 BEGIN BOND
M  V30 1 1 1 2
M  V30 2 2 2 3
M  V30 3 1 3 4
M  V30 4 2 4 5
M  V30 5 1 5 6
M  V30 6 2 6 7
M  V30 7 1 7 8
M  V30 8 1 8 9
M  V30 9 1 9 10
M  V30 10 1 10 11
M  V30 11 1 11 12
M  V30 12 1 12 13
M  V30 13 1 13 14
M  V30 14 1 14 15
M  V30 15 1 15 16
M  V30 16 2 8 17
M  V30 17 1 17 18
M  V30 18 2 18 19
M  V30 19 1 19 20
M  V30 20 2 20 21
M  V30 21 1 21 22
M  V30 22 2 22 23
M  V30 23 1 5 24
M  V30 24 2 24 25
M  V30 25 1 25 2
M  V30 26 1 23 6
M  V30 27 1 16 10
M  V30 28 1 22 17
M  V30 29 1 1 26
M  V30 30 1 1 27
M  V30 31 1 3 28
M  V30 32 1 4 29
M  V30 33 1 7 30
M  V30 34 1 9 31
M  V30 35 1 10 32 CFG=3
M  V30 36 1 11 33
M  V30 37 1 11 34
M  V30 38 1 12 35
M  V30 39 1 12 36
M  V30 40 1 13 37
M  V30 41 1 13 38
M  V30 42 1 14 39
M  V30 43 1 14 40
M  V30 44 1 15 41
M  V30 45 1 16 42
M  V30 46 1 16 43
M  V30 47 1 18 44
M  V30 48 1 19 45
M  V30 49 1 21 46
M  V30 50 1 23 47
M  V30 51 1 24 48
M  V30 END BOND
M  V30 END CTAB
M  END
>  <Dataset>  (869) 
ChEMBL_Kinases

>  <Ligand_Instance>  (869) 
nan

>  <PDB_ID>  (869) 
nan

>  <Standardized_SMILES>  (869) 
Nc1ccc(-c2cc(N[C@H]3CCCCNC3)c3ccncc3c2)cn1

>  <Name>  (869) 
nan

>  <Pocket>  (869) 
nan

>  <ATP_Site>  (869) 
nan

>  <Peripheral>  (869) 
nan

>  <Num_H_Atoms_ProtBoundConf>  (869) 
nan

>  <Num_Resolved_Atoms>  (869) 
nan

>  <Num_Not_Resolved_Atoms>  (869) 
nan

$$$$
CHEMBL4577999
     RDKit          3D

  0  0  0  0  0  0  0  0  0  0999 V3000
M  V30 BEGIN CTAB
M  V30 COUNTS 60 63 0 0 0
M  V30 BEGIN ATOM
M  V30 1 C 6.849081 -0.848174 6.325978 0
M  V30 2 N 6.223830 -1.632474 5.304078 0
M  V30 3 C 6.521402 -3.035696 5.065037 0
M  V30 4 C 5.252639 -1.015270 4.466522 0
M  V30 5 C 4.914159 0.315483 4.630509 0
M  V30 6 C 3.970669 0.934174 3.824381 0
M  V30 7 C 3.331808 0.229371 2.819276 0
M  V30 8 C 2.322915 0.779334 1.912503 0
M  V30 9 O 1.756864 0.095701 0.992366 0
M  V30 10 N 1.858630 2.119865 1.946226 0
M  V30 11 C 0.875320 2.325987 0.925748 0
M  V30 12 C 1.405865 2.741956 -0.267803 0
M  V30 13 C 0.567045 2.983165 -1.354931 0
M  V30 14 C -0.795505 2.805197 -1.235439 0
M  V30 15 C -1.314279 2.385478 -0.025569 0
M  V30 16 N -2.721385 2.167599 0.209247 0
M  V30 17 C -3.105192 0.809513 -0.092513 0
M  V30 18 O -2.024213 0.248408 -0.478113 0
M  V30 19 C -4.565499 0.510988 0.130910 0
M  V30 20 O -4.860728 -0.830238 -0.185175 0
M  V30 21 C -4.657088 -1.336635 -1.460108 0
M  V30 22 C -4.176461 -0.729875 -2.601185 0
M  V30 23 C -4.062263 -1.453611 -3.768891 0
M  V30 24 C -4.409194 -2.783940 -3.867823 0
M  V30 25 C -4.888874 -3.380255 -2.720342 0
M  V30 26 C -5.016861 -2.688119 -1.534257 0
M  V30 27 N -5.244357 -4.767449 -2.840694 0
M  V30 28 C -5.119553 -5.504691 -4.055612 0
M  V30 29 O -5.875724 -6.515352 -4.228693 0
M  V30 30 C -4.075943 -4.968647 -4.998081 0
M  V30 31 C -4.246602 -3.476143 -5.183242 0
M  V30 32 C -0.502585 2.139060 1.069464 0
M  V30 33 C 3.651192 -1.103317 2.633098 0
M  V30 34 C 4.596216 -1.689747 3.454006 0
M  V30 35 H 7.750185 -1.393601 6.678456 0
M  V30 36 H 6.204895 -0.700228 7.219571 0
M  V30 37 H 7.164990 0.169851 6.004126 0
M  V30 38 H 5.565994 -3.629057 5.151143 0
M  V30 39 H 7.309502 -3.363972 5.742101 0
M  V30 40 H 6.796539 -3.134032 3.976917 0
M  V30 41 H 5.371240 0.928587 5.394041 0
M  V30 42 H 3.692895 1.971936 3.936722 0
M  V30 43 H 2.280784 2.757386 2.685535 0
M  V30 44 H 2.451185 2.916776 -0.486311 0
M  V30 45 H 0.917444 3.318554 -2.343937 0
M  V30 46 H -1.546686 2.957840 -1.999883 0
M  V30 47 H -3.333390 2.961133 0.561626 0
M  V30 48 H -5.166045 1.187053 -0.529896 0
M  V30 49 H -4.779245 0.666155 1.206527 0
M  V30 50 H -3.930397 0.302231 -2.445257 0
M  V30 51 H -3.678289 -0.921703 -4.632070 0
M  V30 52 H -5.405295 -3.280884 -0.718921 0
M  V30 53 H -5.616180 -5.251365 -1.974244 0
M  V30 54 H -3.053246 -5.216306 -4.676786 0
M  V30 55 H -4.249912 -5.442207 -5.985929 0
M  V30 56 H -5.097940 -3.245126 -5.857156 0
M  V30 57 H -3.324400 -3.096907 -5.656457 0
M  V30 58 H -0.823713 1.809767 2.048369 0
M  V30 59 H 3.175335 -1.710513 1.850643 0
M  V30 60 H 4.845096 -2.737978 3.305061 0
M  V30 END ATOM
M  V30 BEGIN BOND
M  V30 1 1 1 2
M  V30 2 1 2 3
M  V30 3 1 2 4
M  V30 4 2 4 5
M  V30 5 1 5 6
M  V30 6 2 6 7
M  V30 7 1 7 8
M  V30 8 2 8 9
M  V30 9 1 8 10
M  V30 10 1 10 11
M  V30 11 2 11 12
M  V30 12 1 12 13
M  V30 13 2 13 14
M  V30 14 1 14 15
M  V30 15 1 15 16
M  V30 16 1 16 17
M  V30 17 2 17 18
M  V30 18 1 17 19
M  V30 19 1 19 20
M  V30 20 1 20 21
M  V30 21 2 21 22
M  V30 22 1 22 23
M  V30 23 2 23 24
M  V30 24 1 24 25
M  V30 25 2 25 26
M  V30 26 1 25 27
M  V30 27 1 27 28
M  V30 28 2 28 29
M  V30 29 1 28 30
M  V30 30 1 30 31
M  V30 31 2 15 32
M  V30 32 1 7 33
M  V30 33 2 33 34
M  V30 34 1 34 4
M  V30 35 1 32 11
M  V30 36 1 26 21
M  V30 37 1 31 24
M  V30 38 1 1 35
M  V30 39 1 1 36
M  V30 40 1 1 37
M  V30 41 1 3 38
M  V30 42 1 3 39
M  V30 43 1 3 40
M  V30 44 1 5 41
M  V30 45 1 6 42
M  V30 46 1 10 43
M  V30 47 1 12 44
M  V30 48 1 13 45
M  V30 49 1 14 46
M  V30 50 1 16 47
M  V30 51 1 19 48
M  V30 52 1 19 49
M  V30 53 1 22 50
M  V30 54 1 23 51
M  V30 55 1 26 52
M  V30 56 1 27 53
M  V30 57 1 30 54
M  V30 58 1 30 55
M  V30 59 1 31 56
M  V30 60 1 31 57
M  V30 61 1 32 58
M  V30 62 1 33 59
M  V30 63 1 34 60
M  V30 END BOND
M  V30 END CTAB
M  END
>  <Dataset>  (870) 
ChEMBL_Kinases

>  <Ligand_Instance>  (870) 
nan

>  <PDB_ID>  (870) 
nan

>  <Standardized_SMILES>  (870) 
CN(C)c1ccc(C(=O)Nc2cccc(NC(=O)COc3ccc4c(c3)NC(=O)CC4)c2)cc1

>  <Name>  (870) 
nan

>  <Pocket>  (870) 
nan

>  <ATP_Site>  (870) 
nan

>  <Peripheral>  (870) 
nan

>  <Num_H_Atoms_ProtBoundConf>  (870) 
nan

>  <Num_Resolved_Atoms>  (870) 
nan

>  <Num_Not_Resolved_Atoms>  (870) 
nan

$$$$
CHEMBL4632548
     RDKit          3D

  0  0  0  0  0  0  0  0  0  0999 V3000
M  V30 BEGIN CTAB
M  V30 COUNTS 49 52 0 0 0
M  V30 BEGIN ATOM
M  V30 1 C 6.962384 -4.285153 1.916985 0
M  V30 2 C 5.644426 -3.784315 1.300207 0
M  V30 3 C 4.593745 -4.029584 2.336551 0
M  V30 4 C 5.773588 -2.396909 0.785744 0
M  V30 5 N 4.560427 -1.884093 0.197967 0
M  V30 6 C 3.333681 -1.335391 0.644190 0
M  V30 7 C 3.065775 -1.112638 2.000952 0
M  V30 8 C 1.901595 -0.555591 2.486174 0
M  V30 9 N 0.967519 -0.206229 1.583142 0
M  V30 10 N 1.205006 -0.408509 0.309901 0
M  V30 11 C 0.454251 -0.155073 -0.777436 0
M  V30 12 C -0.892915 0.451840 -0.718563 0
M  V30 13 C -1.744116 -0.061730 0.242934 0
M  V30 14 C -3.033318 0.422545 0.399117 0
M  V30 15 C -3.505959 1.443961 -0.412845 0
M  V30 16 C -4.843224 2.031520 -0.338426 0
M  V30 17 O -5.208799 2.972893 -1.116709 0
M  V30 18 N -5.799963 1.587028 0.599427 0
M  V30 19 C -7.149797 2.096860 0.760116 0
M  V30 20 C -7.814916 2.087887 2.081412 0
M  V30 21 C -8.288631 1.141597 1.005452 0
M  V30 22 C -2.638748 1.944630 -1.369216 0
M  V30 23 C -1.351981 1.468125 -1.532195 0
M  V30 24 C 1.057451 -0.514787 -1.966583 0
M  V30 25 N 2.240656 -1.013329 -1.563559 0
M  V30 26 C 2.308467 -0.942743 -0.229775 0
M  V30 27 H 6.796616 -5.377330 2.080408 0
M  V30 28 H 7.811457 -4.123016 1.250563 0
M  V30 29 H 7.077757 -3.825614 2.918715 0
M  V30 30 H 5.471643 -4.472072 0.416111 0
M  V30 31 H 3.553505 -3.945068 1.955791 0
M  V30 32 H 4.742452 -5.106812 2.662439 0
M  V30 33 H 4.790997 -3.444957 3.247624 0
M  V30 34 H 6.610742 -2.368254 0.053050 0
M  V30 35 H 6.123101 -1.726650 1.624840 0
M  V30 36 H 4.598651 -1.935919 -0.862048 0
M  V30 37 H 3.768006 -1.353778 2.765729 0
M  V30 38 H 1.708794 -0.391085 3.525199 0
M  V30 39 H -1.490165 -0.859832 0.936001 0
M  V30 40 H -3.715984 0.036675 1.143463 0
M  V30 41 H -5.593613 0.821703 1.277620 0
M  V30 42 H -7.423442 2.926891 0.050307 0
M  V30 43 H -7.310336 1.580978 2.929897 0
M  V30 44 H -8.479119 2.946410 2.300352 0
M  V30 45 H -9.284984 1.302794 0.555629 0
M  V30 46 H -8.051142 0.056626 1.078785 0
M  V30 47 H -2.881050 2.744377 -2.069623 0
M  V30 48 H -0.651859 1.839265 -2.270282 0
M  V30 49 H 0.624270 -0.395595 -2.949934 0
M  V30 END ATOM
M  V30 BEGIN BOND
M  V30 1 1 1 2
M  V30 2 1 2 3
M  V30 3 1 2 4
M  V30 4 1 4 5
M  V30 5 1 5 6
M  V30 6 2 6 7
M  V30 7 1 7 8
M  V30 8 2 8 9
M  V30 9 1 9 10
M  V30 10 1 10 11
M  V30 11 1 11 12
M  V30 12 2 12 13
M  V30 13 1 13 14
M  V30 14 2 14 15
M  V30 15 1 15 16
M  V30 16 2 16 17
M  V30 17 1 16 18
M  V30 18 1 18 19
M  V30 19 1 19 20
M  V30 20 1 20 21
M  V30 21 1 15 22
M  V30 22 2 22 23
M  V30 23 2 11 24
M  V30 24 1 24 25
M  V30 25 2 25 26
M  V30 26 1 26 6
M  V30 27 1 26 10
M  V30 28 1 23 12
M  V30 29 1 21 19
M  V30 30 1 1 27
M  V30 31 1 1 28
M  V30 32 1 1 29
M  V30 33 1 2 30
M  V30 34 1 3 31
M  V30 35 1 3 32
M  V30 36 1 3 33
M  V30 37 1 4 34
M  V30 38 1 4 35
M  V30 39 1 5 36
M  V30 40 1 7 37
M  V30 41 1 8 38
M  V30 42 1 13 39
M  V30 43 1 14 40
M  V30 44 1 18 41
M  V30 45 1 19 42
M  V30 46 1 20 43
M  V30 47 1 20 44
M  V30 48 1 21 45
M  V30 49 1 21 46
M  V30 50 1 22 47
M  V30 51 1 23 48
M  V30 52 1 24 49
M  V30 END BOND
M  V30 END CTAB
M  END
>  <Dataset>  (871) 
ChEMBL_Kinases

>  <Ligand_Instance>  (871) 
nan

>  <PDB_ID>  (871) 
nan

>  <Standardized_SMILES>  (871) 
CC(C)CNc1ccnn2c(-c3ccc(C(=O)NC4CC4)cc3)cnc12

>  <Name>  (871) 
nan

>  <Pocket>  (871) 
nan

>  <ATP_Site>  (871) 
nan

>  <Peripheral>  (871) 
nan

>  <Num_H_Atoms_ProtBoundConf>  (871) 
nan

>  <Num_Resolved_Atoms>  (871) 
nan

>  <Num_Not_Resolved_Atoms>  (871) 
nan

$$$$
CHEMBL4632574
     RDKit          3D

  0  0  0  0  0  0  0  0  0  0999 V3000
M  V30 BEGIN CTAB
M  V30 COUNTS 55 57 0 0 0
M  V30 BEGIN ATOM
M  V30 1 C 3.724662 -1.133275 3.891612 0
M  V30 2 C 2.581744 -1.012475 2.919995 0
M  V30 3 C 1.484165 -0.187223 3.549085 0
M  V30 4 C 2.068089 -2.432672 2.670825 0
M  V30 5 C 3.032190 -0.391413 1.646650 0
M  V30 6 C 4.358658 -0.042411 1.537517 0
M  V30 7 C 4.786670 0.529188 0.369094 0
M  V30 8 C 3.914288 0.748399 -0.666355 0
M  V30 9 C 2.554412 0.415074 -0.613956 0
M  V30 10 N 1.655939 0.642203 -1.686369 0
M  V30 11 C 0.262448 0.427970 -1.738795 0
M  V30 12 N -0.500951 -0.048086 -0.747786 0
M  V30 13 C -1.824481 -0.244084 -0.801267 0
M  V30 14 N -2.586842 -0.749867 0.283852 0
M  V30 15 C -2.042692 -1.048908 1.592272 0
M  V30 16 C -2.442688 -2.426934 2.056222 0
M  V30 17 C -3.863193 -2.781723 1.784120 0
M  V30 18 C -4.678569 -1.632428 1.261241 0 CFG=2
M  V30 19 N -5.970051 -2.113206 0.773887 0
M  V30 20 C -4.002831 -0.994390 0.094938 0
M  V30 21 N -2.443584 0.065033 -1.954632 0
M  V30 22 C -1.775937 0.550821 -3.016630 0
M  V30 23 C -0.415838 0.729013 -2.895762 0
M  V30 24 C 0.212365 1.250437 -4.100647 0
M  V30 25 N -0.501826 1.589751 -5.282421 0
M  V30 26 O 1.324647 1.555891 -4.541782 0
M  V30 27 C 2.205259 -0.154213 0.593423 0
M  V30 28 H 3.309294 -1.686652 4.774914 0
M  V30 29 H 4.060432 -0.147582 4.280442 0
M  V30 30 H 4.554574 -1.730522 3.476816 0
M  V30 31 H 1.071947 0.506498 2.768360 0
M  V30 32 H 0.651228 -0.800088 3.927884 0
M  V30 33 H 1.894767 0.391829 4.424754 0
M  V30 34 H 1.291152 -2.468085 1.884896 0
M  V30 35 H 2.903202 -3.046221 2.331144 0
M  V30 36 H 1.706684 -2.832055 3.645795 0
M  V30 37 H 5.118534 -0.172680 2.292532 0
M  V30 38 H 5.815187 0.822752 0.226054 0
M  V30 39 H 4.291310 1.204832 -1.580491 0
M  V30 40 H 2.144164 1.010909 -2.502980 0
M  V30 41 H -0.942570 -1.014596 1.650154 0
M  V30 42 H -2.436510 -0.322074 2.360800 0
M  V30 43 H -1.729176 -3.201896 1.663056 0
M  V30 44 H -2.291178 -2.451087 3.166809 0
M  V30 45 H -4.389438 -3.135879 2.719513 0
M  V30 46 H -3.875772 -3.579055 1.007922 0
M  V30 47 H -4.874336 -0.853088 2.024785 0
M  V30 48 H -6.316211 -1.399112 0.096835 0
M  V30 49 H -5.714153 -2.962556 0.182624 0
M  V30 50 H -4.530576 -0.056342 -0.220812 0
M  V30 51 H -4.079059 -1.666327 -0.799852 0
M  V30 52 H -2.341892 0.772618 -3.899726 0
M  V30 53 H -1.001375 0.771735 -5.704530 0
M  V30 54 H -0.657073 2.454881 -5.843335 0
M  V30 55 H 1.195873 -0.461562 0.774552 0
M  V30 END ATOM
M  V30 BEGIN BOND
M  V30 1 1 1 2
M  V30 2 1 2 3
M  V30 3 1 2 4
M  V30 4 1 2 5
M  V30 5 2 5 6
M  V30 6 1 6 7
M  V30 7 2 7 8
M  V30 8 1 8 9
M  V30 9 1 9 10
M  V30 10 1 10 11
M  V30 11 2 11 12
M  V30 12 1 12 13
M  V30 13 1 13 14
M  V30 14 1 14 15
M  V30 15 1 15 16
M  V30 16 1 16 17
M  V30 17 1 17 18
M  V30 18 1 18 19
M  V30 19 1 18 20
M  V30 20 2 13 21
M  V30 21 1 21 22
M  V30 22 2 22 23
M  V30 23 1 23 24
M  V30 24 1 24 25
M  V30 25 2 24 26
M  V30 26 2 9 27
M  V30 27 1 27 5
M  V30 28 1 23 11
M  V30 29 1 20 14
M  V30 30 1 1 28
M  V30 31 1 1 29
M  V30 32 1 1 30
M  V30 33 1 3 31
M  V30 34 1 3 32
M  V30 35 1 3 33
M  V30 36 1 4 34
M  V30 37 1 4 35
M  V30 38 1 4 36
M  V30 39 1 6 37
M  V30 40 1 7 38
M  V30 41 1 8 39
M  V30 42 1 10 40
M  V30 43 1 15 41
M  V30 44 1 15 42
M  V30 45 1 16 43
M  V30 46 1 16 44
M  V30 47 1 17 45
M  V30 48 1 17 46
M  V30 49 1 18 47 CFG=1
M  V30 50 1 19 48
M  V30 51 1 19 49
M  V30 52 1 20 50
M  V30 53 1 20 51
M  V30 54 1 22 52
M  V30 55 1 25 53
M  V30 56 1 25 54
M  V30 57 1 27 55
M  V30 END BOND
M  V30 END CTAB
M  END
>  <Dataset>  (872) 
ChEMBL_Kinases

>  <Ligand_Instance>  (872) 
nan

>  <PDB_ID>  (872) 
nan

>  <Standardized_SMILES>  (872) 
CC(C)(C)c1cccc(Nc2nc(N3CCC[C@H](N)C3)ncc2C(N)=O)c1

>  <Name>  (872) 
nan

>  <Pocket>  (872) 
nan

>  <ATP_Site>  (872) 
nan

>  <Peripheral>  (872) 
nan

>  <Num_H_Atoms_ProtBoundConf>  (872) 
nan

>  <Num_Resolved_Atoms>  (872) 
nan

>  <Num_Not_Resolved_Atoms>  (872) 
nan

$$$$
CHEMBL4632648
     RDKit          3D

  0  0  0  0  0  0  0  0  0  0999 V3000
M  V30 BEGIN CTAB
M  V30 COUNTS 63 67 0 0 0
M  V30 BEGIN ATOM
M  V30 1 C 6.000701 4.124730 5.566097 0
M  V30 2 O 4.868557 3.412418 5.116500 0
M  V30 3 C 4.669600 3.146370 3.766977 0
M  V30 4 C 5.587434 3.581083 2.838911 0
M  V30 5 C 5.446303 3.350021 1.498537 0
M  V30 6 S 6.655434 3.934767 0.379665 0
M  V30 7 C 7.948613 2.764060 0.095299 0
M  V30 8 O 7.275664 5.197742 0.918577 0
M  V30 9 O 6.011224 4.285700 -0.949871 0
M  V30 10 C 4.341080 2.657250 1.086060 0
M  V30 11 C 3.434302 2.230706 2.030120 0
M  V30 12 C 3.538934 2.442252 3.387102 0
M  V30 13 N 2.594049 1.995436 4.344653 0
M  V30 14 C 1.395224 1.270424 4.111307 0
M  V30 15 N 0.516477 0.865340 5.060703 0
M  V30 16 C -0.481996 0.213432 4.443335 0
M  V30 17 C -1.631516 -0.406776 4.881950 0
M  V30 18 C -2.504407 -1.014674 4.001502 0
M  V30 19 C -2.242308 -1.014909 2.646701 0
M  V30 20 C -3.068242 -1.614639 1.598886 0
M  V30 21 C -4.427932 -1.682383 1.701143 0
M  V30 22 C -5.195253 -2.251435 0.709132 0
M  V30 23 C -4.647574 -2.781719 -0.434897 0
M  V30 24 N -5.502717 -3.344333 -1.394909 0
M  V30 25 C -5.192965 -3.947775 -2.638524 0
M  V30 26 O -3.993658 -4.023861 -2.998851 0
M  V30 27 C -6.177829 -4.518812 -3.590592 0
M  V30 28 C -5.351512 -5.033868 -4.741885 0
M  V30 29 C -4.899390 -6.352357 -4.673722 0
M  V30 30 C -4.133704 -6.952758 -5.653531 0
M  V30 31 C -3.797034 -6.203735 -6.764019 0
M  V30 32 F -3.046200 -6.773101 -7.737255 0
M  V30 33 C -4.250514 -4.892974 -6.824716 0
M  V30 34 C -5.015574 -4.292670 -5.846001 0
M  V30 35 C -3.277623 -2.689355 -0.490602 0
M  V30 36 C -2.466021 -2.132193 0.470491 0
M  V30 37 C -1.072592 -0.382980 2.207030 0
M  V30 38 N -0.263722 0.191008 3.117392 0
M  V30 39 N 0.874743 0.836466 2.954180 0
M  V30 40 H 6.044279 5.078653 4.999437 0
M  V30 41 H 5.910951 4.310828 6.644509 0
M  V30 42 H 6.961936 3.590230 5.334310 0
M  V30 43 H 6.466393 4.132916 3.176706 0
M  V30 44 H 8.956051 3.244693 0.087765 0
M  V30 45 H 7.797062 2.197892 -0.846196 0
M  V30 46 H 8.013787 2.007061 0.922198 0
M  V30 47 H 4.223491 2.471756 0.029938 0
M  V30 48 H 2.594298 1.693728 1.626900 0
M  V30 49 H 2.818866 2.235743 5.353297 0
M  V30 50 H -1.850840 -0.415363 5.940033 0
M  V30 51 H -3.419882 -1.514259 4.300935 0
M  V30 52 H -4.953976 -1.294346 2.559157 0
M  V30 53 H -6.284486 -2.285984 0.831073 0
M  V30 54 H -6.533555 -3.356577 -1.238324 0
M  V30 55 H -6.734118 -5.389249 -3.184865 0
M  V30 56 H -6.924361 -3.785885 -3.953089 0
M  V30 57 H -5.167067 -6.932146 -3.801269 0
M  V30 58 H -3.832897 -7.983485 -5.504418 0
M  V30 59 H -3.962347 -4.344938 -7.713731 0
M  V30 60 H -5.360883 -3.275682 -5.904753 0
M  V30 61 H -2.760693 -3.078453 -1.351639 0
M  V30 62 H -1.387484 -2.098404 0.350509 0
M  V30 63 H -0.788050 -0.333195 1.168937 0
M  V30 END ATOM
M  V30 BEGIN BOND
M  V30 1 1 1 2
M  V30 2 1 2 3
M  V30 3 2 3 4
M  V30 4 1 4 5
M  V30 5 1 5 6
M  V30 6 1 6 7
M  V30 7 2 6 8
M  V30 8 2 6 9
M  V30 9 2 5 10
M  V30 10 1 10 11
M  V30 11 2 11 12
M  V30 12 1 12 13
M  V30 13 1 13 14
M  V30 14 1 14 15
M  V30 15 2 15 16
M  V30 16 1 16 17
M  V30 17 2 17 18
M  V30 18 1 18 19
M  V30 19 1 19 20
M  V30 20 2 20 21
M  V30 21 1 21 22
M  V30 22 2 22 23
M  V30 23 1 23 24
M  V30 24 1 24 25
M  V30 25 2 25 26
M  V30 26 1 25 27
M  V30 27 1 27 28
M  V30 28 2 28 29
M  V30 29 1 29 30
M  V30 30 2 30 31
M  V30 31 1 31 32
M  V30 32 1 31 33
M  V30 33 2 33 34
M  V30 34 1 23 35
M  V30 35 2 35 36
M  V30 36 2 19 37
M  V30 37 1 37 38
M  V30 38 1 38 39
M  V30 39 1 12 3
M  V30 40 2 39 14
M  V30 41 1 38 16
M  V30 42 1 36 20
M  V30 43 1 34 28
M  V30 44 1 1 40
M  V30 45 1 1 41
M  V30 46 1 1 42
M  V30 47 1 4 43
M  V30 48 1 7 44
M  V30 49 1 7 45
M  V30 50 1 7 46
M  V30 51 1 10 47
M  V30 52 1 11 48
M  V30 53 1 13 49
M  V30 54 1 17 50
M  V30 55 1 18 51
M  V30 56 1 21 52
M  V30 57 1 22 53
M  V30 58 1 24 54
M  V30 59 1 27 55
M  V30 60 1 27 56
M  V30 61 1 29 57
M  V30 62 1 30 58
M  V30 63 1 33 59
M  V30 64 1 34 60
M  V30 65 1 35 61
M  V30 66 1 36 62
M  V30 67 1 37 63
M  V30 END BOND
M  V30 END CTAB
M  END
>  <Dataset>  (873) 
ChEMBL_Kinases

>  <Ligand_Instance>  (873) 
nan

>  <PDB_ID>  (873) 
nan

>  <Standardized_SMILES>  (873) 
COc1cc(S(C)(=O)=O)ccc1Nc1nc2ccc(-c3ccc(NC(=O)Cc4ccc(F)cc4)cc3)cn2n1

>  <Name>  (873) 
nan

>  <Pocket>  (873) 
nan

>  <ATP_Site>  (873) 
nan

>  <Peripheral>  (873) 
nan

>  <Num_H_Atoms_ProtBoundConf>  (873) 
nan

>  <Num_Resolved_Atoms>  (873) 
nan

>  <Num_Not_Resolved_Atoms>  (873) 
nan

$$$$
CHEMBL4577910
     RDKit          3D

  0  0  0  0  0  0  0  0  0  0999 V3000
M  V30 BEGIN CTAB
M  V30 COUNTS 39 42 0 0 0
M  V30 BEGIN ATOM
M  V30 1 C -0.707419 -4.750125 1.375580 0
M  V30 2 O 0.625398 -5.084539 0.923760 0
M  V30 3 C 1.485106 -4.090856 0.498701 0
M  V30 4 C 2.740181 -4.353441 0.043546 0
M  V30 5 C 3.636433 -3.384960 -0.391487 0
M  V30 6 C 3.113326 -2.086934 -0.319509 0
M  V30 7 C 1.838267 -1.801265 0.146865 0
M  V30 8 N 1.746832 -0.421063 0.124230 0
M  V30 9 C 1.655278 0.957399 0.057341 0
M  V30 10 N 2.847810 1.425570 -0.355158 0
M  V30 11 C 3.187695 2.680976 -0.500597 0
M  V30 12 N 2.229412 3.585202 -0.190038 0
M  V30 13 C 0.996698 3.130063 0.236035 0
M  V30 14 S -0.438767 4.047768 0.773483 0
M  V30 15 C -1.410765 2.605066 1.141653 0
M  V30 16 C -0.644752 1.579054 0.857448 0
M  V30 17 C 0.614999 1.799724 0.385605 0
M  V30 18 C -1.247976 0.195715 1.013540 0
M  V30 19 C -2.680290 0.333749 1.379620 0
M  V30 20 C -2.890588 1.346897 2.481404 0
M  V30 21 C -2.792890 2.679106 1.670513 0
M  V30 22 C 1.015098 -2.816306 0.557869 0
M  V30 23 H -1.190982 -4.132571 0.612106 0
M  V30 24 H -0.670528 -4.256957 2.373873 0
M  V30 25 H -1.255354 -5.729035 1.445426 0
M  V30 26 H 2.980996 -5.401484 0.057557 0
M  V30 27 H 4.571935 -3.779981 -0.718788 0
M  V30 28 H 3.893841 -1.431862 -0.693778 0
M  V30 29 H 1.774258 -0.416004 1.160114 0
M  V30 30 H 4.054291 3.255779 -0.812379 0
M  V30 31 H -0.747020 -0.395848 1.809450 0
M  V30 32 H -1.208781 -0.397994 0.073962 0
M  V30 33 H -3.035562 -0.673694 1.662052 0
M  V30 34 H -3.251123 0.686093 0.498017 0
M  V30 35 H -2.035779 1.367404 3.189614 0
M  V30 36 H -3.811283 1.248893 3.018251 0
M  V30 37 H -2.926268 3.547569 2.356703 0
M  V30 38 H -3.512742 2.714232 0.903908 0
M  V30 39 H 0.037979 -2.422142 0.899618 0
M  V30 END ATOM
M  V30 BEGIN BOND
M  V30 1 1 1 2
M  V30 2 1 2 3
M  V30 3 2 3 4
M  V30 4 1 4 5
M  V30 5 2 5 6
M  V30 6 1 6 7
M  V30 7 1 7 8
M  V30 8 1 8 9
M  V30 9 2 9 10
M  V30 10 1 10 11
M  V30 11 2 11 12
M  V30 12 1 12 13
M  V30 13 1 13 14
M  V30 14 1 14 15
M  V30 15 2 15 16
M  V30 16 1 16 17
M  V30 17 1 16 18
M  V30 18 1 18 19
M  V30 19 1 19 20
M  V30 20 1 20 21
M  V30 21 2 7 22
M  V30 22 1 22 3
M  V30 23 1 17 9
M  V30 24 2 17 13
M  V30 25 1 21 15
M  V30 26 1 1 23
M  V30 27 1 1 24
M  V30 28 1 1 25
M  V30 29 1 4 26
M  V30 30 1 5 27
M  V30 31 1 6 28
M  V30 32 1 8 29
M  V30 33 1 11 30
M  V30 34 1 18 31
M  V30 35 1 18 32
M  V30 36 1 19 33
M  V30 37 1 19 34
M  V30 38 1 20 35
M  V30 39 1 20 36
M  V30 40 1 21 37
M  V30 41 1 21 38
M  V30 42 1 22 39
M  V30 END BOND
M  V30 END CTAB
M  END
>  <Dataset>  (874) 
ChEMBL_Kinases

>  <Ligand_Instance>  (874) 
nan

>  <PDB_ID>  (874) 
nan

>  <Standardized_SMILES>  (874) 
COc1cccc(Nc2ncnc3sc4c(c23)CCCC4)c1

>  <Name>  (874) 
nan

>  <Pocket>  (874) 
nan

>  <ATP_Site>  (874) 
nan

>  <Peripheral>  (874) 
nan

>  <Num_H_Atoms_ProtBoundConf>  (874) 
nan

>  <Num_Resolved_Atoms>  (874) 
nan

>  <Num_Not_Resolved_Atoms>  (874) 
nan

$$$$
CHEMBL4632671
     RDKit          3D

  0  0  0  0  0  0  0  0  0  0999 V3000
M  V30 BEGIN CTAB
M  V30 COUNTS 50 53 0 0 0
M  V30 BEGIN ATOM
M  V30 1 C 7.252208 -1.134957 2.613848 0
M  V30 2 O 7.095937 -1.866662 1.437765 0
M  V30 3 C 5.937908 -2.080031 0.733214 0
M  V30 4 C 4.690230 -1.572181 1.108105 0
M  V30 5 C 3.545067 -1.805707 0.376877 0
M  V30 6 C 3.613750 -2.567963 -0.771584 0
M  V30 7 C 2.485887 -2.908335 -1.668188 0
M  V30 8 C 1.462745 -2.098158 -1.989611 0
M  V30 9 N 1.390139 -0.789121 -1.461562 0
M  V30 10 C 0.322003 -0.212808 -0.729654 0
M  V30 11 C 0.364719 1.080963 -0.259433 0
M  V30 12 C -0.668259 1.648329 0.452006 0
M  V30 13 C -1.821167 0.933489 0.734289 0
M  V30 14 C -2.853408 1.624561 1.496354 0
M  V30 15 O -2.646242 2.778878 1.895510 0
M  V30 16 N -4.064357 0.928181 1.747426 0
M  V30 17 C -5.231174 1.360505 2.463738 0
M  V30 18 C -5.475468 1.193712 3.832906 0
M  V30 19 C -6.660446 1.674291 4.363609 0
M  V30 20 C -7.541299 2.294215 3.512132 0
M  V30 21 Cl -9.048784 2.900079 4.201230 0
M  V30 22 C -7.328461 2.471308 2.169309 0
M  V30 23 C -6.155545 1.997353 1.637084 0
M  V30 24 C -1.904358 -0.364290 0.281775 0
M  V30 25 C -0.842096 -0.887245 -0.426631 0
M  V30 26 C 0.623034 -2.884351 -2.892267 0
M  V30 27 O -0.429819 -2.411944 -3.382534 0
M  V30 28 N 1.167217 -4.175451 -3.099817 0
M  V30 29 C 2.352917 -4.208330 -2.328138 0
M  V30 30 O 3.175925 -5.167251 -2.204052 0
M  V30 31 C 4.860743 -3.060531 -1.123639 0
M  V30 32 C 6.055669 -2.857275 -0.422858 0
M  V30 33 H 6.511465 -0.338524 2.788558 0
M  V30 34 H 7.191998 -1.813065 3.515982 0
M  V30 35 H 8.269705 -0.650967 2.657709 0
M  V30 36 H 4.632988 -0.976411 2.006010 0
M  V30 37 H 2.573722 -1.435902 0.629384 0
M  V30 38 H 2.227173 -0.193820 -1.640389 0
M  V30 39 H 1.257347 1.679584 -0.460880 0
M  V30 40 H -0.538066 2.677466 0.780477 0
M  V30 41 H -4.324951 -0.035314 1.452128 0
M  V30 42 H -4.675048 0.681909 4.361437 0
M  V30 43 H -6.802926 1.522324 5.423917 0
M  V30 44 H -8.062796 2.975250 1.527771 0
M  V30 45 H -6.019385 2.152429 0.580955 0
M  V30 46 H -2.787258 -0.928991 0.492359 0
M  V30 47 H -0.977549 -1.909966 -0.747532 0
M  V30 48 H 0.770145 -4.933609 -3.696461 0
M  V30 49 H 4.956643 -3.665244 -2.021816 0
M  V30 50 H 6.973099 -3.281860 -0.777552 0
M  V30 END ATOM
M  V30 BEGIN BOND
M  V30 1 1 1 2
M  V30 2 1 2 3
M  V30 3 2 3 4
M  V30 4 1 4 5
M  V30 5 2 5 6
M  V30 6 1 6 7
M  V30 7 2 7 8
M  V30 8 1 8 9
M  V30 9 1 9 10
M  V30 10 2 10 11
M  V30 11 1 11 12
M  V30 12 2 12 13
M  V30 13 1 13 14
M  V30 14 2 14 15
M  V30 15 1 14 16
M  V30 16 1 16 17
M  V30 17 2 17 18
M  V30 18 1 18 19
M  V30 19 2 19 20
M  V30 20 1 20 21
M  V30 21 1 20 22
M  V30 22 2 22 23
M  V30 23 1 13 24
M  V30 24 2 24 25
M  V30 25 1 8 26
M  V30 26 2 26 27
M  V30 27 1 26 28
M  V30 28 1 28 29
M  V30 29 2 29 30
M  V30 30 1 6 31
M  V30 31 2 31 32
M  V30 32 1 32 3
M  V30 33 1 29 7
M  V30 34 1 25 10
M  V30 35 1 23 17
M  V30 36 1 1 33
M  V30 37 1 1 34
M  V30 38 1 1 35
M  V30 39 1 4 36
M  V30 40 1 5 37
M  V30 41 1 9 38
M  V30 42 1 11 39
M  V30 43 1 12 40
M  V30 44 1 16 41
M  V30 45 1 18 42
M  V30 46 1 19 43
M  V30 47 1 22 44
M  V30 48 1 23 45
M  V30 49 1 24 46
M  V30 50 1 25 47
M  V30 51 1 28 48
M  V30 52 1 31 49
M  V30 53 1 32 50
M  V30 END BOND
M  V30 END CTAB
M  END
>  <Dataset>  (875) 
ChEMBL_Kinases

>  <Ligand_Instance>  (875) 
nan

>  <PDB_ID>  (875) 
nan

>  <Standardized_SMILES>  (875) 
COc1ccc(C2=C(Nc3ccc(C(=O)Nc4ccc(Cl)cc4)cc3)C(=O)NC2=O)cc1

>  <Name>  (875) 
nan

>  <Pocket>  (875) 
nan

>  <ATP_Site>  (875) 
nan

>  <Peripheral>  (875) 
nan

>  <Num_H_Atoms_ProtBoundConf>  (875) 
nan

>  <Num_Resolved_Atoms>  (875) 
nan

>  <Num_Not_Resolved_Atoms>  (875) 
nan

$$$$
CHEMBL4632672
     RDKit          3D

  0  0  0  0  0  0  0  0  0  0999 V3000
M  V30 BEGIN CTAB
M  V30 COUNTS 49 52 0 0 0
M  V30 BEGIN ATOM
M  V30 1 C 1.153781 3.971493 2.131280 0
M  V30 2 O 1.012958 2.746458 1.426739 0
M  V30 3 C 2.003473 2.180257 0.645973 0
M  V30 4 N 3.237276 2.717035 0.449197 0
M  V30 5 N 3.947009 1.935025 -0.345262 0
M  V30 6 C 5.279276 2.086296 -0.825253 0
M  V30 7 C 5.570937 1.715624 -2.131047 0
M  V30 8 N 6.792629 1.808426 -2.707351 0
M  V30 9 C 7.788351 2.304605 -1.926293 0
M  V30 10 C 7.502496 2.675599 -0.623636 0
M  V30 11 N 6.270047 2.566580 -0.088129 0
M  V30 12 C 3.145425 0.875363 -0.661448 0
M  V30 13 C 1.916949 1.015333 -0.044302 0
M  V30 14 C 0.811811 0.068276 -0.159362 0
M  V30 15 O 0.928604 -0.971330 -0.858915 0
M  V30 16 N -0.427870 0.276012 0.504690 0
M  V30 17 C -1.335032 -0.806770 0.219608 0
M  V30 18 C -2.160216 -0.683863 -0.882620 0
M  V30 19 C -3.036163 -1.719660 -1.165228 0
M  V30 20 C -3.106204 -2.857565 -0.384991 0
M  V30 21 C -2.247156 -2.928442 0.719066 0
M  V30 22 C -2.123284 -4.008743 1.692726 0
M  V30 23 N -1.056283 -4.835037 1.800338 0
M  V30 24 N -1.310470 -5.673836 2.786073 0
M  V30 25 C -2.529423 -5.390275 3.308066 0
M  V30 26 N -3.049221 -4.333821 2.617056 0
M  V30 27 C -4.355224 -3.701950 2.855938 0
M  V30 28 C -4.261684 -2.197646 2.817960 0
M  V30 29 C -5.393618 -4.245592 1.929350 0
M  V30 30 N -1.393128 -1.908781 0.987142 0
M  V30 31 H 1.793595 4.673597 1.561879 0
M  V30 32 H 1.460275 3.826184 3.182567 0
M  V30 33 H 0.129892 4.429104 2.124021 0
M  V30 34 H 4.758687 1.315144 -2.755508 0
M  V30 35 H 8.782579 2.392461 -2.358414 0
M  V30 36 H 8.332738 3.065699 -0.042661 0
M  V30 37 H 3.412192 0.039581 -1.298527 0
M  V30 38 H -0.599761 1.095771 1.090774 0
M  V30 39 H -2.176707 0.172753 -1.554599 0
M  V30 40 H -3.717650 -1.698281 -2.014664 0
M  V30 41 H -3.727174 -3.709817 -0.495552 0
M  V30 42 H -3.067397 -5.865383 4.124741 0
M  V30 43 H -4.644601 -3.973753 3.894040 0
M  V30 44 H -4.570513 -1.741448 1.867348 0
M  V30 45 H -3.231446 -1.928643 3.147418 0
M  V30 46 H -4.949683 -1.747815 3.589056 0
M  V30 47 H -5.569603 -3.611179 1.038827 0
M  V30 48 H -6.364969 -4.275397 2.462977 0
M  V30 49 H -5.033595 -5.245100 1.594512 0
M  V30 END ATOM
M  V30 BEGIN BOND
M  V30 1 1 1 2
M  V30 2 1 2 3
M  V30 3 2 3 4
M  V30 4 1 4 5
M  V30 5 1 5 6
M  V30 6 2 6 7
M  V30 7 1 7 8
M  V30 8 2 8 9
M  V30 9 1 9 10
M  V30 10 2 10 11
M  V30 11 1 5 12
M  V30 12 2 12 13
M  V30 13 1 13 14
M  V30 14 2 14 15
M  V30 15 1 14 16
M  V30 16 1 16 17
M  V30 17 2 17 18
M  V30 18 1 18 19
M  V30 19 2 19 20
M  V30 20 1 20 21
M  V30 21 1 21 22
M  V30 22 2 22 23
M  V30 23 1 23 24
M  V30 24 2 24 25
M  V30 25 1 25 26
M  V30 26 1 26 27
M  V30 27 1 27 28
M  V30 28 1 27 29
M  V30 29 2 21 30
M  V30 30 1 13 3
M  V30 31 1 30 17
M  V30 32 1 11 6
M  V30 33 1 26 22
M  V30 34 1 1 31
M  V30 35 1 1 32
M  V30 36 1 1 33
M  V30 37 1 7 34
M  V30 38 1 9 35
M  V30 39 1 10 36
M  V30 40 1 12 37
M  V30 41 1 16 38
M  V30 42 1 18 39
M  V30 43 1 19 40
M  V30 44 1 20 41
M  V30 45 1 25 42
M  V30 46 1 27 43
M  V30 47 1 28 44
M  V30 48 1 28 45
M  V30 49 1 28 46
M  V30 50 1 29 47
M  V30 51 1 29 48
M  V30 52 1 29 49
M  V30 END BOND
M  V30 END CTAB
M  END
>  <Dataset>  (876) 
ChEMBL_Kinases

>  <Ligand_Instance>  (876) 
nan

>  <PDB_ID>  (876) 
nan

>  <Standardized_SMILES>  (876) 
COc1nn(-c2cnccn2)cc1C(=O)Nc1cccc(-c2nncn2C(C)C)n1

>  <Name>  (876) 
nan

>  <Pocket>  (876) 
nan

>  <ATP_Site>  (876) 
nan

>  <Peripheral>  (876) 
nan

>  <Num_H_Atoms_ProtBoundConf>  (876) 
nan

>  <Num_Resolved_Atoms>  (876) 
nan

>  <Num_Not_Resolved_Atoms>  (876) 
nan

$$$$
CHEMBL4632696
     RDKit          3D

  0  0  0  0  0  0  0  0  0  0999 V3000
M  V30 BEGIN CTAB
M  V30 COUNTS 45 48 0 0 0
M  V30 BEGIN ATOM
M  V30 1 C 1.419620 -2.816675 2.429619 0
M  V30 2 C 0.923377 -3.775913 1.626506 0
M  V30 3 C 1.003789 -3.256123 0.269847 0
M  V30 4 O 1.504589 -2.202132 0.727256 0
M  V30 5 N 0.654943 -3.758832 -0.995203 0
M  V30 6 C 0.958228 -2.798663 -2.026446 0
M  V30 7 C 2.192280 -2.762845 -2.660422 0
M  V30 8 C 2.370012 -1.806925 -3.631673 0
M  V30 9 C 1.367202 -0.919438 -3.964650 0
M  V30 10 C 0.141794 -0.952736 -3.337155 0
M  V30 11 C -0.940774 -0.027487 -3.675526 0
M  V30 12 C -1.848219 0.595670 -2.942980 0
M  V30 13 C -2.109300 0.594538 -1.510312 0
M  V30 14 C -3.402315 0.489581 -0.980667 0
M  V30 15 N -3.400898 0.521980 0.363286 0
M  V30 16 C -4.574081 0.434176 1.211226 0
M  V30 17 C -2.120466 0.648208 0.750723 0
M  V30 18 C -1.529523 0.737633 1.996200 0
M  V30 19 C -0.161998 0.870033 2.068779 0
M  V30 20 F 0.372632 0.954484 3.318104 0
M  V30 21 C 0.626390 0.915447 0.937115 0
M  V30 22 C 0.040319 0.825933 -0.318190 0
M  V30 23 C -1.327783 0.693346 -0.377992 0
M  V30 24 C -2.676297 1.405139 -3.865076 0
M  V30 25 O -3.652777 2.148677 -3.556659 0
M  V30 26 N -2.229074 1.244825 -5.195604 0
M  V30 27 C -1.134812 0.344182 -5.094441 0
M  V30 28 O -0.483314 -0.028326 -6.113820 0
M  V30 29 C -0.068767 -1.914041 -2.345177 0
M  V30 30 H 1.858007 -1.843298 2.624291 0
M  V30 31 H 1.863276 -1.818805 2.575706 0
M  V30 32 H 0.685168 -4.513733 2.376739 0
M  V30 33 H 0.255595 -4.715389 -0.885985 0
M  V30 34 H 2.905861 -3.506166 -2.320296 0
M  V30 35 H 3.350863 -1.824900 -4.092390 0
M  V30 36 H 1.566794 -0.185559 -4.741053 0
M  V30 37 H -4.317786 0.392153 -1.576930 0
M  V30 38 H -5.271427 -0.333566 0.803080 0
M  V30 39 H -5.122212 1.395489 1.289103 0
M  V30 40 H -4.265984 0.175692 2.258012 0
M  V30 41 H -2.143220 0.702477 2.901025 0
M  V30 42 H 1.699535 1.019811 1.011852 0
M  V30 43 H 0.654727 0.867221 -1.199122 0
M  V30 44 H -2.631789 1.699976 -6.042219 0
M  V30 45 H -1.024767 -1.937198 -1.859116 0
M  V30 END ATOM
M  V30 BEGIN BOND
M  V30 1 2 1 2
M  V30 2 1 2 3
M  V30 3 2 3 4
M  V30 4 1 3 5
M  V30 5 1 5 6
M  V30 6 2 6 7
M  V30 7 1 7 8
M  V30 8 2 8 9
M  V30 9 1 9 10
M  V30 10 1 10 11
M  V30 11 2 11 12
M  V30 12 1 12 13
M  V30 13 2 13 14
M  V30 14 1 14 15
M  V30 15 1 15 16
M  V30 16 1 15 17
M  V30 17 2 17 18
M  V30 18 1 18 19
M  V30 19 1 19 20
M  V30 20 2 19 21
M  V30 21 1 21 22
M  V30 22 2 22 23
M  V30 23 1 12 24
M  V30 24 2 24 25
M  V30 25 1 24 26
M  V30 26 1 26 27
M  V30 27 2 27 28
M  V30 28 2 10 29
M  V30 29 1 29 6
M  V30 30 1 27 11
M  V30 31 1 23 13
M  V30 32 1 23 17
M  V30 33 1 1 30
M  V30 34 1 1 31
M  V30 35 1 2 32
M  V30 36 1 5 33
M  V30 37 1 7 34
M  V30 38 1 8 35
M  V30 39 1 9 36
M  V30 40 1 14 37
M  V30 41 1 16 38
M  V30 42 1 16 39
M  V30 43 1 16 40
M  V30 44 1 18 41
M  V30 45 1 21 42
M  V30 46 1 22 43
M  V30 47 1 26 44
M  V30 48 1 29 45
M  V30 END BOND
M  V30 END CTAB
M  END
>  <Dataset>  (877) 
ChEMBL_Kinases

>  <Ligand_Instance>  (877) 
nan

>  <PDB_ID>  (877) 
nan

>  <Standardized_SMILES>  (877) 
C=CC(=O)Nc1cccc(C2=C(c3cn(C)c4cc(F)ccc34)C(=O)NC2=O)c1

>  <Name>  (877) 
nan

>  <Pocket>  (877) 
nan

>  <ATP_Site>  (877) 
nan

>  <Peripheral>  (877) 
nan

>  <Num_H_Atoms_ProtBoundConf>  (877) 
nan

>  <Num_Resolved_Atoms>  (877) 
nan

>  <Num_Not_Resolved_Atoms>  (877) 
nan

$$$$
CHEMBL4577658
     RDKit          3D

  0  0  0  0  0  0  0  0  0  0999 V3000
M  V30 BEGIN CTAB
M  V30 COUNTS 46 48 0 0 0
M  V30 BEGIN ATOM
M  V30 1 N -0.644803 -6.205117 1.413323 0
M  V30 2 C 0.643249 -5.797668 0.861516 0
M  V30 3 C 0.553598 -4.245939 0.823914 0
M  V30 4 C 1.806680 -3.693566 0.279599 0
M  V30 5 C 1.873413 -2.233649 0.158054 0
M  V30 6 C 1.832554 -1.427999 1.377317 0
M  V30 7 C 0.694125 -1.469180 2.311792 0
M  V30 8 N -0.603857 -1.154595 1.719796 0
M  V30 9 C -0.835397 0.112759 1.126525 0
M  V30 10 N 0.136764 1.014753 1.114653 0
M  V30 11 C 0.017454 2.243024 0.579202 0
M  V30 12 C 1.114817 3.203058 0.590007 0
M  V30 13 C 2.338685 2.907331 1.152121 0
M  V30 14 C 3.345139 3.878900 1.125770 0
M  V30 15 N 3.171942 5.094516 0.574112 0
M  V30 16 C 1.974025 5.399179 0.017811 0
M  V30 17 C 0.967750 4.456079 0.032771 0
M  V30 18 N -1.150580 2.598394 0.016373 0
M  V30 19 C -2.189252 1.748964 -0.016772 0
M  V30 20 C -3.403299 2.106704 -0.597110 0
M  V30 21 N -4.423173 1.199679 -0.600400 0
M  V30 22 C -4.268069 -0.013276 -0.058187 0
M  V30 23 C -3.071644 -0.391772 0.524133 0
M  V30 24 C -2.022181 0.500850 0.543847 0
M  V30 25 H -0.727025 -5.717765 2.349771 0
M  V30 26 H -1.415690 -5.777176 0.843084 0
M  V30 27 H 0.825585 -6.194959 -0.137296 0
M  V30 28 H 1.422693 -6.036984 1.610831 0
M  V30 29 H 0.219947 -3.985713 1.807928 0
M  V30 30 H -0.261443 -4.060466 0.074579 0
M  V30 31 H 1.899715 -4.118428 -0.778000 0
M  V30 32 H 2.714406 -4.020314 0.863173 0
M  V30 33 H 2.895305 -2.017497 -0.329512 0
M  V30 34 H 1.181471 -1.833212 -0.652206 0
M  V30 35 H 2.086193 -0.341984 1.112553 0
M  V30 36 H 2.752011 -1.716196 2.004558 0
M  V30 37 H 0.921411 -0.557402 3.028027 0
M  V30 38 H 0.689027 -2.271447 3.055251 0
M  V30 39 H -1.258726 -1.957395 1.807870 0
M  V30 40 H 2.532866 1.962190 1.602825 0
M  V30 41 H 4.298133 3.589023 1.587449 0
M  V30 42 H 1.852287 6.381717 -0.421456 0
M  V30 43 H 0.037071 4.751964 -0.423238 0
M  V30 44 H -3.517363 3.090161 -1.032530 0
M  V30 45 H -5.129661 -0.666549 -0.106274 0
M  V30 46 H -2.987856 -1.379466 0.950348 0
M  V30 END ATOM
M  V30 BEGIN BOND
M  V30 1 1 1 2
M  V30 2 1 2 3
M  V30 3 1 3 4
M  V30 4 1 4 5
M  V30 5 1 5 6
M  V30 6 1 6 7
M  V30 7 1 7 8
M  V30 8 1 8 9
M  V30 9 2 9 10
M  V30 10 1 10 11
M  V30 11 1 11 12
M  V30 12 2 12 13
M  V30 13 1 13 14
M  V30 14 2 14 15
M  V30 15 1 15 16
M  V30 16 2 16 17
M  V30 17 2 11 18
M  V30 18 1 18 19
M  V30 19 2 19 20
M  V30 20 1 20 21
M  V30 21 2 21 22
M  V30 22 1 22 23
M  V30 23 2 23 24
M  V30 24 1 24 9
M  V30 25 1 17 12
M  V30 26 1 24 19
M  V30 27 1 1 25
M  V30 28 1 1 26
M  V30 29 1 2 27
M  V30 30 1 2 28
M  V30 31 1 3 29
M  V30 32 1 3 30
M  V30 33 1 4 31
M  V30 34 1 4 32
M  V30 35 1 5 33
M  V30 36 1 5 34
M  V30 37 1 6 35
M  V30 38 1 6 36
M  V30 39 1 7 37
M  V30 40 1 7 38
M  V30 41 1 8 39
M  V30 42 1 13 40
M  V30 43 1 14 41
M  V30 44 1 16 42
M  V30 45 1 17 43
M  V30 46 1 20 44
M  V30 47 1 22 45
M  V30 48 1 23 46
M  V30 END BOND
M  V30 END CTAB
M  END
>  <Dataset>  (878) 
ChEMBL_Kinases

>  <Ligand_Instance>  (878) 
nan

>  <PDB_ID>  (878) 
nan

>  <Standardized_SMILES>  (878) 
NCCCCCCNc1nc(-c2ccncc2)nc2cnccc12

>  <Name>  (878) 
nan

>  <Pocket>  (878) 
nan

>  <ATP_Site>  (878) 
nan

>  <Peripheral>  (878) 
nan

>  <Num_H_Atoms_ProtBoundConf>  (878) 
nan

>  <Num_Resolved_Atoms>  (878) 
nan

>  <Num_Not_Resolved_Atoms>  (878) 
nan

$$$$
CHEMBL4577564
     RDKit          3D

  0  0  0  0  0  0  0  0  0  0999 V3000
M  V30 BEGIN CTAB
M  V30 COUNTS 38 41 0 0 0
M  V30 BEGIN ATOM
M  V30 1 C -0.023826 -2.720292 4.601910 0
M  V30 2 C 0.623765 -2.255136 3.347891 0
M  V30 3 C 0.817745 -3.300161 2.455594 0
M  V30 4 C 1.412658 -3.032371 1.237110 0
M  V30 5 C 1.782246 -1.712675 0.983076 0
M  V30 6 C 1.595836 -0.667853 1.856093 0
M  V30 7 N 1.926635 0.710956 1.585294 0
M  V30 8 C 2.215258 0.810800 0.197053 0
M  V30 9 N 3.464704 0.961000 -0.171675 0
M  V30 10 C 3.925347 1.031103 -1.417657 0
M  V30 11 N 2.984314 0.932310 -2.368309 0
M  V30 12 C 1.700002 0.779283 -2.046395 0
M  V30 13 S 0.192272 0.596654 -3.022888 0
M  V30 14 C -0.924985 0.445877 -1.653095 0
M  V30 15 C -0.122661 0.538463 -0.546189 0
M  V30 16 C 1.218363 0.707373 -0.751539 0
M  V30 17 C -0.977653 0.433504 0.660244 0
M  V30 18 C -2.341028 1.043510 0.363653 0
M  V30 19 C -3.030290 0.087864 -0.583763 0
M  V30 20 C -2.359803 0.251635 -1.925167 0
M  V30 21 C 0.991343 -0.974422 3.081911 0
M  V30 22 H 0.727911 -3.260102 5.196206 0
M  V30 23 H -0.880556 -3.367204 4.355124 0
M  V30 24 H -0.373303 -1.829618 5.161200 0
M  V30 25 H 0.539645 -4.342215 2.615767 0
M  V30 26 H 1.598578 -3.796521 0.491748 0
M  V30 27 H 2.248459 -1.523084 0.024920 0
M  V30 28 H 1.902906 1.380836 2.394613 0
M  V30 29 H 4.937159 1.154766 -1.771322 0
M  V30 30 H -1.160416 -0.602362 0.957560 0
M  V30 31 H -0.617504 1.001705 1.539885 0
M  V30 32 H -2.170380 2.026521 -0.077438 0
M  V30 33 H -2.898820 1.057572 1.310568 0
M  V30 34 H -2.851357 -0.949402 -0.201908 0
M  V30 35 H -4.098632 0.333742 -0.656984 0
M  V30 36 H -2.759849 1.117555 -2.486758 0
M  V30 37 H -2.538979 -0.689273 -2.493325 0
M  V30 38 H 0.799615 -0.201470 3.839174 0
M  V30 END ATOM
M  V30 BEGIN BOND
M  V30 1 1 1 2
M  V30 2 2 2 3
M  V30 3 1 3 4
M  V30 4 2 4 5
M  V30 5 1 5 6
M  V30 6 1 6 7
M  V30 7 1 7 8
M  V30 8 2 8 9
M  V30 9 1 9 10
M  V30 10 2 10 11
M  V30 11 1 11 12
M  V30 12 1 12 13
M  V30 13 1 13 14
M  V30 14 2 14 15
M  V30 15 1 15 16
M  V30 16 1 15 17
M  V30 17 1 17 18
M  V30 18 1 18 19
M  V30 19 1 19 20
M  V30 20 2 6 21
M  V30 21 1 21 2
M  V30 22 1 16 8
M  V30 23 2 16 12
M  V30 24 1 20 14
M  V30 25 1 1 22
M  V30 26 1 1 23
M  V30 27 1 1 24
M  V30 28 1 3 25
M  V30 29 1 4 26
M  V30 30 1 5 27
M  V30 31 1 7 28
M  V30 32 1 10 29
M  V30 33 1 17 30
M  V30 34 1 17 31
M  V30 35 1 18 32
M  V30 36 1 18 33
M  V30 37 1 19 34
M  V30 38 1 19 35
M  V30 39 1 20 36
M  V30 40 1 20 37
M  V30 41 1 21 38
M  V30 END BOND
M  V30 END CTAB
M  END
>  <Dataset>  (879) 
ChEMBL_Kinases

>  <Ligand_Instance>  (879) 
nan

>  <PDB_ID>  (879) 
nan

>  <Standardized_SMILES>  (879) 
Cc1cccc(Nc2ncnc3sc4c(c23)CCCC4)c1

>  <Name>  (879) 
nan

>  <Pocket>  (879) 
nan

>  <ATP_Site>  (879) 
nan

>  <Peripheral>  (879) 
nan

>  <Num_H_Atoms_ProtBoundConf>  (879) 
nan

>  <Num_Resolved_Atoms>  (879) 
nan

>  <Num_Not_Resolved_Atoms>  (879) 
nan

$$$$
CHEMBL4578137
     RDKit          3D

  0  0  0  0  0  0  0  0  0  0999 V3000
M  V30 BEGIN CTAB
M  V30 COUNTS 50 52 0 0 0
M  V30 BEGIN ATOM
M  V30 1 C 1.483510 -3.554056 3.100875 0
M  V30 2 C 1.130040 -2.240510 2.332434 0
M  V30 3 C 1.131578 -1.215995 3.475630 0
M  V30 4 C -0.240840 -2.475483 1.833253 0
M  V30 5 C 2.229547 -2.077983 1.394276 0
M  V30 6 C 2.377878 -0.978254 0.441472 0
M  V30 7 C 2.453486 0.391615 1.114403 0
M  V30 8 C 3.825014 -1.120922 -0.087347 0
M  V30 9 N 1.520709 -0.945561 -0.706387 0
M  V30 10 C 0.202551 -0.424135 -0.893217 0
M  V30 11 N -0.448814 0.209947 0.063666 0
M  V30 12 C -1.668087 0.748119 -0.058130 0
M  V30 13 C -2.417457 1.460368 0.970650 0
M  V30 14 C -1.932792 1.686518 2.241603 0
M  V30 15 C -2.597234 2.354299 3.247995 0
M  V30 16 N -3.843608 2.834867 2.965131 0
M  V30 17 C -4.370044 2.640609 1.728845 0
M  V30 18 C -3.680074 1.972023 0.753769 0
M  V30 19 N -2.285978 0.632229 -1.264896 0
M  V30 20 C -1.697845 0.003029 -2.295709 0
M  V30 21 C -2.322439 -0.115266 -3.517561 0
M  V30 22 N -1.758310 -0.746671 -4.586789 0
M  V30 23 C -0.512086 -1.282405 -4.420261 0
M  V30 24 C 0.097581 -1.154317 -3.190533 0
M  V30 25 C -0.446335 -0.526107 -2.102628 0
M  V30 26 H 0.597706 -3.938419 3.633370 0
M  V30 27 H 1.738730 -4.277955 2.307682 0
M  V30 28 H 2.358590 -3.344738 3.733287 0
M  V30 29 H 2.161883 -1.118313 3.864510 0
M  V30 30 H 0.508690 -1.697378 4.288413 0
M  V30 31 H 0.613769 -0.293477 3.237412 0
M  V30 32 H -0.188012 -2.761702 0.762496 0
M  V30 33 H -0.683711 -3.355591 2.337894 0
M  V30 34 H -0.958577 -1.655992 2.049231 0
M  V30 35 H 2.349740 -3.038417 0.793373 0
M  V30 36 H 3.190478 -2.097601 2.014694 0
M  V30 37 H 1.470363 0.837729 1.321202 0
M  V30 38 H 3.063512 1.072954 0.491064 0
M  V30 39 H 2.988460 0.233877 2.066440 0
M  V30 40 H 4.507680 -1.289310 0.751793 0
M  V30 41 H 3.839583 -1.995354 -0.748703 0
M  V30 42 H 4.103032 -0.224420 -0.676023 0
M  V30 43 H 1.964224 -1.394573 -1.533096 0
M  V30 44 H -0.965706 1.335362 2.516463 0
M  V30 45 H -2.171289 2.505010 4.230147 0
M  V30 46 H -5.349424 3.010816 1.485624 0
M  V30 47 H -4.134686 1.836332 -0.223735 0
M  V30 48 H -3.306568 0.317258 -3.621224 0
M  V30 49 H -0.082420 -1.778449 -5.279098 0
M  V30 50 H 1.055521 -1.605044 -3.174496 0
M  V30 END ATOM
M  V30 BEGIN BOND
M  V30 1 1 1 2
M  V30 2 1 2 3
M  V30 3 1 2 4
M  V30 4 1 2 5
M  V30 5 1 5 6
M  V30 6 1 6 7
M  V30 7 1 6 8
M  V30 8 1 6 9
M  V30 9 1 9 10
M  V30 10 2 10 11
M  V30 11 1 11 12
M  V30 12 1 12 13
M  V30 13 2 13 14
M  V30 14 1 14 15
M  V30 15 2 15 16
M  V30 16 1 16 17
M  V30 17 2 17 18
M  V30 18 2 12 19
M  V30 19 1 19 20
M  V30 20 2 20 21
M  V30 21 1 21 22
M  V30 22 2 22 23
M  V30 23 1 23 24
M  V30 24 2 24 25
M  V30 25 1 25 10
M  V30 26 1 18 13
M  V30 27 1 25 20
M  V30 28 1 1 26
M  V30 29 1 1 27
M  V30 30 1 1 28
M  V30 31 1 3 29
M  V30 32 1 3 30
M  V30 33 1 3 31
M  V30 34 1 4 32
M  V30 35 1 4 33
M  V30 36 1 4 34
M  V30 37 1 5 35
M  V30 38 1 5 36
M  V30 39 1 7 37
M  V30 40 1 7 38
M  V30 41 1 7 39
M  V30 42 1 8 40
M  V30 43 1 8 41
M  V30 44 1 8 42
M  V30 45 1 9 43
M  V30 46 1 14 44
M  V30 47 1 15 45
M  V30 48 1 17 46
M  V30 49 1 18 47
M  V30 50 1 21 48
M  V30 51 1 23 49
M  V30 52 1 24 50
M  V30 END BOND
M  V30 END CTAB
M  END
>  <Dataset>  (880) 
ChEMBL_Kinases

>  <Ligand_Instance>  (880) 
nan

>  <PDB_ID>  (880) 
nan

>  <Standardized_SMILES>  (880) 
CC(C)(C)CC(C)(C)Nc1nc(-c2ccncc2)nc2cnccc12

>  <Name>  (880) 
nan

>  <Pocket>  (880) 
nan

>  <ATP_Site>  (880) 
nan

>  <Peripheral>  (880) 
nan

>  <Num_H_Atoms_ProtBoundConf>  (880) 
nan

>  <Num_Resolved_Atoms>  (880) 
nan

>  <Num_Not_Resolved_Atoms>  (880) 
nan

$$$$
CHEMBL4579826
     RDKit          3D

  0  0  0  0  0  0  0  0  0  0999 V3000
M  V30 BEGIN CTAB
M  V30 COUNTS 50 53 0 0 0
M  V30 BEGIN ATOM
M  V30 1 C 2.588605 -5.924922 1.856666 0
M  V30 2 C 3.799395 -5.063659 1.805019 0
M  V30 3 O 4.864511 -5.360727 2.399851 0
M  V30 4 C 3.787804 -3.819451 1.045054 0
M  V30 5 C 4.920841 -3.032476 1.010148 0
M  V30 6 C 4.960568 -1.845877 0.305642 0
M  V30 7 C 3.857075 -1.399866 -0.396008 0
M  V30 8 C 3.814767 -0.159938 -1.167088 0
M  V30 9 C 4.798599 0.277776 -2.062854 0
M  V30 10 N 4.391162 1.462380 -2.574232 0
M  V30 11 C 3.195142 1.787999 -2.039153 0
M  V30 12 N 2.374480 2.848316 -2.211926 0
M  V30 13 C 1.211166 2.938982 -1.544376 0
M  V30 14 C 0.758183 1.979412 -0.641955 0
M  V30 15 C -0.513632 2.143057 0.046273 0
M  V30 16 C -1.009615 1.289825 0.905744 0
M  V30 17 C -2.294295 1.532713 1.550811 0
M  V30 18 O -2.900807 2.571860 1.260202 0
M  V30 19 N -2.837739 0.611083 2.483259 0
M  V30 20 C -4.084964 0.722075 3.190069 0
M  V30 21 C -5.223305 0.407018 2.299477 0
M  V30 22 C -5.932530 1.302463 1.518139 0
M  V30 23 C -6.979123 0.880719 0.725038 0
M  V30 24 N -7.372639 -0.394875 0.657567 0
M  V30 25 C -6.736098 -1.331544 1.386384 0
M  V30 26 C -5.680834 -0.910532 2.186921 0
M  V30 27 C 1.599145 0.910279 -0.476449 0
M  V30 28 C 2.807623 0.799013 -1.158786 0
M  V30 29 C 2.691189 -2.176493 -0.380308 0
M  V30 30 C 2.687652 -3.370758 0.342957 0
M  V30 31 H 1.639421 -5.351781 1.881430 0
M  V30 32 H 2.639585 -6.644055 2.709018 0
M  V30 33 H 2.541617 -6.568147 0.931759 0
M  V30 34 H 5.810311 -3.341574 1.544846 0
M  V30 35 H 5.827360 -1.184620 0.242836 0
M  V30 36 H 5.736680 -0.233242 -2.317534 0
M  V30 37 H 4.943400 2.030909 -3.285201 0
M  V30 38 H 0.638556 3.829689 -1.762213 0
M  V30 39 H -1.096339 3.025533 -0.159140 0
M  V30 40 H -0.473447 0.406427 1.140834 0
M  V30 41 H -2.236437 -0.246035 2.660552 0
M  V30 42 H -4.166923 1.763094 3.604521 0
M  V30 43 H -4.087921 0.058284 4.066569 0
M  V30 44 H -5.617698 2.334986 1.571100 0
M  V30 45 H -7.499618 1.643207 0.129735 0
M  V30 46 H -6.967129 -2.390335 1.410829 0
M  V30 47 H -5.145996 -1.649794 2.789379 0
M  V30 48 H 1.313271 0.136372 0.203912 0
M  V30 49 H 1.764902 -1.943493 -0.886040 0
M  V30 50 H 1.795600 -3.990714 0.369985 0
M  V30 END ATOM
M  V30 BEGIN BOND
M  V30 1 1 1 2
M  V30 2 2 2 3
M  V30 3 1 2 4
M  V30 4 2 4 5
M  V30 5 1 5 6
M  V30 6 2 6 7
M  V30 7 1 7 8
M  V30 8 2 8 9
M  V30 9 1 9 10
M  V30 10 1 10 11
M  V30 11 2 11 12
M  V30 12 1 12 13
M  V30 13 2 13 14
M  V30 14 1 14 15
M  V30 15 2 15 16
M  V30 16 1 16 17
M  V30 17 2 17 18
M  V30 18 1 17 19
M  V30 19 1 19 20
M  V30 20 1 20 21
M  V30 21 2 21 22
M  V30 22 1 22 23
M  V30 23 2 23 24
M  V30 24 1 24 25
M  V30 25 2 25 26
M  V30 26 1 14 27
M  V30 27 2 27 28
M  V30 28 1 7 29
M  V30 29 2 29 30
M  V30 30 1 30 4
M  V30 31 1 28 8
M  V30 32 1 28 11
M  V30 33 1 26 21
M  V30 34 1 1 31
M  V30 35 1 1 32
M  V30 36 1 1 33
M  V30 37 1 5 34
M  V30 38 1 6 35
M  V30 39 1 9 36
M  V30 40 1 10 37
M  V30 41 1 13 38
M  V30 42 1 15 39
M  V30 43 1 16 40
M  V30 44 1 19 41
M  V30 45 1 20 42
M  V30 46 1 20 43
M  V30 47 1 22 44
M  V30 48 1 23 45
M  V30 49 1 25 46
M  V30 50 1 26 47
M  V30 51 1 27 48
M  V30 52 1 29 49
M  V30 53 1 30 50
M  V30 END BOND
M  V30 END CTAB
M  END
>  <Dataset>  (881) 
ChEMBL_Kinases

>  <Ligand_Instance>  (881) 
nan

>  <PDB_ID>  (881) 
nan

>  <Standardized_SMILES>  (881) 
CC(=O)c1ccc(-c2c[nH]c3ncc(/C=C/C(=O)NCc4ccncc4)cc23)cc1

>  <Name>  (881) 
nan

>  <Pocket>  (881) 
nan

>  <ATP_Site>  (881) 
nan

>  <Peripheral>  (881) 
nan

>  <Num_H_Atoms_ProtBoundConf>  (881) 
nan

>  <Num_Resolved_Atoms>  (881) 
nan

>  <Num_Not_Resolved_Atoms>  (881) 
nan

$$$$
CHEMBL462372
     RDKit          3D

  0  0  0  0  0  0  0  0  0  0999 V3000
M  V30 BEGIN CTAB
M  V30 COUNTS 50 53 0 0 0
M  V30 BEGIN ATOM
M  V30 1 C -0.380521 -7.870336 -0.220990 0
M  V30 2 C 0.800889 -7.005237 0.165312 0
M  V30 3 C 0.608321 -6.375357 1.526517 0
M  V30 4 C 1.818748 -5.540855 1.831622 0
M  V30 5 C 2.020979 -4.466715 0.828706 0
M  V30 6 N 1.402565 -3.289051 1.112819 0
M  V30 7 C 1.506593 -2.232354 0.285049 0
M  V30 8 N 1.025829 -0.978972 0.295885 0
M  V30 9 C 1.431701 -0.296972 -0.794977 0
M  V30 10 C 1.124438 1.090411 -1.152530 0
M  V30 11 C 1.627133 1.633918 -2.316555 0
M  V30 12 C 1.281335 2.945734 -2.563781 0
M  V30 13 N 0.506888 3.686753 -1.751707 0
M  V30 14 C -0.001638 3.192733 -0.608864 0
M  V30 15 C -0.842261 3.997407 0.272443 0
M  V30 16 C -1.390318 3.625918 1.404041 0
M  V30 17 C -2.225119 4.442348 2.268483 0
M  V30 18 C -2.747116 3.936259 3.441081 0
M  V30 19 C -3.541753 4.689273 4.278954 0
M  V30 20 C -3.854860 6.000072 3.978590 0
M  V30 21 C -3.339370 6.520288 2.807898 0
M  V30 22 C -2.548202 5.732625 1.997276 0
M  V30 23 C 0.335489 1.882063 -0.348097 0
M  V30 24 C 2.199358 -1.158280 -1.520944 0
M  V30 25 C 2.265053 -2.374655 -0.872759 0
M  V30 26 C 2.867988 -3.590729 -1.107517 0
M  V30 27 O 3.564098 -3.733497 -2.162580 0
M  V30 28 N 2.769682 -4.647874 -0.288828 0
M  V30 29 H -1.285214 -7.490454 0.317981 0
M  V30 30 H -0.164351 -8.918772 0.041228 0
M  V30 31 H -0.527113 -7.757635 -1.313435 0
M  V30 32 H 1.696863 -7.653959 0.216986 0
M  V30 33 H 0.918915 -6.186327 -0.584276 0
M  V30 34 H -0.339086 -5.801391 1.587718 0
M  V30 35 H 0.572366 -7.189614 2.281244 0
M  V30 36 H 1.832375 -5.164863 2.871643 0
M  V30 37 H 2.697220 -6.243686 1.776293 0
M  V30 38 H 0.415897 -0.604685 1.065434 0
M  V30 39 H 2.251227 1.048189 -2.978083 0
M  V30 40 H 1.651497 3.417627 -3.465462 0
M  V30 41 H -1.042645 5.015957 -0.031360 0
M  V30 42 H -1.186110 2.594734 1.709391 0
M  V30 43 H -2.532474 2.898587 3.733471 0
M  V30 44 H -3.949859 4.287915 5.199267 0
M  V30 45 H -4.476503 6.597442 4.628907 0
M  V30 46 H -3.604690 7.562958 2.595689 0
M  V30 47 H -2.201410 6.225234 1.121000 0
M  V30 48 H -0.026767 1.398421 0.547906 0
M  V30 49 H 2.686402 -0.925701 -2.465818 0
M  V30 50 H 3.229054 -5.566331 -0.471005 0
M  V30 END ATOM
M  V30 BEGIN BOND
M  V30 1 1 1 2
M  V30 2 1 2 3
M  V30 3 1 3 4
M  V30 4 1 4 5
M  V30 5 2 5 6
M  V30 6 1 6 7
M  V30 7 1 7 8
M  V30 8 1 8 9
M  V30 9 1 9 10
M  V30 10 2 10 11
M  V30 11 1 11 12
M  V30 12 2 12 13
M  V30 13 1 13 14
M  V30 14 1 14 15
M  V30 15 2 15 16
M  V30 16 1 16 17
M  V30 17 2 17 18
M  V30 18 1 18 19
M  V30 19 2 19 20
M  V30 20 1 20 21
M  V30 21 2 21 22
M  V30 22 2 14 23
M  V30 23 2 9 24
M  V30 24 1 24 25
M  V30 25 1 25 26
M  V30 26 2 26 27
M  V30 27 1 26 28
M  V30 28 1 28 5
M  V30 29 2 25 7
M  V30 30 1 23 10
M  V30 31 1 22 17
M  V30 32 1 1 29
M  V30 33 1 1 30
M  V30 34 1 1 31
M  V30 35 1 2 32
M  V30 36 1 2 33
M  V30 37 1 3 34
M  V30 38 1 3 35
M  V30 39 1 4 36
M  V30 40 1 4 37
M  V30 41 1 8 38
M  V30 42 1 11 39
M  V30 43 1 12 40
M  V30 44 1 15 41
M  V30 45 1 16 42
M  V30 46 1 18 43
M  V30 47 1 19 44
M  V30 48 1 20 45
M  V30 49 1 21 46
M  V30 50 1 22 47
M  V30 51 1 23 48
M  V30 52 1 24 49
M  V30 53 1 28 50
M  V30 END BOND
M  V30 END CTAB
M  END
>  <Dataset>  (882) 
ChEMBL_Kinases

>  <Ligand_Instance>  (882) 
nan

>  <PDB_ID>  (882) 
nan

>  <Standardized_SMILES>  (882) 
CCCCc1nc2[nH]c(-c3ccnc(/C=C/c4ccccc4)c3)cc2c(=O)[nH]1

>  <Name>  (882) 
nan

>  <Pocket>  (882) 
nan

>  <ATP_Site>  (882) 
nan

>  <Peripheral>  (882) 
nan

>  <Num_H_Atoms_ProtBoundConf>  (882) 
nan

>  <Num_Resolved_Atoms>  (882) 
nan

>  <Num_Not_Resolved_Atoms>  (882) 
nan

$$$$
CHEMBL4579783
     RDKit          3D

  0  0  0  0  0  0  0  0  0  0999 V3000
M  V30 BEGIN CTAB
M  V30 COUNTS 38 40 0 0 0
M  V30 BEGIN ATOM
M  V30 1 C -2.182693 -5.249008 0.936567 0
M  V30 2 C -0.687394 -5.103230 0.999342 0
M  V30 3 C -0.132981 -5.445935 2.360598 0
M  V30 4 N -0.259923 -3.781208 0.620659 0
M  V30 5 C -0.501647 -2.425249 0.964855 0
M  V30 6 S 0.380342 -0.979389 0.198475 0
M  V30 7 C -0.490957 0.231327 1.138654 0
M  V30 8 C -0.168057 1.665570 0.952688 0
M  V30 9 O -0.794141 2.461984 1.736111 0
M  V30 10 C 0.772384 2.184990 -0.017699 0
M  V30 11 C 1.221154 1.673826 -1.212067 0
M  V30 12 C 2.154998 2.308148 -1.994494 0
M  V30 13 C 2.695319 3.510400 -1.611007 0
M  V30 14 C 2.280244 4.067582 -0.422760 0
M  V30 15 C 1.345877 3.411211 0.339044 0
M  V30 16 O 2.978336 5.281302 -0.267545 0
M  V30 17 C 4.162140 5.171671 -1.073670 0
M  V30 18 O 3.640864 4.398083 -2.157713 0
M  V30 19 C -1.326795 -0.438943 1.913038 0
M  V30 20 N -2.145699 0.374890 2.772087 0
M  V30 21 C -1.371427 -1.792908 1.863193 0
M  V30 22 C -2.286354 -2.565658 2.697133 0
M  V30 23 N -3.033003 -3.189407 3.361098 0
M  V30 24 H -2.475469 -6.110682 0.280920 0
M  V30 25 H -2.577909 -5.520781 1.930452 0
M  V30 26 H -2.638301 -4.357095 0.479125 0
M  V30 27 H -0.300788 -5.859654 0.243217 0
M  V30 28 H 0.973388 -5.293243 2.343941 0
M  V30 29 H -0.533101 -4.733415 3.095202 0
M  V30 30 H -0.393538 -6.488842 2.634172 0
M  V30 31 H 0.457117 -3.855614 -0.148860 0
M  V30 32 H 0.781313 0.737492 -1.506314 0
M  V30 33 H 2.458491 1.842686 -2.921336 0
M  V30 34 H 1.071069 3.918598 1.262662 0
M  V30 35 H 4.860218 4.515560 -0.539616 0
M  V30 36 H 4.555641 6.139989 -1.377273 0
M  V30 37 H -2.209353 0.378314 3.832061 0
M  V30 38 H -2.804646 1.095504 2.377239 0
M  V30 END ATOM
M  V30 BEGIN BOND
M  V30 1 1 1 2
M  V30 2 1 2 3
M  V30 3 1 2 4
M  V30 4 1 4 5
M  V30 5 1 5 6
M  V30 6 1 6 7
M  V30 7 1 7 8
M  V30 8 2 8 9
M  V30 9 1 8 10
M  V30 10 2 10 11
M  V30 11 1 11 12
M  V30 12 2 12 13
M  V30 13 1 13 14
M  V30 14 2 14 15
M  V30 15 1 14 16
M  V30 16 1 16 17
M  V30 17 1 17 18
M  V30 18 2 7 19
M  V30 19 1 19 20
M  V30 20 1 19 21
M  V30 21 1 21 22
M  V30 22 3 22 23
M  V30 23 2 21 5
M  V30 24 1 15 10
M  V30 25 1 18 13
M  V30 26 1 1 24
M  V30 27 1 1 25
M  V30 28 1 1 26
M  V30 29 1 2 27
M  V30 30 1 3 28
M  V30 31 1 3 29
M  V30 32 1 3 30
M  V30 33 1 4 31
M  V30 34 1 11 32
M  V30 35 1 12 33
M  V30 36 1 15 34
M  V30 37 1 17 35
M  V30 38 1 17 36
M  V30 39 1 20 37
M  V30 40 1 20 38
M  V30 END BOND
M  V30 END CTAB
M  END
>  <Dataset>  (883) 
ChEMBL_Kinases

>  <Ligand_Instance>  (883) 
nan

>  <PDB_ID>  (883) 
nan

>  <Standardized_SMILES>  (883) 
CC(C)Nc1sc(C(=O)c2ccc3c(c2)OCO3)c(N)c1C#N

>  <Name>  (883) 
nan

>  <Pocket>  (883) 
nan

>  <ATP_Site>  (883) 
nan

>  <Peripheral>  (883) 
nan

>  <Num_H_Atoms_ProtBoundConf>  (883) 
nan

>  <Num_Resolved_Atoms>  (883) 
nan

>  <Num_Not_Resolved_Atoms>  (883) 
nan

$$$$
CHEMBL462377
     RDKit          3D

  0  0  0  0  0  0  0  0  0  0999 V3000
M  V30 BEGIN CTAB
M  V30 COUNTS 60 61 0 0 0
M  V30 BEGIN ATOM
M  V30 1 C 0.999588 -2.703487 2.134542 0
M  V30 2 C 2.112691 -3.481527 1.515760 0
M  V30 3 C 3.402001 -2.725005 1.763649 0
M  V30 4 C 3.435337 -1.369760 1.186265 0
M  V30 5 O 4.194268 -1.093624 0.237425 0
M  V30 6 O 2.594320 -0.492334 1.762561 0
M  V30 7 C 2.259214 0.818177 1.593645 0
M  V30 8 C 1.558173 1.214261 0.341479 0
M  V30 9 C 2.361904 1.105954 -0.912648 0
M  V30 10 O 1.687448 1.714316 -1.996448 0
M  V30 11 C 1.039769 2.676819 0.488390 0
M  V30 12 C -0.427602 2.521148 0.650887 0
M  V30 13 C -1.369542 3.471699 0.514363 0
M  V30 14 C -2.801701 3.147029 0.707562 0
M  V30 15 C -3.719126 3.877870 1.427892 0
M  V30 16 C -5.011420 3.411546 1.458372 0
M  V30 17 C -5.476916 2.272401 0.830383 0
M  V30 18 C -4.540373 1.542755 0.105467 0
M  V30 19 C -5.061495 0.329101 -0.556590 0
M  V30 20 F -5.778175 0.749734 -1.667680 0
M  V30 21 F -4.060761 -0.577215 -0.894622 0
M  V30 22 F -5.921477 -0.329216 0.329924 0
M  V30 23 C -3.237362 1.986411 0.057205 0
M  V30 24 C -0.646313 1.108013 1.027824 0
M  V30 25 O -1.565442 0.807128 1.870001 0
M  V30 26 O 0.339565 0.476146 0.249865 0
M  V30 27 C 2.011152 -3.819634 0.091696 0
M  V30 28 C 0.870907 -4.633942 -0.381413 0
M  V30 29 C -0.497174 -4.046469 -0.151219 0
M  V30 30 C 1.000588 -4.722537 -1.904329 0
M  V30 31 C 0.878648 -6.062895 0.106287 0
M  V30 32 H 0.536056 -1.933542 1.527473 0
M  V30 33 H 0.226880 -3.347621 2.635486 0
M  V30 34 H 1.444956 -2.142724 3.012822 0
M  V30 35 H 2.235826 -4.422965 2.102355 0
M  V30 36 H 4.199052 -3.339363 1.283153 0
M  V30 37 H 3.603294 -2.725707 2.832907 0
M  V30 38 H 1.662456 1.160547 2.505254 0
M  V30 39 H 3.226930 1.418535 1.673151 0
M  V30 40 H 3.357089 1.525642 -0.791730 0
M  V30 41 H 2.476103 0.040281 -1.249550 0
M  V30 42 H 1.013358 1.085014 -2.356628 0
M  V30 43 H 1.531634 3.187321 1.326968 0
M  V30 44 H 1.197193 3.144826 -0.492991 0
M  V30 45 H -1.095138 4.505092 0.260308 0
M  V30 46 H -3.346121 4.757259 1.908503 0
M  V30 47 H -5.740030 3.991137 2.026643 0
M  V30 48 H -6.514819 1.961230 0.895858 0
M  V30 49 H -2.639386 1.306466 -0.558902 0
M  V30 50 H 2.942196 -4.392072 -0.169189 0
M  V30 51 H 2.078984 -2.911108 -0.570850 0
M  V30 52 H -1.182984 -4.504682 -0.925220 0
M  V30 53 H -0.962016 -4.314455 0.810630 0
M  V30 54 H -0.479333 -2.958338 -0.368352 0
M  V30 55 H 1.012010 -3.688638 -2.293087 0
M  V30 56 H 0.120198 -5.303277 -2.315064 0
M  V30 57 H 1.930124 -5.254801 -2.113920 0
M  V30 58 H 0.100687 -6.155903 0.920751 0
M  V30 59 H 0.535956 -6.782596 -0.684878 0
M  V30 60 H 1.854829 -6.423385 0.446475 0
M  V30 END ATOM
M  V30 BEGIN BOND
M  V30 1 1 1 2
M  V30 2 1 2 3
M  V30 3 1 3 4
M  V30 4 2 4 5
M  V30 5 1 4 6
M  V30 6 1 6 7
M  V30 7 1 7 8
M  V30 8 1 8 9
M  V30 9 1 9 10
M  V30 10 1 8 11
M  V30 11 1 11 12
M  V30 12 2 12 13
M  V30 13 1 13 14
M  V30 14 2 14 15
M  V30 15 1 15 16
M  V30 16 2 16 17
M  V30 17 1 17 18
M  V30 18 1 18 19
M  V30 19 1 19 20
M  V30 20 1 19 21
M  V30 21 1 19 22
M  V30 22 2 18 23
M  V30 23 1 12 24
M  V30 24 2 24 25
M  V30 25 1 24 26
M  V30 26 1 2 27
M  V30 27 1 27 28
M  V30 28 1 28 29
M  V30 29 1 28 30
M  V30 30 1 28 31
M  V30 31 1 26 8
M  V30 32 1 23 14
M  V30 33 1 1 32
M  V30 34 1 1 33
M  V30 35 1 1 34
M  V30 36 1 2 35
M  V30 37 1 3 36
M  V30 38 1 3 37
M  V30 39 1 7 38
M  V30 40 1 7 39
M  V30 41 1 9 40
M  V30 42 1 9 41
M  V30 43 1 10 42
M  V30 44 1 11 43
M  V30 45 1 11 44
M  V30 46 1 13 45
M  V30 47 1 15 46
M  V30 48 1 16 47
M  V30 49 1 17 48
M  V30 50 1 23 49
M  V30 51 1 27 50
M  V30 52 1 27 51
M  V30 53 1 29 52
M  V30 54 1 29 53
M  V30 55 1 29 54
M  V30 56 1 30 55
M  V30 57 1 30 56
M  V30 58 1 30 57
M  V30 59 1 31 58
M  V30 60 1 31 59
M  V30 61 1 31 60
M  V30 END BOND
M  V30 END CTAB
M  END
>  <Dataset>  (884) 
ChEMBL_Kinases

>  <Ligand_Instance>  (884) 
nan

>  <PDB_ID>  (884) 
nan

>  <Standardized_SMILES>  (884) 
CC(CC(=O)OCC1(CO)C/C(=C/c2cccc(C(F)(F)F)c2)C(=O)O1)CC(C)(C)C

>  <Name>  (884) 
nan

>  <Pocket>  (884) 
nan

>  <ATP_Site>  (884) 
nan

>  <Peripheral>  (884) 
nan

>  <Num_H_Atoms_ProtBoundConf>  (884) 
nan

>  <Num_Resolved_Atoms>  (884) 
nan

>  <Num_Not_Resolved_Atoms>  (884) 
nan

$$$$
CHEMBL462578
     RDKit          3D

  0  0  0  0  0  0  0  0  0  0999 V3000
M  V30 BEGIN CTAB
M  V30 COUNTS 34 37 0 0 0
M  V30 BEGIN ATOM
M  V30 1 O 4.489547 -4.297826 1.331081 0
M  V30 2 C 3.276211 -4.595812 1.370993 0
M  V30 3 N 2.761410 -5.810299 1.596432 0
M  V30 4 C 1.442151 -6.019361 1.617802 0
M  V30 5 N 0.523801 -5.042512 1.417596 0
M  V30 6 C 0.970837 -3.776433 1.181310 0
M  V30 7 N 0.354735 -2.603386 0.947796 0
M  V30 8 C 1.289451 -1.643194 0.777043 0
M  V30 9 C 1.070746 -0.220686 0.501382 0
M  V30 10 C 2.137799 0.640532 0.351458 0
M  V30 11 C 1.811156 1.955662 0.094890 0
M  V30 12 N 0.516576 2.376469 -0.004011 0
M  V30 13 C -0.530215 1.550515 0.139438 0
M  V30 14 C -1.878790 2.100181 0.015070 0
M  V30 15 C -1.972213 3.451759 -0.245164 0
M  V30 16 C -3.217930 4.069005 -0.381048 0
M  V30 17 C -4.317646 3.248347 -0.239414 0
M  V30 18 F -5.548347 3.827014 -0.367684 0
M  V30 19 C -4.291223 1.893806 0.020437 0
M  V30 20 C -3.015800 1.332034 0.146117 0
M  V30 21 C -0.229456 0.230254 0.396624 0
M  V30 22 C 2.530591 -2.239861 0.908964 0
M  V30 23 C 2.356457 -3.583343 1.163941 0
M  V30 24 H 3.460737 -6.581083 1.754043 0
M  V30 25 H 1.050667 -7.020022 1.804014 0
M  V30 26 H -0.678998 -2.461492 0.905961 0
M  V30 27 H 3.161960 0.302179 0.430749 0
M  V30 28 H 2.618044 2.677835 -0.032074 0
M  V30 29 H -1.119749 4.132172 -0.363432 0
M  V30 30 H -3.316001 5.124352 -0.584598 0
M  V30 31 H -5.193950 1.328644 0.115912 0
M  V30 32 H -2.943341 0.283180 0.348058 0
M  V30 33 H -1.055140 -0.457519 0.516723 0
M  V30 34 H 3.484316 -1.714594 0.821831 0
M  V30 END ATOM
M  V30 BEGIN BOND
M  V30 1 2 1 2
M  V30 2 1 2 3
M  V30 3 1 3 4
M  V30 4 2 4 5
M  V30 5 1 5 6
M  V30 6 1 6 7
M  V30 7 1 7 8
M  V30 8 1 8 9
M  V30 9 2 9 10
M  V30 10 1 10 11
M  V30 11 2 11 12
M  V30 12 1 12 13
M  V30 13 1 13 14
M  V30 14 2 14 15
M  V30 15 1 15 16
M  V30 16 2 16 17
M  V30 17 1 17 18
M  V30 18 1 17 19
M  V30 19 2 19 20
M  V30 20 2 13 21
M  V30 21 2 8 22
M  V30 22 1 22 23
M  V30 23 1 23 2
M  V30 24 2 23 6
M  V30 25 1 21 9
M  V30 26 1 20 14
M  V30 27 1 3 24
M  V30 28 1 4 25
M  V30 29 1 7 26
M  V30 30 1 10 27
M  V30 31 1 11 28
M  V30 32 1 15 29
M  V30 33 1 16 30
M  V30 34 1 19 31
M  V30 35 1 20 32
M  V30 36 1 21 33
M  V30 37 1 22 34
M  V30 END BOND
M  V30 END CTAB
M  END
>  <Dataset>  (885) 
ChEMBL_Kinases

>  <Ligand_Instance>  (885) 
nan

>  <PDB_ID>  (885) 
nan

>  <Standardized_SMILES>  (885) 
O=c1[nH]cnc2[nH]c(-c3ccnc(-c4ccc(F)cc4)c3)cc12

>  <Name>  (885) 
nan

>  <Pocket>  (885) 
nan

>  <ATP_Site>  (885) 
nan

>  <Peripheral>  (885) 
nan

>  <Num_H_Atoms_ProtBoundConf>  (885) 
nan

>  <Num_Resolved_Atoms>  (885) 
nan

>  <Num_Not_Resolved_Atoms>  (885) 
nan

$$$$
CHEMBL4579738
     RDKit          3D

  0  0  0  0  0  0  0  0  0  0999 V3000
M  V30 BEGIN CTAB
M  V30 COUNTS 40 44 0 0 0
M  V30 BEGIN ATOM
M  V30 1 O 3.158050 -1.306999 -4.113338 0
M  V30 2 C 3.254081 -1.686950 -2.910265 0
M  V30 3 N 4.352456 -2.432400 -2.412627 0
M  V30 4 C 4.222124 -2.740264 -1.016050 0
M  V30 5 C 5.000644 -3.431332 -0.109063 0
M  V30 6 C 4.561190 -3.562514 1.212592 0
M  V30 7 C 3.353371 -3.014903 1.650668 0
M  V30 8 C 2.672221 -2.351705 0.655847 0
M  V30 9 C 3.012049 -2.166986 -0.654735 0
M  V30 10 C 2.363175 -1.500386 -1.771462 0
M  V30 11 C 1.225184 -0.858072 -1.867086 0
M  V30 12 C 0.095937 -0.440542 -1.095688 0
M  V30 13 C 0.458859 0.266317 0.056826 0
M  V30 14 C -0.450116 0.755210 0.982515 0
M  V30 15 C -1.792713 0.507303 0.715471 0
M  V30 16 C -2.958275 0.822341 1.376640 0
M  V30 17 C -3.011611 1.568213 2.631059 0
M  V30 18 C -2.190119 1.304243 3.722944 0
M  V30 19 C -2.225464 2.013818 4.917100 0
M  V30 20 C -3.150776 3.053891 5.008353 0
M  V30 21 N -3.951374 3.321891 3.965227 0
M  V30 22 C -3.905986 2.628928 2.818269 0
M  V30 23 N -3.994671 0.320364 0.646351 0
M  V30 24 N -3.548544 -0.295992 -0.441894 0
M  V30 25 C -2.194217 -0.192097 -0.418316 0
M  V30 26 C -1.241641 -0.662536 -1.319103 0
M  V30 27 H 5.163628 -2.721397 -2.997050 0
M  V30 28 H 5.938836 -3.860888 -0.430109 0
M  V30 29 H 5.176497 -4.113348 1.942367 0
M  V30 30 H 3.009206 -3.112593 2.662283 0
M  V30 31 H 1.733314 -1.950224 1.008511 0
M  V30 32 H 0.927512 -0.445642 -2.822315 0
M  V30 33 H 1.484875 0.489747 0.319477 0
M  V30 34 H -0.132729 1.300419 1.861053 0
M  V30 35 H -1.466167 0.480924 3.650416 0
M  V30 36 H -1.522277 1.711159 5.712067 0
M  V30 37 H -3.090418 3.539669 5.989426 0
M  V30 38 H -4.597411 2.916143 2.011243 0
M  V30 39 H -4.063537 -0.780609 -1.198640 0
M  V30 40 H -1.471684 -1.220647 -2.233136 0
M  V30 END ATOM
M  V30 BEGIN BOND
M  V30 1 2 1 2
M  V30 2 1 2 3
M  V30 3 1 3 4
M  V30 4 2 4 5
M  V30 5 1 5 6
M  V30 6 2 6 7
M  V30 7 1 7 8
M  V30 8 2 8 9
M  V30 9 1 9 10
M  V30 10 2 10 11 CFG=2
M  V30 11 1 11 12
M  V30 12 2 12 13
M  V30 13 1 13 14
M  V30 14 2 14 15
M  V30 15 1 15 16
M  V30 16 1 16 17
M  V30 17 2 17 18
M  V30 18 1 18 19
M  V30 19 2 19 20
M  V30 20 1 20 21
M  V30 21 2 21 22
M  V30 22 2 16 23
M  V30 23 1 23 24
M  V30 24 1 24 25
M  V30 25 2 25 26
M  V30 26 1 10 2
M  V30 27 1 26 12
M  V30 28 1 9 4
M  V30 29 1 25 15
M  V30 30 1 22 17
M  V30 31 1 3 27
M  V30 32 1 5 28
M  V30 33 1 6 29
M  V30 34 1 7 30
M  V30 35 1 8 31
M  V30 36 1 11 32
M  V30 37 1 13 33
M  V30 38 1 14 34
M  V30 39 1 18 35
M  V30 40 1 19 36
M  V30 41 1 20 37
M  V30 42 1 22 38
M  V30 43 1 24 39
M  V30 44 1 26 40
M  V30 END BOND
M  V30 END CTAB
M  END
>  <Dataset>  (886) 
ChEMBL_Kinases

>  <Ligand_Instance>  (886) 
nan

>  <PDB_ID>  (886) 
nan

>  <Standardized_SMILES>  (886) 
O=C1Nc2ccccc2C1=Cc1ccc2c(-c3cccnc3)n[nH]c2c1

>  <Name>  (886) 
nan

>  <Pocket>  (886) 
nan

>  <ATP_Site>  (886) 
nan

>  <Peripheral>  (886) 
nan

>  <Num_H_Atoms_ProtBoundConf>  (886) 
nan

>  <Num_Resolved_Atoms>  (886) 
nan

>  <Num_Not_Resolved_Atoms>  (886) 
nan

$$$$
CHEMBL462579
     RDKit          3D

  0  0  0  0  0  0  0  0  0  0999 V3000
M  V30 BEGIN CTAB
M  V30 COUNTS 34 37 0 0 0
M  V30 BEGIN ATOM
M  V30 1 O 5.647590 1.507525 0.823673 0
M  V30 2 C 5.099139 0.471990 1.295271 0
M  V30 3 N 5.833371 -0.416482 2.013680 0
M  V30 4 C 5.229197 -1.530970 2.517160 0
M  V30 5 N 3.921903 -1.732509 2.295490 0
M  V30 6 C 3.211347 -0.823412 1.570920 0
M  V30 7 N 1.888814 -0.889185 1.265001 0
M  V30 8 C 1.633185 0.201951 0.552175 0
M  V30 9 C 0.314529 0.543557 -0.001875 0
M  V30 10 C 0.081958 1.697831 -0.699403 0
M  V30 11 C -1.194005 1.888948 -1.164542 0
M  V30 12 N -2.211024 1.035573 -0.985127 0
M  V30 13 C -2.071129 -0.116896 -0.311889 0
M  V30 14 C -3.129756 -1.072746 0.009572 0
M  V30 15 C -3.012880 -2.251689 0.693218 0
M  V30 16 C -4.075914 -3.092753 0.943179 0
M  V30 17 C -5.318486 -2.672161 0.450716 0
M  V30 18 C -5.470955 -1.489709 -0.242153 0
M  V30 19 F -6.759957 -1.250522 -0.644612 0
M  V30 20 C -4.377309 -0.653256 -0.483221 0
M  V30 21 C -0.781883 -0.304843 0.154147 0
M  V30 22 C 2.750314 0.990516 0.376059 0
M  V30 23 C 3.751314 0.325989 1.030323 0
M  V30 24 H 6.851649 -0.240098 2.176324 0
M  V30 25 H 5.798318 -2.231987 3.082025 0
M  V30 26 H 1.239734 -1.674140 1.559035 0
M  V30 27 H 0.890939 2.395302 -0.848944 0
M  V30 28 H -1.411505 2.811286 -1.729851 0
M  V30 29 H -2.029445 -2.514189 1.044095 0
M  V30 30 H -3.900835 -4.002873 1.487095 0
M  V30 31 H -6.110923 -3.380616 0.680990 0
M  V30 32 H -4.631909 0.222523 -1.025906 0
M  V30 33 H -0.540434 -1.217207 0.718299 0
M  V30 34 H 2.883443 1.921768 -0.142682 0
M  V30 END ATOM
M  V30 BEGIN BOND
M  V30 1 2 1 2
M  V30 2 1 2 3
M  V30 3 1 3 4
M  V30 4 2 4 5
M  V30 5 1 5 6
M  V30 6 1 6 7
M  V30 7 1 7 8
M  V30 8 1 8 9
M  V30 9 2 9 10
M  V30 10 1 10 11
M  V30 11 2 11 12
M  V30 12 1 12 13
M  V30 13 1 13 14
M  V30 14 2 14 15
M  V30 15 1 15 16
M  V30 16 2 16 17
M  V30 17 1 17 18
M  V30 18 1 18 19
M  V30 19 2 18 20
M  V30 20 2 13 21
M  V30 21 2 8 22
M  V30 22 1 22 23
M  V30 23 1 23 2
M  V30 24 2 23 6
M  V30 25 1 21 9
M  V30 26 1 20 14
M  V30 27 1 3 24
M  V30 28 1 4 25
M  V30 29 1 7 26
M  V30 30 1 10 27
M  V30 31 1 11 28
M  V30 32 1 15 29
M  V30 33 1 16 30
M  V30 34 1 17 31
M  V30 35 1 20 32
M  V30 36 1 21 33
M  V30 37 1 22 34
M  V30 END BOND
M  V30 END CTAB
M  END
>  <Dataset>  (887) 
ChEMBL_Kinases

>  <Ligand_Instance>  (887) 
nan

>  <PDB_ID>  (887) 
nan

>  <Standardized_SMILES>  (887) 
O=c1[nH]cnc2[nH]c(-c3ccnc(-c4cccc(F)c4)c3)cc12

>  <Name>  (887) 
nan

>  <Pocket>  (887) 
nan

>  <ATP_Site>  (887) 
nan

>  <Peripheral>  (887) 
nan

>  <Num_H_Atoms_ProtBoundConf>  (887) 
nan

>  <Num_Resolved_Atoms>  (887) 
nan

>  <Num_Not_Resolved_Atoms>  (887) 
nan

$$$$
CHEMBL4579676
     RDKit          3D

  0  0  0  0  0  0  0  0  0  0999 V3000
M  V30 BEGIN CTAB
M  V30 COUNTS 49 52 0 0 0
M  V30 BEGIN ATOM
M  V30 1 C 1.489029 -3.733630 4.074706 0
M  V30 2 C 2.325382 -3.662487 2.813049 0
M  V30 3 C 3.783806 -3.656045 3.295946 0
M  V30 4 C 2.119996 -4.840793 1.927993 0
M  V30 5 O 2.123002 -2.409402 2.225396 0
M  V30 6 C 2.711671 -1.977765 1.055101 0
M  V30 7 O 3.497367 -2.710601 0.414380 0
M  V30 8 N 2.297988 -0.643643 0.724025 0
M  V30 9 C 1.388664 0.271895 1.436445 0
M  V30 10 C 0.168925 0.322256 0.541217 0
M  V30 11 C 0.552369 1.078263 -0.693058 0
M  V30 12 C 1.855759 0.796668 -1.096110 0
M  V30 13 S 2.058662 1.792491 -2.556868 0
M  V30 14 C 0.444910 2.517556 -2.563048 0
M  V30 15 N -0.138132 3.392977 -3.385428 0
M  V30 16 C -1.400055 3.800849 -3.170830 0
M  V30 17 N -2.009486 3.275096 -2.097514 0
M  V30 18 C -1.452984 2.396780 -1.255308 0
M  V30 19 N -2.310318 2.002143 -0.194801 0
M  V30 20 C -3.314490 1.035630 0.083743 0
M  V30 21 C -3.833108 1.024349 1.357131 0
M  V30 22 C -4.803509 0.081448 1.586269 0
M  V30 23 C -5.240494 -0.802764 0.616225 0
M  V30 24 Cl -6.489293 -1.941086 1.083907 0
M  V30 25 C -4.667660 -0.723788 -0.634067 0
M  V30 26 C -3.691430 0.185951 -0.955744 0
M  V30 27 C -0.159953 1.966452 -1.459306 0
M  V30 28 C 2.827794 -0.089110 -0.479229 0
M  V30 29 H 1.436346 -2.713354 4.501307 0
M  V30 30 H 1.929125 -4.373632 4.844994 0
M  V30 31 H 0.429362 -4.046189 3.847363 0
M  V30 32 H 3.907475 -2.680625 3.827544 0
M  V30 33 H 3.986396 -4.520718 3.945015 0
M  V30 34 H 4.402577 -3.618680 2.371173 0
M  V30 35 H 3.073653 -5.362416 1.704397 0
M  V30 36 H 1.539355 -4.611747 1.012415 0
M  V30 37 H 1.493356 -5.569318 2.490724 0
M  V30 38 H 1.172913 -0.126369 2.429675 0
M  V30 39 H 1.881099 1.281271 1.452617 0
M  V30 40 H -0.619678 0.817579 1.131245 0
M  V30 41 H -0.095337 -0.719072 0.239258 0
M  V30 42 H -1.893139 4.506581 -3.821360 0
M  V30 43 H -1.999929 2.716455 0.512877 0
M  V30 44 H -3.497977 1.706557 2.111617 0
M  V30 45 H -5.238082 0.047702 2.595559 0
M  V30 46 H -5.064951 -1.447383 -1.332272 0
M  V30 47 H -3.271003 0.218351 -1.935246 0
M  V30 48 H 3.155392 -0.867748 -1.183681 0
M  V30 49 H 3.731531 0.505614 -0.193846 0
M  V30 END ATOM
M  V30 BEGIN BOND
M  V30 1 1 1 2
M  V30 2 1 2 3
M  V30 3 1 2 4
M  V30 4 1 2 5
M  V30 5 1 5 6
M  V30 6 2 6 7
M  V30 7 1 6 8
M  V30 8 1 8 9
M  V30 9 1 9 10
M  V30 10 1 10 11
M  V30 11 2 11 12
M  V30 12 1 12 13
M  V30 13 1 13 14
M  V30 14 2 14 15
M  V30 15 1 15 16
M  V30 16 2 16 17
M  V30 17 1 17 18
M  V30 18 1 18 19
M  V30 19 1 19 20
M  V30 20 2 20 21
M  V30 21 1 21 22
M  V30 22 2 22 23
M  V30 23 1 23 24
M  V30 24 1 23 25
M  V30 25 2 25 26
M  V30 26 2 18 27
M  V30 27 1 12 28
M  V30 28 1 28 8
M  V30 29 1 27 11
M  V30 30 1 27 14
M  V30 31 1 26 20
M  V30 32 1 1 29
M  V30 33 1 1 30
M  V30 34 1 1 31
M  V30 35 1 3 32
M  V30 36 1 3 33
M  V30 37 1 3 34
M  V30 38 1 4 35
M  V30 39 1 4 36
M  V30 40 1 4 37
M  V30 41 1 9 38
M  V30 42 1 9 39
M  V30 43 1 10 40
M  V30 44 1 10 41
M  V30 45 1 16 42
M  V30 46 1 19 43
M  V30 47 1 21 44
M  V30 48 1 22 45
M  V30 49 1 25 46
M  V30 50 1 26 47
M  V30 51 1 28 48
M  V30 52 1 28 49
M  V30 END BOND
M  V30 END CTAB
M  END
>  <Dataset>  (888) 
ChEMBL_Kinases

>  <Ligand_Instance>  (888) 
nan

>  <PDB_ID>  (888) 
nan

>  <Standardized_SMILES>  (888) 
CC(C)(C)OC(=O)N1CCc2c(sc3ncnc(Nc4ccc(Cl)cc4)c23)C1

>  <Name>  (888) 
nan

>  <Pocket>  (888) 
nan

>  <ATP_Site>  (888) 
nan

>  <Peripheral>  (888) 
nan

>  <Num_H_Atoms_ProtBoundConf>  (888) 
nan

>  <Num_Resolved_Atoms>  (888) 
nan

>  <Num_Not_Resolved_Atoms>  (888) 
nan

$$$$
CHEMBL4579614
     RDKit          3D

  0  0  0  0  0  0  0  0  0  0999 V3000
M  V30 BEGIN CTAB
M  V30 COUNTS 38 41 0 0 0
M  V30 BEGIN ATOM
M  V30 1 C 0.550154 -5.224366 4.863770 0
M  V30 2 O 0.687313 -4.094355 4.221371 0
M  V30 3 C 0.821302 -2.999287 3.602847 0
M  V30 4 C 1.216211 -1.701751 3.776832 0
M  V30 5 C 1.163272 -0.782612 2.763457 0
M  V30 6 C 0.726992 -1.101799 1.493069 0
M  V30 7 C 0.452296 -0.133889 0.452347 0
M  V30 8 C 1.034215 1.081453 0.563850 0
M  V30 9 N 0.726991 1.924256 -0.420050 0
M  V30 10 C -0.071474 1.723000 -1.483362 0
M  V30 11 C -0.402041 2.585140 -2.501037 0
M  V30 12 C 0.137267 4.024845 -2.283510 0
M  V30 13 C -0.769715 4.652832 -1.437059 0
M  V30 14 C -0.576012 5.877413 -0.979437 0
M  V30 15 S 0.961313 6.327121 -1.704105 0
M  V30 16 C 1.254343 4.736726 -2.627215 0
M  V30 17 S -1.442992 1.851801 -3.594939 0
M  V30 18 N -1.513236 0.224787 -2.704474 0
M  V30 19 C -0.686477 0.480844 -1.623290 0
M  V30 20 C -0.400681 -0.422867 -0.631400 0
M  V30 21 C 0.331654 -2.403309 1.209045 0
M  V30 22 C 0.391427 -3.302949 2.281998 0
M  V30 23 O 0.009025 -4.625832 1.966873 0
M  V30 24 C -0.300534 -5.007228 0.683138 0
M  V30 25 H -0.457885 -5.298321 5.443797 0
M  V30 26 H 1.275998 -5.512069 5.636290 0
M  V30 27 H 0.515229 -6.120058 4.156885 0
M  V30 28 H 1.559674 -1.562503 4.794443 0
M  V30 29 H 1.519146 0.213216 2.983335 0
M  V30 30 H 1.683331 1.384708 1.366702 0
M  V30 31 H -1.742997 4.216346 -1.056849 0
M  V30 32 H -1.193707 6.482061 -0.305931 0
M  V30 33 H 1.969337 4.218937 -3.323817 0
M  V30 34 H -0.915063 -1.386156 -0.737043 0
M  V30 35 H 0.018533 -2.583725 0.235779 0
M  V30 36 H -1.337575 -5.461914 0.667565 0
M  V30 37 H 0.459506 -5.859632 0.422132 0
M  V30 38 H -0.179421 -4.241996 -0.089823 0
M  V30 END ATOM
M  V30 BEGIN BOND
M  V30 1 1 1 2
M  V30 2 1 2 3
M  V30 3 2 3 4
M  V30 4 1 4 5
M  V30 5 2 5 6
M  V30 6 1 6 7
M  V30 7 1 7 8
M  V30 8 2 8 9
M  V30 9 1 9 10
M  V30 10 2 10 11
M  V30 11 1 11 12
M  V30 12 1 12 13
M  V30 13 2 13 14
M  V30 14 1 14 15
M  V30 15 1 15 16
M  V30 16 1 11 17
M  V30 17 1 17 18
M  V30 18 2 18 19
M  V30 19 1 19 20
M  V30 20 1 6 21
M  V30 21 2 21 22
M  V30 22 1 22 23
M  V30 23 1 23 24
M  V30 24 1 22 3
M  V30 25 2 20 7
M  V30 26 1 19 10
M  V30 27 2 16 12
M  V30 28 1 1 25
M  V30 29 1 1 26
M  V30 30 1 1 27
M  V30 31 1 4 28
M  V30 32 1 5 29
M  V30 33 1 8 30
M  V30 34 1 13 31
M  V30 35 1 14 32
M  V30 36 1 16 33
M  V30 37 1 20 34
M  V30 38 1 21 35
M  V30 39 1 24 36
M  V30 40 1 24 37
M  V30 41 1 24 38
M  V30 END BOND
M  V30 END CTAB
M  END
>  <Dataset>  (889) 
ChEMBL_Kinases

>  <Ligand_Instance>  (889) 
nan

>  <PDB_ID>  (889) 
nan

>  <Standardized_SMILES>  (889) 
COc1ccc(-c2cnc3c(-c4ccsc4)snc3c2)cc1OC

>  <Name>  (889) 
nan

>  <Pocket>  (889) 
nan

>  <ATP_Site>  (889) 
nan

>  <Peripheral>  (889) 
nan

>  <Num_H_Atoms_ProtBoundConf>  (889) 
nan

>  <Num_Resolved_Atoms>  (889) 
nan

>  <Num_Not_Resolved_Atoms>  (889) 
nan

$$$$
CHEMBL4579551
     RDKit          3D

  0  0  0  0  0  0  0  0  0  0999 V3000
M  V30 BEGIN CTAB
M  V30 COUNTS 51 54 0 0 0
M  V30 BEGIN ATOM
M  V30 1 C 2.936784 -1.596793 4.227081 0
M  V30 2 C 4.311747 -1.255593 3.779676 0
M  V30 3 C 5.450969 -1.559000 4.490347 0
M  V30 4 N 6.488210 -1.097803 3.776830 0
M  V30 5 N 6.046552 -0.528606 2.668171 0
M  V30 6 C 6.900605 0.075716 1.666333 0
M  V30 7 C 4.708725 -0.607058 2.635685 0
M  V30 8 C 3.781388 -0.091116 1.560737 0
M  V30 9 C 3.849201 0.538751 0.406115 0
M  V30 10 C 2.724469 0.814486 -0.251464 0
M  V30 11 C 1.558659 0.440274 0.286177 0
M  V30 12 C 0.149166 0.676878 -0.336595 0
M  V30 13 O 0.008812 1.260853 -1.433913 0
M  V30 14 N -0.915350 0.178765 0.443388 0
M  V30 15 C -2.274090 0.370778 -0.090397 0 CFG=2
M  V30 16 C -2.894354 1.406988 0.848087 0
M  V30 17 N -3.194731 0.847375 2.148673 0
M  V30 18 C -4.077275 -0.271242 2.058914 0
M  V30 19 C -4.397436 -0.646258 0.617552 0
M  V30 20 C -3.054663 -0.879741 -0.090535 0 CFG=1
M  V30 21 C -3.231647 -1.575306 -1.375317 0
M  V30 22 C -3.853730 -0.958236 -2.429358 0
M  V30 23 C -4.046417 -1.566016 -3.658829 0
M  V30 24 C -3.608563 -2.846814 -3.873697 0
M  V30 25 C -2.967053 -3.523518 -2.832377 0
M  V30 26 F -2.476000 -4.806083 -2.899515 0
M  V30 27 C -2.792258 -2.879842 -1.612703 0
M  V30 28 S 2.031249 -0.313082 1.740128 0
M  V30 29 H 2.350405 -0.643988 4.382879 0
M  V30 30 H 2.945062 -2.086475 5.216423 0
M  V30 31 H 2.374149 -2.166330 3.464787 0
M  V30 32 H 5.477125 -2.072998 5.442089 0
M  V30 33 H 6.682564 1.152789 1.517594 0
M  V30 34 H 7.963811 0.034322 2.008699 0
M  V30 35 H 6.773017 -0.435529 0.689400 0
M  V30 36 H 4.860119 0.807218 0.043153 0
M  V30 37 H 2.724417 1.342822 -1.227438 0
M  V30 38 H -0.784744 -0.308747 1.361271 0
M  V30 39 H -2.140734 0.891449 -1.034833 0
M  V30 40 H -3.736106 1.943172 0.410738 0
M  V30 41 H -2.095595 2.179529 1.005725 0
M  V30 42 H -2.340257 0.686242 2.712584 0
M  V30 43 H -3.730135 -1.174308 2.619301 0
M  V30 44 H -5.038029 0.043568 2.560657 0
M  V30 45 H -4.977313 0.157584 0.147158 0
M  V30 46 H -4.974699 -1.600786 0.700019 0
M  V30 47 H -2.524113 -1.600004 0.588036 0
M  V30 48 H -4.222802 0.046041 -2.333397 0
M  V30 49 H -4.529864 -1.112828 -4.507818 0
M  V30 50 H -3.674374 -3.466897 -4.759823 0
M  V30 51 H -2.297173 -3.351312 -0.751740 0
M  V30 END ATOM
M  V30 BEGIN BOND
M  V30 1 1 1 2
M  V30 2 1 2 3
M  V30 3 2 3 4
M  V30 4 1 4 5
M  V30 5 1 5 6
M  V30 6 1 5 7
M  V30 7 1 7 8
M  V30 8 2 8 9
M  V30 9 1 9 10
M  V30 10 2 10 11
M  V30 11 1 11 12
M  V30 12 2 12 13
M  V30 13 1 12 14
M  V30 14 1 14 15
M  V30 15 1 15 16
M  V30 16 1 16 17
M  V30 17 1 17 18
M  V30 18 1 18 19
M  V30 19 1 19 20
M  V30 20 1 20 21
M  V30 21 2 21 22
M  V30 22 1 22 23
M  V30 23 2 23 24
M  V30 24 1 24 25
M  V30 25 1 25 26
M  V30 26 2 25 27
M  V30 27 1 11 28
M  V30 28 2 7 2
M  V30 29 1 28 8
M  V30 30 1 20 15
M  V30 31 1 27 21
M  V30 32 1 1 29
M  V30 33 1 1 30
M  V30 34 1 1 31
M  V30 35 1 3 32
M  V30 36 1 6 33
M  V30 37 1 6 34
M  V30 38 1 6 35
M  V30 39 1 9 36
M  V30 40 1 10 37
M  V30 41 1 14 38
M  V30 42 1 15 39 CFG=3
M  V30 43 1 16 40
M  V30 44 1 16 41
M  V30 45 1 17 42
M  V30 46 1 18 43
M  V30 47 1 18 44
M  V30 48 1 19 45
M  V30 49 1 19 46
M  V30 50 1 20 47 CFG=1
M  V30 51 1 22 48
M  V30 52 1 23 49
M  V30 53 1 24 50
M  V30 54 1 27 51
M  V30 END BOND
M  V30 END CTAB
M  END
>  <Dataset>  (890) 
ChEMBL_Kinases

>  <Ligand_Instance>  (890) 
nan

>  <PDB_ID>  (890) 
nan

>  <Standardized_SMILES>  (890) 
Cc1cnn(C)c1-c1ccc(C(=O)N[C@@H]2CNCC[C@H]2c2cccc(F)c2)s1

>  <Name>  (890) 
nan

>  <Pocket>  (890) 
nan

>  <ATP_Site>  (890) 
nan

>  <Peripheral>  (890) 
nan

>  <Num_H_Atoms_ProtBoundConf>  (890) 
nan

>  <Num_Resolved_Atoms>  (890) 
nan

>  <Num_Not_Resolved_Atoms>  (890) 
nan

$$$$
CHEMBL463175
     RDKit          3D

  0  0  0  0  0  0  0  0  0  0999 V3000
M  V30 BEGIN CTAB
M  V30 COUNTS 60 65 0 0 0
M  V30 BEGIN ATOM
M  V30 1 C 3.471480 -1.425707 4.995561 0
M  V30 2 C 3.638982 -0.836695 3.619290 0
M  V30 3 C 4.435369 -1.742890 2.704733 0
M  V30 4 C 4.766174 -0.931516 1.480928 0
M  V30 5 O 5.889136 -0.656162 0.939432 0
M  V30 6 C 3.570793 -0.382166 0.829526 0
M  V30 7 C 2.448625 -0.247018 1.641764 0
M  V30 8 C 1.298057 0.266345 1.072375 0
M  V30 9 C 1.267651 0.634932 -0.270872 0
M  V30 10 C 0.100225 1.152724 -0.836984 0
M  V30 11 C -1.046566 1.269245 0.073777 0
M  V30 12 C -1.272115 2.417095 0.816319 0
M  V30 13 O -0.392148 3.464908 0.687045 0
M  V30 14 C -2.377788 2.448386 1.653818 0
M  V30 15 C -3.213859 1.344810 1.722537 0
M  V30 16 O -4.326670 1.390407 2.572510 0
M  V30 17 C -2.964054 0.215063 0.971032 0
M  V30 18 C -3.804500 -0.891492 1.041495 0
M  V30 19 O -4.922236 -0.896688 1.869691 0
M  V30 20 C -3.528954 -2.012607 0.275165 0
M  V30 21 C -2.438979 -2.089158 -0.573335 0
M  V30 22 C -1.621811 -0.973216 -0.621792 0
M  V30 23 C -1.862507 0.152438 0.120906 0
M  V30 24 O -2.140104 -3.195841 -1.349773 0
M  V30 25 C -3.159240 -4.188766 -1.492891 0
M  V30 26 C -2.613950 -5.465168 -2.042622 0
M  V30 27 C -3.730692 -4.459378 -0.116867 0
M  V30 28 C -4.393729 -3.191689 0.327384 0
M  V30 29 O -5.580076 -3.064513 0.723760 0
M  V30 30 C 0.068366 1.518044 -2.166255 0
M  V30 31 O -1.126942 2.022427 -2.649452 0
M  V30 32 C 1.199122 1.374337 -2.956555 0
M  V30 33 C 2.355095 0.866480 -2.414164 0
M  V30 34 O 3.531201 0.697675 -3.163838 0
M  V30 35 C 2.384713 0.501907 -1.085057 0
M  V30 36 C 3.530357 -0.013304 -0.502980 0
M  V30 37 O 4.684301 -0.178402 -1.240500 0
M  V30 38 O 2.394950 -0.589812 2.987270 0
M  V30 39 H 2.411041 -1.515226 5.295682 0
M  V30 40 H 3.970453 -0.748603 5.717609 0
M  V30 41 H 3.974120 -2.421088 5.010887 0
M  V30 42 H 4.184705 0.129192 3.639773 0
M  V30 43 H 5.340520 -2.105297 3.211128 0
M  V30 44 H 3.861775 -2.639493 2.378782 0
M  V30 45 H 0.416285 0.383032 1.671373 0
M  V30 46 H -0.573400 4.229025 0.050268 0
M  V30 47 H -2.547293 3.349293 2.231024 0
M  V30 48 H -4.261890 1.142893 3.554800 0
M  V30 49 H -4.967267 -1.415802 2.736424 0
M  V30 50 H -0.757437 -0.990095 -1.272728 0
M  V30 51 H -3.974493 -3.828303 -2.155922 0
M  V30 52 H -3.112362 -6.317133 -1.538995 0
M  V30 53 H -2.759660 -5.562422 -3.141534 0
M  V30 54 H -1.514996 -5.570897 -1.843541 0
M  V30 55 H -2.882428 -4.729545 0.539886 0
M  V30 56 H -4.459810 -5.289001 -0.189985 0
M  V30 57 H -1.289498 2.249450 -3.623282 0
M  V30 58 H 1.165793 1.662603 -3.995826 0
M  V30 59 H 4.228557 1.431503 -3.097500 0
M  V30 60 H 4.986283 -1.094086 -1.555838 0
M  V30 END ATOM
M  V30 BEGIN BOND
M  V30 1 1 1 2
M  V30 2 1 2 3
M  V30 3 1 3 4
M  V30 4 2 4 5
M  V30 5 1 4 6
M  V30 6 2 6 7
M  V30 7 1 7 8
M  V30 8 2 8 9
M  V30 9 1 9 10
M  V30 10 1 10 11
M  V30 11 2 11 12
M  V30 12 1 12 13
M  V30 13 1 12 14
M  V30 14 2 14 15
M  V30 15 1 15 16
M  V30 16 1 15 17
M  V30 17 2 17 18
M  V30 18 1 18 19
M  V30 19 1 18 20
M  V30 20 2 20 21
M  V30 21 1 21 22
M  V30 22 2 22 23
M  V30 23 1 21 24
M  V30 24 1 24 25
M  V30 25 1 25 26
M  V30 26 1 25 27
M  V30 27 1 27 28
M  V30 28 2 28 29
M  V30 29 2 10 30
M  V30 30 1 30 31
M  V30 31 1 30 32
M  V30 32 2 32 33
M  V30 33 1 33 34
M  V30 34 1 33 35
M  V30 35 2 35 36
M  V30 36 1 36 37
M  V30 37 1 7 38
M  V30 38 1 38 2
M  V30 39 1 36 6
M  V30 40 1 35 9
M  V30 41 1 23 11
M  V30 42 1 23 17
M  V30 43 1 28 20
M  V30 44 1 1 39
M  V30 45 1 1 40
M  V30 46 1 1 41
M  V30 47 1 2 42
M  V30 48 1 3 43
M  V30 49 1 3 44
M  V30 50 1 8 45
M  V30 51 1 13 46
M  V30 52 1 14 47
M  V30 53 1 16 48
M  V30 54 1 19 49
M  V30 55 1 22 50
M  V30 56 1 25 51
M  V30 57 1 26 52
M  V30 58 1 26 53
M  V30 59 1 26 54
M  V30 60 1 27 55
M  V30 61 1 27 56
M  V30 62 1 31 57
M  V30 63 1 32 58
M  V30 64 1 34 59
M  V30 65 1 37 60
M  V30 END BOND
M  V30 END CTAB
M  END
>  <Dataset>  (891) 
ChEMBL_Kinases

>  <Ligand_Instance>  (891) 
nan

>  <PDB_ID>  (891) 
nan

>  <Standardized_SMILES>  (891) 
CC1CC(=O)c2c(cc3c(-c4c(O)cc(O)c5c(O)c6c(cc45)OC(C)CC6=O)c(O)cc(O)c3c2O)O1

>  <Name>  (891) 
CEPHALOCHROMIN

>  <Pocket>  (891) 
nan

>  <ATP_Site>  (891) 
nan

>  <Peripheral>  (891) 
nan

>  <Num_H_Atoms_ProtBoundConf>  (891) 
nan

>  <Num_Resolved_Atoms>  (891) 
nan

>  <Num_Not_Resolved_Atoms>  (891) 
nan

$$$$
CHEMBL4632372
     RDKit          3D

  0  0  0  0  0  0  0  0  0  0999 V3000
M  V30 BEGIN CTAB
M  V30 COUNTS 57 61 0 0 0
M  V30 BEGIN ATOM
M  V30 1 C -3.709502 -2.921412 -0.428993 0
M  V30 2 O -2.858584 -3.986243 -0.721290 0
M  V30 3 C -1.477351 -3.942203 -0.744115 0
M  V30 4 C -0.897263 -2.728697 -0.449248 0
M  V30 5 C 0.477755 -2.635296 -0.459569 0
M  V30 6 C 1.102971 -1.355585 -0.146114 0
M  V30 7 C 0.405737 -0.581654 0.755426 0
M  V30 8 N 0.898801 0.616493 1.109435 0
M  V30 9 C 2.048314 1.101582 0.623578 0
M  V30 10 C 2.652111 2.329743 0.921682 0
M  V30 11 N 2.143766 3.311502 1.815204 0
M  V30 12 C 2.293600 3.558979 3.233278 0
M  V30 13 C 2.244806 5.044198 3.478802 0 CFG=1
M  V30 14 C 3.410232 5.689695 2.756351 0
M  V30 15 O 1.087719 5.632454 3.046697 0
M  V30 16 C 0.385808 4.951475 2.084496 0 CFG=1
M  V30 17 C -0.474888 5.947972 1.336274 0
M  V30 18 C 1.295189 4.243750 1.088948 0
M  V30 19 S 4.164183 2.436653 -0.018865 0
M  V30 20 N 3.951395 0.770055 -0.824937 0
M  V30 21 C 2.766274 0.357203 -0.274733 0
M  V30 22 C 2.295199 -0.878077 -0.664462 0
M  V30 23 C 1.192450 -3.774046 -0.767418 0
M  V30 24 C 0.568952 -4.969474 -1.056536 0
M  V30 25 C -0.805502 -5.096580 -1.054878 0
M  V30 26 C -1.358084 -6.399723 -1.372889 0
M  V30 27 O -0.593713 -7.363297 -1.634453 0
M  V30 28 N -2.711411 -6.796263 -1.442533 0
M  V30 29 C -3.208072 -8.090372 -1.757356 0
M  V30 30 C -4.348082 -8.574341 -0.866331 0
M  V30 31 C -4.567726 -8.306635 -2.304392 0
M  V30 32 H -3.410294 -1.948736 -0.894446 0
M  V30 33 H -4.702698 -3.176063 -0.901171 0
M  V30 34 H -3.927262 -2.812179 0.641320 0
M  V30 35 H -1.491342 -1.870057 -0.215551 0
M  V30 36 H -0.546722 -0.816510 1.252947 0
M  V30 37 H 3.192937 3.084769 3.620382 0
M  V30 38 H 1.373930 3.132329 3.714805 0
M  V30 39 H 2.411154 5.234322 4.568642 0
M  V30 40 H 3.078246 6.581178 2.170153 0
M  V30 41 H 3.850414 4.981828 2.010826 0
M  V30 42 H 4.211564 6.032347 3.442550 0
M  V30 43 H -0.325765 4.231468 2.548274 0
M  V30 44 H 0.081673 6.225443 0.414263 0
M  V30 45 H -0.591447 6.890621 1.937725 0
M  V30 46 H -1.464462 5.531117 1.062560 0
M  V30 47 H 0.625534 3.746977 0.369837 0
M  V30 48 H 1.908966 5.012002 0.579497 0
M  V30 49 H 2.720386 -1.582172 -1.346066 0
M  V30 50 H 2.273660 -3.738673 -0.785626 0
M  V30 51 H 1.198644 -5.828271 -1.291479 0
M  V30 52 H -3.438703 -6.089595 -1.248654 0
M  V30 53 H -2.415973 -8.860262 -1.959300 0
M  V30 54 H -4.792158 -7.901463 -0.131114 0
M  V30 55 H -4.325458 -9.646289 -0.544094 0
M  V30 56 H -4.718910 -9.155757 -2.972794 0
M  V30 57 H -5.088982 -7.363978 -2.613452 0
M  V30 END ATOM
M  V30 BEGIN BOND
M  V30 1 1 1 2
M  V30 2 1 2 3
M  V30 3 2 3 4
M  V30 4 1 4 5
M  V30 5 1 5 6
M  V30 6 1 6 7
M  V30 7 2 7 8
M  V30 8 1 8 9
M  V30 9 2 9 10
M  V30 10 1 10 11
M  V30 11 1 11 12
M  V30 12 1 12 13
M  V30 13 1 13 14
M  V30 14 1 13 15
M  V30 15 1 15 16
M  V30 16 1 16 17
M  V30 17 1 16 18
M  V30 18 1 10 19
M  V30 19 1 19 20
M  V30 20 2 20 21
M  V30 21 1 21 22
M  V30 22 2 5 23
M  V30 23 1 23 24
M  V30 24 2 24 25
M  V30 25 1 25 26
M  V30 26 2 26 27
M  V30 27 1 26 28
M  V30 28 1 28 29
M  V30 29 1 29 30
M  V30 30 1 30 31
M  V30 31 1 25 3
M  V30 32 1 31 29
M  V30 33 2 22 6
M  V30 34 1 21 9
M  V30 35 1 18 11
M  V30 36 1 1 32
M  V30 37 1 1 33
M  V30 38 1 1 34
M  V30 39 1 4 35
M  V30 40 1 7 36
M  V30 41 1 12 37
M  V30 42 1 12 38
M  V30 43 1 13 39 CFG=1
M  V30 44 1 14 40
M  V30 45 1 14 41
M  V30 46 1 14 42
M  V30 47 1 16 43 CFG=1
M  V30 48 1 17 44
M  V30 49 1 17 45
M  V30 50 1 17 46
M  V30 51 1 18 47
M  V30 52 1 18 48
M  V30 53 1 22 49
M  V30 54 1 23 50
M  V30 55 1 24 51
M  V30 56 1 28 52
M  V30 57 1 29 53
M  V30 58 1 30 54
M  V30 59 1 30 55
M  V30 60 1 31 56
M  V30 61 1 31 57
M  V30 END BOND
M  V30 END CTAB
M  END
>  <Dataset>  (892) 
ChEMBL_Kinases

>  <Ligand_Instance>  (892) 
nan

>  <PDB_ID>  (892) 
nan

>  <Standardized_SMILES>  (892) 
COc1cc(-c2cnc3c(N4C[C@@H](C)O[C@@H](C)C4)snc3c2)ccc1C(=O)NC1CC1

>  <Name>  (892) 
nan

>  <Pocket>  (892) 
nan

>  <ATP_Site>  (892) 
nan

>  <Peripheral>  (892) 
nan

>  <Num_H_Atoms_ProtBoundConf>  (892) 
nan

>  <Num_Resolved_Atoms>  (892) 
nan

>  <Num_Not_Resolved_Atoms>  (892) 
nan

$$$$
CHEMBL4579447
     RDKit          3D

  0  0  0  0  0  0  0  0  0  0999 V3000
M  V30 BEGIN CTAB
M  V30 COUNTS 55 58 0 0 0
M  V30 BEGIN ATOM
M  V30 1 C 5.036018 -4.730118 5.978220 0
M  V30 2 C 4.846326 -4.600633 4.489202 0
M  V30 3 C 3.681337 -4.651893 3.731659 0
M  V30 4 N 4.035490 -4.481825 2.431361 0
M  V30 5 C 2.916964 -4.513888 1.534020 0
M  V30 6 C 2.486670 -3.253282 1.175770 0
M  V30 7 C 1.416730 -3.112767 0.315663 0
M  V30 8 C 0.820970 -1.873305 -0.175162 0
M  V30 9 O -0.172963 -1.800659 -0.973617 0
M  V30 10 N 1.300207 -0.569951 0.196132 0
M  V30 11 C 0.492182 0.423028 -0.462535 0
M  V30 12 C 1.003342 0.773257 -1.703991 0
M  V30 13 C 0.353588 1.724367 -2.492330 0
M  V30 14 C -0.805661 2.318776 -2.030354 0
M  V30 15 C -1.290437 1.947142 -0.786067 0
M  V30 16 C -2.512499 2.543091 -0.247087 0
M  V30 17 C -3.273045 3.494372 -0.895219 0
M  V30 18 C -4.361404 3.834994 -0.093001 0
M  V30 19 C -5.420627 4.830928 -0.438238 0
M  V30 20 C -6.103789 4.405880 -1.741649 0
M  V30 21 C -4.795194 6.178315 -0.719061 0
M  V30 22 N -4.222586 3.071370 1.025135 0
M  V30 23 N -3.136263 2.318321 0.924420 0
M  V30 24 C -0.660099 1.008920 0.005040 0
M  V30 25 C 0.815780 -4.264884 -0.154813 0
M  V30 26 C 1.237315 -5.532892 0.196484 0
M  V30 27 C 0.575533 -6.749089 -0.322142 0
M  V30 28 F -0.375744 -6.395255 -1.274387 0
M  V30 29 F -0.043188 -7.508975 0.625434 0
M  V30 30 F 1.550200 -7.522651 -0.943920 0
M  V30 31 C 2.308139 -5.655409 1.057117 0
M  V30 32 C 5.371226 -4.330100 2.378997 0
M  V30 33 N 5.861448 -4.402270 3.626512 0
M  V30 34 H 4.083906 -4.431594 6.503957 0
M  V30 35 H 5.274896 -5.785425 6.166168 0
M  V30 36 H 5.839112 -4.049216 6.327610 0
M  V30 37 H 2.750256 -4.809637 4.283195 0
M  V30 38 H 2.913372 -2.310690 1.508551 0
M  V30 39 H 2.108290 -0.497859 0.843952 0
M  V30 40 H 1.905999 0.379538 -2.180864 0
M  V30 41 H 0.702968 2.036500 -3.464175 0
M  V30 42 H -1.360269 3.060098 -2.583762 0
M  V30 43 H -3.122803 3.960758 -1.876003 0
M  V30 44 H -6.154514 4.900777 0.373416 0
M  V30 45 H -5.393449 3.823369 -2.357109 0
M  V30 46 H -6.923336 3.694567 -1.464705 0
M  V30 47 H -6.438968 5.285499 -2.292351 0
M  V30 48 H -3.788908 6.056255 -1.210832 0
M  V30 49 H -5.414016 6.752841 -1.451023 0
M  V30 50 H -4.683833 6.808902 0.190817 0
M  V30 51 H -2.788257 1.632524 1.645522 0
M  V30 52 H -0.956440 0.662171 0.968303 0
M  V30 53 H -0.038980 -4.247123 -0.840972 0
M  V30 54 H 2.713347 -6.600925 1.392000 0
M  V30 55 H 5.780744 -4.185180 1.387961 0
M  V30 END ATOM
M  V30 BEGIN BOND
M  V30 1 1 1 2
M  V30 2 2 2 3
M  V30 3 1 3 4
M  V30 4 1 4 5
M  V30 5 2 5 6
M  V30 6 1 6 7
M  V30 7 1 7 8
M  V30 8 2 8 9
M  V30 9 1 8 10
M  V30 10 1 10 11
M  V30 11 2 11 12
M  V30 12 1 12 13
M  V30 13 2 13 14
M  V30 14 1 14 15
M  V30 15 1 15 16
M  V30 16 2 16 17
M  V30 17 1 17 18
M  V30 18 1 18 19
M  V30 19 1 19 20
M  V30 20 1 19 21
M  V30 21 2 18 22
M  V30 22 1 22 23
M  V30 23 2 15 24
M  V30 24 2 7 25
M  V30 25 1 25 26
M  V30 26 1 26 27
M  V30 27 1 27 28
M  V30 28 1 27 29
M  V30 29 1 27 30
M  V30 30 2 26 31
M  V30 31 1 4 32
M  V30 32 2 32 33
M  V30 33 1 33 2
M  V30 34 1 31 5
M  V30 35 1 24 11
M  V30 36 1 23 16
M  V30 37 1 1 34
M  V30 38 1 1 35
M  V30 39 1 1 36
M  V30 40 1 3 37
M  V30 41 1 6 38
M  V30 42 1 10 39
M  V30 43 1 12 40
M  V30 44 1 13 41
M  V30 45 1 14 42
M  V30 46 1 17 43
M  V30 47 1 19 44
M  V30 48 1 20 45
M  V30 49 1 20 46
M  V30 50 1 20 47
M  V30 51 1 21 48
M  V30 52 1 21 49
M  V30 53 1 21 50
M  V30 54 1 23 51
M  V30 55 1 24 52
M  V30 56 1 25 53
M  V30 57 1 31 54
M  V30 58 1 32 55
M  V30 END BOND
M  V30 END CTAB
M  END
>  <Dataset>  (893) 
ChEMBL_Kinases

>  <Ligand_Instance>  (893) 
nan

>  <PDB_ID>  (893) 
nan

>  <Standardized_SMILES>  (893) 
Cc1cn(-c2cc(C(=O)Nc3cccc(-c4cc(C(C)C)n[nH]4)c3)cc(C(F)(F)F)c2)cn1

>  <Name>  (893) 
nan

>  <Pocket>  (893) 
nan

>  <ATP_Site>  (893) 
nan

>  <Peripheral>  (893) 
nan

>  <Num_H_Atoms_ProtBoundConf>  (893) 
nan

>  <Num_Resolved_Atoms>  (893) 
nan

>  <Num_Not_Resolved_Atoms>  (893) 
nan

$$$$
CHEMBL4632361
     RDKit          3D

  0  0  0  0  0  0  0  0  0  0999 V3000
M  V30 BEGIN CTAB
M  V30 COUNTS 54 57 0 0 0
M  V30 BEGIN ATOM
M  V30 1 C 0.788061 -3.988900 4.476150 0
M  V30 2 C 0.437629 -3.213985 3.260979 0
M  V30 3 O -0.243684 -4.010864 2.581974 0
M  V30 4 C 0.896835 -1.841963 3.107783 0
M  V30 5 C 1.685747 -1.370773 4.130869 0
M  V30 6 N 2.200895 -0.144737 4.121934 0
M  V30 7 C 1.986567 0.707187 3.121722 0
M  V30 8 C 2.509668 1.964756 3.102477 0
M  V30 9 C 2.301164 2.859436 2.081138 0
M  V30 10 C 1.510165 2.380029 1.061861 0
M  V30 11 C 1.221358 3.242507 -0.075184 0
M  V30 12 C 1.667690 4.516236 -0.239558 0
M  V30 13 C 1.375297 5.308063 -1.330802 0
M  V30 14 Cl 1.988589 6.935961 -1.466508 0
M  V30 15 C 0.580086 4.806219 -2.341009 0
M  V30 16 O 0.230446 5.522558 -3.475964 0
M  V30 17 C 0.082063 3.513668 -2.252476 0
M  V30 18 Cl -0.934150 2.775338 -3.471927 0
M  V30 19 C 0.419529 2.775890 -1.122850 0
M  V30 20 N 0.999345 1.141111 1.088678 0
M  V30 21 C 1.203450 0.265798 2.088112 0
M  V30 22 C 0.630116 -1.015814 2.038191 0
M  V30 23 N -0.191127 -1.425522 0.985290 0
M  V30 24 C -1.033630 -2.270465 0.282615 0 CFG=1
M  V30 25 C -2.411085 -2.486403 0.879617 0
M  V30 26 C -3.077382 -3.648683 0.244550 0
M  V30 27 C -2.587939 -3.990426 -1.121402 0 CFG=2
M  V30 28 C -1.657297 -5.146621 -1.044645 0
M  V30 29 N -1.044219 -5.677049 -2.212944 0
M  V30 30 O -1.155110 -5.924450 -0.191805 0
M  V30 31 C -2.054274 -2.851961 -1.915012 0
M  V30 32 C -1.342520 -1.790706 -1.148912 0
M  V30 33 H 0.357157 -3.532601 5.396092 0
M  V30 34 H 1.908248 -3.844797 4.586445 0
M  V30 35 H 0.654068 -5.064045 4.424935 0
M  V30 36 H 1.993275 -1.891609 5.054382 0
M  V30 37 H 3.115072 2.219695 3.965183 0
M  V30 38 H 2.736927 3.824777 2.125734 0
M  V30 39 H 2.282748 4.954196 0.505073 0
M  V30 40 H 0.834231 6.314957 -3.722936 0
M  V30 41 H 0.025729 1.753326 -1.052465 0
M  V30 42 H -0.200218 -0.646065 0.294775 0
M  V30 43 H -0.536065 -3.258701 0.066936 0
M  V30 44 H -2.449571 -2.555587 1.959207 0
M  V30 45 H -2.974422 -1.539251 0.623661 0
M  V30 46 H -3.010693 -4.587828 0.864587 0
M  V30 47 H -4.176713 -3.441492 0.210062 0
M  V30 48 H -3.474498 -4.400129 -1.693764 0
M  V30 49 H -0.990212 -6.624718 -2.690364 0
M  V30 50 H -0.450443 -5.182106 -2.925184 0
M  V30 51 H -1.474138 -3.249519 -2.771758 0
M  V30 52 H -2.929755 -2.338721 -2.407839 0
M  V30 53 H -1.939856 -0.859177 -1.009721 0
M  V30 54 H -0.392196 -1.489496 -1.637284 0
M  V30 END ATOM
M  V30 BEGIN BOND
M  V30 1 1 1 2
M  V30 2 2 2 3
M  V30 3 1 2 4
M  V30 4 2 4 5
M  V30 5 1 5 6
M  V30 6 2 6 7
M  V30 7 1 7 8
M  V30 8 2 8 9
M  V30 9 1 9 10
M  V30 10 1 10 11
M  V30 11 2 11 12
M  V30 12 1 12 13
M  V30 13 1 13 14
M  V30 14 2 13 15
M  V30 15 1 15 16
M  V30 16 1 15 17
M  V30 17 1 17 18
M  V30 18 2 17 19
M  V30 19 2 10 20
M  V30 20 1 20 21
M  V30 21 2 21 22
M  V30 22 1 22 23
M  V30 23 1 23 24
M  V30 24 1 24 25
M  V30 25 1 25 26
M  V30 26 1 26 27
M  V30 27 1 27 28
M  V30 28 1 28 29
M  V30 29 2 28 30
M  V30 30 1 27 31
M  V30 31 1 31 32
M  V30 32 1 22 4
M  V30 33 1 32 24
M  V30 34 1 21 7
M  V30 35 1 19 11
M  V30 36 1 1 33
M  V30 37 1 1 34
M  V30 38 1 1 35
M  V30 39 1 5 36
M  V30 40 1 8 37
M  V30 41 1 9 38
M  V30 42 1 12 39
M  V30 43 1 16 40
M  V30 44 1 19 41
M  V30 45 1 23 42
M  V30 46 1 24 43 CFG=3
M  V30 47 1 25 44
M  V30 48 1 25 45
M  V30 49 1 26 46
M  V30 50 1 26 47
M  V30 51 1 27 48 CFG=3
M  V30 52 1 29 49
M  V30 53 1 29 50
M  V30 54 1 31 51
M  V30 55 1 31 52
M  V30 56 1 32 53
M  V30 57 1 32 54
M  V30 END BOND
M  V30 END CTAB
M  END
>  <Dataset>  (894) 
ChEMBL_Kinases

>  <Ligand_Instance>  (894) 
nan

>  <PDB_ID>  (894) 
nan

>  <Standardized_SMILES>  (894) 
CC(=O)c1cnc2ccc(-c3cc(Cl)c(O)c(Cl)c3)nc2c1N[C@H]1CC[C@H](C(N)=O)CC1

>  <Name>  (894) 
nan

>  <Pocket>  (894) 
nan

>  <ATP_Site>  (894) 
nan

>  <Peripheral>  (894) 
nan

>  <Num_H_Atoms_ProtBoundConf>  (894) 
nan

>  <Num_Resolved_Atoms>  (894) 
nan

>  <Num_Not_Resolved_Atoms>  (894) 
nan

$$$$
CHEMBL4579339
     RDKit          3D

  0  0  0  0  0  0  0  0  0  0999 V3000
M  V30 BEGIN CTAB
M  V30 COUNTS 52 56 0 0 0
M  V30 BEGIN ATOM
M  V30 1 C 1.355997 -9.353613 2.968044 0
M  V30 2 N 2.196735 -8.362837 2.317076 0
M  V30 3 C 1.735462 -7.229070 1.746713 0
M  V30 4 C 2.785447 -6.485258 1.206254 0
M  V30 5 C 2.589331 -5.211459 0.525787 0
M  V30 6 C 1.531174 -4.411703 0.970922 0
M  V30 7 N 1.339590 -3.230430 0.347947 0
M  V30 8 C 2.103935 -2.786940 -0.666728 0
M  V30 9 C 2.079929 -1.635011 -1.426395 0
M  V30 10 C 1.135888 -0.529874 -1.292941 0
M  V30 11 C 0.581831 -0.024215 -2.491698 0
M  V30 12 S -0.558474 1.363591 -1.880242 0
M  V30 13 C -0.169871 1.101198 -0.221614 0
M  V30 14 C -0.716025 1.865893 0.952468 0
M  V30 15 O -0.372456 1.603811 2.152370 0
M  V30 16 N -1.634601 2.895339 0.653580 0
M  V30 17 C -2.198636 3.670312 1.731723 0 CFG=2
M  V30 18 C -3.705909 3.546194 1.778876 0
M  V30 19 C -4.254754 4.019503 0.470811 0
M  V30 20 C -3.786722 5.401557 0.070400 0
M  V30 21 C -3.081184 5.986769 1.271950 0
M  V30 22 C -1.859724 5.127930 1.567214 0 CFG=2
M  V30 23 O -0.936756 5.344676 0.552303 0
M  V30 24 C 0.701891 0.096828 -0.186236 0
M  V30 25 C 3.122749 -1.748631 -2.323196 0
M  V30 26 N 3.721876 -2.925692 -2.083478 0
M  V30 27 N 3.130794 -3.571869 -1.092693 0
M  V30 28 C 3.391900 -4.779663 -0.516607 0
M  V30 29 C 3.904336 -7.262206 1.498447 0
M  V30 30 N 3.521189 -8.370234 2.158401 0
M  V30 31 H 1.872833 -10.328082 3.038276 0
M  V30 32 H 0.437393 -9.534977 2.358026 0
M  V30 33 H 1.007227 -8.949428 3.924859 0
M  V30 34 H 0.693063 -6.949636 1.720272 0
M  V30 35 H 0.886881 -4.731134 1.789175 0
M  V30 36 H 0.808084 -0.411065 -3.597284 0
M  V30 37 H -1.897416 3.087877 -0.338045 0
M  V30 38 H -1.742116 3.258013 2.672755 0
M  V30 39 H -4.098502 4.076997 2.649443 0
M  V30 40 H -3.913282 2.441410 1.822188 0
M  V30 41 H -5.364949 3.972646 0.425063 0
M  V30 42 H -3.923067 3.296761 -0.320085 0
M  V30 43 H -4.639968 6.030355 -0.228492 0
M  V30 44 H -3.087226 5.395875 -0.788051 0
M  V30 45 H -2.698803 6.998752 1.030026 0
M  V30 46 H -3.757934 6.076306 2.124538 0
M  V30 47 H -1.462020 5.496559 2.535076 0
M  V30 48 H -0.951739 6.321740 0.348161 0
M  V30 49 H 1.099331 -0.253733 0.782327 0
M  V30 50 H 3.343102 -0.972534 -3.056125 0
M  V30 51 H 4.209545 -5.405762 -0.855091 0
M  V30 52 H 4.888961 -6.918378 1.187220 0
M  V30 END ATOM
M  V30 BEGIN BOND
M  V30 1 1 1 2
M  V30 2 1 2 3
M  V30 3 2 3 4
M  V30 4 1 4 5
M  V30 5 1 5 6
M  V30 6 2 6 7
M  V30 7 1 7 8
M  V30 8 2 8 9
M  V30 9 1 9 10
M  V30 10 2 10 11
M  V30 11 1 11 12
M  V30 12 1 12 13
M  V30 13 1 13 14
M  V30 14 2 14 15
M  V30 15 1 14 16
M  V30 16 1 16 17
M  V30 17 1 17 18
M  V30 18 1 18 19
M  V30 19 1 19 20
M  V30 20 1 20 21
M  V30 21 1 21 22
M  V30 22 1 22 23
M  V30 23 2 13 24
M  V30 24 1 9 25
M  V30 25 2 25 26
M  V30 26 1 26 27
M  V30 27 1 27 28
M  V30 28 1 4 29
M  V30 29 2 29 30
M  V30 30 1 30 2
M  V30 31 2 28 5
M  V30 32 1 27 8
M  V30 33 1 24 10
M  V30 34 1 22 17
M  V30 35 1 1 31
M  V30 36 1 1 32
M  V30 37 1 1 33
M  V30 38 1 3 34
M  V30 39 1 6 35
M  V30 40 1 11 36
M  V30 41 1 16 37
M  V30 42 1 17 38 CFG=1
M  V30 43 1 18 39
M  V30 44 1 18 40
M  V30 45 1 19 41
M  V30 46 1 19 42
M  V30 47 1 20 43
M  V30 48 1 20 44
M  V30 49 1 21 45
M  V30 50 1 21 46
M  V30 51 1 22 47 CFG=1
M  V30 52 1 23 48
M  V30 53 1 24 49
M  V30 54 1 25 50
M  V30 55 1 28 51
M  V30 56 1 29 52
M  V30 END BOND
M  V30 END CTAB
M  END
>  <Dataset>  (895) 
ChEMBL_Kinases

>  <Ligand_Instance>  (895) 
nan

>  <PDB_ID>  (895) 
nan

>  <Standardized_SMILES>  (895) 
Cn1cc(-c2cnc3c(-c4csc(C(=O)N[C@@H]5CCCC[C@@H]5O)c4)cnn3c2)cn1

>  <Name>  (895) 
nan

>  <Pocket>  (895) 
nan

>  <ATP_Site>  (895) 
nan

>  <Peripheral>  (895) 
nan

>  <Num_H_Atoms_ProtBoundConf>  (895) 
nan

>  <Num_Resolved_Atoms>  (895) 
nan

>  <Num_Not_Resolved_Atoms>  (895) 
nan

$$$$
CHEMBL4579302
     RDKit          3D

  0  0  0  0  0  0  0  0  0  0999 V3000
M  V30 BEGIN CTAB
M  V30 COUNTS 41 44 0 0 0
M  V30 BEGIN ATOM
M  V30 1 C 2.006208 -5.255066 1.275342 0
M  V30 2 O 3.145492 -4.421620 1.287656 0
M  V30 3 C 3.188657 -3.199661 0.623123 0
M  V30 4 C 2.057663 -2.810913 -0.068497 0
M  V30 5 C 2.150906 -1.597349 -0.707355 0
M  V30 6 C 3.262519 -0.785560 -0.694541 0
M  V30 7 S 3.308005 0.740647 -1.527874 0
M  V30 8 O 2.421009 0.754862 -2.740520 0
M  V30 9 O 4.707964 1.031651 -2.051091 0
M  V30 10 N 2.767129 2.053899 -0.506890 0
M  V30 11 C 1.538093 2.363934 -0.514334 0
M  V30 12 N 0.803123 3.361531 0.188103 0
M  V30 13 C -0.554573 3.005251 0.487758 0
M  V30 14 O -1.419967 3.687825 1.078427 0
M  V30 15 C -0.910251 1.685473 0.017247 0
M  V30 16 C -1.642889 0.685442 0.416766 0
M  V30 17 C -1.894498 -0.595316 -0.219375 0
M  V30 18 O -1.397017 -0.849739 -1.345791 0
M  V30 19 N -2.724566 -1.327848 0.670139 0
M  V30 20 C -2.943377 -0.468261 1.809715 0
M  V30 21 C -3.694939 -0.858609 2.897748 0
M  V30 22 C -3.819573 0.025778 3.947509 0
M  V30 23 C -3.186977 1.274337 3.876337 0
M  V30 24 Br -3.432558 2.398695 5.383036 0
M  V30 25 C -2.466745 1.547704 2.739699 0
M  V30 26 C -2.299319 0.737722 1.668843 0
M  V30 27 S 0.151627 1.630699 -1.467620 0
M  V30 28 C 4.372390 -1.241451 0.025742 0
M  V30 29 C 4.354859 -2.466286 0.702624 0
M  V30 30 H 1.756014 -5.523653 0.216355 0
M  V30 31 H 2.299098 -6.208652 1.763986 0
M  V30 32 H 1.130636 -4.775198 1.751578 0
M  V30 33 H 1.176913 -3.431950 -0.091042 0
M  V30 34 H 1.327389 -1.212675 -1.267791 0
M  V30 35 H 1.239122 4.298781 0.471260 0
M  V30 36 H -3.058738 -2.289761 0.454780 0
M  V30 37 H -4.195509 -1.810194 2.987416 0
M  V30 38 H -4.406508 -0.267572 4.806020 0
M  V30 39 H -2.033803 2.502513 2.875427 0
M  V30 40 H 5.268708 -0.655476 0.074359 0
M  V30 41 H 5.201116 -2.829985 1.260806 0
M  V30 END ATOM
M  V30 BEGIN BOND
M  V30 1 1 1 2
M  V30 2 1 2 3
M  V30 3 2 3 4
M  V30 4 1 4 5
M  V30 5 2 5 6
M  V30 6 1 6 7
M  V30 7 2 7 8
M  V30 8 2 7 9
M  V30 9 1 7 10
M  V30 10 2 10 11
M  V30 11 1 11 12
M  V30 12 1 12 13
M  V30 13 2 13 14
M  V30 14 1 13 15
M  V30 15 2 15 16
M  V30 16 1 16 17
M  V30 17 2 17 18
M  V30 18 1 17 19
M  V30 19 1 19 20
M  V30 20 2 20 21
M  V30 21 1 21 22
M  V30 22 2 22 23
M  V30 23 1 23 24
M  V30 24 1 23 25
M  V30 25 2 25 26
M  V30 26 1 15 27
M  V30 27 1 6 28
M  V30 28 2 28 29
M  V30 29 1 29 3
M  V30 30 1 27 11
M  V30 31 1 26 16
M  V30 32 1 26 20
M  V30 33 1 1 30
M  V30 34 1 1 31
M  V30 35 1 1 32
M  V30 36 1 4 33
M  V30 37 1 5 34
M  V30 38 1 12 35
M  V30 39 1 19 36
M  V30 40 1 21 37
M  V30 41 1 22 38
M  V30 42 1 25 39
M  V30 43 1 28 40
M  V30 44 1 29 41
M  V30 END BOND
M  V30 END CTAB
M  END
>  <Dataset>  (896) 
ChEMBL_Kinases

>  <Ligand_Instance>  (896) 
nan

>  <PDB_ID>  (896) 
nan

>  <Standardized_SMILES>  (896) 
COc1ccc(S(=O)(=O)/N=C2/NC(=O)/C(=C3/C(=O)Nc4ccc(Br)cc43)S2)cc1

>  <Name>  (896) 
nan

>  <Pocket>  (896) 
nan

>  <ATP_Site>  (896) 
nan

>  <Peripheral>  (896) 
nan

>  <Num_H_Atoms_ProtBoundConf>  (896) 
nan

>  <Num_Resolved_Atoms>  (896) 
nan

>  <Num_Not_Resolved_Atoms>  (896) 
nan

$$$$
CHEMBL4579292
     RDKit          3D

  0  0  0  0  0  0  0  0  0  0999 V3000
M  V30 BEGIN CTAB
M  V30 COUNTS 54 59 0 0 0
M  V30 BEGIN ATOM
M  V30 1 N 1.723921 -4.898518 -2.063589 0
M  V30 2 C 0.760167 -4.328651 -1.794975 0
M  V30 3 C -0.456596 -3.586889 -1.463985 0
M  V30 4 C -0.493982 -2.256392 -2.061924 0
M  V30 5 C -0.256563 -2.301021 -3.422631 0
M  V30 6 C -0.240221 -1.152250 -4.218625 0
M  V30 7 C -0.468523 0.078005 -3.634137 0
M  V30 8 C -0.535293 1.398015 -4.048742 0
M  V30 9 N -0.798133 2.157326 -2.975133 0
M  V30 10 N -0.907745 1.409805 -1.878457 0
M  V30 11 C -1.181646 1.858783 -0.551007 0
M  V30 12 C -0.301642 1.476041 0.433456 0
M  V30 13 C -0.465301 1.849591 1.748091 0
M  V30 14 N 0.379206 1.512064 2.840381 0
M  V30 15 C 0.172689 1.923611 4.202342 0
M  V30 16 C 1.339828 2.625629 4.827114 0
M  V30 17 C 2.666260 2.016636 4.488574 0 CFG=1
M  V30 18 O 2.879885 0.815714 5.181738 0
M  V30 19 C 2.746571 1.646573 3.015555 0 CFG=1
M  V30 20 F 3.920966 0.992636 2.798415 0
M  V30 21 C 1.579848 0.703004 2.763375 0
M  V30 22 N -1.528216 2.614937 2.060084 0
M  V30 23 C -2.403643 2.998247 1.093416 0
M  V30 24 N -2.245149 2.634113 -0.191481 0
M  V30 25 C -0.707971 0.127669 -2.264521 0
M  V30 26 C -0.719163 -1.017460 -1.500762 0
M  V30 27 C -0.717525 -3.643195 0.026430 0
M  V30 28 C -1.444807 -4.920539 -0.238787 0
M  V30 29 C -2.337624 -5.616796 0.642948 0
M  V30 30 C -1.010039 -6.248304 0.134258 0
M  V30 31 C -1.722367 -4.437636 -1.625454 0
M  V30 32 H -0.059615 -3.195004 -4.028840 0
M  V30 33 H -0.058957 -1.147993 -5.280909 0
M  V30 34 H -0.393382 1.717421 -5.073188 0
M  V30 35 H 0.545133 0.872365 0.214804 0
M  V30 36 H -0.717235 2.571779 4.302588 0
M  V30 37 H -0.024526 1.014059 4.802264 0
M  V30 38 H 1.348442 3.701768 4.564428 0
M  V30 39 H 1.226809 2.557654 5.930443 0
M  V30 40 H 3.467232 2.726824 4.699444 0
M  V30 41 H 3.860097 0.626139 5.088317 0
M  V30 42 H 2.663391 2.566153 2.435623 0
M  V30 43 H 1.748033 0.278778 1.751738 0
M  V30 44 H 1.612020 -0.083688 3.540122 0
M  V30 45 H -3.240163 3.609305 1.382203 0
M  V30 46 H -0.896078 -1.060882 -0.435794 0
M  V30 47 H 0.233223 -3.702748 0.591614 0
M  V30 48 H -1.422354 -2.862428 0.332165 0
M  V30 49 H -2.370220 -5.401881 1.728638 0
M  V30 50 H -3.267015 -6.108440 0.287236 0
M  V30 51 H -0.229323 -6.437694 0.910209 0
M  V30 52 H -1.083845 -7.090447 -0.572660 0
M  V30 53 H -2.643786 -3.846337 -1.739019 0
M  V30 54 H -1.634114 -5.258903 -2.344695 0
M  V30 END ATOM
M  V30 BEGIN BOND
M  V30 1 3 1 2
M  V30 2 1 2 3
M  V30 3 1 3 4
M  V30 4 2 4 5
M  V30 5 1 5 6
M  V30 6 2 6 7
M  V30 7 1 7 8
M  V30 8 2 8 9
M  V30 9 1 9 10
M  V30 10 1 10 11
M  V30 11 2 11 12
M  V30 12 1 12 13
M  V30 13 1 13 14
M  V30 14 1 14 15
M  V30 15 1 15 16
M  V30 16 1 16 17
M  V30 17 1 17 18
M  V30 18 1 17 19
M  V30 19 1 19 20
M  V30 20 1 19 21
M  V30 21 2 13 22
M  V30 22 1 22 23
M  V30 23 2 23 24
M  V30 24 1 10 25
M  V30 25 2 25 26
M  V30 26 1 3 27
M  V30 27 1 27 28
M  V30 28 1 28 29
M  V30 29 1 29 30
M  V30 30 1 28 31
M  V30 31 1 31 3
M  V30 32 1 26 4
M  V30 33 1 30 28
M  V30 34 1 25 7
M  V30 35 1 24 11
M  V30 36 1 21 14
M  V30 37 1 5 32
M  V30 38 1 6 33
M  V30 39 1 8 34
M  V30 40 1 12 35
M  V30 41 1 15 36
M  V30 42 1 15 37
M  V30 43 1 16 38
M  V30 44 1 16 39
M  V30 45 1 17 40 CFG=1
M  V30 46 1 18 41
M  V30 47 1 19 42 CFG=3
M  V30 48 1 21 43
M  V30 49 1 21 44
M  V30 50 1 23 45
M  V30 51 1 26 46
M  V30 52 1 27 47
M  V30 53 1 27 48
M  V30 54 1 29 49
M  V30 55 1 29 50
M  V30 56 1 30 51
M  V30 57 1 30 52
M  V30 58 1 31 53
M  V30 59 1 31 54
M  V30 END BOND
M  V30 END CTAB
M  END
>  <Dataset>  (897) 
ChEMBL_Kinases

>  <Ligand_Instance>  (897) 
nan

>  <PDB_ID>  (897) 
nan

>  <Standardized_SMILES>  (897) 
N#CC1(c2ccc3cnn(-c4cc(N5CC[C@@H](O)[C@@H](F)C5)ncn4)c3c2)CC2(CC2)C1

>  <Name>  (897) 
nan

>  <Pocket>  (897) 
nan

>  <ATP_Site>  (897) 
nan

>  <Peripheral>  (897) 
nan

>  <Num_H_Atoms_ProtBoundConf>  (897) 
nan

>  <Num_Resolved_Atoms>  (897) 
nan

>  <Num_Not_Resolved_Atoms>  (897) 
nan

$$$$
CHEMBL4579248
     RDKit          3D

  0  0  0  0  0  0  0  0  0  0999 V3000
M  V30 BEGIN CTAB
M  V30 COUNTS 47 50 0 0 0
M  V30 BEGIN ATOM
M  V30 1 C -0.379570 -4.541573 3.286040 0
M  V30 2 C 0.905848 -3.758016 3.431181 0 CFG=1
M  V30 3 C 2.130144 -4.605389 3.310206 0
M  V30 4 N 3.326626 -3.804073 3.456982 0
M  V30 5 C 0.868589 -2.604882 2.509170 0
M  V30 6 C 0.822883 -1.327318 3.033315 0
M  V30 7 C 0.789377 -0.284976 2.146969 0
M  V30 8 C 0.800613 -0.492910 0.744030 0
M  V30 9 C 0.843726 0.732887 -0.002178 0
M  V30 10 C 2.223288 0.980341 -0.116858 0
M  V30 11 O 3.355198 0.276426 0.336079 0
M  V30 12 C 2.665824 2.111043 -0.787768 0
M  V30 13 C 1.778286 3.021538 -1.359190 0
M  V30 14 Cl 2.241883 4.461702 -2.215836 0
M  V30 15 C 0.434734 2.742976 -1.225198 0
M  V30 16 N -0.466592 3.582810 -1.754200 0
M  V30 17 C -1.788096 3.370973 -1.660210 0
M  V30 18 O -2.617521 4.170013 -2.162482 0
M  V30 19 C -2.199029 2.234050 -0.985980 0
M  V30 20 C -3.555068 2.031101 -0.903544 0
M  V30 21 O -4.438915 2.931315 -1.467747 0
M  V30 22 C -3.965743 0.898203 -0.237334 0
M  V30 23 C -3.105810 -0.039958 0.348757 0
M  V30 24 C -1.784098 0.294147 0.187012 0
M  V30 25 C -1.302669 1.380198 -0.448599 0
M  V30 26 C 0.015187 1.642700 -0.572375 0
M  V30 27 C 0.847792 -1.817750 0.277263 0
M  V30 28 C 0.881386 -2.863627 1.175814 0
M  V30 29 H -0.304727 -5.569624 3.664089 0
M  V30 30 H -0.763900 -4.491303 2.240762 0
M  V30 31 H -1.181242 -4.041035 3.898679 0
M  V30 32 H 0.888902 -3.351329 4.470107 0
M  V30 33 H 2.108658 -5.301056 4.193891 0
M  V30 34 H 2.130503 -5.239246 2.405040 0
M  V30 35 H 3.142491 -2.800151 3.551581 0
M  V30 36 H 3.962271 -4.069796 2.674536 0
M  V30 37 H 0.814828 -1.183021 4.097176 0
M  V30 38 H 0.753961 0.700302 2.604486 0
M  V30 39 H 3.323338 -0.728524 0.357246 0
M  V30 40 H 3.685484 2.430392 -0.954927 0
M  V30 41 H -0.153002 4.441580 -2.263651 0
M  V30 42 H -4.896420 2.779855 -2.348117 0
M  V30 43 H -5.057614 0.786669 -0.201746 0
M  V30 44 H -3.642504 -0.834660 0.808736 0
M  V30 45 H -1.317870 -0.500992 0.669402 0
M  V30 46 H 0.852363 -1.860074 -0.801602 0
M  V30 47 H 0.916294 -3.834210 0.712591 0
M  V30 END ATOM
M  V30 BEGIN BOND
M  V30 1 1 1 2
M  V30 2 1 2 3
M  V30 3 1 3 4
M  V30 4 1 2 5
M  V30 5 2 5 6
M  V30 6 1 6 7
M  V30 7 2 7 8
M  V30 8 1 8 9
M  V30 9 2 9 10
M  V30 10 1 10 11
M  V30 11 1 10 12
M  V30 12 2 12 13
M  V30 13 1 13 14
M  V30 14 1 13 15
M  V30 15 1 15 16
M  V30 16 1 16 17
M  V30 17 2 17 18
M  V30 18 1 17 19
M  V30 19 2 19 20
M  V30 20 1 20 21
M  V30 21 1 20 22
M  V30 22 2 22 23
M  V30 23 1 23 24
M  V30 24 2 24 25
M  V30 25 1 25 26
M  V30 26 1 8 27
M  V30 27 2 27 28
M  V30 28 1 28 5
M  V30 29 1 26 9
M  V30 30 2 26 15
M  V30 31 1 25 19
M  V30 32 1 1 29
M  V30 33 1 1 30
M  V30 34 1 1 31
M  V30 35 1 2 32 CFG=1
M  V30 36 1 3 33
M  V30 37 1 3 34
M  V30 38 1 4 35
M  V30 39 1 4 36
M  V30 40 1 6 37
M  V30 41 1 7 38
M  V30 42 1 11 39
M  V30 43 1 12 40
M  V30 44 1 16 41
M  V30 45 1 21 42
M  V30 46 1 22 43
M  V30 47 1 23 44
M  V30 48 1 24 45
M  V30 49 1 27 46
M  V30 50 1 28 47
M  V30 END BOND
M  V30 END CTAB
M  END
>  <Dataset>  (898) 
ChEMBL_Kinases

>  <Ligand_Instance>  (898) 
nan

>  <PDB_ID>  (898) 
nan

>  <Standardized_SMILES>  (898) 
C[C@@H](CN)c1ccc(-c2c(O)cc(Cl)c3[nH]c(=O)c4c(O)cccc4c23)cc1

>  <Name>  (898) 
nan

>  <Pocket>  (898) 
nan

>  <ATP_Site>  (898) 
nan

>  <Peripheral>  (898) 
nan

>  <Num_H_Atoms_ProtBoundConf>  (898) 
nan

>  <Num_Resolved_Atoms>  (898) 
nan

>  <Num_Not_Resolved_Atoms>  (898) 
nan

$$$$
CHEMBL4579119
     RDKit          3D

  0  0  0  0  0  0  0  0  0  0999 V3000
M  V30 BEGIN CTAB
M  V30 COUNTS 39 41 0 0 0
M  V30 BEGIN ATOM
M  V30 1 C 0.830172 -4.424083 3.110248 0
M  V30 2 N 0.059021 -4.719122 1.912853 0
M  V30 3 N -0.203586 -5.872594 1.293600 0
M  V30 4 C -0.968119 -5.644438 0.211056 0
M  V30 5 C -1.214811 -4.279715 0.121080 0
M  V30 6 C -0.546931 -3.739901 1.215228 0
M  V30 7 C -0.584709 -2.300319 1.448620 0
M  V30 8 N 0.032752 -1.455994 0.627597 0
M  V30 9 C 0.075395 -0.124830 0.727196 0
M  V30 10 N 0.738690 0.779069 -0.156784 0
M  V30 11 C 1.388244 1.664205 -1.022454 0
M  V30 12 C 1.248473 3.152510 -0.685644 0
M  V30 13 C 0.928815 1.615912 -2.496041 0
M  V30 14 C 2.918391 1.460110 -1.010105 0
M  V30 15 C -0.594541 0.423444 1.797879 0
M  V30 16 C -0.703219 1.757087 2.125283 0
M  V30 17 C -1.398852 2.211666 3.223548 0
M  V30 18 N -2.022218 1.340872 4.050055 0
M  V30 19 C -1.970750 0.007748 3.808495 0
M  V30 20 C -1.258798 -0.383308 2.693571 0
M  V30 21 N -1.208923 -1.693087 2.458014 0
M  V30 22 H 1.513437 -3.573801 2.943110 0
M  V30 23 H 1.469371 -5.290523 3.364322 0
M  V30 24 H 0.196927 -4.208618 3.982984 0
M  V30 25 H -1.325897 -6.399541 -0.468654 0
M  V30 26 H -1.803605 -3.806324 -0.652874 0
M  V30 27 H 1.129299 0.061320 -0.842297 0
M  V30 28 H 1.736307 3.404713 0.278467 0
M  V30 29 H 1.839428 3.662089 -1.475592 0
M  V30 30 H 0.213791 3.501370 -0.786344 0
M  V30 31 H 1.131127 0.620001 -2.932824 0
M  V30 32 H -0.157845 1.840730 -2.491065 0
M  V30 33 H 1.436585 2.454408 -2.994353 0
M  V30 34 H 3.290921 1.774391 -0.014291 0
M  V30 35 H 3.335563 2.134055 -1.784999 0
M  V30 36 H 3.144935 0.389774 -1.172172 0
M  V30 37 H -0.219136 2.456047 1.487002 0
M  V30 38 H -1.432652 3.282222 3.406303 0
M  V30 39 H -2.456086 -0.718348 4.446094 0
M  V30 END ATOM
M  V30 BEGIN BOND
M  V30 1 1 1 2
M  V30 2 1 2 3
M  V30 3 2 3 4
M  V30 4 1 4 5
M  V30 5 2 5 6
M  V30 6 1 6 7
M  V30 7 2 7 8
M  V30 8 1 8 9
M  V30 9 1 9 10
M  V30 10 1 10 11
M  V30 11 1 11 12
M  V30 12 1 11 13
M  V30 13 1 11 14
M  V30 14 2 9 15
M  V30 15 1 15 16
M  V30 16 2 16 17
M  V30 17 1 17 18
M  V30 18 2 18 19
M  V30 19 1 19 20
M  V30 20 2 20 21
M  V30 21 1 6 2
M  V30 22 1 21 7
M  V30 23 1 20 15
M  V30 24 1 1 22
M  V30 25 1 1 23
M  V30 26 1 1 24
M  V30 27 1 4 25
M  V30 28 1 5 26
M  V30 29 1 10 27
M  V30 30 1 12 28
M  V30 31 1 12 29
M  V30 32 1 12 30
M  V30 33 1 13 31
M  V30 34 1 13 32
M  V30 35 1 13 33
M  V30 36 1 14 34
M  V30 37 1 14 35
M  V30 38 1 14 36
M  V30 39 1 16 37
M  V30 40 1 17 38
M  V30 41 1 19 39
M  V30 END BOND
M  V30 END CTAB
M  END
>  <Dataset>  (899) 
ChEMBL_Kinases

>  <Ligand_Instance>  (899) 
nan

>  <PDB_ID>  (899) 
nan

>  <Standardized_SMILES>  (899) 
Cn1nccc1-c1nc(NC(C)(C)C)c2ccncc2n1

>  <Name>  (899) 
nan

>  <Pocket>  (899) 
nan

>  <ATP_Site>  (899) 
nan

>  <Peripheral>  (899) 
nan

>  <Num_H_Atoms_ProtBoundConf>  (899) 
nan

>  <Num_Resolved_Atoms>  (899) 
nan

>  <Num_Not_Resolved_Atoms>  (899) 
nan

$$$$
CHEMBL4579088
     RDKit          3D

  0  0  0  0  0  0  0  0  0  0999 V3000
M  V30 BEGIN CTAB
M  V30 COUNTS 39 42 0 0 0
M  V30 BEGIN ATOM
M  V30 1 O 0.193051 -5.084748 2.244055 0
M  V30 2 C 0.481969 -3.891068 1.918754 0
M  V30 3 O -0.486726 -3.014123 1.446979 0
M  V30 4 C 1.863418 -3.483060 2.060409 0
M  V30 5 C 2.793848 -4.384626 2.532506 0
M  V30 6 C 4.101725 -3.988076 2.663320 0
M  V30 7 C 4.484164 -2.709026 2.329126 0
M  V30 8 C 3.595959 -1.770260 1.853441 0
M  V30 9 N 4.063417 -0.476309 1.531209 0
M  V30 10 C 3.131620 0.570540 1.012683 0
M  V30 11 N 1.979630 0.665789 0.755512 0
M  V30 12 C 1.328968 1.690684 0.299320 0
M  V30 13 C -0.101838 1.644313 0.032652 0
M  V30 14 C -0.765836 2.749241 -0.451788 0
M  V30 15 C -2.114016 2.808484 -0.736002 0
M  V30 16 C -2.876784 1.678009 -0.524086 0
M  V30 17 C -4.226092 1.718431 -0.802494 0
M  V30 18 C -4.964693 0.577898 -0.582603 0
M  V30 19 C -4.401140 -0.578385 -0.101483 0
M  V30 20 C -3.032141 -0.589890 0.171537 0
M  V30 21 C -2.268305 0.538933 -0.039639 0
M  V30 22 C -0.914853 0.548950 0.223435 0
M  V30 23 C 2.116727 2.812290 0.095192 0
M  V30 24 S 3.819431 2.173387 0.634796 0
M  V30 25 C 2.303091 -2.225102 1.744252 0
M  V30 26 H -1.267546 -3.461612 0.942292 0
M  V30 27 H 2.535356 -5.402533 2.807511 0
M  V30 28 H 4.852756 -4.679915 3.032896 0
M  V30 29 H 5.533646 -2.447722 2.452315 0
M  V30 30 H 5.067477 -0.256392 1.658416 0
M  V30 31 H -0.237138 3.666316 -0.641426 0
M  V30 32 H -2.588167 3.702811 -1.115656 0
M  V30 33 H -4.645071 2.649851 -1.183170 0
M  V30 34 H -6.040989 0.605618 -0.803226 0
M  V30 35 H -4.979896 -1.478653 0.072920 0
M  V30 36 H -2.605320 -1.508066 0.549514 0
M  V30 37 H -0.439124 -0.365718 0.609910 0
M  V30 38 H 1.751536 3.902874 -0.325864 0
M  V30 39 H 1.544854 -1.549941 1.378596 0
M  V30 END ATOM
M  V30 BEGIN BOND
M  V30 1 2 1 2
M  V30 2 1 2 3
M  V30 3 1 2 4
M  V30 4 2 4 5
M  V30 5 1 5 6
M  V30 6 2 6 7
M  V30 7 1 7 8
M  V30 8 1 8 9
M  V30 9 1 9 10
M  V30 10 2 10 11
M  V30 11 1 11 12
M  V30 12 1 12 13
M  V30 13 2 13 14
M  V30 14 1 14 15
M  V30 15 2 15 16
M  V30 16 1 16 17
M  V30 17 2 17 18
M  V30 18 1 18 19
M  V30 19 2 19 20
M  V30 20 1 20 21
M  V30 21 2 21 22
M  V30 22 2 12 23
M  V30 23 1 23 24
M  V30 24 2 8 25
M  V30 25 1 25 4
M  V30 26 1 24 10
M  V30 27 1 22 13
M  V30 28 1 21 16
M  V30 29 1 3 26
M  V30 30 1 5 27
M  V30 31 1 6 28
M  V30 32 1 7 29
M  V30 33 1 9 30
M  V30 34 1 14 31
M  V30 35 1 15 32
M  V30 36 1 17 33
M  V30 37 1 18 34
M  V30 38 1 19 35
M  V30 39 1 20 36
M  V30 40 1 22 37
M  V30 41 1 23 38
M  V30 42 1 25 39
M  V30 END BOND
M  V30 END CTAB
M  END
>  <Dataset>  (900) 
ChEMBL_Kinases

>  <Ligand_Instance>  (900) 
nan

>  <PDB_ID>  (900) 
nan

>  <Standardized_SMILES>  (900) 
O=C(O)c1cccc(Nc2nc(-c3ccc4ccccc4c3)cs2)c1

>  <Name>  (900) 
nan

>  <Pocket>  (900) 
nan

>  <ATP_Site>  (900) 
nan

>  <Peripheral>  (900) 
nan

>  <Num_H_Atoms_ProtBoundConf>  (900) 
nan

>  <Num_Resolved_Atoms>  (900) 
nan

>  <Num_Not_Resolved_Atoms>  (900) 
nan

$$$$
CHEMBL4579078
     RDKit          3D

  0  0  0  0  0  0  0  0  0  0999 V3000
M  V30 BEGIN CTAB
M  V30 COUNTS 43 46 0 0 0
M  V30 BEGIN ATOM
M  V30 1 O -0.075077 -3.426619 3.188721 0
M  V30 2 C 0.929634 -2.440851 3.099282 0
M  V30 3 C 0.743667 -1.628468 1.860653 0
M  V30 4 N -0.522539 -0.932426 1.781039 0
M  V30 5 C -0.805124 -0.140358 0.663207 0
M  V30 6 N 0.083958 -0.017455 -0.337683 0
M  V30 7 C -0.114037 0.723473 -1.442233 0
M  V30 8 C 0.903642 0.804722 -2.485326 0
M  V30 9 C 2.089671 0.113089 -2.342588 0
M  V30 10 C 3.013729 0.237272 -3.376896 0
M  V30 11 N 2.832307 0.980006 -4.499138 0
M  V30 12 C 1.660017 1.647520 -4.612392 0
M  V30 13 C 0.707364 1.562271 -3.619981 0
M  V30 14 N -1.270580 1.403239 -1.590949 0
M  V30 15 C -2.243753 1.349750 -0.635406 0
M  V30 16 C -3.430951 2.028594 -0.755376 0
M  V30 17 N -4.366119 1.947506 0.214109 0
M  V30 18 C -4.152196 1.191741 1.330167 0
M  V30 19 C -2.950286 0.523010 1.419617 0
M  V30 20 C -1.974426 0.566368 0.479225 0
M  V30 21 C 2.232878 -3.200222 2.996037 0
M  V30 22 C 2.989438 -2.905037 4.275915 0
M  V30 23 C 2.499589 -1.526328 4.690705 0
M  V30 24 C 1.023211 -1.616563 4.349787 0
M  V30 25 H 0.188237 -4.202018 2.605113 0
M  V30 26 H 0.862234 -2.345113 0.998994 0
M  V30 27 H 1.596585 -0.924412 1.760392 0
M  V30 28 H -1.131837 -1.095533 2.603202 0
M  V30 29 H 2.292791 -0.488432 -1.483555 0
M  V30 30 H 3.979394 -0.281595 -3.337151 0
M  V30 31 H 1.474712 2.256704 -5.500451 0
M  V30 32 H -0.240955 2.095845 -3.700522 0
M  V30 33 H -3.580020 2.624088 -1.652039 0
M  V30 34 H -4.954228 1.190072 2.044349 0
M  V30 35 H -2.824673 -0.052977 2.303394 0
M  V30 36 H 2.848140 -2.843867 2.140056 0
M  V30 37 H 2.130634 -4.282115 2.912839 0
M  V30 38 H 2.702925 -3.595821 5.099664 0
M  V30 39 H 4.087769 -2.879538 4.139691 0
M  V30 40 H 2.608679 -1.345960 5.788637 0
M  V30 41 H 2.963817 -0.725962 4.090711 0
M  V30 42 H 0.506680 -2.144233 5.191824 0
M  V30 43 H 0.660068 -0.582751 4.233148 0
M  V30 END ATOM
M  V30 BEGIN BOND
M  V30 1 1 1 2
M  V30 2 1 2 3
M  V30 3 1 3 4
M  V30 4 1 4 5
M  V30 5 2 5 6
M  V30 6 1 6 7
M  V30 7 1 7 8
M  V30 8 2 8 9
M  V30 9 1 9 10
M  V30 10 2 10 11
M  V30 11 1 11 12
M  V30 12 2 12 13
M  V30 13 2 7 14
M  V30 14 1 14 15
M  V30 15 2 15 16
M  V30 16 1 16 17
M  V30 17 2 17 18
M  V30 18 1 18 19
M  V30 19 2 19 20
M  V30 20 1 2 21
M  V30 21 1 21 22
M  V30 22 1 22 23
M  V30 23 1 23 24
M  V30 24 1 24 2
M  V30 25 1 20 5
M  V30 26 1 13 8
M  V30 27 1 20 15
M  V30 28 1 1 25
M  V30 29 1 3 26
M  V30 30 1 3 27
M  V30 31 1 4 28
M  V30 32 1 9 29
M  V30 33 1 10 30
M  V30 34 1 12 31
M  V30 35 1 13 32
M  V30 36 1 16 33
M  V30 37 1 18 34
M  V30 38 1 19 35
M  V30 39 1 21 36
M  V30 40 1 21 37
M  V30 41 1 22 38
M  V30 42 1 22 39
M  V30 43 1 23 40
M  V30 44 1 23 41
M  V30 45 1 24 42
M  V30 46 1 24 43
M  V30 END BOND
M  V30 END CTAB
M  END
>  <Dataset>  (901) 
ChEMBL_Kinases

>  <Ligand_Instance>  (901) 
nan

>  <PDB_ID>  (901) 
nan

>  <Standardized_SMILES>  (901) 
OC1(CNc2nc(-c3ccncc3)nc3cnccc23)CCCC1

>  <Name>  (901) 
nan

>  <Pocket>  (901) 
nan

>  <ATP_Site>  (901) 
nan

>  <Peripheral>  (901) 
nan

>  <Num_H_Atoms_ProtBoundConf>  (901) 
nan

>  <Num_Resolved_Atoms>  (901) 
nan

>  <Num_Not_Resolved_Atoms>  (901) 
nan

$$$$
CHEMBL4579057
     RDKit          3D

  0  0  0  0  0  0  0  0  0  0999 V3000
M  V30 BEGIN CTAB
M  V30 COUNTS 70 75 0 0 0
M  V30 BEGIN ATOM
M  V30 1 C 4.039491 1.141894 4.964291 0
M  V30 2 C 3.202157 0.242292 4.134880 0
M  V30 3 C 3.278867 0.170274 2.759954 0
M  V30 4 C 2.462231 -0.702449 2.068755 0
M  V30 5 C 2.498578 -0.784056 0.587573 0
M  V30 6 C 3.536795 -0.758849 -0.317398 0
M  V30 7 N 3.035389 -0.847607 -1.564765 0
M  V30 8 N 1.698329 -0.931327 -1.519903 0
M  V30 9 C 0.751966 -1.039754 -2.497493 0
M  V30 10 N 1.117919 -1.071608 -3.853367 0
M  V30 11 C 0.836903 -0.337091 -5.069141 0
M  V30 12 C -0.584173 -0.396648 -5.515389 0 CFG=1
M  V30 13 C -0.872578 0.367202 -6.789446 0
M  V30 14 C -2.334509 0.223926 -7.126191 0
M  V30 15 C -3.118126 -0.598545 -6.160492 0 CFG=1
M  V30 16 O -4.365574 -0.873350 -6.750988 0
M  V30 17 C -2.472020 -1.930812 -5.878295 0
M  V30 18 C -0.986383 -1.843479 -5.762792 0
M  V30 19 C -0.551488 -1.104712 -2.011093 0
M  V30 20 C -0.937134 -1.068628 -0.679070 0
M  V30 21 O -2.303804 -1.146607 -0.371504 0
M  V30 22 C -2.710685 -1.133288 0.936583 0
M  V30 23 C -2.970048 -2.278337 1.700541 0
M  V30 24 C -3.374291 -2.371912 3.001407 0
M  V30 25 C -3.553279 -1.188916 3.660163 0
M  V30 26 N -3.329815 -0.020530 3.015538 0
M  V30 27 C -2.931276 -0.001815 1.726003 0
M  V30 28 N 0.081036 -0.961359 0.170691 0
M  V30 29 C 1.368737 -0.893251 -0.214749 0
M  V30 30 C 1.543700 -1.534895 2.690360 0
M  V30 31 C 1.490094 -1.438565 4.071427 0
M  V30 32 C 2.297870 -0.571193 4.787625 0
M  V30 33 C 2.073011 -0.604913 6.245016 0
M  V30 34 O 2.820822 -1.018240 7.199672 0
M  V30 35 N 0.811949 -0.095193 6.736475 0
M  V30 36 C 0.349233 -0.013198 8.106677 0
M  V30 37 C -1.116309 0.048641 8.303263 0
M  V30 38 C -0.344857 1.330928 8.467875 0
M  V30 39 H 3.567451 1.332004 5.945636 0
M  V30 40 H 4.114547 2.109164 4.421346 0
M  V30 41 H 5.085029 0.779428 5.062271 0
M  V30 42 H 3.985082 0.804077 2.239085 0
M  V30 43 H 4.572492 -0.675290 0.010817 0
M  V30 44 H 1.790882 -1.890386 -3.937983 0
M  V30 45 H 1.516396 -0.672767 -5.873972 0
M  V30 46 H 1.086334 0.735486 -4.858164 0
M  V30 47 H -1.244024 0.058050 -4.742240 0
M  V30 48 H -0.196927 0.076096 -7.614558 0
M  V30 49 H -0.680156 1.466002 -6.601131 0
M  V30 50 H -2.854091 1.223616 -7.196976 0
M  V30 51 H -2.396273 -0.256358 -8.126619 0
M  V30 52 H -3.324807 -0.101881 -5.198671 0
M  V30 53 H -4.966605 -1.183385 -6.011423 0
M  V30 54 H -2.736401 -2.622374 -6.724677 0
M  V30 55 H -2.895598 -2.374667 -4.973804 0
M  V30 56 H -0.487505 -2.166303 -6.695879 0
M  V30 57 H -0.572484 -2.449883 -4.923531 0
M  V30 58 H -1.351605 -1.196939 -2.740976 0
M  V30 59 H -2.837554 -3.243645 1.198230 0
M  V30 60 H -3.553482 -3.281015 3.520517 0
M  V30 61 H -3.865447 -1.075184 4.683552 0
M  V30 62 H -2.752079 0.959403 1.219173 0
M  V30 63 H 0.919174 -2.206503 2.124151 0
M  V30 64 H 0.765025 -2.097570 4.544123 0
M  V30 65 H 0.142218 0.266675 5.989091 0
M  V30 66 H 1.027463 -0.372246 8.879615 0
M  V30 67 H -1.615447 -0.296013 9.230673 0
M  V30 68 H -1.765335 -0.032825 7.390966 0
M  V30 69 H -0.196589 1.729562 9.482445 0
M  V30 70 H -0.436643 2.057322 7.644723 0
M  V30 END ATOM
M  V30 BEGIN BOND
M  V30 1 1 1 2
M  V30 2 2 2 3
M  V30 3 1 3 4
M  V30 4 1 4 5
M  V30 5 1 5 6
M  V30 6 2 6 7
M  V30 7 1 7 8
M  V30 8 1 8 9
M  V30 9 1 9 10
M  V30 10 1 10 11
M  V30 11 1 11 12
M  V30 12 1 12 13
M  V30 13 1 13 14
M  V30 14 1 14 15
M  V30 15 1 15 16
M  V30 16 1 15 17
M  V30 17 1 17 18
M  V30 18 2 9 19
M  V30 19 1 19 20
M  V30 20 1 20 21
M  V30 21 1 21 22
M  V30 22 2 22 23
M  V30 23 1 23 24
M  V30 24 2 24 25
M  V30 25 1 25 26
M  V30 26 2 26 27
M  V30 27 2 20 28
M  V30 28 1 28 29
M  V30 29 2 4 30
M  V30 30 1 30 31
M  V30 31 2 31 32
M  V30 32 1 32 33
M  V30 33 2 33 34
M  V30 34 1 33 35
M  V30 35 1 35 36
M  V30 36 1 36 37
M  V30 37 1 37 38
M  V30 38 1 32 2
M  V30 39 1 38 36
M  V30 40 2 29 5
M  V30 41 1 29 8
M  V30 42 1 18 12
M  V30 43 1 27 22
M  V30 44 1 1 39
M  V30 45 1 1 40
M  V30 46 1 1 41
M  V30 47 1 3 42
M  V30 48 1 6 43
M  V30 49 1 10 44
M  V30 50 1 11 45
M  V30 51 1 11 46
M  V30 52 1 12 47 CFG=1
M  V30 53 1 13 48
M  V30 54 1 13 49
M  V30 55 1 14 50
M  V30 56 1 14 51
M  V30 57 1 15 52 CFG=1
M  V30 58 1 16 53
M  V30 59 1 17 54
M  V30 60 1 17 55
M  V30 61 1 18 56
M  V30 62 1 18 57
M  V30 63 1 19 58
M  V30 64 1 23 59
M  V30 65 1 24 60
M  V30 66 1 25 61
M  V30 67 1 27 62
M  V30 68 1 30 63
M  V30 69 1 31 64
M  V30 70 1 35 65
M  V30 71 1 36 66
M  V30 72 1 37 67
M  V30 73 1 37 68
M  V30 74 1 38 69
M  V30 75 1 38 70
M  V30 END BOND
M  V30 END CTAB
M  END
>  <Dataset>  (902) 
ChEMBL_Kinases

>  <Ligand_Instance>  (902) 
nan

>  <PDB_ID>  (902) 
nan

>  <Standardized_SMILES>  (902) 
Cc1cc(-c2cnn3c(NC[C@H]4CC[C@@H](O)CC4)cc(Oc4cccnc4)nc23)ccc1C(=O)NC1CC1

>  <Name>  (902) 
nan

>  <Pocket>  (902) 
nan

>  <ATP_Site>  (902) 
nan

>  <Peripheral>  (902) 
nan

>  <Num_H_Atoms_ProtBoundConf>  (902) 
nan

>  <Num_Resolved_Atoms>  (902) 
nan

>  <Num_Not_Resolved_Atoms>  (902) 
nan

$$$$
CHEMBL4578996
     RDKit          3D

  0  0  0  0  0  0  0  0  0  0999 V3000
M  V30 BEGIN CTAB
M  V30 COUNTS 47 50 0 0 0
M  V30 BEGIN ATOM
M  V30 1 C 5.047982 -3.204401 5.120031 0
M  V30 2 C 5.401131 -2.680881 3.774893 0
M  V30 3 C 6.617921 -3.046914 3.140631 0
M  V30 4 S 6.557108 -2.141055 1.544234 0
M  V30 5 C 5.006207 -1.374176 1.801638 0
M  V30 6 C 4.345084 -0.487878 0.886410 0
M  V30 7 C 5.012132 -0.234402 -0.292067 0
M  V30 8 N 4.415793 0.597832 -1.176785 0
M  V30 9 C 3.217692 1.152329 -0.908352 0
M  V30 10 N 2.547281 2.036056 -1.807457 0
M  V30 11 C 2.563613 0.884796 0.282029 0
M  V30 12 N 1.281440 1.439021 0.641605 0
M  V30 13 C 0.154259 0.689571 0.255361 0
M  V30 14 O 0.367041 -0.391771 -0.366470 0
M  V30 15 C -1.214269 1.108706 0.541566 0
M  V30 16 C -1.479940 2.279176 1.220261 0
M  V30 17 C -2.817273 2.547200 1.418784 0
M  V30 18 N -3.814766 1.754004 0.998653 0
M  V30 19 C -3.580546 0.610421 0.336442 0
M  V30 20 N -4.698709 -0.159052 -0.066165 0
M  V30 21 C -4.766382 -1.374262 -0.759477 0
M  V30 22 O -3.694277 -1.925188 -1.111055 0
M  V30 23 C -5.984206 -2.099091 -1.133231 0
M  V30 24 C -7.111458 -2.201868 -0.163910 0
M  V30 25 C -7.258046 -1.438454 -1.437532 0
M  V30 26 C -2.273195 0.327069 0.130150 0
M  V30 27 C 3.119898 0.039044 1.234300 0
M  V30 28 C 4.588882 -1.828751 3.083209 0
M  V30 29 H 5.900056 -3.001165 5.833777 0
M  V30 30 H 4.194625 -2.654610 5.564688 0
M  V30 31 H 4.773641 -4.271868 5.090464 0
M  V30 32 H 7.367451 -3.753828 3.633105 0
M  V30 33 H 5.967714 -0.654033 -0.547326 0
M  V30 34 H 2.987401 2.975259 -1.673388 0
M  V30 35 H 1.785863 1.972070 -2.508060 0
M  V30 36 H 1.189888 2.333246 1.152723 0
M  V30 37 H -0.700150 2.936887 1.570146 0
M  V30 38 H -3.122604 3.444750 1.942648 0
M  V30 39 H -5.675146 0.181220 0.161791 0
M  V30 40 H -5.790904 -3.052756 -1.686143 0
M  V30 41 H -7.695269 -3.141812 -0.046346 0
M  V30 42 H -7.027966 -1.653041 0.813448 0
M  V30 43 H -7.942481 -1.909036 -2.198334 0
M  V30 44 H -7.427351 -0.349759 -1.375152 0
M  V30 45 H -2.012101 -0.575729 -0.395176 0
M  V30 46 H 2.630255 -0.186162 2.171184 0
M  V30 47 H 3.636768 -1.460989 3.429852 0
M  V30 END ATOM
M  V30 BEGIN BOND
M  V30 1 1 1 2
M  V30 2 2 2 3
M  V30 3 1 3 4
M  V30 4 1 4 5
M  V30 5 1 5 6
M  V30 6 2 6 7
M  V30 7 1 7 8
M  V30 8 2 8 9
M  V30 9 1 9 10
M  V30 10 1 9 11
M  V30 11 1 11 12
M  V30 12 1 12 13
M  V30 13 2 13 14
M  V30 14 1 13 15
M  V30 15 2 15 16
M  V30 16 1 16 17
M  V30 17 2 17 18
M  V30 18 1 18 19
M  V30 19 1 19 20
M  V30 20 1 20 21
M  V30 21 2 21 22
M  V30 22 1 21 23
M  V30 23 1 23 24
M  V30 24 1 24 25
M  V30 25 2 19 26
M  V30 26 2 11 27
M  V30 27 2 5 28
M  V30 28 1 28 2
M  V30 29 1 27 6
M  V30 30 1 26 15
M  V30 31 1 25 23
M  V30 32 1 1 29
M  V30 33 1 1 30
M  V30 34 1 1 31
M  V30 35 1 3 32
M  V30 36 1 7 33
M  V30 37 1 10 34
M  V30 38 1 10 35
M  V30 39 1 12 36
M  V30 40 1 16 37
M  V30 41 1 17 38
M  V30 42 1 20 39
M  V30 43 1 23 40
M  V30 44 1 24 41
M  V30 45 1 24 42
M  V30 46 1 25 43
M  V30 47 1 25 44
M  V30 48 1 26 45
M  V30 49 1 27 46
M  V30 50 1 28 47
M  V30 END BOND
M  V30 END CTAB
M  END
>  <Dataset>  (903) 
ChEMBL_Kinases

>  <Ligand_Instance>  (903) 
nan

>  <PDB_ID>  (903) 
nan

>  <Standardized_SMILES>  (903) 
Cc1csc(-c2cnc(N)c(NC(=O)c3ccnc(NC(=O)C4CC4)c3)c2)c1

>  <Name>  (903) 
nan

>  <Pocket>  (903) 
nan

>  <ATP_Site>  (903) 
nan

>  <Peripheral>  (903) 
nan

>  <Num_H_Atoms_ProtBoundConf>  (903) 
nan

>  <Num_Resolved_Atoms>  (903) 
nan

>  <Num_Not_Resolved_Atoms>  (903) 
nan

$$$$
CHEMBL4578995
     RDKit          3D

  0  0  0  0  0  0  0  0  0  0999 V3000
M  V30 BEGIN CTAB
M  V30 COUNTS 48 51 0 0 0
M  V30 BEGIN ATOM
M  V30 1 C 1.816756 -3.730869 1.949095 0
M  V30 2 N 2.362010 -4.592940 0.903847 0
M  V30 3 N 2.747394 -5.838767 1.100998 0
M  V30 4 C 3.202565 -6.366542 -0.053616 0
M  V30 5 C 3.062677 -5.340029 -0.969581 0
M  V30 6 Br 3.547643 -5.494972 -2.798746 0
M  V30 7 C 2.532914 -4.215984 -0.375296 0
M  V30 8 C 2.212714 -2.910309 -0.936922 0
M  V30 9 C 2.363421 -2.465204 -2.230528 0
M  V30 10 C 1.932688 -1.154192 -2.331206 0
M  V30 11 C 1.526498 -0.861519 -1.038759 0
M  V30 12 C 0.980925 0.425437 -0.617005 0
M  V30 13 O 0.854522 1.353902 -1.446011 0
M  V30 14 N 0.590745 0.631551 0.734835 0
M  V30 15 C 0.038544 1.822830 1.325352 0 CFG=2
M  V30 16 C 0.896249 2.339407 2.457554 0
M  V30 17 N 0.248721 2.356311 3.724074 0
M  V30 18 C -0.983638 3.098382 3.751136 0
M  V30 19 C -1.867723 2.794997 2.564374 0
M  V30 20 C -1.342397 1.554781 1.899860 0 CFG=1
M  V30 21 C -2.265927 0.955511 0.931278 0
M  V30 22 C -2.720445 -0.338394 1.199672 0
M  V30 23 C -3.600616 -0.994438 0.339907 0
M  V30 24 C -4.016723 -0.328242 -0.794751 0
M  V30 25 Cl -5.120015 -1.161600 -1.864243 0
M  V30 26 C -3.550855 0.952601 -1.036006 0
M  V30 27 C -2.678491 1.618921 -0.195874 0
M  V30 28 O 1.706002 -1.902254 -0.269926 0
M  V30 29 H 2.593019 -3.105492 2.404506 0
M  V30 30 H 1.403798 -4.376009 2.775792 0
M  V30 31 H 0.946942 -3.138500 1.563105 0
M  V30 32 H 3.590107 -7.359845 -0.236916 0
M  V30 33 H 2.753256 -3.015513 -3.074830 0
M  V30 34 H 1.902034 -0.476646 -3.197359 0
M  V30 35 H 0.680990 -0.126453 1.466596 0
M  V30 36 H -0.034294 2.584933 0.513838 0
M  V30 37 H 1.768595 1.658843 2.544168 0
M  V30 38 H 1.259691 3.370441 2.227663 0
M  V30 39 H 0.252404 1.475206 4.250880 0
M  V30 40 H -1.538815 2.794066 4.661210 0
M  V30 41 H -0.741210 4.165789 3.870118 0
M  V30 42 H -1.878593 3.669862 1.898456 0
M  V30 43 H -2.910190 2.568956 2.882680 0
M  V30 44 H -1.164285 0.810864 2.727897 0
M  V30 45 H -2.416907 -0.896706 2.081326 0
M  V30 46 H -3.932901 -2.000552 0.581004 0
M  V30 47 H -3.922086 1.409444 -1.945735 0
M  V30 48 H -2.343687 2.611723 -0.423184 0
M  V30 END ATOM
M  V30 BEGIN BOND
M  V30 1 1 1 2
M  V30 2 1 2 3
M  V30 3 2 3 4
M  V30 4 1 4 5
M  V30 5 1 5 6
M  V30 6 2 5 7
M  V30 7 1 7 8
M  V30 8 2 8 9
M  V30 9 1 9 10
M  V30 10 2 10 11
M  V30 11 1 11 12
M  V30 12 2 12 13
M  V30 13 1 12 14
M  V30 14 1 14 15
M  V30 15 1 15 16
M  V30 16 1 16 17
M  V30 17 1 17 18
M  V30 18 1 18 19
M  V30 19 1 19 20
M  V30 20 1 20 21
M  V30 21 2 21 22
M  V30 22 1 22 23
M  V30 23 2 23 24
M  V30 24 1 24 25
M  V30 25 1 24 26
M  V30 26 2 26 27
M  V30 27 1 11 28
M  V30 28 1 7 2
M  V30 29 1 28 8
M  V30 30 1 20 15
M  V30 31 1 27 21
M  V30 32 1 1 29
M  V30 33 1 1 30
M  V30 34 1 1 31
M  V30 35 1 4 32
M  V30 36 1 9 33
M  V30 37 1 10 34
M  V30 38 1 14 35
M  V30 39 1 15 36 CFG=3
M  V30 40 1 16 37
M  V30 41 1 16 38
M  V30 42 1 17 39
M  V30 43 1 18 40
M  V30 44 1 18 41
M  V30 45 1 19 42
M  V30 46 1 19 43
M  V30 47 1 20 44 CFG=1
M  V30 48 1 22 45
M  V30 49 1 23 46
M  V30 50 1 26 47
M  V30 51 1 27 48
M  V30 END BOND
M  V30 END CTAB
M  END
>  <Dataset>  (904) 
ChEMBL_Kinases

>  <Ligand_Instance>  (904) 
nan

>  <PDB_ID>  (904) 
nan

>  <Standardized_SMILES>  (904) 
Cn1ncc(Br)c1-c1ccc(C(=O)N[C@@H]2CNCC[C@H]2c2ccc(Cl)cc2)o1

>  <Name>  (904) 
nan

>  <Pocket>  (904) 
nan

>  <ATP_Site>  (904) 
nan

>  <Peripheral>  (904) 
nan

>  <Num_H_Atoms_ProtBoundConf>  (904) 
nan

>  <Num_Resolved_Atoms>  (904) 
nan

>  <Num_Not_Resolved_Atoms>  (904) 
nan

$$$$
CHEMBL4579529
     RDKit          3D

  0  0  0  0  0  0  0  0  0  0999 V3000
M  V30 BEGIN CTAB
M  V30 COUNTS 44 46 0 0 0
M  V30 BEGIN ATOM
M  V30 1 C 0.859198 -4.485901 2.236334 0
M  V30 2 O 1.837741 -4.494765 1.211119 0
M  V30 3 C 1.979554 -3.377671 0.401122 0
M  V30 4 C 2.936679 -3.408833 -0.588316 0
M  V30 5 C 3.085781 -2.313509 -1.393117 0
M  V30 6 C 2.278076 -1.217554 -1.190757 0
M  V30 7 C 2.268480 -0.025950 -1.885574 0
M  V30 8 C 3.017033 0.435510 -2.949773 0
M  V30 9 C 2.707501 1.708285 -3.379977 0
M  V30 10 N 1.752463 2.432963 -2.803306 0
M  V30 11 C 0.990256 2.015818 -1.751104 0
M  V30 12 C -0.052012 2.866100 -1.165547 0
M  V30 13 C 1.282070 0.743958 -1.302443 0
M  V30 14 N 0.687194 0.090367 -0.288922 0
M  V30 15 C -0.342517 0.363319 0.649669 0
M  V30 16 C 0.073509 0.963244 1.956984 0
M  V30 17 C -1.068060 1.239172 2.914282 0
M  V30 18 N -1.839313 0.113823 3.308360 0
M  V30 19 C -2.947643 0.190648 4.200989 0
M  V30 20 C -3.601560 -1.122817 4.465898 0
M  V30 21 O -3.169065 1.369553 4.603454 0
M  V30 22 C 1.305265 -1.127297 -0.219747 0
M  V30 23 C 1.187030 -2.270286 0.580736 0
M  V30 24 H 1.012919 -5.352441 2.926653 0
M  V30 25 H 0.951264 -3.550177 2.861975 0
M  V30 26 H -0.156464 -4.509237 1.793125 0
M  V30 27 H 3.544980 -4.295216 -0.704645 0
M  V30 28 H 3.842736 -2.348650 -2.169418 0
M  V30 29 H 3.794651 -0.147828 -3.423403 0
M  V30 30 H 3.251439 2.140185 -4.210609 0
M  V30 31 H -1.084030 2.667944 -1.509859 0
M  V30 32 H 0.128053 3.895268 -1.622554 0
M  V30 33 H 0.061055 3.095741 -0.092025 0
M  V30 34 H -0.963241 -0.539512 0.891641 0
M  V30 35 H -1.066399 1.056545 0.187926 0
M  V30 36 H 0.863844 0.331360 2.468341 0
M  V30 37 H 0.605430 1.930220 1.873009 0
M  V30 38 H -1.757935 2.010946 2.516867 0
M  V30 39 H -0.562301 1.740538 3.792409 0
M  V30 40 H -1.506329 -0.793268 2.869892 0
M  V30 41 H -4.376702 -1.063330 5.230093 0
M  V30 42 H -4.050758 -1.474675 3.508137 0
M  V30 43 H -2.811976 -1.884550 4.723683 0
M  V30 44 H 0.449990 -2.268862 1.355985 0
M  V30 END ATOM
M  V30 BEGIN BOND
M  V30 1 1 1 2
M  V30 2 1 2 3
M  V30 3 2 3 4
M  V30 4 1 4 5
M  V30 5 2 5 6
M  V30 6 1 6 7
M  V30 7 2 7 8
M  V30 8 1 8 9
M  V30 9 2 9 10
M  V30 10 1 10 11
M  V30 11 1 11 12
M  V30 12 2 11 13
M  V30 13 1 13 14
M  V30 14 1 14 15
M  V30 15 1 15 16
M  V30 16 1 16 17
M  V30 17 1 17 18
M  V30 18 1 18 19
M  V30 19 1 19 20
M  V30 20 2 19 21
M  V30 21 1 14 22
M  V30 22 2 22 23
M  V30 23 1 23 3
M  V30 24 1 22 6
M  V30 25 1 13 7
M  V30 26 1 1 24
M  V30 27 1 1 25
M  V30 28 1 1 26
M  V30 29 1 4 27
M  V30 30 1 5 28
M  V30 31 1 8 29
M  V30 32 1 9 30
M  V30 33 1 12 31
M  V30 34 1 12 32
M  V30 35 1 12 33
M  V30 36 1 15 34
M  V30 37 1 15 35
M  V30 38 1 16 36
M  V30 39 1 16 37
M  V30 40 1 17 38
M  V30 41 1 17 39
M  V30 42 1 18 40
M  V30 43 1 20 41
M  V30 44 1 20 42
M  V30 45 1 20 43
M  V30 46 1 23 44
M  V30 END BOND
M  V30 END CTAB
M  END
>  <Dataset>  (905) 
ChEMBL_Kinases

>  <Ligand_Instance>  (905) 
nan

>  <PDB_ID>  (905) 
nan

>  <Standardized_SMILES>  (905) 
COc1ccc2c3ccnc(C)c3n(CCCNC(C)=O)c2c1

>  <Name>  (905) 
nan

>  <Pocket>  (905) 
nan

>  <ATP_Site>  (905) 
nan

>  <Peripheral>  (905) 
nan

>  <Num_H_Atoms_ProtBoundConf>  (905) 
nan

>  <Num_Resolved_Atoms>  (905) 
nan

>  <Num_Not_Resolved_Atoms>  (905) 
nan

$$$$
CHEMBL4633261
     RDKit          3D

  0  0  0  0  0  0  0  0  0  0999 V3000
M  V30 BEGIN CTAB
M  V30 COUNTS 75 78 0 0 0
M  V30 BEGIN ATOM
M  V30 1 C 3.963425 -7.791730 -0.737454 0
M  V30 2 C 4.627783 -6.450045 -0.484162 0
M  V30 3 C 4.964102 -5.825720 -1.811370 0
M  V30 4 C 5.632699 -4.478050 -1.672622 0
M  V30 5 C 4.751084 -3.488030 -0.941883 0
M  V30 6 N 3.518590 -3.319069 -1.682648 0
M  V30 7 C 2.590784 -2.403178 -1.097910 0
M  V30 8 O 3.252261 -2.070525 -0.089668 0
M  V30 9 C 1.311743 -2.137638 -1.732696 0
M  V30 10 C 1.026673 -2.762826 -2.901310 0
M  V30 11 N -0.129220 -2.557059 -3.529342 0
M  V30 12 C -1.060339 -1.733762 -3.047300 0
M  V30 13 C -2.236791 -1.623427 -3.799748 0
M  V30 14 C -3.226896 -0.797055 -3.319907 0
M  V30 15 C -2.969933 -0.157825 -2.147893 0
M  V30 16 C -4.039633 0.678144 -1.624558 0
M  V30 17 C -5.242850 0.897001 -2.254699 0
M  V30 18 C -6.267091 1.669196 -1.756794 0
M  V30 19 Cl -7.759671 1.886214 -2.633757 0
M  V30 20 C -6.103038 2.280723 -0.538681 0
M  V30 21 O -7.118708 3.064824 -0.011974 0
M  V30 22 C -4.925255 2.097079 0.131981 0
M  V30 23 Cl -4.762421 2.892461 1.680186 0
M  V30 24 C -3.939949 1.319148 -0.408596 0
M  V30 25 N -1.826825 -0.288586 -1.455747 0
M  V30 26 C -0.814181 -1.076231 -1.861181 0
M  V30 27 C 0.377603 -1.275414 -1.197189 0
M  V30 28 N 0.595215 -0.593030 0.007447 0
M  V30 29 C 0.016634 0.406945 0.906931 0 CFG=1
M  V30 30 C 0.792419 0.461245 2.202041 0
M  V30 31 C 0.972685 1.798807 2.796044 0
M  V30 32 C -0.136884 2.760684 2.577703 0 CFG=2
M  V30 33 C -1.377714 2.594498 3.394437 0
M  V30 34 N -1.301805 2.678891 4.793374 0
M  V30 35 C -0.665595 1.629000 5.520810 0
M  V30 36 C -2.592668 2.947687 5.393393 0
M  V30 37 C -0.517682 2.826954 1.104005 0
M  V30 38 C 0.127004 1.780802 0.291966 0
M  V30 39 H 3.231312 -7.692040 -1.547866 0
M  V30 40 H 4.704420 -8.594481 -0.898668 0
M  V30 41 H 3.402446 -8.099152 0.183300 0
M  V30 42 H 3.864298 -5.835509 0.058879 0
M  V30 43 H 5.532484 -6.633648 0.095729 0
M  V30 44 H 4.047032 -5.778016 -2.415216 0
M  V30 45 H 5.660634 -6.506684 -2.341674 0
M  V30 46 H 6.608204 -4.616046 -1.167728 0
M  V30 47 H 5.841619 -4.110859 -2.696575 0
M  V30 48 H 5.266960 -2.517067 -0.925648 0
M  V30 49 H 4.597262 -3.802998 0.111372 0
M  V30 50 H 3.370249 -3.862609 -2.587686 0
M  V30 51 H 1.660309 -3.447569 -3.415318 0
M  V30 52 H -2.326204 -2.194355 -4.736719 0
M  V30 53 H -4.088472 -0.774133 -3.959526 0
M  V30 54 H -5.442031 0.450541 -3.213378 0
M  V30 55 H -8.068390 2.681553 0.100369 0
M  V30 56 H -3.005582 1.151738 0.106491 0
M  V30 57 H 1.488541 -0.867581 0.467099 0
M  V30 58 H -0.990528 0.072893 1.139655 0
M  V30 59 H 1.800621 0.003810 1.948426 0
M  V30 60 H 0.379596 -0.288019 2.943902 0
M  V30 61 H 1.262596 1.781196 3.852222 0
M  V30 62 H 1.915277 2.224115 2.293816 0
M  V30 63 H 0.252243 3.771796 2.824483 0
M  V30 64 H -2.157713 3.364280 3.060491 0
M  V30 65 H -1.931438 1.636454 3.093371 0
M  V30 66 H 0.316590 1.886258 5.969060 0
M  V30 67 H -1.303543 1.353702 6.416598 0
M  V30 68 H -0.517663 0.710788 4.910802 0
M  V30 69 H -2.495731 3.435173 6.386885 0
M  V30 70 H -3.178316 3.670573 4.757770 0
M  V30 71 H -3.232010 2.037882 5.431086 0
M  V30 72 H -0.244870 3.821714 0.651649 0
M  V30 73 H -1.608567 2.774594 1.018294 0
M  V30 74 H -0.195048 1.857098 -0.746710 0
M  V30 75 H 1.233972 2.012392 0.270587 0
M  V30 END ATOM
M  V30 BEGIN BOND
M  V30 1 1 1 2
M  V30 2 1 2 3
M  V30 3 1 3 4
M  V30 4 1 4 5
M  V30 5 1 5 6
M  V30 6 1 6 7
M  V30 7 2 7 8
M  V30 8 1 7 9
M  V30 9 2 9 10
M  V30 10 1 10 11
M  V30 11 2 11 12
M  V30 12 1 12 13
M  V30 13 2 13 14
M  V30 14 1 14 15
M  V30 15 1 15 16
M  V30 16 2 16 17
M  V30 17 1 17 18
M  V30 18 1 18 19
M  V30 19 2 18 20
M  V30 20 1 20 21
M  V30 21 1 20 22
M  V30 22 1 22 23
M  V30 23 2 22 24
M  V30 24 2 15 25
M  V30 25 1 25 26
M  V30 26 2 26 27
M  V30 27 1 27 28
M  V30 28 1 28 29
M  V30 29 1 29 30
M  V30 30 1 30 31
M  V30 31 1 31 32
M  V30 32 1 32 33
M  V30 33 1 33 34
M  V30 34 1 34 35
M  V30 35 1 34 36
M  V30 36 1 32 37
M  V30 37 1 37 38
M  V30 38 1 27 9
M  V30 39 1 38 29
M  V30 40 1 26 12
M  V30 41 1 24 16
M  V30 42 1 1 39
M  V30 43 1 1 40
M  V30 44 1 1 41
M  V30 45 1 2 42
M  V30 46 1 2 43
M  V30 47 1 3 44
M  V30 48 1 3 45
M  V30 49 1 4 46
M  V30 50 1 4 47
M  V30 51 1 5 48
M  V30 52 1 5 49
M  V30 53 1 6 50
M  V30 54 1 10 51
M  V30 55 1 13 52
M  V30 56 1 14 53
M  V30 57 1 17 54
M  V30 58 1 21 55
M  V30 59 1 24 56
M  V30 60 1 28 57
M  V30 61 1 29 58 CFG=1
M  V30 62 1 30 59
M  V30 63 1 30 60
M  V30 64 1 31 61
M  V30 65 1 31 62
M  V30 66 1 32 63 CFG=1
M  V30 67 1 33 64
M  V30 68 1 33 65
M  V30 69 1 35 66
M  V30 70 1 35 67
M  V30 71 1 35 68
M  V30 72 1 36 69
M  V30 73 1 36 70
M  V30 74 1 36 71
M  V30 75 1 37 72
M  V30 76 1 37 73
M  V30 77 1 38 74
M  V30 78 1 38 75
M  V30 END BOND
M  V30 END CTAB
M  END
>  <Dataset>  (906) 
ChEMBL_Kinases

>  <Ligand_Instance>  (906) 
nan

>  <PDB_ID>  (906) 
nan

>  <Standardized_SMILES>  (906) 
CCCCCNC(=O)c1cnc2ccc(-c3cc(Cl)c(O)c(Cl)c3)nc2c1N[C@H]1CC[C@H](CN(C)C)CC1

>  <Name>  (906) 
nan

>  <Pocket>  (906) 
nan

>  <ATP_Site>  (906) 
nan

>  <Peripheral>  (906) 
nan

>  <Num_H_Atoms_ProtBoundConf>  (906) 
nan

>  <Num_Resolved_Atoms>  (906) 
nan

>  <Num_Not_Resolved_Atoms>  (906) 
nan

$$$$
CHEMBL4633319
     RDKit          3D

  0  0  0  0  0  0  0  0  0  0999 V3000
M  V30 BEGIN CTAB
M  V30 COUNTS 29 31 0 0 0
M  V30 BEGIN ATOM
M  V30 1 N -0.758002 -2.358672 5.672627 0
M  V30 2 C -0.435561 -1.958792 4.370972 0
M  V30 3 C -1.425022 -1.284057 3.658819 0
M  V30 4 C -1.104342 -0.891544 2.374808 0
M  V30 5 C 0.160188 -1.202228 1.917520 0
M  V30 6 C 0.523255 -0.797919 0.563907 0
M  V30 7 C 1.404959 -1.515877 -0.219147 0
M  V30 8 C 1.704064 -1.074380 -1.492559 0
M  V30 9 C 1.134366 0.073755 -1.993055 0
M  V30 10 C 1.410117 0.550433 -3.269834 0
M  V30 11 C 0.790690 1.712800 -3.688201 0
M  V30 12 N -0.077840 2.420950 -2.918251 0
M  V30 13 C -0.378079 1.991230 -1.659398 0
M  V30 14 C 0.246479 0.829298 -1.252472 0
M  V30 15 C -0.033968 0.362391 0.019393 0
M  V30 16 C 1.139895 -1.870051 2.622036 0
M  V30 17 C 0.826908 -2.265696 3.906445 0
M  V30 18 H -1.376193 -3.219586 5.721492 0
M  V30 19 H -1.027170 -2.698384 6.606123 0
M  V30 20 H -2.386646 -1.089789 4.111018 0
M  V30 21 H -1.827055 -0.366952 1.775392 0
M  V30 22 H 1.854293 -2.416015 0.167640 0
M  V30 23 H 2.391439 -1.614590 -2.132272 0
M  V30 24 H 2.092160 0.006507 -3.891992 0
M  V30 25 H 1.027981 2.063187 -4.698825 0
M  V30 26 H -1.061186 2.512273 -1.000970 0
M  V30 27 H -0.726373 0.921514 0.641317 0
M  V30 28 H 2.107614 -2.078327 2.198843 0
M  V30 29 H 1.525929 -2.793878 4.537319 0
M  V30 END ATOM
M  V30 BEGIN BOND
M  V30 1 1 1 2
M  V30 2 2 2 3
M  V30 3 1 3 4
M  V30 4 2 4 5
M  V30 5 1 5 6
M  V30 6 2 6 7
M  V30 7 1 7 8
M  V30 8 2 8 9
M  V30 9 1 9 10
M  V30 10 2 10 11
M  V30 11 1 11 12
M  V30 12 2 12 13
M  V30 13 1 13 14
M  V30 14 2 14 15
M  V30 15 1 5 16
M  V30 16 2 16 17
M  V30 17 1 17 2
M  V30 18 1 15 6
M  V30 19 1 14 9
M  V30 20 1 1 18
M  V30 21 1 1 19
M  V30 22 1 3 20
M  V30 23 1 4 21
M  V30 24 1 7 22
M  V30 25 1 8 23
M  V30 26 1 10 24
M  V30 27 1 11 25
M  V30 28 1 13 26
M  V30 29 1 15 27
M  V30 30 1 16 28
M  V30 31 1 17 29
M  V30 END BOND
M  V30 END CTAB
M  END
>  <Dataset>  (907) 
ChEMBL_Kinases

>  <Ligand_Instance>  (907) 
nan

>  <PDB_ID>  (907) 
nan

>  <Standardized_SMILES>  (907) 
Nc1ccc(-c2ccc3ccncc3c2)cc1

>  <Name>  (907) 
nan

>  <Pocket>  (907) 
nan

>  <ATP_Site>  (907) 
nan

>  <Peripheral>  (907) 
nan

>  <Num_H_Atoms_ProtBoundConf>  (907) 
nan

>  <Num_Resolved_Atoms>  (907) 
nan

>  <Num_Not_Resolved_Atoms>  (907) 
nan

$$$$
CHEMBL4633398
     RDKit          3D

  0  0  0  0  0  0  0  0  0  0999 V3000
M  V30 BEGIN CTAB
M  V30 COUNTS 74 79 0 0 0
M  V30 BEGIN ATOM
M  V30 1 C 2.309665 -0.821373 2.625988 0
M  V30 2 C 3.435038 -1.638153 1.997239 0
M  V30 3 C 3.382151 -3.043919 2.540925 0
M  V30 4 N 3.438857 -1.552919 0.588348 0
M  V30 5 C 2.280013 -1.997334 -0.098267 0
M  V30 6 C 2.339358 -1.440483 -1.528593 0
M  V30 7 N 3.328616 -0.387056 -1.580953 0
M  V30 8 C 3.088096 0.991423 -1.808124 0
M  V30 9 C 1.844724 1.556790 -1.958653 0
M  V30 10 C 1.570991 2.884106 -2.180784 0
M  V30 11 N 0.301492 3.451036 -2.306304 0
M  V30 12 C -0.947607 3.144358 -1.715727 0
M  V30 13 C -1.185811 2.244384 -0.715638 0
M  V30 14 C -2.419399 1.952303 -0.178987 0
M  V30 15 O -2.537637 1.000601 0.854028 0
M  V30 16 C -2.709787 -0.339581 0.506813 0
M  V30 17 C -2.768610 -0.768843 -0.803674 0
M  V30 18 N -2.937374 -2.100683 -0.693588 0
M  V30 19 C -3.063824 -3.079502 -1.755410 0
M  V30 20 C -2.896797 -2.612396 -3.168443 0
M  V30 21 C -1.859738 -3.456570 -2.555409 0
M  V30 22 N -2.978321 -2.454849 0.576076 0
M  V30 23 C -2.840868 -1.392828 1.385839 0
M  V30 24 C -2.814946 -1.220329 2.856722 0
M  V30 25 C -4.163830 -1.010518 3.471760 0
M  V30 26 C -4.999496 -2.264655 3.550455 0
M  V30 27 O -4.293921 -3.332878 4.092748 0
M  V30 28 C -3.105461 -3.575220 3.413403 0
M  V30 29 C -2.160282 -2.401391 3.536520 0
M  V30 30 C -3.529918 2.605558 -0.668761 0
M  V30 31 C -3.275541 3.510540 -1.675925 0
M  V30 32 N -2.053981 3.760807 -2.166369 0
M  V30 33 C 2.731380 3.663698 -2.246720 0
M  V30 34 C 3.999156 3.146437 -2.102988 0
M  V30 35 N 4.152637 1.827191 -1.887475 0
M  V30 36 C 4.676516 -0.875144 -1.364237 0
M  V30 37 C 4.682385 -1.708697 -0.078132 0
M  V30 38 H 1.311211 -1.167398 2.353335 0
M  V30 39 H 2.464512 -0.808429 3.739996 0
M  V30 40 H 2.400159 0.242189 2.281601 0
M  V30 41 H 4.369002 -1.168977 2.374919 0
M  V30 42 H 4.335586 -3.591152 2.391716 0
M  V30 43 H 2.496746 -3.604387 2.203529 0
M  V30 44 H 3.281527 -2.945164 3.658853 0
M  V30 45 H 1.385933 -1.505866 0.343903 0
M  V30 46 H 2.181148 -3.104421 -0.125832 0
M  V30 47 H 1.344419 -1.146824 -1.880782 0
M  V30 48 H 2.733117 -2.283474 -2.169244 0
M  V30 49 H 1.048220 0.851172 -1.901200 0
M  V30 50 H 0.319033 4.254351 -2.977866 0
M  V30 51 H -0.364808 1.711035 -0.281997 0
M  V30 52 H -2.700701 -0.211151 -1.726277 0
M  V30 53 H -3.809519 -3.883689 -1.591451 0
M  V30 54 H -3.593569 -3.048108 -3.929138 0
M  V30 55 H -2.619165 -1.560218 -3.383589 0
M  V30 56 H -0.858101 -2.995493 -2.311886 0
M  V30 57 H -1.743596 -4.498982 -2.892880 0
M  V30 58 H -2.211541 -0.310373 3.127224 0
M  V30 59 H -4.756680 -0.253636 2.931703 0
M  V30 60 H -3.978413 -0.669224 4.522209 0
M  V30 61 H -5.850146 -2.056403 4.232380 0
M  V30 62 H -5.426644 -2.484753 2.559562 0
M  V30 63 H -3.243323 -3.945978 2.398342 0
M  V30 64 H -2.611330 -4.404895 3.991143 0
M  V30 65 H -1.179698 -2.664534 3.100914 0
M  V30 66 H -2.084036 -2.177264 4.630184 0
M  V30 67 H -4.511805 2.401390 -0.271779 0
M  V30 68 H -4.101457 4.066910 -2.114918 0
M  V30 69 H 2.681555 4.735021 -2.418082 0
M  V30 70 H 4.890651 3.754828 -2.155434 0
M  V30 71 H 4.869088 -1.567737 -2.230368 0
M  V30 72 H 5.354773 -0.026790 -1.335243 0
M  V30 73 H 4.927760 -2.767410 -0.283589 0
M  V30 74 H 5.468375 -1.243282 0.573807 0
M  V30 END ATOM
M  V30 BEGIN BOND
M  V30 1 1 1 2
M  V30 2 1 2 3
M  V30 3 1 2 4
M  V30 4 1 4 5
M  V30 5 1 5 6
M  V30 6 1 6 7
M  V30 7 1 7 8
M  V30 8 2 8 9
M  V30 9 1 9 10
M  V30 10 1 10 11
M  V30 11 1 11 12
M  V30 12 2 12 13
M  V30 13 1 13 14
M  V30 14 1 14 15
M  V30 15 1 15 16
M  V30 16 2 16 17
M  V30 17 1 17 18
M  V30 18 1 18 19
M  V30 19 1 19 20
M  V30 20 1 20 21
M  V30 21 1 18 22
M  V30 22 2 22 23
M  V30 23 1 23 24
M  V30 24 1 24 25
M  V30 25 1 25 26
M  V30 26 1 26 27
M  V30 27 1 27 28
M  V30 28 1 28 29
M  V30 29 2 14 30
M  V30 30 1 30 31
M  V30 31 2 31 32
M  V30 32 2 10 33
M  V30 33 1 33 34
M  V30 34 2 34 35
M  V30 35 1 7 36
M  V30 36 1 36 37
M  V30 37 1 37 4
M  V30 38 1 35 8
M  V30 39 1 32 12
M  V30 40 1 23 16
M  V30 41 1 29 24
M  V30 42 1 21 19
M  V30 43 1 1 38
M  V30 44 1 1 39
M  V30 45 1 1 40
M  V30 46 1 2 41
M  V30 47 1 3 42
M  V30 48 1 3 43
M  V30 49 1 3 44
M  V30 50 1 5 45
M  V30 51 1 5 46
M  V30 52 1 6 47
M  V30 53 1 6 48
M  V30 54 1 9 49
M  V30 55 1 11 50
M  V30 56 1 13 51
M  V30 57 1 17 52
M  V30 58 1 19 53
M  V30 59 1 20 54
M  V30 60 1 20 55
M  V30 61 1 21 56
M  V30 62 1 21 57
M  V30 63 1 24 58
M  V30 64 1 25 59
M  V30 65 1 25 60
M  V30 66 1 26 61
M  V30 67 1 26 62
M  V30 68 1 28 63
M  V30 69 1 28 64
M  V30 70 1 29 65
M  V30 71 1 29 66
M  V30 72 1 30 67
M  V30 73 1 31 68
M  V30 74 1 33 69
M  V30 75 1 34 70
M  V30 76 1 36 71
M  V30 77 1 36 72
M  V30 78 1 37 73
M  V30 79 1 37 74
M  V30 END BOND
M  V30 END CTAB
M  END
>  <Dataset>  (908) 
ChEMBL_Kinases

>  <Ligand_Instance>  (908) 
nan

>  <PDB_ID>  (908) 
nan

>  <Standardized_SMILES>  (908) 
CC(C)N1CCN(c2cc(Nc3cc(Oc4cn(C5CC5)nc4C4CCOCC4)ccn3)ccn2)CC1

>  <Name>  (908) 
nan

>  <Pocket>  (908) 
nan

>  <ATP_Site>  (908) 
nan

>  <Peripheral>  (908) 
nan

>  <Num_H_Atoms_ProtBoundConf>  (908) 
nan

>  <Num_Resolved_Atoms>  (908) 
nan

>  <Num_Not_Resolved_Atoms>  (908) 
nan

$$$$
CHEMBL4633404
     RDKit          3D

  0  0  0  0  0  0  0  0  0  0999 V3000
M  V30 BEGIN CTAB
M  V30 COUNTS 44 47 0 0 0
M  V30 BEGIN ATOM
M  V30 1 C 0.380214 -5.772610 3.251438 0
M  V30 2 O 0.193350 -5.244310 2.059572 0
M  V30 3 C 0.138319 -4.237707 1.221843 0
M  V30 4 C 0.401010 -3.017077 1.881242 0
M  V30 5 C 0.393864 -1.815126 1.174660 0
M  V30 6 C 0.135468 -1.782309 -0.161543 0
M  V30 7 C 0.138064 -0.501999 -0.855047 0
M  V30 8 C -0.099063 -0.391353 -2.225256 0
M  V30 9 C -0.054456 0.863337 -2.793932 0
M  V30 10 C 0.212578 2.001075 -2.063778 0
M  V30 11 N 0.255617 3.238459 -2.675027 0
M  V30 12 S 0.658717 4.295865 -1.184282 0
M  V30 13 C 0.702342 3.018945 -0.069288 0
M  V30 14 N 0.999810 3.397424 1.285572 0
M  V30 15 C -0.031601 4.025043 2.105634 0
M  V30 16 C -0.423860 3.050535 3.180985 0
M  V30 17 O 0.693251 2.363403 3.656248 0
M  V30 18 C 1.855266 3.124544 3.500410 0
M  V30 19 C 2.251924 3.245392 2.047109 0
M  V30 20 C 0.436255 1.860027 -0.738714 0
M  V30 21 N 0.390215 0.637391 -0.200638 0
M  V30 22 C -0.115558 -2.975631 -0.777175 0
M  V30 23 C -0.118289 -4.179406 -0.118111 0
M  V30 24 O -0.368879 -5.402128 -0.717835 0
M  V30 25 C -0.644793 -5.443020 -2.103003 0
M  V30 26 H -0.322660 -6.604841 3.541624 0
M  V30 27 H 1.401446 -6.261897 3.323517 0
M  V30 28 H 0.390071 -5.031277 4.115225 0
M  V30 29 H 0.624607 -2.884236 2.944206 0
M  V30 30 H 0.594656 -0.859835 1.668613 0
M  V30 31 H -0.310007 -1.268764 -2.816193 0
M  V30 32 H -0.252553 0.863703 -3.871301 0
M  V30 33 H 0.384824 4.928923 2.599589 0
M  V30 34 H -0.887499 4.258876 1.462361 0
M  V30 35 H -1.139685 2.307239 2.789267 0
M  V30 36 H -0.964051 3.565640 4.024413 0
M  V30 37 H 2.662518 2.591833 4.038707 0
M  V30 38 H 1.755776 4.127816 3.954553 0
M  V30 39 H 2.788250 4.225147 1.949220 0
M  V30 40 H 2.849715 2.393490 1.698195 0
M  V30 41 H -0.317552 -3.017563 -1.817459 0
M  V30 42 H -1.082148 -6.446601 -2.333350 0
M  V30 43 H 0.225860 -5.283862 -2.741330 0
M  V30 44 H -1.383449 -4.633375 -2.333353 0
M  V30 END ATOM
M  V30 BEGIN BOND
M  V30 1 1 1 2
M  V30 2 1 2 3
M  V30 3 2 3 4
M  V30 4 1 4 5
M  V30 5 2 5 6
M  V30 6 1 6 7
M  V30 7 1 7 8
M  V30 8 2 8 9
M  V30 9 1 9 10
M  V30 10 2 10 11
M  V30 11 1 11 12
M  V30 12 1 12 13
M  V30 13 1 13 14
M  V30 14 1 14 15
M  V30 15 1 15 16
M  V30 16 1 16 17
M  V30 17 1 17 18
M  V30 18 1 18 19
M  V30 19 2 13 20
M  V30 20 1 20 21
M  V30 21 1 6 22
M  V30 22 2 22 23
M  V30 23 1 23 24
M  V30 24 1 24 25
M  V30 25 1 23 3
M  V30 26 2 21 7
M  V30 27 1 20 10
M  V30 28 1 19 14
M  V30 29 1 1 26
M  V30 30 1 1 27
M  V30 31 1 1 28
M  V30 32 1 4 29
M  V30 33 1 5 30
M  V30 34 1 8 31
M  V30 35 1 9 32
M  V30 36 1 15 33
M  V30 37 1 15 34
M  V30 38 1 16 35
M  V30 39 1 16 36
M  V30 40 1 18 37
M  V30 41 1 18 38
M  V30 42 1 19 39
M  V30 43 1 19 40
M  V30 44 1 22 41
M  V30 45 1 25 42
M  V30 46 1 25 43
M  V30 47 1 25 44
M  V30 END BOND
M  V30 END CTAB
M  END
>  <Dataset>  (909) 
ChEMBL_Kinases

>  <Ligand_Instance>  (909) 
nan

>  <PDB_ID>  (909) 
nan

>  <Standardized_SMILES>  (909) 
COc1ccc(-c2ccc3nsc(N4CCOCC4)c3n2)cc1OC

>  <Name>  (909) 
nan

>  <Pocket>  (909) 
nan

>  <ATP_Site>  (909) 
nan

>  <Peripheral>  (909) 
nan

>  <Num_H_Atoms_ProtBoundConf>  (909) 
nan

>  <Num_Resolved_Atoms>  (909) 
nan

>  <Num_Not_Resolved_Atoms>  (909) 
nan

$$$$
CHEMBL4633447
     RDKit          3D

  0  0  0  0  0  0  0  0  0  0999 V3000
M  V30 BEGIN CTAB
M  V30 COUNTS 45 49 0 0 0
M  V30 BEGIN ATOM
M  V30 1 C -1.406657 -5.931881 -0.138768 0
M  V30 2 C -1.341953 -6.004177 1.242696 0
M  V30 3 C -1.343541 -4.851079 2.010355 0
M  V30 4 C -1.411421 -3.671852 1.329256 0
M  V30 5 N -1.414315 -2.541519 2.057533 0
M  V30 6 C -1.477830 -1.316645 1.506354 0
M  V30 7 C -1.544631 -1.130526 0.143263 0
M  V30 8 C -1.602576 0.066560 -0.642939 0
M  V30 9 C -2.662098 0.107991 -1.558612 0
M  V30 10 N -2.881823 1.176904 -2.368122 0
M  V30 11 C -2.070521 2.252205 -2.314071 0
M  V30 12 C -1.007559 2.281538 -1.437687 0
M  V30 13 C -0.111169 3.324646 -1.302648 0
M  V30 14 C 0.940656 3.259724 -0.390173 0
M  V30 15 C 1.126683 2.134703 0.422403 0
M  V30 16 O 2.222501 2.279102 1.248466 0
M  V30 17 C 2.590005 1.288777 2.133194 0 CFG=1
M  V30 18 C 4.049463 0.847293 1.959997 0
M  V30 19 C 4.178491 0.017530 3.239794 0
M  V30 20 N 3.306099 0.630289 4.214463 0
M  V30 21 C 2.706461 1.797389 3.576783 0
M  V30 22 C 0.232111 1.114936 0.275538 0
M  V30 23 C -0.804654 1.189612 -0.629124 0
M  V30 24 C -1.541636 -2.310863 -0.610065 0
M  V30 25 C -1.476789 -3.565895 -0.043701 0
M  V30 26 C -1.474522 -4.720213 -0.797059 0
M  V30 27 H -1.401619 -6.877086 -0.685243 0
M  V30 28 H -1.287190 -6.947323 1.797763 0
M  V30 29 H -1.294447 -4.876113 3.079364 0
M  V30 30 H -1.491090 -0.403138 2.081329 0
M  V30 31 H -3.416645 -0.671955 -1.737703 0
M  V30 32 H -2.216678 3.132072 -2.950733 0
M  V30 33 H -0.269481 4.190378 -1.940725 0
M  V30 34 H 1.568185 4.147135 -0.387397 0
M  V30 35 H 1.997395 0.380707 2.172388 0
M  V30 36 H 4.753050 1.692583 2.079253 0
M  V30 37 H 4.190410 0.250362 1.050498 0
M  V30 38 H 3.764828 -0.989829 2.986500 0
M  V30 39 H 5.206517 -0.076434 3.592914 0
M  V30 40 H 2.506729 0.008644 4.478731 0
M  V30 41 H 3.426420 2.622124 3.656731 0
M  V30 42 H 1.706164 2.033086 3.971710 0
M  V30 43 H 0.422555 0.273397 0.914065 0
M  V30 44 H -1.589976 -2.322183 -1.689818 0
M  V30 45 H -1.525069 -4.663977 -1.876606 0
M  V30 END ATOM
M  V30 BEGIN BOND
M  V30 1 2 1 2
M  V30 2 1 2 3
M  V30 3 2 3 4
M  V30 4 1 4 5
M  V30 5 2 5 6
M  V30 6 1 6 7
M  V30 7 1 7 8
M  V30 8 2 8 9
M  V30 9 1 9 10
M  V30 10 2 10 11
M  V30 11 1 11 12
M  V30 12 2 12 13
M  V30 13 1 13 14
M  V30 14 2 14 15
M  V30 15 1 15 16
M  V30 16 1 16 17
M  V30 17 1 17 18
M  V30 18 1 18 19
M  V30 19 1 19 20
M  V30 20 1 20 21
M  V30 21 1 15 22
M  V30 22 2 22 23
M  V30 23 2 7 24
M  V30 24 1 24 25
M  V30 25 2 25 26
M  V30 26 1 26 1
M  V30 27 1 25 4
M  V30 28 1 23 8
M  V30 29 1 23 12
M  V30 30 1 21 17
M  V30 31 1 1 27
M  V30 32 1 2 28
M  V30 33 1 3 29
M  V30 34 1 6 30
M  V30 35 1 9 31
M  V30 36 1 11 32
M  V30 37 1 13 33
M  V30 38 1 14 34
M  V30 39 1 17 35 CFG=1
M  V30 40 1 18 36
M  V30 41 1 18 37
M  V30 42 1 19 38
M  V30 43 1 19 39
M  V30 44 1 20 40
M  V30 45 1 21 41
M  V30 46 1 21 42
M  V30 47 1 22 43
M  V30 48 1 24 44
M  V30 49 1 26 45
M  V30 END BOND
M  V30 END CTAB
M  END
>  <Dataset>  (910) 
ChEMBL_Kinases

>  <Ligand_Instance>  (910) 
nan

>  <PDB_ID>  (910) 
nan

>  <Standardized_SMILES>  (910) 
c1ccc2ncc(-c3cncc4ccc(O[C@H]5CCNC5)cc34)cc2c1

>  <Name>  (910) 
nan

>  <Pocket>  (910) 
nan

>  <ATP_Site>  (910) 
nan

>  <Peripheral>  (910) 
nan

>  <Num_H_Atoms_ProtBoundConf>  (910) 
nan

>  <Num_Resolved_Atoms>  (910) 
nan

>  <Num_Not_Resolved_Atoms>  (910) 
nan

$$$$
CHEMBL4576842
     RDKit          3D

  0  0  0  0  0  0  0  0  0  0999 V3000
M  V30 BEGIN CTAB
M  V30 COUNTS 118 121 0 0 0
M  V30 BEGIN ATOM
M  V30 1 C 4.903763 -3.416368 4.759968 0
M  V30 2 C 5.375311 -2.720157 3.491242 0
M  V30 3 C 6.548973 -3.518361 2.977983 0
M  V30 4 C 7.132245 -2.920542 1.688896 0
M  V30 5 C 6.108071 -2.877487 0.582457 0
M  V30 6 C 6.684018 -2.291474 -0.690860 0
M  V30 7 C 5.653403 -2.259979 -1.798324 0
M  V30 8 C 4.464806 -1.428071 -1.462939 0
M  V30 9 O 4.217798 -0.678806 -0.457450 0
M  V30 10 O 3.496945 -1.553266 -2.484720 0
M  V30 11 C 2.274321 -0.888799 -2.431037 0 CFG=1
M  V30 12 C 2.142451 0.140269 -3.513908 0
M  V30 13 C 2.598589 1.377453 -3.393947 0
M  V30 14 C 2.520200 2.442161 -4.378641 0
M  V30 15 O 2.984614 3.598465 -4.179189 0
M  V30 16 O 2.040637 2.663760 -5.651212 0
M  V30 17 C 2.200819 3.934488 -6.232714 0
M  V30 18 C 1.465862 -0.200698 -4.815998 0
M  V30 19 C 0.530464 -1.378479 -4.649354 0 CFG=1
M  V30 20 C 0.215105 -1.937347 -6.029696 0
M  V30 21 C -1.239866 -2.415400 -6.087335 0 CFG=2
M  V30 22 C -1.469270 -3.009319 -7.430124 0
M  V30 23 O -2.778993 -3.438686 -7.626910 0
M  V30 24 O -2.050783 -1.291820 -5.818685 0
M  V30 25 C -2.799729 -1.311414 -4.632900 0
M  V30 26 O -2.902879 -2.152917 -3.707577 0
M  V30 27 C -3.617838 -0.061896 -4.488031 0
M  V30 28 C -4.271255 -0.000756 -3.108666 0
M  V30 29 O -3.266491 0.018030 -2.123606 0
M  V30 30 C -3.521746 0.079852 -0.786852 0
M  V30 31 C -4.127753 1.121987 -0.107338 0
M  V30 32 C -4.350714 1.110928 1.250440 0
M  V30 33 C -3.958267 0.008933 2.009409 0
M  V30 34 C -4.141455 0.012111 3.467693 0
M  V30 35 C -4.397978 -1.016309 4.326868 0
M  V30 36 C -4.484261 -0.760440 5.676786 0
M  V30 37 C -4.322108 0.498514 6.211186 0
M  V30 38 C -4.061759 1.585817 5.411846 0
M  V30 39 S -3.802261 3.229017 5.941951 0
M  V30 40 O -3.051483 3.957456 4.845063 0
M  V30 41 O -2.965573 3.252062 7.187026 0
M  V30 42 N -5.270808 4.085846 6.200871 0
M  V30 43 C -6.056872 4.188063 4.986307 0
M  V30 44 C -5.729518 5.409619 4.173407 0
M  V30 45 C -4.917748 5.442232 6.605723 0
M  V30 46 C -4.746437 5.472689 8.108893 0
M  V30 47 C -3.983373 1.280894 4.050881 0
M  V30 48 C -3.350789 -1.056219 1.369867 0
M  V30 49 C -3.158693 -0.972803 0.001829 0
M  V30 50 C -2.471989 -2.170649 -0.483429 0
M  V30 51 O -3.222015 -3.163893 -0.524571 0
M  V30 52 O -1.134776 -2.136463 -0.839201 0
M  V30 53 C -0.449934 -3.281646 -1.319996 0
M  V30 54 C 1.033743 -2.907010 -1.519403 0
M  V30 55 C 1.579583 -2.512929 -0.171634 0
M  V30 56 C 1.783900 -4.088823 -2.101547 0
M  V30 57 C 1.076205 -1.793123 -2.503854 0 CFG=1
M  V30 58 O -0.075748 -0.992944 -2.388172 0
M  V30 59 O 1.022047 -2.346920 -3.807938 0
M  V30 60 H 4.417843 -4.385386 4.474619 0
M  V30 61 H 5.768239 -3.629349 5.420950 0
M  V30 62 H 4.224782 -2.737913 5.311939 0
M  V30 63 H 4.532180 -2.642911 2.795723 0
M  V30 64 H 5.736555 -1.713438 3.783776 0
M  V30 65 H 7.366666 -3.411525 3.726737 0
M  V30 66 H 6.314400 -4.584409 2.802616 0
M  V30 67 H 8.007060 -3.559240 1.434392 0
M  V30 68 H 7.506992 -1.928215 1.963070 0
M  V30 69 H 5.777811 -3.931517 0.428287 0
M  V30 70 H 5.288607 -2.224932 0.911964 0
M  V30 71 H 7.140450 -1.318137 -0.471794 0
M  V30 72 H 7.484892 -2.984779 -1.017754 0
M  V30 73 H 6.166583 -1.862911 -2.686239 0
M  V30 74 H 5.372788 -3.310390 -2.000786 0
M  V30 75 H 2.232697 -0.305313 -1.490776 0
M  V30 76 H 3.078675 1.635462 -2.478913 0
M  V30 77 H 1.498711 3.962241 -7.118159 0
M  V30 78 H 1.862584 4.745896 -5.584515 0
M  V30 79 H 3.226326 4.097425 -6.612413 0
M  V30 80 H 2.217819 -0.372165 -5.583981 0
M  V30 81 H 0.893238 0.727107 -5.103402 0
M  V30 82 H -0.425297 -0.940725 -4.268932 0
M  V30 83 H 0.929877 -2.741010 -6.316864 0
M  V30 84 H 0.376276 -1.113228 -6.752621 0
M  V30 85 H -1.398621 -3.156206 -5.296636 0
M  V30 86 H -0.834302 -3.945246 -7.460968 0
M  V30 87 H -1.067835 -2.408343 -8.273249 0
M  V30 88 H -2.850606 -4.398956 -7.539682 0
M  V30 89 H -4.386465 -0.082714 -5.289010 0
M  V30 90 H -2.944764 0.798506 -4.676310 0
M  V30 91 H -4.939386 0.871523 -3.114636 0
M  V30 92 H -4.891207 -0.914035 -3.017662 0
M  V30 93 H -4.429198 1.982115 -0.725021 0
M  V30 94 H -4.829887 1.972683 1.680967 0
M  V30 95 H -4.511756 -1.968385 3.835879 0
M  V30 96 H -4.692120 -1.611501 6.332035 0
M  V30 97 H -4.390675 0.702119 7.280667 0
M  V30 98 H -5.836426 3.295920 4.369468 0
M  V30 99 H -7.154843 4.220049 5.231641 0
M  V30 100 H -5.899973 5.170017 3.087996 0
M  V30 101 H -6.381485 6.286355 4.387576 0
M  V30 102 H -4.667079 5.729115 4.245234 0
M  V30 103 H -5.716155 6.166314 6.307437 0
M  V30 104 H -3.949389 5.695452 6.148475 0
M  V30 105 H -3.728693 5.121112 8.342067 0
M  V30 106 H -4.775223 6.539386 8.453264 0
M  V30 107 H -5.545449 4.900908 8.626962 0
M  V30 108 H -3.772977 2.151212 3.406835 0
M  V30 109 H -3.030817 -1.964533 1.907549 0
M  V30 110 H -0.576108 -4.174495 -0.707844 0
M  V30 111 H -0.830186 -3.488452 -2.336183 0
M  V30 112 H 2.583962 -2.936484 0.042808 0
M  V30 113 H 1.561752 -1.424719 0.027506 0
M  V30 114 H 0.900858 -2.952848 0.626093 0
M  V30 115 H 2.316375 -3.813381 -3.055033 0
M  V30 116 H 1.054036 -4.893572 -2.380048 0
M  V30 117 H 2.500461 -4.525749 -1.389095 0
M  V30 118 H 0.169520 -0.253066 -1.767528 0
M  V30 END ATOM
M  V30 BEGIN BOND
M  V30 1 1 1 2
M  V30 2 1 2 3
M  V30 3 1 3 4
M  V30 4 1 4 5
M  V30 5 1 5 6
M  V30 6 1 6 7
M  V30 7 1 7 8
M  V30 8 2 8 9
M  V30 9 1 8 10
M  V30 10 1 10 11
M  V30 11 1 11 12
M  V30 12 2 12 13
M  V30 13 1 13 14
M  V30 14 2 14 15
M  V30 15 1 14 16
M  V30 16 1 16 17
M  V30 17 1 12 18
M  V30 18 1 18 19
M  V30 19 1 19 20
M  V30 20 1 20 21
M  V30 21 1 21 22
M  V30 22 1 22 23
M  V30 23 1 21 24
M  V30 24 1 24 25
M  V30 25 2 25 26
M  V30 26 1 25 27
M  V30 27 1 27 28
M  V30 28 1 28 29
M  V30 29 1 29 30
M  V30 30 2 30 31
M  V30 31 1 31 32
M  V30 32 2 32 33
M  V30 33 1 33 34
M  V30 34 2 34 35
M  V30 35 1 35 36
M  V30 36 2 36 37
M  V30 37 1 37 38
M  V30 38 1 38 39
M  V30 39 2 39 40
M  V30 40 2 39 41
M  V30 41 1 39 42
M  V30 42 1 42 43
M  V30 43 1 43 44
M  V30 44 1 42 45
M  V30 45 1 45 46
M  V30 46 2 38 47
M  V30 47 1 33 48
M  V30 48 2 48 49
M  V30 49 1 49 50
M  V30 50 2 50 51
M  V30 51 1 50 52
M  V30 52 1 52 53
M  V30 53 1 53 54
M  V30 54 1 54 55
M  V30 55 1 54 56
M  V30 56 1 54 57
M  V30 57 1 57 58 CFG=1
M  V30 58 1 57 59
M  V30 59 1 57 11
M  V30 60 1 59 19
M  V30 61 1 49 30
M  V30 62 1 47 34
M  V30 63 1 1 60
M  V30 64 1 1 61
M  V30 65 1 1 62
M  V30 66 1 2 63
M  V30 67 1 2 64
M  V30 68 1 3 65
M  V30 69 1 3 66
M  V30 70 1 4 67
M  V30 71 1 4 68
M  V30 72 1 5 69
M  V30 73 1 5 70
M  V30 74 1 6 71
M  V30 75 1 6 72
M  V30 76 1 7 73
M  V30 77 1 7 74
M  V30 78 1 11 75 CFG=1
M  V30 79 1 13 76
M  V30 80 1 17 77
M  V30 81 1 17 78
M  V30 82 1 17 79
M  V30 83 1 18 80
M  V30 84 1 18 81
M  V30 85 1 19 82 CFG=1
M  V30 86 1 20 83
M  V30 87 1 20 84
M  V30 88 1 21 85 CFG=1
M  V30 89 1 22 86
M  V30 90 1 22 87
M  V30 91 1 23 88
M  V30 92 1 27 89
M  V30 93 1 27 90
M  V30 94 1 28 91
M  V30 95 1 28 92
M  V30 96 1 31 93
M  V30 97 1 32 94
M  V30 98 1 35 95
M  V30 99 1 36 96
M  V30 100 1 37 97
M  V30 101 1 43 98
M  V30 102 1 43 99
M  V30 103 1 44 100
M  V30 104 1 44 101
M  V30 105 1 44 102
M  V30 106 1 45 103
M  V30 107 1 45 104
M  V30 108 1 46 105
M  V30 109 1 46 106
M  V30 110 1 46 107
M  V30 111 1 47 108
M  V30 112 1 48 109
M  V30 113 1 53 110
M  V30 114 1 53 111
M  V30 115 1 55 112
M  V30 116 1 55 113
M  V30 117 1 55 114
M  V30 118 1 56 115
M  V30 119 1 56 116
M  V30 120 1 56 117
M  V30 121 1 58 118
M  V30 END BOND
M  V30 END CTAB
M  END
>  <Dataset>  (911) 
ChEMBL_Kinases

>  <Ligand_Instance>  (911) 
nan

>  <PDB_ID>  (911) 
nan

>  <Standardized_SMILES>  (911) 
CCCCCCCC(=O)O[C@H]1/C(=C/C(=O)OC)C[C@H]2C[C@H](CO)OC(=O)CCOc3ccc(-c4cccc(S(=O)(=O)N(CC)CC)c4)cc3C(=O)OCC(C)(C)[C@]1(O)O2

>  <Name>  (911) 
nan

>  <Pocket>  (911) 
nan

>  <ATP_Site>  (911) 
nan

>  <Peripheral>  (911) 
nan

>  <Num_H_Atoms_ProtBoundConf>  (911) 
nan

>  <Num_Resolved_Atoms>  (911) 
nan

>  <Num_Not_Resolved_Atoms>  (911) 
nan

$$$$
CHEMBL4633510
     RDKit          3D

  0  0  0  0  0  0  0  0  0  0999 V3000
M  V30 BEGIN CTAB
M  V30 COUNTS 40 43 0 0 0
M  V30 BEGIN ATOM
M  V30 1 C -0.677825 -6.506815 -2.449560 0
M  V30 2 O -0.664035 -5.115355 -2.661332 0
M  V30 3 C 0.310125 -4.346640 -2.039345 0
M  V30 4 C 1.252905 -4.938699 -1.223950 0
M  V30 5 C 2.196273 -4.124115 -0.632841 0
M  V30 6 C 2.235071 -2.757968 -0.821441 0
M  V30 7 C 1.303503 -2.142466 -1.631989 0
M  V30 8 C 1.170418 -0.703742 -1.962977 0
M  V30 9 N 0.304464 0.014312 -1.037714 0
M  V30 10 C -0.994116 0.041221 -1.379466 0
M  V30 11 N -1.802144 0.701697 -0.530475 0
M  V30 12 C -1.298411 1.291205 0.591527 0
M  V30 13 S -2.062675 2.247202 1.940906 0
M  V30 14 C -0.567642 2.510001 2.818843 0
M  V30 15 C -0.454662 3.261932 4.092502 0
M  V30 16 C 0.757473 3.437066 4.741796 0
M  V30 17 C 0.821120 4.145804 5.929581 0
M  V30 18 C -0.350769 4.667167 6.440926 0
M  V30 19 N -1.512488 4.479732 5.786337 0
M  V30 20 C -1.606724 3.795748 4.630279 0
M  V30 21 C 0.374512 1.903035 2.097976 0
M  V30 22 C 0.038338 1.260251 0.937942 0
M  V30 23 C 0.848146 0.576063 0.050358 0
M  V30 24 O 2.103485 0.453363 0.221116 0
M  V30 25 C 0.345556 -2.967912 -2.232522 0
M  V30 26 H -1.611618 -6.983862 -2.785829 0
M  V30 27 H 0.132089 -6.943425 -3.063280 0
M  V30 28 H -0.594514 -6.726804 -1.365881 0
M  V30 29 H 1.282013 -5.999436 -1.032233 0
M  V30 30 H 2.933164 -4.580763 0.003504 0
M  V30 31 H 2.944576 -2.090529 -0.385946 0
M  V30 32 H 2.206115 -0.273761 -1.906326 0
M  V30 33 H 0.810195 -0.577417 -2.986300 0
M  V30 34 H -1.475053 -0.392047 -2.237033 0
M  V30 35 H 1.628548 2.984119 4.253836 0
M  V30 36 H 1.782150 4.268312 6.417420 0
M  V30 37 H -0.333097 5.235816 7.384002 0
M  V30 38 H -2.549771 3.668979 4.140762 0
M  V30 39 H 1.408129 1.949168 2.481386 0
M  V30 40 H -0.429346 -2.568882 -2.888731 0
M  V30 END ATOM
M  V30 BEGIN BOND
M  V30 1 1 1 2
M  V30 2 1 2 3
M  V30 3 2 3 4
M  V30 4 1 4 5
M  V30 5 2 5 6
M  V30 6 1 6 7
M  V30 7 1 7 8
M  V30 8 1 8 9
M  V30 9 1 9 10
M  V30 10 2 10 11
M  V30 11 1 11 12
M  V30 12 1 12 13
M  V30 13 1 13 14
M  V30 14 1 14 15
M  V30 15 2 15 16
M  V30 16 1 16 17
M  V30 17 2 17 18
M  V30 18 1 18 19
M  V30 19 2 19 20
M  V30 20 2 14 21
M  V30 21 1 21 22
M  V30 22 1 22 23
M  V30 23 2 23 24
M  V30 24 2 7 25
M  V30 25 1 25 3
M  V30 26 1 23 9
M  V30 27 2 22 12
M  V30 28 1 20 15
M  V30 29 1 1 26
M  V30 30 1 1 27
M  V30 31 1 1 28
M  V30 32 1 4 29
M  V30 33 1 5 30
M  V30 34 1 6 31
M  V30 35 1 8 32
M  V30 36 1 8 33
M  V30 37 1 10 34
M  V30 38 1 16 35
M  V30 39 1 17 36
M  V30 40 1 18 37
M  V30 41 1 20 38
M  V30 42 1 21 39
M  V30 43 1 25 40
M  V30 END BOND
M  V30 END CTAB
M  END
>  <Dataset>  (912) 
ChEMBL_Kinases

>  <Ligand_Instance>  (912) 
nan

>  <PDB_ID>  (912) 
nan

>  <Standardized_SMILES>  (912) 
COc1cccc(Cn2cnc3sc(-c4cccnc4)cc3c2=O)c1

>  <Name>  (912) 
nan

>  <Pocket>  (912) 
nan

>  <ATP_Site>  (912) 
nan

>  <Peripheral>  (912) 
nan

>  <Num_H_Atoms_ProtBoundConf>  (912) 
nan

>  <Num_Resolved_Atoms>  (912) 
nan

>  <Num_Not_Resolved_Atoms>  (912) 
nan

$$$$
CHEMBL4576833
     RDKit          3D

  0  0  0  0  0  0  0  0  0  0999 V3000
M  V30 BEGIN CTAB
M  V30 COUNTS 36 39 0 0 0
M  V30 BEGIN ATOM
M  V30 1 F -1.265860 -3.171225 2.530129 0
M  V30 2 C -0.164480 -3.869979 2.239407 0
M  V30 3 C -0.022310 -5.066239 2.906107 0
M  V30 4 C 1.088295 -5.846686 2.661215 0
M  V30 5 C 2.007767 -5.375864 1.747305 0
M  V30 6 C 1.829023 -4.171144 1.099651 0
M  V30 7 C 0.728886 -3.371557 1.325365 0
M  V30 8 C 0.636817 -2.125535 0.593464 0
M  V30 9 C -0.346645 -1.171712 0.643223 0
M  V30 10 C -0.352943 -0.012805 -0.090509 0
M  V30 11 N -1.410233 0.923999 0.016431 0
M  V30 12 C -1.372389 2.274102 0.416402 0
M  V30 13 C -0.186325 2.852880 0.810467 0
M  V30 14 C -0.231754 4.193576 1.190262 0
M  V30 15 N -1.388031 4.886984 1.170541 0
M  V30 16 C -2.527621 4.296651 0.782043 0
M  V30 17 C -2.568630 2.957222 0.386100 0
M  V30 18 C 0.684076 0.257071 -0.955306 0
M  V30 19 C 1.046563 1.242452 -1.826030 0
M  V30 20 C 2.265343 0.840565 -2.385033 0
M  V30 21 N 2.639810 -0.347864 -1.877824 0
M  V30 22 C 1.670138 -0.703596 -1.002450 0
M  V30 23 N 1.625487 -1.822641 -0.260015 0
M  V30 24 H -0.757858 -5.413215 3.618309 0
M  V30 25 H 1.280414 -6.797890 3.138521 0
M  V30 26 H 2.881304 -5.979349 1.548090 0
M  V30 27 H 2.621170 -3.895609 0.395126 0
M  V30 28 H -1.178721 -1.338240 1.305231 0
M  V30 29 H -2.256875 0.415458 -0.265648 0
M  V30 30 H 0.757304 2.329800 0.839954 0
M  V30 31 H 0.640640 4.730621 1.512334 0
M  V30 32 H -3.431899 4.887569 0.780725 0
M  V30 33 H -3.481493 2.505131 0.080918 0
M  V30 34 H 0.449970 2.128662 -1.991999 0
M  V30 35 H 2.789105 1.456323 -3.127959 0
M  V30 36 H 3.515620 -0.824786 -2.159563 0
M  V30 END ATOM
M  V30 BEGIN BOND
M  V30 1 1 1 2
M  V30 2 2 2 3
M  V30 3 1 3 4
M  V30 4 2 4 5
M  V30 5 1 5 6
M  V30 6 2 6 7
M  V30 7 1 7 8
M  V30 8 2 8 9
M  V30 9 1 9 10
M  V30 10 1 10 11
M  V30 11 1 11 12
M  V30 12 2 12 13
M  V30 13 1 13 14
M  V30 14 2 14 15
M  V30 15 1 15 16
M  V30 16 2 16 17
M  V30 17 2 10 18
M  V30 18 1 18 19
M  V30 19 2 19 20
M  V30 20 1 20 21
M  V30 21 1 21 22
M  V30 22 2 22 23
M  V30 23 1 7 2
M  V30 24 1 23 8
M  V30 25 1 17 12
M  V30 26 1 22 18
M  V30 27 1 3 24
M  V30 28 1 4 25
M  V30 29 1 5 26
M  V30 30 1 6 27
M  V30 31 1 9 28
M  V30 32 1 11 29
M  V30 33 1 13 30
M  V30 34 1 14 31
M  V30 35 1 16 32
M  V30 36 1 17 33
M  V30 37 1 19 34
M  V30 38 1 20 35
M  V30 39 1 21 36
M  V30 END BOND
M  V30 END CTAB
M  END
>  <Dataset>  (913) 
ChEMBL_Kinases

>  <Ligand_Instance>  (913) 
nan

>  <PDB_ID>  (913) 
nan

>  <Standardized_SMILES>  (913) 
Fc1ccccc1-c1cc(Nc2ccncc2)c2cc[nH]c2n1

>  <Name>  (913) 
nan

>  <Pocket>  (913) 
nan

>  <ATP_Site>  (913) 
nan

>  <Peripheral>  (913) 
nan

>  <Num_H_Atoms_ProtBoundConf>  (913) 
nan

>  <Num_Resolved_Atoms>  (913) 
nan

>  <Num_Not_Resolved_Atoms>  (913) 
nan

$$$$
CHEMBL4576797
     RDKit          3D

  0  0  0  0  0  0  0  0  0  0999 V3000
M  V30 BEGIN CTAB
M  V30 COUNTS 39 41 0 0 0
M  V30 BEGIN ATOM
M  V30 1 C -1.996297 -4.068420 0.604857 0
M  V30 2 C -0.689351 -3.373102 0.366803 0
M  V30 3 C 0.254887 -3.754423 1.486311 0
M  V30 4 N -0.791307 -1.935021 0.222209 0
M  V30 5 C -1.666239 -1.680122 -0.893914 0
M  V30 6 C -0.268492 -0.785588 0.869839 0
M  V30 7 C 0.573572 -0.003493 0.068112 0
M  V30 8 C 1.179398 1.143123 0.536245 0
M  V30 9 C 2.061689 1.983901 -0.265576 0
M  V30 10 C 2.398056 1.741078 -1.579204 0
M  V30 11 C 3.237935 2.565927 -2.298756 0
M  V30 12 N 3.766697 3.661153 -1.721372 0
M  V30 13 C 3.469149 3.950027 -0.426815 0
M  V30 14 C 2.630291 3.117390 0.276132 0
M  V30 15 F 2.372542 3.467108 1.575502 0
M  V30 16 N 0.934792 1.498613 1.811596 0
M  V30 17 C 0.139404 0.798319 2.636769 0
M  V30 18 C -0.104102 1.176719 3.939860 0
M  V30 19 N -0.916344 0.423004 4.702820 0
M  V30 20 C -1.510243 -0.710629 4.224858 0
M  V30 21 C -1.282600 -1.110986 2.924092 0
M  V30 22 C -0.453380 -0.342621 2.144391 0
M  V30 23 H -2.844715 -3.706952 0.028523 0
M  V30 24 H -2.216889 -4.176511 1.696358 0
M  V30 25 H -1.828957 -5.135597 0.270697 0
M  V30 26 H -0.216402 -3.787734 -0.564184 0
M  V30 27 H 0.916247 -4.599777 1.214942 0
M  V30 28 H 0.862745 -2.853930 1.759506 0
M  V30 29 H -0.303828 -3.998733 2.418093 0
M  V30 30 H -1.576208 -0.633131 -1.252639 0
M  V30 31 H -2.750644 -1.785978 -0.627936 0
M  V30 32 H -1.417211 -2.299838 -1.798337 0
M  V30 33 H 0.780399 -0.266588 -0.943426 0
M  V30 34 H 2.001384 0.885307 -2.073446 0
M  V30 35 H 3.468914 2.318765 -3.344678 0
M  V30 36 H 3.905139 4.838025 0.022310 0
M  V30 37 H 0.371401 2.073894 4.303717 0
M  V30 38 H -2.152449 -1.282906 4.869696 0
M  V30 39 H -1.752022 -1.991077 2.562158 0
M  V30 END ATOM
M  V30 BEGIN BOND
M  V30 1 1 1 2
M  V30 2 1 2 3
M  V30 3 1 2 4
M  V30 4 1 4 5
M  V30 5 1 4 6
M  V30 6 2 6 7
M  V30 7 1 7 8
M  V30 8 1 8 9
M  V30 9 2 9 10
M  V30 10 1 10 11
M  V30 11 2 11 12
M  V30 12 1 12 13
M  V30 13 2 13 14
M  V30 14 1 14 15
M  V30 15 2 8 16
M  V30 16 1 16 17
M  V30 17 2 17 18
M  V30 18 1 18 19
M  V30 19 2 19 20
M  V30 20 1 20 21
M  V30 21 2 21 22
M  V30 22 1 22 6
M  V30 23 1 14 9
M  V30 24 1 22 17
M  V30 25 1 1 23
M  V30 26 1 1 24
M  V30 27 1 1 25
M  V30 28 1 2 26
M  V30 29 1 3 27
M  V30 30 1 3 28
M  V30 31 1 3 29
M  V30 32 1 5 30
M  V30 33 1 5 31
M  V30 34 1 5 32
M  V30 35 1 7 33
M  V30 36 1 10 34
M  V30 37 1 11 35
M  V30 38 1 13 36
M  V30 39 1 18 37
M  V30 40 1 20 38
M  V30 41 1 21 39
M  V30 END BOND
M  V30 END CTAB
M  END
>  <Dataset>  (914) 
ChEMBL_Kinases

>  <Ligand_Instance>  (914) 
nan

>  <PDB_ID>  (914) 
nan

>  <Standardized_SMILES>  (914) 
CC(C)N(C)c1cc(-c2ccncc2F)nc2cnccc12

>  <Name>  (914) 
nan

>  <Pocket>  (914) 
nan

>  <ATP_Site>  (914) 
nan

>  <Peripheral>  (914) 
nan

>  <Num_H_Atoms_ProtBoundConf>  (914) 
nan

>  <Num_Resolved_Atoms>  (914) 
nan

>  <Num_Not_Resolved_Atoms>  (914) 
nan

$$$$
CHEMBL4633607
     RDKit          3D

  0  0  0  0  0  0  0  0  0  0999 V3000
M  V30 BEGIN CTAB
M  V30 COUNTS 43 46 0 0 0
M  V30 BEGIN ATOM
M  V30 1 O 1.155113 -1.142389 0.077106 0
M  V30 2 C 1.183542 0.123421 0.160434 0
M  V30 3 N 2.205105 0.813844 -0.513739 0
M  V30 4 C 3.162412 0.050146 -1.261038 0
M  V30 5 C 4.557793 0.254176 -0.717375 0
M  V30 6 C 5.150331 1.590109 -1.057774 0
M  V30 7 C 4.858327 2.001208 -2.484314 0
M  V30 8 O 3.543243 1.759201 -2.846915 0
M  V30 9 C 3.177313 0.428423 -2.726173 0
M  V30 10 C 0.195943 0.876173 0.928499 0
M  V30 11 N 0.082852 2.209064 1.118538 0
M  V30 12 N -0.953987 2.496670 1.883733 0
M  V30 13 C -1.577300 1.355143 2.236110 0
M  V30 14 C -2.703606 1.126242 3.023008 0
M  V30 15 C -3.112790 -0.179772 3.208752 0
M  V30 16 C -2.430486 -1.236293 2.634192 0
M  V30 17 C -2.729711 -2.645395 2.732855 0
M  V30 18 C -2.708866 -3.478626 1.621177 0
M  V30 19 C -3.012074 -4.796124 1.852104 0
M  V30 20 C -3.326889 -5.338864 3.070702 0
M  V30 21 C -3.346415 -4.507258 4.172648 0
M  V30 22 F -3.653957 -5.015196 5.389514 0
M  V30 23 C -3.042748 -3.159793 3.974549 0
M  V30 24 F -3.083508 -2.408744 5.106563 0
M  V30 25 C -1.306796 -0.978632 1.851520 0
M  V30 26 C -0.862858 0.327968 1.640962 0
M  V30 27 H 2.330783 1.850030 -0.518779 0
M  V30 28 H 2.972653 -1.046284 -1.215168 0
M  V30 29 H 5.181597 -0.600754 -1.106284 0
M  V30 30 H 4.591473 0.144566 0.395637 0
M  V30 31 H 4.848912 2.336639 -0.319615 0
M  V30 32 H 6.267780 1.491693 -0.983941 0
M  V30 33 H 5.008096 3.098227 -2.564767 0
M  V30 34 H 5.603364 1.539394 -3.188587 0
M  V30 35 H 3.853797 -0.262372 -3.261492 0
M  V30 36 H 2.160184 0.330140 -3.162151 0
M  V30 37 H -1.276170 3.448818 2.192153 0
M  V30 38 H -3.270613 1.918475 3.493454 0
M  V30 39 H -3.974188 -0.473989 3.800816 0
M  V30 40 H -2.464557 -3.079291 0.649561 0
M  V30 41 H -3.008038 -5.480420 1.016503 0
M  V30 42 H -3.563012 -6.386429 3.224997 0
M  V30 43 H -0.707077 -1.732527 1.360814 0
M  V30 END ATOM
M  V30 BEGIN BOND
M  V30 1 2 1 2
M  V30 2 1 2 3
M  V30 3 1 3 4
M  V30 4 1 4 5
M  V30 5 1 5 6
M  V30 6 1 6 7
M  V30 7 1 7 8
M  V30 8 1 8 9
M  V30 9 1 2 10
M  V30 10 2 10 11
M  V30 11 1 11 12
M  V30 12 1 12 13
M  V30 13 2 13 14
M  V30 14 1 14 15
M  V30 15 2 15 16
M  V30 16 1 16 17
M  V30 17 2 17 18
M  V30 18 1 18 19
M  V30 19 2 19 20
M  V30 20 1 20 21
M  V30 21 1 21 22
M  V30 22 2 21 23
M  V30 23 1 23 24
M  V30 24 1 16 25
M  V30 25 2 25 26
M  V30 26 1 9 4
M  V30 27 1 26 10
M  V30 28 1 26 13
M  V30 29 1 23 17
M  V30 30 1 3 27
M  V30 31 1 4 28
M  V30 32 1 5 29
M  V30 33 1 5 30
M  V30 34 1 6 31
M  V30 35 1 6 32
M  V30 36 1 7 33
M  V30 37 1 7 34
M  V30 38 1 9 35
M  V30 39 1 9 36
M  V30 40 1 12 37
M  V30 41 1 14 38
M  V30 42 1 15 39
M  V30 43 1 18 40
M  V30 44 1 19 41
M  V30 45 1 20 42
M  V30 46 1 25 43
M  V30 END BOND
M  V30 END CTAB
M  END
>  <Dataset>  (915) 
ChEMBL_Kinases

>  <Ligand_Instance>  (915) 
nan

>  <PDB_ID>  (915) 
nan

>  <Standardized_SMILES>  (915) 
O=C(NC1CCCOC1)c1n[nH]c2ccc(-c3cccc(F)c3F)cc12

>  <Name>  (915) 
nan

>  <Pocket>  (915) 
nan

>  <ATP_Site>  (915) 
nan

>  <Peripheral>  (915) 
nan

>  <Num_H_Atoms_ProtBoundConf>  (915) 
nan

>  <Num_Resolved_Atoms>  (915) 
nan

>  <Num_Not_Resolved_Atoms>  (915) 
nan

$$$$
CHEMBL4576567
     RDKit          3D

  0  0  0  0  0  0  0  0  0  0999 V3000
M  V30 BEGIN CTAB
M  V30 COUNTS 41 44 0 0 0
M  V30 BEGIN ATOM
M  V30 1 C 1.054037 -7.026679 2.889331 0
M  V30 2 O 0.653892 -5.860015 3.573825 0
M  V30 3 C 0.542200 -4.700763 2.806166 0
M  V30 4 C 0.819025 -4.728914 1.436052 0
M  V30 5 C 0.702974 -3.577354 0.699555 0
M  V30 6 C 0.319268 -2.376260 1.262231 0
M  V30 7 C 0.230476 -1.218350 0.378600 0
M  V30 8 C 0.508918 0.004807 0.953721 0
M  V30 9 N 0.436080 1.090322 0.167861 0
M  V30 10 C 0.114183 1.085905 -1.134340 0
M  V30 11 C 0.031162 2.129015 -1.942166 0
M  V30 12 C 0.265113 3.584298 -1.652573 0
M  V30 13 C 0.624886 4.071058 -0.417399 0
M  V30 14 C 0.838487 5.393266 -0.150416 0
M  V30 15 C 0.690298 6.313934 -1.165337 0
M  V30 16 C 0.331942 5.871331 -2.414772 0
M  V30 17 C 0.125600 4.531422 -2.644312 0
M  V30 18 S -0.416363 1.608609 -3.519694 0
M  V30 19 N -0.497128 -0.200968 -3.028990 0
M  V30 20 C -0.166764 -0.124041 -1.725520 0
M  V30 21 C -0.105065 -1.269272 -0.957841 0
M  V30 22 C 0.044979 -2.326992 2.595086 0
M  V30 23 C 0.155973 -3.474563 3.352678 0
M  V30 24 O -0.101271 -3.526246 4.715428 0
M  V30 25 C -0.504670 -2.427000 5.496647 0
M  V30 26 H 0.368136 -7.321363 2.068456 0
M  V30 27 H 2.025553 -6.806475 2.402762 0
M  V30 28 H 1.153273 -7.872490 3.615084 0
M  V30 29 H 1.124721 -5.669022 0.969251 0
M  V30 30 H 0.932998 -3.675228 -0.353014 0
M  V30 31 H 0.779420 0.089349 2.011464 0
M  V30 32 H 0.750578 3.401048 0.392851 0
M  V30 33 H 1.118491 5.731870 0.829451 0
M  V30 34 H 0.852953 7.367502 -0.983257 0
M  V30 35 H 0.210825 6.596370 -3.231730 0
M  V30 36 H -0.157770 4.235279 -3.656199 0
M  V30 37 H -0.299345 -2.274484 -1.289953 0
M  V30 38 H -0.253246 -1.415961 3.058046 0
M  V30 39 H -1.056844 -1.651768 4.917442 0
M  V30 40 H -1.122649 -2.767297 6.370006 0
M  V30 41 H 0.427511 -1.909929 5.860599 0
M  V30 END ATOM
M  V30 BEGIN BOND
M  V30 1 1 1 2
M  V30 2 1 2 3
M  V30 3 2 3 4
M  V30 4 1 4 5
M  V30 5 2 5 6
M  V30 6 1 6 7
M  V30 7 1 7 8
M  V30 8 2 8 9
M  V30 9 1 9 10
M  V30 10 2 10 11
M  V30 11 1 11 12
M  V30 12 2 12 13
M  V30 13 1 13 14
M  V30 14 2 14 15
M  V30 15 1 15 16
M  V30 16 2 16 17
M  V30 17 1 11 18
M  V30 18 1 18 19
M  V30 19 2 19 20
M  V30 20 1 20 21
M  V30 21 1 6 22
M  V30 22 2 22 23
M  V30 23 1 23 24
M  V30 24 1 24 25
M  V30 25 1 23 3
M  V30 26 2 21 7
M  V30 27 1 20 10
M  V30 28 1 17 12
M  V30 29 1 1 26
M  V30 30 1 1 27
M  V30 31 1 1 28
M  V30 32 1 4 29
M  V30 33 1 5 30
M  V30 34 1 8 31
M  V30 35 1 13 32
M  V30 36 1 14 33
M  V30 37 1 15 34
M  V30 38 1 16 35
M  V30 39 1 17 36
M  V30 40 1 21 37
M  V30 41 1 22 38
M  V30 42 1 25 39
M  V30 43 1 25 40
M  V30 44 1 25 41
M  V30 END BOND
M  V30 END CTAB
M  END
>  <Dataset>  (916) 
ChEMBL_Kinases

>  <Ligand_Instance>  (916) 
nan

>  <PDB_ID>  (916) 
nan

>  <Standardized_SMILES>  (916) 
COc1ccc(-c2cnc3c(-c4ccccc4)snc3c2)cc1OC

>  <Name>  (916) 
nan

>  <Pocket>  (916) 
nan

>  <ATP_Site>  (916) 
nan

>  <Peripheral>  (916) 
nan

>  <Num_H_Atoms_ProtBoundConf>  (916) 
nan

>  <Num_Resolved_Atoms>  (916) 
nan

>  <Num_Not_Resolved_Atoms>  (916) 
nan

$$$$
CHEMBL457747
     RDKit          3D

  0  0  0  0  0  0  0  0  0  0999 V3000
M  V30 BEGIN CTAB
M  V30 COUNTS 27 29 0 0 0
M  V30 BEGIN ATOM
M  V30 1 O 1.839936 -4.608069 -0.399311 0
M  V30 2 C 2.157228 -3.615536 0.355073 0
M  V30 3 N 3.125633 -3.764466 1.421585 0
M  V30 4 C 3.357873 -2.531029 2.172274 0
M  V30 5 S 3.826910 -2.730855 3.742989 0
M  V30 6 S 2.978020 -1.316762 0.864777 0
M  V30 7 C 1.592696 -2.308558 0.207963 0
M  V30 8 C 0.419412 -1.879032 -0.208176 0
M  V30 9 C 0.236496 -0.406629 -0.204571 0
M  V30 10 C 1.219225 0.342477 -0.814847 0
M  V30 11 C 1.019894 1.715851 -0.757690 0
M  V30 12 C -0.056518 2.337755 -0.150779 0
M  V30 13 C -0.995451 1.515153 0.437290 0
M  V30 14 C -2.077940 2.086261 1.082493 0
M  V30 15 C -2.990056 1.220674 1.690126 0
M  V30 16 C -2.875014 -0.155686 1.677884 0
M  V30 17 C -1.769065 -0.714904 1.016094 0
M  V30 18 C -0.863973 0.142618 0.418881 0
M  V30 19 H 3.604174 -4.713262 1.597755 0
M  V30 20 H -0.231790 -2.706372 -0.498104 0
M  V30 21 H 2.058581 -0.097651 -1.288653 0
M  V30 22 H 1.796193 2.309138 -1.245855 0
M  V30 23 H -0.171522 3.416198 -0.122657 0
M  V30 24 H -2.193344 3.173082 1.100835 0
M  V30 25 H -3.850664 1.679626 2.206941 0
M  V30 26 H -3.632482 -0.756862 2.171851 0
M  V30 27 H -1.678792 -1.777523 1.004067 0
M  V30 END ATOM
M  V30 BEGIN BOND
M  V30 1 2 1 2
M  V30 2 1 2 3
M  V30 3 1 3 4
M  V30 4 2 4 5
M  V30 5 1 4 6
M  V30 6 1 6 7
M  V30 7 2 7 8
M  V30 8 1 8 9
M  V30 9 2 9 10
M  V30 10 1 10 11
M  V30 11 2 11 12
M  V30 12 1 12 13
M  V30 13 2 13 14
M  V30 14 1 14 15
M  V30 15 2 15 16
M  V30 16 1 16 17
M  V30 17 2 17 18
M  V30 18 1 7 2
M  V30 19 1 18 9
M  V30 20 1 18 13
M  V30 21 1 3 19
M  V30 22 1 8 20
M  V30 23 1 10 21
M  V30 24 1 11 22
M  V30 25 1 12 23
M  V30 26 1 14 24
M  V30 27 1 15 25
M  V30 28 1 16 26
M  V30 29 1 17 27
M  V30 END BOND
M  V30 END CTAB
M  END
>  <Dataset>  (917) 
ChEMBL_Kinases

>  <Ligand_Instance>  (917) 
nan

>  <PDB_ID>  (917) 
nan

>  <Standardized_SMILES>  (917) 
O=C1NC(=S)S/C1=C\c1cccc2ccccc12

>  <Name>  (917) 
nan

>  <Pocket>  (917) 
nan

>  <ATP_Site>  (917) 
nan

>  <Peripheral>  (917) 
nan

>  <Num_H_Atoms_ProtBoundConf>  (917) 
nan

>  <Num_Resolved_Atoms>  (917) 
nan

>  <Num_Not_Resolved_Atoms>  (917) 
nan

$$$$
CHEMBL4633684
     RDKit          3D

  0  0  0  0  0  0  0  0  0  0999 V3000
M  V30 BEGIN CTAB
M  V30 COUNTS 48 50 0 0 0
M  V30 BEGIN ATOM
M  V30 1 C 1.415591 -7.666352 2.216023 0
M  V30 2 O 1.031433 -6.311612 1.980151 0
M  V30 3 C 1.531515 -5.571526 0.925581 0
M  V30 4 O 2.357491 -6.080391 0.125404 0
M  V30 5 C 1.110862 -4.188633 0.721849 0
M  V30 6 C 1.609348 -3.450929 -0.330185 0
M  V30 7 C 1.221389 -2.122934 -0.546987 0
M  V30 8 C 0.321744 -1.501849 0.288975 0
M  V30 9 N -0.036400 -0.153007 0.025304 0
M  V30 10 C 0.620616 0.458287 -1.140574 0
M  V30 11 C -0.968660 0.676014 0.755971 0
M  V30 12 C -0.410773 1.900414 1.330161 0
M  V30 13 O -1.399012 2.651912 1.611993 0
M  V30 14 C 0.886837 2.457759 1.647377 0
M  V30 15 C 0.895585 3.754122 2.114001 0
M  V30 16 C 2.116270 4.340901 2.455748 0
M  V30 17 C 3.286236 3.659576 2.336588 0
M  V30 18 C 3.321737 2.369778 1.877502 0
M  V30 19 C 2.104608 1.823983 1.551211 0
M  V30 20 C -2.262208 0.839521 0.063443 0
M  V30 21 C -2.506994 1.104692 -1.256074 0
M  V30 22 C -3.749241 1.244635 -1.822286 0
M  V30 23 C -4.872721 1.115697 -1.034975 0
M  V30 24 C -4.747808 0.849258 0.305337 0
M  V30 25 C -3.463853 0.725160 0.785832 0
M  V30 26 C -0.145775 -2.279489 1.322187 0
M  V30 27 C 0.207931 -3.586695 1.572233 0
M  V30 28 H 2.198631 -7.984312 1.491947 0
M  V30 29 H 0.526629 -8.327732 2.188909 0
M  V30 30 H 1.864708 -7.734837 3.228100 0
M  V30 31 H 2.311298 -3.960249 -0.968521 0
M  V30 32 H 1.699827 -1.690771 -1.411865 0
M  V30 33 H 0.286318 -0.090544 -2.021181 0
M  V30 34 H 0.508855 1.548675 -1.156946 0
M  V30 35 H 1.724916 0.285405 -1.082062 0
M  V30 36 H -1.239021 0.051727 1.687135 0
M  V30 37 H 0.039515 4.426318 2.263449 0
M  V30 38 H 2.168846 5.354204 2.825271 0
M  V30 39 H 4.222406 4.135896 2.607764 0
M  V30 40 H 4.233130 1.814952 1.775990 0
M  V30 41 H 2.130948 0.804873 1.206522 0
M  V30 42 H -1.686185 1.216621 -1.915636 0
M  V30 43 H -3.864792 1.454489 -2.876046 0
M  V30 44 H -5.848129 1.225399 -1.478477 0
M  V30 45 H -5.587656 0.736958 0.974934 0
M  V30 46 H -3.379633 0.511319 1.864996 0
M  V30 47 H -0.850725 -1.863131 2.013806 0
M  V30 48 H -0.191609 -4.140763 2.394846 0
M  V30 END ATOM
M  V30 BEGIN BOND
M  V30 1 1 1 2
M  V30 2 1 2 3
M  V30 3 2 3 4
M  V30 4 1 3 5
M  V30 5 2 5 6
M  V30 6 1 6 7
M  V30 7 2 7 8
M  V30 8 1 8 9
M  V30 9 1 9 10
M  V30 10 1 9 11
M  V30 11 1 11 12
M  V30 12 2 12 13
M  V30 13 1 12 14
M  V30 14 2 14 15
M  V30 15 1 15 16
M  V30 16 2 16 17
M  V30 17 1 17 18
M  V30 18 2 18 19
M  V30 19 1 11 20
M  V30 20 2 20 21
M  V30 21 1 21 22
M  V30 22 2 22 23
M  V30 23 1 23 24
M  V30 24 2 24 25
M  V30 25 1 8 26
M  V30 26 2 26 27
M  V30 27 1 27 5
M  V30 28 1 19 14
M  V30 29 1 25 20
M  V30 30 1 1 28
M  V30 31 1 1 29
M  V30 32 1 1 30
M  V30 33 1 6 31
M  V30 34 1 7 32
M  V30 35 1 10 33
M  V30 36 1 10 34
M  V30 37 1 10 35
M  V30 38 1 11 36
M  V30 39 1 15 37
M  V30 40 1 16 38
M  V30 41 1 17 39
M  V30 42 1 18 40
M  V30 43 1 19 41
M  V30 44 1 21 42
M  V30 45 1 22 43
M  V30 46 1 23 44
M  V30 47 1 24 45
M  V30 48 1 25 46
M  V30 49 1 26 47
M  V30 50 1 27 48
M  V30 END BOND
M  V30 END CTAB
M  END
>  <Dataset>  (918) 
ChEMBL_Kinases

>  <Ligand_Instance>  (918) 
nan

>  <PDB_ID>  (918) 
nan

>  <Standardized_SMILES>  (918) 
COC(=O)c1ccc(N(C)C(C(=O)c2ccccc2)c2ccccc2)cc1

>  <Name>  (918) 
nan

>  <Pocket>  (918) 
nan

>  <ATP_Site>  (918) 
nan

>  <Peripheral>  (918) 
nan

>  <Num_H_Atoms_ProtBoundConf>  (918) 
nan

>  <Num_Resolved_Atoms>  (918) 
nan

>  <Num_Not_Resolved_Atoms>  (918) 
nan

$$$$
CHEMBL4633697
     RDKit          3D

  0  0  0  0  0  0  0  0  0  0999 V3000
M  V30 BEGIN CTAB
M  V30 COUNTS 67 70 0 0 0
M  V30 BEGIN ATOM
M  V30 1 C 3.575391 -4.982207 4.626399 0
M  V30 2 C 4.546113 -4.075373 3.925257 0
M  V30 3 O 3.908018 -3.131484 3.121497 0
M  V30 4 C 4.549945 -2.176547 2.366615 0
M  V30 5 O 5.669880 -2.556443 2.728626 0
M  V30 6 C 4.169233 -1.105660 1.470671 0
M  V30 7 C 5.279482 -0.452632 0.984286 0
M  V30 8 N 5.127738 0.577849 0.132061 0
M  V30 9 C 3.897771 0.988398 -0.258267 0
M  V30 10 C 3.796317 2.063710 -1.118972 0
M  V30 11 C 2.522511 2.463948 -1.474126 0
M  V30 12 C 1.401494 1.820260 -0.991892 0
M  V30 13 C 0.105050 2.339857 -1.392400 0
M  V30 14 C -1.102824 1.842658 -0.957697 0
M  V30 15 C -2.348231 2.301095 -1.325169 0
M  V30 16 C -2.425000 3.354896 -2.208781 0
M  V30 17 C -3.726360 3.863618 -2.617810 0
M  V30 18 O -4.763314 3.325537 -2.152803 0
M  V30 19 O -3.877742 4.909675 -3.492496 0
M  V30 20 C -1.247483 3.895108 -2.678535 0
M  V30 21 C -0.037234 3.384565 -2.267018 0
M  V30 22 N 1.588486 0.783292 -0.161843 0
M  V30 23 C 2.782425 0.338487 0.225705 0
M  V30 24 C 2.894874 -0.722240 1.098834 0
M  V30 25 N 1.826014 -1.420005 1.633777 0
M  V30 26 C 0.396113 -1.361527 1.398357 0 CFG=1
M  V30 27 C 0.080708 -1.934043 0.043039 0
M  V30 28 C -0.865451 -3.095644 0.056664 0
M  V30 29 C -2.133874 -2.829352 0.823702 0 CFG=2
M  V30 30 C -3.084485 -2.164420 -0.141469 0
M  V30 31 N -4.345904 -1.834539 0.398334 0
M  V30 32 C -5.207493 -2.900942 0.746091 0
M  V30 33 C -4.966347 -0.657804 -0.101679 0
M  V30 34 C -1.875554 -1.923745 2.012251 0
M  V30 35 C -0.418674 -2.118174 2.409060 0
M  V30 36 H 3.537867 -5.998094 4.179037 0
M  V30 37 H 3.905103 -5.158159 5.685006 0
M  V30 38 H 2.541323 -4.583767 4.632099 0
M  V30 39 H 5.268913 -4.622760 3.273422 0
M  V30 40 H 5.077173 -3.487000 4.727528 0
M  V30 41 H 6.311050 -0.667863 1.206861 0
M  V30 42 H 4.722490 2.517513 -1.454835 0
M  V30 43 H 2.573100 3.313459 -2.149906 0
M  V30 44 H -1.136760 1.026875 -0.258635 0
M  V30 45 H -3.268402 1.877983 -0.956677 0
M  V30 46 H -4.660724 5.574437 -3.443814 0
M  V30 47 H -1.354474 4.719121 -3.368726 0
M  V30 48 H 0.788162 3.890568 -2.703287 0
M  V30 49 H 1.996976 -2.152263 2.357492 0
M  V30 50 H 0.056995 -0.280257 1.340097 0
M  V30 51 H 1.033526 -2.209802 -0.506303 0
M  V30 52 H -0.359261 -1.144678 -0.589256 0
M  V30 53 H -0.357101 -3.955514 0.530276 0
M  V30 54 H -1.065706 -3.371179 -0.996790 0
M  V30 55 H -2.607770 -3.749880 1.208284 0
M  V30 56 H -3.246685 -2.859621 -0.999770 0
M  V30 57 H -2.595006 -1.221804 -0.471615 0
M  V30 58 H -6.099834 -2.453964 1.255541 0
M  V30 59 H -4.779169 -3.674703 1.378271 0
M  V30 60 H -5.601096 -3.375178 -0.178708 0
M  V30 61 H -5.918701 -0.988237 -0.612455 0
M  V30 62 H -5.261919 0.051791 0.669204 0
M  V30 63 H -4.346319 -0.260136 -0.922335 0
M  V30 64 H -2.003206 -0.879011 1.723452 0
M  V30 65 H -2.494017 -2.219507 2.855532 0
M  V30 66 H -0.102630 -3.181014 2.386193 0
M  V30 67 H -0.234730 -1.787742 3.449322 0
M  V30 END ATOM
M  V30 BEGIN BOND
M  V30 1 1 1 2
M  V30 2 1 2 3
M  V30 3 1 3 4
M  V30 4 2 4 5
M  V30 5 1 4 6
M  V30 6 2 6 7
M  V30 7 1 7 8
M  V30 8 2 8 9
M  V30 9 1 9 10
M  V30 10 2 10 11
M  V30 11 1 11 12
M  V30 12 1 12 13
M  V30 13 2 13 14
M  V30 14 1 14 15
M  V30 15 2 15 16
M  V30 16 1 16 17
M  V30 17 2 17 18
M  V30 18 1 17 19
M  V30 19 1 16 20
M  V30 20 2 20 21
M  V30 21 2 12 22
M  V30 22 1 22 23
M  V30 23 2 23 24
M  V30 24 1 24 25
M  V30 25 1 25 26
M  V30 26 1 26 27
M  V30 27 1 27 28
M  V30 28 1 28 29
M  V30 29 1 29 30
M  V30 30 1 30 31
M  V30 31 1 31 32
M  V30 32 1 31 33
M  V30 33 1 29 34
M  V30 34 1 34 35
M  V30 35 1 24 6
M  V30 36 1 35 26
M  V30 37 1 23 9
M  V30 38 1 21 13
M  V30 39 1 1 36
M  V30 40 1 1 37
M  V30 41 1 1 38
M  V30 42 1 2 39
M  V30 43 1 2 40
M  V30 44 1 7 41
M  V30 45 1 10 42
M  V30 46 1 11 43
M  V30 47 1 14 44
M  V30 48 1 15 45
M  V30 49 1 19 46
M  V30 50 1 20 47
M  V30 51 1 21 48
M  V30 52 1 25 49
M  V30 53 1 26 50 CFG=3
M  V30 54 1 27 51
M  V30 55 1 27 52
M  V30 56 1 28 53
M  V30 57 1 28 54
M  V30 58 1 29 55 CFG=1
M  V30 59 1 30 56
M  V30 60 1 30 57
M  V30 61 1 32 58
M  V30 62 1 32 59
M  V30 63 1 32 60
M  V30 64 1 33 61
M  V30 65 1 33 62
M  V30 66 1 33 63
M  V30 67 1 34 64
M  V30 68 1 34 65
M  V30 69 1 35 66
M  V30 70 1 35 67
M  V30 END BOND
M  V30 END CTAB
M  END
>  <Dataset>  (919) 
ChEMBL_Kinases

>  <Ligand_Instance>  (919) 
nan

>  <PDB_ID>  (919) 
nan

>  <Standardized_SMILES>  (919) 
CCOC(=O)c1cnc2ccc(-c3ccc(C(=O)O)cc3)nc2c1N[C@H]1CC[C@H](CN(C)C)CC1

>  <Name>  (919) 
nan

>  <Pocket>  (919) 
nan

>  <ATP_Site>  (919) 
nan

>  <Peripheral>  (919) 
nan

>  <Num_H_Atoms_ProtBoundConf>  (919) 
nan

>  <Num_Resolved_Atoms>  (919) 
nan

>  <Num_Not_Resolved_Atoms>  (919) 
nan

$$$$
CHEMBL4576185
     RDKit          3D

  0  0  0  0  0  0  0  0  0  0999 V3000
M  V30 BEGIN CTAB
M  V30 COUNTS 40 43 0 0 0
M  V30 BEGIN ATOM
M  V30 1 F 2.179935 -3.981892 2.849643 0
M  V30 2 C 1.943241 -4.562584 1.634182 0
M  V30 3 F 0.664830 -5.025090 1.529428 0
M  V30 4 F 2.803028 -5.662722 1.556091 0
M  V30 5 C 2.315395 -3.622355 0.521462 0
M  V30 6 N 3.221337 -3.775077 -0.469372 0
M  V30 7 N 3.220160 -2.699649 -1.224597 0
M  V30 8 C 2.333584 -1.784106 -0.793950 0
M  V30 9 C 1.758133 -2.373582 0.318422 0
M  V30 10 C 0.722871 -1.731864 1.121961 0
M  V30 11 N 0.289947 -0.513751 0.789770 0
M  V30 12 C -0.651396 0.192580 1.433989 0
M  V30 13 N -1.077925 1.470926 1.051678 0
M  V30 14 C -0.561585 2.166605 -0.076743 0
M  V30 15 C -0.882768 1.380422 -1.328713 0
M  V30 16 C 0.212824 1.751951 -2.300522 0
M  V30 17 C 1.097290 2.750329 -1.582236 0
M  V30 18 C 0.936745 2.271956 -0.130449 0
M  V30 19 C -1.157481 -0.484489 2.523848 0
M  V30 20 C -2.132666 0.075510 3.311954 0
M  V30 21 C -2.686589 -0.536315 4.413837 0
M  V30 22 N -2.255900 -1.774915 4.763160 0
M  V30 23 C -1.287973 -2.396635 4.027271 0
M  V30 24 C -0.764580 -1.742120 2.932361 0
M  V30 25 N 0.202113 -2.366403 2.199693 0
M  V30 26 H 3.887813 -2.687400 -2.042614 0
M  V30 27 H 2.169104 -0.817108 -1.274910 0
M  V30 28 H -1.807794 2.002068 1.571607 0
M  V30 29 H -0.943213 3.208855 -0.160028 0
M  V30 30 H -1.885015 1.671379 -1.733455 0
M  V30 31 H -0.869342 0.302604 -1.079493 0
M  V30 32 H -0.250980 2.169524 -3.215198 0
M  V30 33 H 0.784787 0.853201 -2.609173 0
M  V30 34 H 0.641569 3.741836 -1.736634 0
M  V30 35 H 2.123431 2.685901 -1.941639 0
M  V30 36 H 1.484301 1.337563 -0.067303 0
M  V30 37 H 1.332511 3.082698 0.504275 0
M  V30 38 H -2.531948 1.038435 3.118426 0
M  V30 39 H -3.458039 -0.081803 5.029196 0
M  V30 40 H -0.916278 -3.382929 4.270598 0
M  V30 END ATOM
M  V30 BEGIN BOND
M  V30 1 1 1 2
M  V30 2 1 2 3
M  V30 3 1 2 4
M  V30 4 1 2 5
M  V30 5 2 5 6
M  V30 6 1 6 7
M  V30 7 1 7 8
M  V30 8 2 8 9
M  V30 9 1 9 10
M  V30 10 2 10 11
M  V30 11 1 11 12
M  V30 12 1 12 13
M  V30 13 1 13 14
M  V30 14 1 14 15
M  V30 15 1 15 16
M  V30 16 1 16 17
M  V30 17 1 17 18
M  V30 18 2 12 19
M  V30 19 1 19 20
M  V30 20 2 20 21
M  V30 21 1 21 22
M  V30 22 2 22 23
M  V30 23 1 23 24
M  V30 24 2 24 25
M  V30 25 1 9 5
M  V30 26 1 25 10
M  V30 27 1 18 14
M  V30 28 1 24 19
M  V30 29 1 7 26
M  V30 30 1 8 27
M  V30 31 1 13 28
M  V30 32 1 14 29
M  V30 33 1 15 30
M  V30 34 1 15 31
M  V30 35 1 16 32
M  V30 36 1 16 33
M  V30 37 1 17 34
M  V30 38 1 17 35
M  V30 39 1 18 36
M  V30 40 1 18 37
M  V30 41 1 20 38
M  V30 42 1 21 39
M  V30 43 1 23 40
M  V30 END BOND
M  V30 END CTAB
M  END
>  <Dataset>  (920) 
ChEMBL_Kinases

>  <Ligand_Instance>  (920) 
nan

>  <PDB_ID>  (920) 
nan

>  <Standardized_SMILES>  (920) 
FC(F)(F)c1n[nH]cc1-c1nc(NC2CCCC2)c2ccncc2n1

>  <Name>  (920) 
nan

>  <Pocket>  (920) 
nan

>  <ATP_Site>  (920) 
nan

>  <Peripheral>  (920) 
nan

>  <Num_H_Atoms_ProtBoundConf>  (920) 
nan

>  <Num_Resolved_Atoms>  (920) 
nan

>  <Num_Not_Resolved_Atoms>  (920) 
nan

$$$$
CHEMBL4633715
     RDKit          3D

  0  0  0  0  0  0  0  0  0  0999 V3000
M  V30 BEGIN CTAB
M  V30 COUNTS 71 74 0 0 0
M  V30 BEGIN ATOM
M  V30 1 C 3.073670 -6.076090 1.974778 0
M  V30 2 C 2.679121 -6.450565 0.563909 0
M  V30 3 N 3.256325 -5.622159 -0.440069 0
M  V30 4 C 2.841773 -4.287742 -0.519435 0
M  V30 5 C 3.559728 -3.499273 -1.574810 0
M  V30 6 C 3.011196 -2.057761 -1.613053 0
M  V30 7 O 1.647966 -2.047270 -1.906005 0
M  V30 8 C 0.958632 -0.860798 -1.984995 0
M  V30 9 C 1.415802 0.422903 -1.811183 0
M  V30 10 C 0.552531 1.501794 -1.933390 0
M  V30 11 C -0.746801 1.236151 -2.228335 0
M  V30 12 C -1.566372 2.339456 -2.336379 0
M  V30 13 N -1.217936 3.711254 -2.182063 0
M  V30 14 C -1.256505 4.227435 -0.839624 0
M  V30 15 C -1.575532 3.464774 0.264773 0
M  V30 16 C -1.510266 4.296398 1.381129 0
M  V30 17 C -1.775436 3.873617 2.778203 0
M  V30 18 C -3.208724 4.023059 3.118333 0
M  V30 19 O -3.988516 4.465551 2.240871 0
M  V30 20 N -3.733817 3.693038 4.374826 0
M  V30 21 C -5.060542 3.775337 4.853736 0
M  V30 22 C -5.330980 3.392583 6.150489 0
M  V30 23 C -6.588592 3.440414 6.696929 0
M  V30 24 C -7.685047 3.877224 5.987322 0
M  V30 25 C -7.430327 4.262703 4.689848 0
M  V30 26 F -8.485090 4.699192 3.956582 0
M  V30 27 C -6.162605 4.205441 4.167391 0
M  V30 28 N -1.157414 5.530330 0.932566 0
M  V30 29 N -1.008465 5.474240 -0.401007 0
M  V30 30 N -2.877775 2.129179 -2.627894 0
M  V30 31 C -3.392043 0.918595 -2.810094 0
M  V30 32 N -2.581898 -0.153093 -2.702117 0
M  V30 33 C -1.277361 -0.024804 -2.416737 0
M  V30 34 C -0.388879 -1.080271 -2.287889 0
M  V30 35 C 4.459142 -6.035257 -1.020410 0
M  V30 36 C 4.330657 -7.292534 -1.870562 0
M  V30 37 P 3.187392 -7.106720 -3.239381 0
M  V30 38 O 2.587521 -8.478511 -3.563053 0
M  V30 39 O 1.879827 -6.091863 -2.865019 0
M  V30 40 O 3.950245 -6.462768 -4.609547 0
M  V30 41 H 3.974104 -6.637345 2.307705 0
M  V30 42 H 3.175970 -5.007904 2.154993 0
M  V30 43 H 2.249372 -6.419044 2.647253 0
M  V30 44 H 1.568998 -6.464598 0.497394 0
M  V30 45 H 3.060269 -7.481691 0.408500 0
M  V30 46 H 3.010767 -3.753429 0.455687 0
M  V30 47 H 1.755993 -4.248902 -0.793165 0
M  V30 48 H 3.554514 -3.932356 -2.577359 0
M  V30 49 H 4.649479 -3.333284 -1.302639 0
M  V30 50 H 3.645464 -1.443864 -2.281187 0
M  V30 51 H 3.147982 -1.657142 -0.587363 0
M  V30 52 H 2.469214 0.497218 -1.580684 0
M  V30 53 H 0.931394 2.492006 -1.793575 0
M  V30 54 H -0.953059 4.305136 -2.977253 0
M  V30 55 H -1.837662 2.417107 0.335800 0
M  V30 56 H -1.536619 2.784958 2.923635 0
M  V30 57 H -1.113883 4.408689 3.478969 0
M  V30 58 H -2.997177 3.333075 5.032832 0
M  V30 59 H -4.519036 3.031394 6.791234 0
M  V30 60 H -6.726731 3.125317 7.720508 0
M  V30 61 H -8.630511 3.888514 6.472565 0
M  V30 62 H -6.064092 4.524328 3.156958 0
M  V30 63 H -1.021302 6.391550 1.522974 0
M  V30 64 H -4.441291 0.796719 -3.041108 0
M  V30 65 H -0.860888 -2.062745 -2.447813 0
M  V30 66 H 4.921682 -5.234427 -1.627832 0
M  V30 67 H 5.192000 -6.315940 -0.205054 0
M  V30 68 H 4.054585 -8.160406 -1.237785 0
M  V30 69 H 5.353114 -7.517293 -2.270189 0
M  V30 70 H 1.004460 -6.531417 -3.006295 0
M  V30 71 H 3.235555 -6.256844 -5.256739 0
M  V30 END ATOM
M  V30 BEGIN BOND
M  V30 1 1 1 2
M  V30 2 1 2 3
M  V30 3 1 3 4
M  V30 4 1 4 5
M  V30 5 1 5 6
M  V30 6 1 6 7
M  V30 7 1 7 8
M  V30 8 2 8 9
M  V30 9 1 9 10
M  V30 10 2 10 11
M  V30 11 1 11 12
M  V30 12 1 12 13
M  V30 13 1 13 14
M  V30 14 1 14 15
M  V30 15 2 15 16
M  V30 16 1 16 17
M  V30 17 1 17 18
M  V30 18 2 18 19
M  V30 19 1 18 20
M  V30 20 1 20 21
M  V30 21 2 21 22
M  V30 22 1 22 23
M  V30 23 2 23 24
M  V30 24 1 24 25
M  V30 25 1 25 26
M  V30 26 2 25 27
M  V30 27 1 16 28
M  V30 28 1 28 29
M  V30 29 2 12 30
M  V30 30 1 30 31
M  V30 31 2 31 32
M  V30 32 1 32 33
M  V30 33 2 33 34
M  V30 34 1 3 35
M  V30 35 1 35 36
M  V30 36 1 36 37
M  V30 37 2 37 38
M  V30 38 1 37 39
M  V30 39 1 37 40
M  V30 40 1 34 8
M  V30 41 1 33 11
M  V30 42 2 29 14
M  V30 43 1 27 21
M  V30 44 1 1 41
M  V30 45 1 1 42
M  V30 46 1 1 43
M  V30 47 1 2 44
M  V30 48 1 2 45
M  V30 49 1 4 46
M  V30 50 1 4 47
M  V30 51 1 5 48
M  V30 52 1 5 49
M  V30 53 1 6 50
M  V30 54 1 6 51
M  V30 55 1 9 52
M  V30 56 1 10 53
M  V30 57 1 13 54
M  V30 58 1 15 55
M  V30 59 1 17 56
M  V30 60 1 17 57
M  V30 61 1 20 58
M  V30 62 1 22 59
M  V30 63 1 23 60
M  V30 64 1 24 61
M  V30 65 1 27 62
M  V30 66 1 28 63
M  V30 67 1 31 64
M  V30 68 1 34 65
M  V30 69 1 35 66
M  V30 70 1 35 67
M  V30 71 1 36 68
M  V30 72 1 36 69
M  V30 73 1 39 70
M  V30 74 1 40 71
M  V30 END BOND
M  V30 END CTAB
M  END
>  <Dataset>  (921) 
ChEMBL_Kinases

>  <Ligand_Instance>  (921) 
nan

>  <PDB_ID>  (921) 
nan

>  <Standardized_SMILES>  (921) 
CCN(CCCOc1ccc2c(Nc3cc(CC(=O)Nc4cccc(F)c4)[nH]n3)ncnc2c1)CCP(=O)(O)O

>  <Name>  (921) 
nan

>  <Pocket>  (921) 
nan

>  <ATP_Site>  (921) 
nan

>  <Peripheral>  (921) 
nan

>  <Num_H_Atoms_ProtBoundConf>  (921) 
nan

>  <Num_Resolved_Atoms>  (921) 
nan

>  <Num_Not_Resolved_Atoms>  (921) 
nan

$$$$
CHEMBL457614
     RDKit          3D

  0  0  0  0  0  0  0  0  0  0999 V3000
M  V30 BEGIN CTAB
M  V30 COUNTS 46 48 0 0 0
M  V30 BEGIN ATOM
M  V30 1 C 0.205781 -4.471039 5.178428 0
M  V30 2 C -0.339843 -4.473151 3.775076 0
M  V30 3 C -1.822069 -4.141196 3.884715 0
M  V30 4 O 0.353321 -3.533927 3.021611 0
M  V30 5 C 0.848489 -3.729657 1.723856 0
M  V30 6 C 1.576386 -2.775067 1.002790 0
M  V30 7 C 1.883673 -3.345019 -0.246601 0
M  V30 8 N 2.641655 -2.412140 -1.028845 0
M  V30 9 C 2.030855 -1.201511 -1.454736 0
M  V30 10 N 1.928517 -0.353090 -0.414985 0
M  V30 11 C 1.419106 0.877849 -0.455365 0
M  V30 12 N 1.336800 1.718057 0.706958 0
M  V30 13 C 0.842758 3.060963 0.789714 0 CFG=1
M  V30 14 C 1.725221 3.911814 -0.096827 0
M  V30 15 C -0.531044 3.094324 0.228503 0
M  V30 16 C -1.496072 2.108443 0.463123 0
M  V30 17 C -2.751031 2.297927 -0.126244 0
M  V30 18 C -3.046177 3.412973 -0.915001 0
M  V30 19 F -4.253198 3.604636 -1.482970 0
M  V30 20 C -2.055078 4.346827 -1.108897 0
M  V30 21 N -0.875087 4.140556 -0.538252 0
M  V30 22 N 0.963919 1.334798 -1.621823 0
M  V30 23 C 1.020235 0.572388 -2.717071 0
M  V30 24 C 1.557598 -0.719021 -2.653482 0
M  V30 25 Cl 1.748491 -1.911121 -3.930776 0
M  V30 26 N 1.351045 -4.582823 -0.243359 0
M  V30 27 N 0.745047 -4.804433 0.915156 0
M  V30 28 H 1.161948 -5.001800 5.280314 0
M  V30 29 H 0.412556 -3.400338 5.443379 0
M  V30 30 H -0.566484 -4.789375 5.934160 0
M  V30 31 H -0.246301 -5.498713 3.355127 0
M  V30 32 H -2.433491 -5.056736 3.667327 0
M  V30 33 H -2.113259 -3.328383 3.198265 0
M  V30 34 H -2.099754 -3.826874 4.909992 0
M  V30 35 H 1.776165 -1.815645 1.476912 0
M  V30 36 H 3.631878 -2.567409 -1.315941 0
M  V30 37 H 1.690984 1.254719 1.599576 0
M  V30 38 H 0.875331 3.393709 1.839787 0
M  V30 39 H 2.760361 3.960882 0.282392 0
M  V30 40 H 1.249021 4.902044 -0.172979 0
M  V30 41 H 1.743312 3.498062 -1.116577 0
M  V30 42 H -1.235473 1.271102 1.069138 0
M  V30 43 H -3.500824 1.557430 0.040266 0
M  V30 44 H -2.178650 5.261605 -1.709115 0
M  V30 45 H 0.698949 0.801492 -3.716819 0
M  V30 46 H 0.252731 -5.690602 1.168002 0
M  V30 END ATOM
M  V30 BEGIN BOND
M  V30 1 1 1 2
M  V30 2 1 2 3
M  V30 3 1 2 4
M  V30 4 1 4 5
M  V30 5 2 5 6
M  V30 6 1 6 7
M  V30 7 1 7 8
M  V30 8 1 8 9
M  V30 9 2 9 10
M  V30 10 1 10 11
M  V30 11 1 11 12
M  V30 12 1 12 13
M  V30 13 1 13 14
M  V30 14 1 13 15
M  V30 15 2 15 16
M  V30 16 1 16 17
M  V30 17 2 17 18
M  V30 18 1 18 19
M  V30 19 1 18 20
M  V30 20 2 20 21
M  V30 21 2 11 22
M  V30 22 1 22 23
M  V30 23 2 23 24
M  V30 24 1 24 25
M  V30 25 2 7 26
M  V30 26 1 26 27
M  V30 27 1 27 5
M  V30 28 1 24 9
M  V30 29 1 21 15
M  V30 30 1 1 28
M  V30 31 1 1 29
M  V30 32 1 1 30
M  V30 33 1 2 31
M  V30 34 1 3 32
M  V30 35 1 3 33
M  V30 36 1 3 34
M  V30 37 1 6 35
M  V30 38 1 8 36
M  V30 39 1 12 37
M  V30 40 1 13 38 CFG=1
M  V30 41 1 14 39
M  V30 42 1 14 40
M  V30 43 1 14 41
M  V30 44 1 16 42
M  V30 45 1 17 43
M  V30 46 1 20 44
M  V30 47 1 23 45
M  V30 48 1 27 46
M  V30 END BOND
M  V30 END CTAB
M  END
>  <Dataset>  (922) 
ChEMBL_Kinases

>  <Ligand_Instance>  (922) 
nan

>  <PDB_ID>  (922) 
nan

>  <Standardized_SMILES>  (922) 
CC(C)Oc1cc(Nc2nc(N[C@@H](C)c3ccc(F)cn3)ncc2Cl)n[nH]1

>  <Name>  (922) 
nan

>  <Pocket>  (922) 
nan

>  <ATP_Site>  (922) 
nan

>  <Peripheral>  (922) 
nan

>  <Num_H_Atoms_ProtBoundConf>  (922) 
nan

>  <Num_Resolved_Atoms>  (922) 
nan

>  <Num_Not_Resolved_Atoms>  (922) 
nan

$$$$
CHEMBL4633727
     RDKit          3D

  0  0  0  0  0  0  0  0  0  0999 V3000
M  V30 BEGIN CTAB
M  V30 COUNTS 43 46 0 0 0
M  V30 BEGIN ATOM
M  V30 1 O 1.511923 -0.948501 0.845169 0
M  V30 2 C 1.283398 0.152345 0.235530 0
M  V30 3 N 2.343579 0.877402 -0.368575 0
M  V30 4 C 3.666859 0.327634 -0.266438 0
M  V30 5 C 4.507162 1.307090 0.528163 0
M  V30 6 C 5.053195 2.432983 -0.310865 0
M  V30 7 O 5.439123 2.046100 -1.586331 0
M  V30 8 C 5.664714 0.686745 -1.594457 0
M  V30 9 C 4.281820 0.031700 -1.615001 0
M  V30 10 C -0.069925 0.703356 0.137681 0
M  V30 11 N -0.456595 1.844679 -0.469268 0
M  V30 12 N -1.770347 2.010099 -0.346835 0
M  V30 13 C -2.251366 0.955360 0.354314 0
M  V30 14 C -3.528885 0.626867 0.761332 0
M  V30 15 C -3.800335 -0.517425 1.480114 0
M  V30 16 C -2.751117 -1.338661 1.787863 0
M  V30 17 C -2.848922 -2.593022 2.542349 0
M  V30 18 C -3.911853 -3.366126 2.107553 0
M  V30 19 C -4.177621 -4.603764 2.700065 0
M  V30 20 C -3.360393 -5.041973 3.727705 0
M  V30 21 C -2.306042 -4.256904 4.146768 0
M  V30 22 F -1.473386 -4.638809 5.150451 0
M  V30 23 C -2.038333 -3.037914 3.568520 0
M  V30 24 F -1.038951 -2.183674 3.891815 0
M  V30 25 C -1.437142 -1.059260 1.403636 0
M  V30 26 C -1.191202 0.102783 0.678676 0
M  V30 27 H 2.252742 1.780083 -0.884629 0
M  V30 28 H 3.696310 -0.631268 0.292983 0
M  V30 29 H 5.288222 0.805309 1.140380 0
M  V30 30 H 3.819999 1.766099 1.287706 0
M  V30 31 H 4.241881 3.192714 -0.448548 0
M  V30 32 H 5.936355 2.867309 0.204479 0
M  V30 33 H 6.160655 0.360180 -0.650592 0
M  V30 34 H 6.252802 0.422527 -2.497869 0
M  V30 35 H 4.475485 -1.050648 -1.782065 0
M  V30 36 H 3.679125 0.402203 -2.458404 0
M  V30 37 H -2.302302 2.829147 -0.739822 0
M  V30 38 H -4.387038 1.269590 0.526672 0
M  V30 39 H -4.767077 -0.844639 1.834386 0
M  V30 40 H -4.622035 -3.146068 1.322457 0
M  V30 41 H -4.987136 -5.261744 2.415392 0
M  V30 42 H -3.523916 -5.988183 4.216288 0
M  V30 43 H -0.578460 -1.671100 1.620038 0
M  V30 END ATOM
M  V30 BEGIN BOND
M  V30 1 2 1 2
M  V30 2 1 2 3
M  V30 3 1 3 4
M  V30 4 1 4 5
M  V30 5 1 5 6
M  V30 6 1 6 7
M  V30 7 1 7 8
M  V30 8 1 8 9
M  V30 9 1 2 10
M  V30 10 2 10 11
M  V30 11 1 11 12
M  V30 12 1 12 13
M  V30 13 2 13 14
M  V30 14 1 14 15
M  V30 15 2 15 16
M  V30 16 1 16 17
M  V30 17 2 17 18
M  V30 18 1 18 19
M  V30 19 2 19 20
M  V30 20 1 20 21
M  V30 21 1 21 22
M  V30 22 2 21 23
M  V30 23 1 23 24
M  V30 24 1 16 25
M  V30 25 2 25 26
M  V30 26 1 9 4
M  V30 27 1 26 10
M  V30 28 1 26 13
M  V30 29 1 23 17
M  V30 30 1 3 27
M  V30 31 1 4 28
M  V30 32 1 5 29
M  V30 33 1 5 30
M  V30 34 1 6 31
M  V30 35 1 6 32
M  V30 36 1 8 33
M  V30 37 1 8 34
M  V30 38 1 9 35
M  V30 39 1 9 36
M  V30 40 1 12 37
M  V30 41 1 14 38
M  V30 42 1 15 39
M  V30 43 1 18 40
M  V30 44 1 19 41
M  V30 45 1 20 42
M  V30 46 1 25 43
M  V30 END BOND
M  V30 END CTAB
M  END
>  <Dataset>  (923) 
ChEMBL_Kinases

>  <Ligand_Instance>  (923) 
nan

>  <PDB_ID>  (923) 
nan

>  <Standardized_SMILES>  (923) 
O=C(NC1CCOCC1)c1n[nH]c2ccc(-c3cccc(F)c3F)cc12

>  <Name>  (923) 
nan

>  <Pocket>  (923) 
nan

>  <ATP_Site>  (923) 
nan

>  <Peripheral>  (923) 
nan

>  <Num_H_Atoms_ProtBoundConf>  (923) 
nan

>  <Num_Resolved_Atoms>  (923) 
nan

>  <Num_Not_Resolved_Atoms>  (923) 
nan

$$$$
CHEMBL4575999
     RDKit          3D

  0  0  0  0  0  0  0  0  0  0999 V3000
M  V30 BEGIN CTAB
M  V30 COUNTS 53 57 0 0 0
M  V30 BEGIN ATOM
M  V30 1 C -1.116481 -1.861452 -0.151148 0
M  V30 2 C -1.639105 -1.390609 1.130022 0
M  V30 3 C -0.854691 -0.502075 1.818157 0
M  V30 4 C 0.447790 0.036481 1.439371 0
M  V30 5 C 0.638904 1.418338 1.579970 0
M  V30 6 C 1.810390 2.124828 1.275046 0
M  V30 7 C 2.859709 1.370516 0.793455 0
M  V30 8 N 4.055466 2.072014 0.478367 0
M  V30 9 C 4.083194 3.509396 0.662736 0
M  V30 10 C 5.292786 4.025761 -0.127543 0
M  V30 11 N 6.531649 3.538723 0.451072 0
M  V30 12 C 6.526464 2.115202 0.604653 0
M  V30 13 C 5.293156 1.508489 -0.021104 0
M  V30 14 C 2.715606 0.007706 0.639268 0
M  V30 15 C 1.542125 -0.650423 0.952220 0
M  V30 16 C -1.312154 -0.017313 3.048402 0
M  V30 17 N -2.505234 -0.394482 3.586700 0
M  V30 18 C -3.264628 -1.270464 2.894876 0
M  V30 19 C -2.847066 -1.781567 1.660315 0
M  V30 20 C -3.694270 -2.727419 0.941763 0
M  V30 21 C -5.022094 -2.284753 0.918191 0
M  V30 22 C -6.017928 -3.008156 0.298564 0
M  V30 23 C -5.717802 -4.204753 -0.321540 0
M  V30 24 C -4.411516 -4.631003 -0.293024 0
M  V30 25 C -3.412004 -3.925374 0.317299 0
M  V30 26 C -4.246481 -5.928248 -0.998588 0
M  V30 27 N -5.580715 -6.224814 -1.445183 0
M  V30 28 C -6.500624 -5.209276 -1.057261 0
M  V30 29 O -7.742032 -5.126558 -1.268236 0
M  V30 30 H -2.019786 -2.108760 -0.784026 0
M  V30 31 H -0.506987 -2.766731 -0.131251 0
M  V30 32 H -0.628711 -1.035801 -0.748159 0
M  V30 33 H -0.201809 2.014531 1.964574 0
M  V30 34 H 1.819016 3.185106 1.431632 0
M  V30 35 H 4.227110 3.820260 1.700311 0
M  V30 36 H 3.207722 3.990036 0.177721 0
M  V30 37 H 5.343450 5.128480 -0.131068 0
M  V30 38 H 5.242550 3.663536 -1.190237 0
M  V30 39 H 6.723644 4.009924 1.351181 0
M  V30 40 H 6.647571 1.746178 1.623556 0
M  V30 41 H 7.384211 1.728716 0.002613 0
M  V30 42 H 5.298423 0.434145 0.254575 0
M  V30 43 H 5.302546 1.579213 -1.124950 0
M  V30 44 H 3.535864 -0.582149 0.262500 0
M  V30 45 H 1.399045 -1.716119 0.844234 0
M  V30 46 H -0.785893 0.685827 3.684068 0
M  V30 47 H -4.218075 -1.588796 3.297583 0
M  V30 48 H -5.404561 -1.372614 1.358908 0
M  V30 49 H -7.054203 -2.716436 0.249532 0
M  V30 50 H -2.361557 -4.168144 0.399533 0
M  V30 51 H -3.814764 -6.712396 -0.347681 0
M  V30 52 H -3.631943 -5.751461 -1.905894 0
M  V30 53 H -5.829207 -7.069245 -1.978468 0
M  V30 END ATOM
M  V30 BEGIN BOND
M  V30 1 1 1 2
M  V30 2 2 2 3
M  V30 3 1 3 4
M  V30 4 2 4 5
M  V30 5 1 5 6
M  V30 6 2 6 7
M  V30 7 1 7 8
M  V30 8 1 8 9
M  V30 9 1 9 10
M  V30 10 1 10 11
M  V30 11 1 11 12
M  V30 12 1 12 13
M  V30 13 1 7 14
M  V30 14 2 14 15
M  V30 15 1 3 16
M  V30 16 2 16 17
M  V30 17 1 17 18
M  V30 18 2 18 19
M  V30 19 1 19 20
M  V30 20 2 20 21
M  V30 21 1 21 22
M  V30 22 2 22 23
M  V30 23 1 23 24
M  V30 24 2 24 25
M  V30 25 1 24 26
M  V30 26 1 26 27
M  V30 27 1 27 28
M  V30 28 2 28 29
M  V30 29 1 19 2
M  V30 30 1 25 20
M  V30 31 1 15 4
M  V30 32 1 28 23
M  V30 33 1 13 8
M  V30 34 1 1 30
M  V30 35 1 1 31
M  V30 36 1 1 32
M  V30 37 1 5 33
M  V30 38 1 6 34
M  V30 39 1 9 35
M  V30 40 1 9 36
M  V30 41 1 10 37
M  V30 42 1 10 38
M  V30 43 1 11 39
M  V30 44 1 12 40
M  V30 45 1 12 41
M  V30 46 1 13 42
M  V30 47 1 13 43
M  V30 48 1 14 44
M  V30 49 1 15 45
M  V30 50 1 16 46
M  V30 51 1 18 47
M  V30 52 1 21 48
M  V30 53 1 22 49
M  V30 54 1 25 50
M  V30 55 1 26 51
M  V30 56 1 26 52
M  V30 57 1 27 53
M  V30 END BOND
M  V30 END CTAB
M  END
>  <Dataset>  (924) 
ChEMBL_Kinases

>  <Ligand_Instance>  (924) 
nan

>  <PDB_ID>  (924) 
nan

>  <Standardized_SMILES>  (924) 
Cc1c(-c2ccc(N3CCNCC3)cc2)cncc1-c1ccc2c(c1)CNC2=O

>  <Name>  (924) 
nan

>  <Pocket>  (924) 
nan

>  <ATP_Site>  (924) 
nan

>  <Peripheral>  (924) 
nan

>  <Num_H_Atoms_ProtBoundConf>  (924) 
nan

>  <Num_Resolved_Atoms>  (924) 
nan

>  <Num_Not_Resolved_Atoms>  (924) 
nan

$$$$
CHEMBL4633764
     RDKit          3D

  0  0  0  0  0  0  0  0  0  0999 V3000
M  V30 BEGIN CTAB
M  V30 COUNTS 37 40 0 0 0
M  V30 BEGIN ATOM
M  V30 1 C 0.437758 -2.355933 4.550587 0
M  V30 2 C 0.117508 -3.580804 5.016093 0
M  V30 3 S -0.094295 -4.514715 3.395514 0
M  V30 4 C 0.272316 -3.140367 2.363552 0
M  V30 5 C 0.279242 -3.390586 0.915850 0
M  V30 6 C 0.289025 -4.720390 0.505180 0
M  V30 7 N 0.293834 -5.081320 -0.812480 0
M  V30 8 C 0.288503 -4.157058 -1.770293 0
M  V30 9 C 0.276765 -2.821608 -1.474358 0
M  V30 10 C 0.249403 -1.861293 -2.448170 0
M  V30 11 C 0.212642 -0.508376 -2.093843 0
M  V30 12 C 0.204289 -0.172493 -0.732264 0
M  V30 13 O 0.165672 1.196188 -0.625589 0
M  V30 14 C 0.149744 1.827352 0.620851 0 CFG=1
M  V30 15 C 1.351666 2.787733 0.620831 0
M  V30 16 C 0.850073 3.782376 -0.426548 0
M  V30 17 N -0.580445 3.865312 -0.226235 0
M  V30 18 C -0.965964 2.864382 0.716980 0
M  V30 19 C 0.233984 -1.195433 0.174256 0
M  V30 20 C 0.272225 -2.524029 -0.142724 0
M  V30 21 C 0.496924 -2.208850 3.234111 0
M  V30 22 H 0.564048 -1.804334 5.456460 0
M  V30 23 H -0.105539 -4.399693 5.872206 0
M  V30 24 H 0.296154 -5.622483 1.117193 0
M  V30 25 H 0.293974 -4.459059 -2.804147 0
M  V30 26 H 0.258144 -2.218889 -3.478969 0
M  V30 27 H 0.194451 0.137805 -2.975689 0
M  V30 28 H 0.171476 1.163143 1.478213 0
M  V30 29 H 1.506757 3.246912 1.603265 0
M  V30 30 H 2.256997 2.300307 0.221928 0
M  V30 31 H 1.019645 3.325077 -1.417115 0
M  V30 32 H 1.342364 4.750739 -0.343059 0
M  V30 33 H -1.128457 3.823758 -1.099549 0
M  V30 34 H -1.962129 2.427079 0.524949 0
M  V30 35 H -0.901253 3.282563 1.743429 0
M  V30 36 H 0.199022 -0.796529 1.150160 0
M  V30 37 H 0.791125 -1.202909 3.032396 0
M  V30 END ATOM
M  V30 BEGIN BOND
M  V30 1 2 1 2
M  V30 2 1 2 3
M  V30 3 1 3 4
M  V30 4 1 4 5
M  V30 5 2 5 6
M  V30 6 1 6 7
M  V30 7 2 7 8
M  V30 8 1 8 9
M  V30 9 2 9 10
M  V30 10 1 10 11
M  V30 11 2 11 12
M  V30 12 1 12 13
M  V30 13 1 13 14
M  V30 14 1 14 15
M  V30 15 1 15 16
M  V30 16 1 16 17
M  V30 17 1 17 18
M  V30 18 1 12 19
M  V30 19 2 19 20
M  V30 20 2 4 21
M  V30 21 1 21 1
M  V30 22 1 20 5
M  V30 23 1 20 9
M  V30 24 1 18 14
M  V30 25 1 1 22
M  V30 26 1 2 23
M  V30 27 1 6 24
M  V30 28 1 8 25
M  V30 29 1 10 26
M  V30 30 1 11 27
M  V30 31 1 14 28 CFG=1
M  V30 32 1 15 29
M  V30 33 1 15 30
M  V30 34 1 16 31
M  V30 35 1 16 32
M  V30 36 1 17 33
M  V30 37 1 18 34
M  V30 38 1 18 35
M  V30 39 1 19 36
M  V30 40 1 21 37
M  V30 END BOND
M  V30 END CTAB
M  END
>  <Dataset>  (925) 
ChEMBL_Kinases

>  <Ligand_Instance>  (925) 
nan

>  <PDB_ID>  (925) 
nan

>  <Standardized_SMILES>  (925) 
c1csc(-c2cncc3ccc(O[C@H]4CCNC4)cc23)c1

>  <Name>  (925) 
nan

>  <Pocket>  (925) 
nan

>  <ATP_Site>  (925) 
nan

>  <Peripheral>  (925) 
nan

>  <Num_H_Atoms_ProtBoundConf>  (925) 
nan

>  <Num_Resolved_Atoms>  (925) 
nan

>  <Num_Not_Resolved_Atoms>  (925) 
nan

$$$$
CHEMBL4575936
     RDKit          3D

  0  0  0  0  0  0  0  0  0  0999 V3000
M  V30 BEGIN CTAB
M  V30 COUNTS 60 65 0 0 0
M  V30 BEGIN ATOM
M  V30 1 C 2.068463 -6.563468 5.085500 0
M  V30 2 C 0.863775 -5.888315 4.878522 0
M  V30 3 C 0.970330 -4.690160 4.202378 0
M  V30 4 C 2.141747 -4.129953 3.731939 0
M  V30 5 C 2.144258 -2.852396 3.026105 0
M  V30 6 N 2.729769 -1.688503 3.366314 0
M  V30 7 C 2.464972 -0.759684 2.403563 0
M  V30 8 C 2.762215 0.566516 2.167716 0
M  V30 9 C 2.292163 1.198689 1.023859 0
M  V30 10 C 1.523749 0.516660 0.107320 0
M  V30 11 N 1.011793 1.098931 -1.079892 0
M  V30 12 C 1.210889 2.461703 -1.519132 0
M  V30 13 C -0.103824 3.252179 -1.457739 0
M  V30 14 C -1.216025 2.254003 -1.641771 0
M  V30 15 N -2.431064 2.832247 -2.129037 0
M  V30 16 C -3.000219 3.836579 -1.296929 0
M  V30 17 C -4.411798 3.427278 -0.974883 0
M  V30 18 C -4.757199 2.396981 -2.029314 0
M  V30 19 C -3.417862 1.857564 -2.470373 0
M  V30 20 C -0.721014 1.272502 -2.707283 0
M  V30 21 C 0.202522 0.314081 -1.987706 0
M  V30 22 N 1.257671 -0.771955 0.374886 0
M  V30 23 N 1.710171 -1.365255 1.467488 0
M  V30 24 C 1.483290 -2.666940 1.808535 0
M  V30 25 C 0.721371 -3.671026 1.082496 0
M  V30 26 C -0.600346 -3.285846 0.943762 0
M  V30 27 C -1.519440 -4.101587 0.276253 0
M  V30 28 N -1.046588 -5.267987 -0.216182 0
M  V30 29 C 0.219157 -5.647347 -0.088877 0
M  V30 30 C 1.157069 -4.872600 0.561898 0
M  V30 31 C 3.313865 -4.826901 3.955454 0
M  V30 32 C 3.258563 -6.033501 4.629192 0
M  V30 33 H 1.999329 -7.510458 5.617797 0
M  V30 34 H -0.085001 -6.266857 5.217915 0
M  V30 35 H 0.062342 -4.131176 4.018648 0
M  V30 36 H 3.360665 1.082589 2.890175 0
M  V30 37 H 2.536692 2.220536 0.868726 0
M  V30 38 H 1.586205 2.472842 -2.580596 0
M  V30 39 H 2.011610 2.967781 -0.945382 0
M  V30 40 H -0.138085 3.680661 -0.431246 0
M  V30 41 H -0.060429 4.019213 -2.251936 0
M  V30 42 H -1.342817 1.705946 -0.686906 0
M  V30 43 H -2.458136 4.060396 -0.366127 0
M  V30 44 H -3.029611 4.799939 -1.884613 0
M  V30 45 H -5.089011 4.294839 -1.109637 0
M  V30 46 H -4.511140 2.989920 0.030458 0
M  V30 47 H -5.321118 2.867497 -2.860794 0
M  V30 48 H -5.418198 1.587576 -1.624834 0
M  V30 49 H -3.386992 1.692294 -3.564982 0
M  V30 50 H -3.243432 0.852648 -1.999474 0
M  V30 51 H -0.150376 1.821494 -3.496783 0
M  V30 52 H -1.582025 0.801856 -3.179823 0
M  V30 53 H 0.799427 -0.323268 -2.667600 0
M  V30 54 H -0.480679 -0.329723 -1.360029 0
M  V30 55 H -1.060904 -2.366289 1.309310 0
M  V30 56 H -2.572874 -3.830588 0.146613 0
M  V30 57 H 0.603895 -6.585487 -0.483874 0
M  V30 58 H 2.206958 -5.067276 0.730711 0
M  V30 59 H 4.269211 -4.449262 3.615443 0
M  V30 60 H 4.168747 -6.605096 4.819650 0
M  V30 END ATOM
M  V30 BEGIN BOND
M  V30 1 2 1 2
M  V30 2 1 2 3
M  V30 3 2 3 4
M  V30 4 1 4 5
M  V30 5 1 5 6
M  V30 6 2 6 7
M  V30 7 1 7 8
M  V30 8 2 8 9
M  V30 9 1 9 10
M  V30 10 1 10 11
M  V30 11 1 11 12
M  V30 12 1 12 13
M  V30 13 1 13 14
M  V30 14 1 14 15
M  V30 15 1 15 16
M  V30 16 1 16 17
M  V30 17 1 17 18
M  V30 18 1 18 19
M  V30 19 1 14 20
M  V30 20 1 20 21
M  V30 21 2 10 22
M  V30 22 1 22 23
M  V30 23 1 23 24
M  V30 24 1 24 25
M  V30 25 2 25 26
M  V30 26 1 26 27
M  V30 27 2 27 28
M  V30 28 1 28 29
M  V30 29 2 29 30
M  V30 30 1 4 31
M  V30 31 2 31 32
M  V30 32 1 32 1
M  V30 33 2 24 5
M  V30 34 1 30 25
M  V30 35 1 23 7
M  V30 36 1 21 11
M  V30 37 1 19 15
M  V30 38 1 1 33
M  V30 39 1 2 34
M  V30 40 1 3 35
M  V30 41 1 8 36
M  V30 42 1 9 37
M  V30 43 1 12 38
M  V30 44 1 12 39
M  V30 45 1 13 40
M  V30 46 1 13 41
M  V30 47 1 14 42
M  V30 48 1 16 43
M  V30 49 1 16 44
M  V30 50 1 17 45
M  V30 51 1 17 46
M  V30 52 1 18 47
M  V30 53 1 18 48
M  V30 54 1 19 49
M  V30 55 1 19 50
M  V30 56 1 20 51
M  V30 57 1 20 52
M  V30 58 1 21 53
M  V30 59 1 21 54
M  V30 60 1 26 55
M  V30 61 1 27 56
M  V30 62 1 29 57
M  V30 63 1 30 58
M  V30 64 1 31 59
M  V30 65 1 32 60
M  V30 END BOND
M  V30 END CTAB
M  END
>  <Dataset>  (926) 
ChEMBL_Kinases

>  <Ligand_Instance>  (926) 
nan

>  <PDB_ID>  (926) 
nan

>  <Standardized_SMILES>  (926) 
c1ccc(-c2nc3ccc(N4CCC(N5CCCC5)CC4)nn3c2-c2ccncc2)cc1

>  <Name>  (926) 
nan

>  <Pocket>  (926) 
nan

>  <ATP_Site>  (926) 
nan

>  <Peripheral>  (926) 
nan

>  <Num_H_Atoms_ProtBoundConf>  (926) 
nan

>  <Num_Resolved_Atoms>  (926) 
nan

>  <Num_Not_Resolved_Atoms>  (926) 
nan

$$$$
CHEMBL4633800
     RDKit          3D

  0  0  0  0  0  0  0  0  0  0999 V3000
M  V30 BEGIN CTAB
M  V30 COUNTS 58 62 0 0 0
M  V30 BEGIN ATOM
M  V30 1 C 2.481650 -1.457713 5.915389 0
M  V30 2 C 3.839380 -0.947449 5.568413 0
M  V30 3 C 4.453961 -1.775904 4.473634 0
M  V30 4 C 3.685216 0.536791 5.140545 0
M  V30 5 N 2.841679 0.649457 4.024024 0
M  V30 6 C 1.999257 0.821899 2.901208 0
M  V30 7 N 1.593269 1.909805 2.238108 0
M  V30 8 C 0.776821 1.879630 1.186853 0
M  V30 9 C 0.417916 3.140185 0.560495 0
M  V30 10 C -0.433285 3.007364 -0.514614 0
M  V30 11 C -0.801631 4.203070 -1.144168 0
M  V30 12 C -0.311723 5.415423 -0.674315 0
M  V30 13 C 0.549126 5.466848 0.423841 0
M  V30 14 C 0.933722 4.310555 1.068995 0
M  V30 15 N 0.383075 0.662202 0.832877 0
M  V30 16 N 0.713987 -0.473216 1.404509 0
M  V30 17 C 0.321594 -1.707680 1.054940 0
M  V30 18 C -0.566933 -2.076144 -0.037516 0
M  V30 19 C -1.694433 -1.300408 -0.154849 0
M  V30 20 C -2.638673 -1.534346 -1.150193 0
M  V30 21 C -2.434294 -2.569966 -2.037592 0
M  V30 22 C -3.442549 -2.789748 -3.070642 0
M  V30 23 O -4.427953 -1.997987 -3.086573 0
M  V30 24 N -3.421643 -3.802537 -4.053572 0
M  V30 25 C -4.471887 -3.930246 -5.030807 0
M  V30 26 C -4.928338 -5.208112 -5.571828 0
M  V30 27 C -4.133391 -4.251904 -6.466380 0
M  V30 28 C -1.296671 -3.334011 -1.900535 0
M  V30 29 C -0.352108 -3.112249 -0.917279 0
M  V30 30 C 0.956663 -2.510307 1.976667 0
M  V30 31 N 1.655795 -1.719296 2.778924 0
M  V30 32 C 1.536868 -0.429562 2.462118 0
M  V30 33 H 2.211335 -2.417776 5.428377 0
M  V30 34 H 2.434661 -1.690764 7.017117 0
M  V30 35 H 1.684800 -0.715423 5.691427 0
M  V30 36 H 4.551741 -0.981027 6.420340 0
M  V30 37 H 5.493835 -2.102478 4.707213 0
M  V30 38 H 4.390545 -1.279129 3.483617 0
M  V30 39 H 3.867909 -2.713943 4.367454 0
M  V30 40 H 4.709930 0.963983 5.027923 0
M  V30 41 H 3.220948 1.008477 6.057882 0
M  V30 42 H 3.015679 1.699982 4.105663 0
M  V30 43 H -0.799113 2.051745 -0.858916 0
M  V30 44 H -1.466934 4.199328 -1.997486 0
M  V30 45 H -0.617034 6.335295 -1.186883 0
M  V30 46 H 0.922688 6.429623 0.777022 0
M  V30 47 H 1.597166 4.290059 1.922897 0
M  V30 48 H -1.903118 -0.462093 0.529472 0
M  V30 49 H -3.512891 -0.884581 -1.191434 0
M  V30 50 H -2.607670 -4.455694 -4.039022 0
M  V30 51 H -5.266984 -3.147127 -4.931564 0
M  V30 52 H -4.442942 -6.182498 -5.448543 0
M  V30 53 H -6.010629 -5.333574 -5.836576 0
M  V30 54 H -3.099251 -4.514025 -6.717484 0
M  V30 55 H -4.714991 -3.771792 -7.278647 0
M  V30 56 H -1.129343 -4.147213 -2.592723 0
M  V30 57 H 0.538805 -3.699537 -0.799126 0
M  V30 58 H 0.890998 -3.592113 2.028587 0
M  V30 END ATOM
M  V30 BEGIN BOND
M  V30 1 1 1 2
M  V30 2 1 2 3
M  V30 3 1 2 4
M  V30 4 1 4 5
M  V30 5 1 5 6
M  V30 6 2 6 7
M  V30 7 1 7 8
M  V30 8 1 8 9
M  V30 9 2 9 10
M  V30 10 1 10 11
M  V30 11 2 11 12
M  V30 12 1 12 13
M  V30 13 2 13 14
M  V30 14 2 8 15
M  V30 15 1 15 16
M  V30 16 1 16 17
M  V30 17 1 17 18
M  V30 18 2 18 19
M  V30 19 1 19 20
M  V30 20 2 20 21
M  V30 21 1 21 22
M  V30 22 2 22 23
M  V30 23 1 22 24
M  V30 24 1 24 25
M  V30 25 1 25 26
M  V30 26 1 26 27
M  V30 27 1 21 28
M  V30 28 2 28 29
M  V30 29 2 17 30
M  V30 30 1 30 31
M  V30 31 2 31 32
M  V30 32 1 32 6
M  V30 33 1 14 9
M  V30 34 1 32 16
M  V30 35 1 29 18
M  V30 36 1 27 25
M  V30 37 1 1 33
M  V30 38 1 1 34
M  V30 39 1 1 35
M  V30 40 1 2 36
M  V30 41 1 3 37
M  V30 42 1 3 38
M  V30 43 1 3 39
M  V30 44 1 4 40
M  V30 45 1 4 41
M  V30 46 1 5 42
M  V30 47 1 10 43
M  V30 48 1 11 44
M  V30 49 1 12 45
M  V30 50 1 13 46
M  V30 51 1 14 47
M  V30 52 1 19 48
M  V30 53 1 20 49
M  V30 54 1 24 50
M  V30 55 1 25 51
M  V30 56 1 26 52
M  V30 57 1 26 53
M  V30 58 1 27 54
M  V30 59 1 27 55
M  V30 60 1 28 56
M  V30 61 1 29 57
M  V30 62 1 30 58
M  V30 END BOND
M  V30 END CTAB
M  END
>  <Dataset>  (927) 
ChEMBL_Kinases

>  <Ligand_Instance>  (927) 
nan

>  <PDB_ID>  (927) 
nan

>  <Standardized_SMILES>  (927) 
CC(C)CNc1nc(-c2ccccc2)nn2c(-c3ccc(C(=O)NC4CC4)cc3)cnc12

>  <Name>  (927) 
nan

>  <Pocket>  (927) 
nan

>  <ATP_Site>  (927) 
nan

>  <Peripheral>  (927) 
nan

>  <Num_H_Atoms_ProtBoundConf>  (927) 
nan

>  <Num_Resolved_Atoms>  (927) 
nan

>  <Num_Not_Resolved_Atoms>  (927) 
nan

$$$$
CHEMBL4633862
     RDKit          3D

  0  0  0  0  0  0  0  0  0  0999 V3000
M  V30 BEGIN CTAB
M  V30 COUNTS 34 36 0 0 0
M  V30 BEGIN ATOM
M  V30 1 C -2.548407 -0.167611 1.830496 0
M  V30 2 C -1.380142 -0.553682 1.210254 0
M  V30 3 C -0.390058 0.292022 0.760732 0
M  V30 4 N 0.804147 -0.122129 0.129362 0
M  V30 5 C 1.282880 -1.444420 -0.185295 0
M  V30 6 C 1.460254 -2.280592 1.039941 0
M  V30 7 C 0.942417 -3.671773 0.807205 0
M  V30 8 C 1.553387 -4.175830 -0.498313 0
M  V30 9 N 1.252673 -3.336065 -1.615202 0
M  V30 10 C 0.493707 -2.143120 -1.269054 0
M  V30 11 C -0.636277 1.628040 0.972705 0
M  V30 12 C 0.206421 2.639788 0.609054 0
M  V30 13 C -0.002017 3.983497 0.802395 0
M  V30 14 N -1.158395 4.348646 1.415164 0
M  V30 15 C -2.054048 3.400691 1.809946 0
M  V30 16 C -1.787382 2.067098 1.587596 0
M  V30 17 C -2.750774 1.183112 2.021152 0
M  V30 18 H -3.306355 -0.843950 2.172827 0
M  V30 19 H -1.307150 -1.609988 1.102207 0
M  V30 20 H 1.473233 0.604476 -0.175385 0
M  V30 21 H 2.326942 -1.353580 -0.626235 0
M  V30 22 H 0.889825 -1.833467 1.868761 0
M  V30 23 H 2.527672 -2.298459 1.380492 0
M  V30 24 H -0.140958 -3.625441 0.635365 0
M  V30 25 H 1.223411 -4.332675 1.647635 0
M  V30 26 H 1.159831 -5.197886 -0.742552 0
M  V30 27 H 2.635157 -4.239733 -0.360689 0
M  V30 28 H 2.105358 -3.006344 -2.129427 0
M  V30 29 H 0.447689 -1.546428 -2.200052 0
M  V30 30 H -0.526703 -2.368657 -0.967663 0
M  V30 31 H 1.138218 2.443760 0.121833 0
M  V30 32 H 0.682931 4.764648 0.504124 0
M  V30 33 H -2.965403 3.722278 2.295094 0
M  V30 34 H -3.653689 1.530291 2.503770 0
M  V30 END ATOM
M  V30 BEGIN BOND
M  V30 1 2 1 2
M  V30 2 1 2 3
M  V30 3 1 3 4
M  V30 4 1 4 5
M  V30 5 1 5 6
M  V30 6 1 6 7
M  V30 7 1 7 8
M  V30 8 1 8 9
M  V30 9 1 9 10
M  V30 10 2 3 11
M  V30 11 1 11 12
M  V30 12 2 12 13
M  V30 13 1 13 14
M  V30 14 2 14 15
M  V30 15 1 15 16
M  V30 16 2 16 17
M  V30 17 1 17 1
M  V30 18 1 10 5
M  V30 19 1 16 11
M  V30 20 1 1 18
M  V30 21 1 2 19
M  V30 22 1 4 20
M  V30 23 1 5 21
M  V30 24 1 6 22
M  V30 25 1 6 23
M  V30 26 1 7 24
M  V30 27 1 7 25
M  V30 28 1 8 26
M  V30 29 1 8 27
M  V30 30 1 9 28
M  V30 31 1 10 29
M  V30 32 1 10 30
M  V30 33 1 12 31
M  V30 34 1 13 32
M  V30 35 1 15 33
M  V30 36 1 17 34
M  V30 END BOND
M  V30 END CTAB
M  END
>  <Dataset>  (928) 
ChEMBL_Kinases

>  <Ligand_Instance>  (928) 
nan

>  <PDB_ID>  (928) 
nan

>  <Standardized_SMILES>  (928) 
c1cc(NC2CCCNC2)c2ccncc2c1

>  <Name>  (928) 
nan

>  <Pocket>  (928) 
nan

>  <ATP_Site>  (928) 
nan

>  <Peripheral>  (928) 
nan

>  <Num_H_Atoms_ProtBoundConf>  (928) 
nan

>  <Num_Resolved_Atoms>  (928) 
nan

>  <Num_Not_Resolved_Atoms>  (928) 
nan

$$$$
CHEMBL4633926
     RDKit          3D

  0  0  0  0  0  0  0  0  0  0999 V3000
M  V30 BEGIN CTAB
M  V30 COUNTS 46 50 0 0 0
M  V30 BEGIN ATOM
M  V30 1 F 0.594068 -1.138811 2.147559 0
M  V30 2 C 1.940115 -1.431041 2.074630 0
M  V30 3 F 2.487580 -1.534134 3.339534 0
M  V30 4 F 2.031646 -2.683939 1.488009 0
M  V30 5 C 2.630079 -0.434670 1.243232 0
M  V30 6 N 3.303343 -0.696479 0.085378 0
M  V30 7 C 3.812307 0.448109 -0.403682 0
M  V30 8 C 4.564977 0.597412 -1.570632 0
M  V30 9 C 4.969312 1.897011 -1.846689 0
M  V30 10 C 4.642003 2.956962 -1.015662 0
M  V30 11 C 3.888694 2.732010 0.130393 0
M  V30 12 C 3.457335 1.463928 0.459092 0
M  V30 13 N 2.745221 0.889994 1.438836 0
M  V30 14 C 2.192259 1.664430 2.556591 0
M  V30 15 C 0.832090 2.183138 2.257070 0
M  V30 16 N 0.614459 3.406128 1.687763 0
M  V30 17 N -0.657065 3.640265 1.522606 0
M  V30 18 C -1.291742 2.553825 1.990352 0
M  V30 19 S -3.063473 2.262524 2.042834 0
M  V30 20 C -3.569657 1.471566 0.490730 0
M  V30 21 C -2.971260 0.121883 0.390493 0
M  V30 22 C -3.358318 -1.143921 0.773925 0
M  V30 23 N -2.421049 -2.045243 0.434488 0
M  V30 24 C -2.458275 -3.447444 0.662619 0
M  V30 25 C -2.009663 -4.185846 -0.436638 0
M  V30 26 C -1.974185 -5.564033 -0.396306 0
M  V30 27 C -2.388428 -6.216638 0.747314 0
M  V30 28 C -2.833750 -5.476363 1.837609 0
M  V30 29 C -2.873933 -4.090422 1.808969 0
M  V30 30 N -1.469706 -1.344461 -0.149886 0
M  V30 31 N -1.755495 -0.075038 -0.194013 0
M  V30 32 O -0.379949 1.727362 2.410036 0
M  V30 33 H 4.798487 -0.254948 -2.191118 0
M  V30 34 H 5.562990 2.073576 -2.748703 0
M  V30 35 H 4.965374 3.976281 -1.242226 0
M  V30 36 H 3.597308 3.522401 0.826036 0
M  V30 37 H 2.193826 1.023019 3.460875 0
M  V30 38 H 2.851320 2.529952 2.769709 0
M  V30 39 H -3.257330 2.092946 -0.361472 0
M  V30 40 H -4.683505 1.407281 0.461139 0
M  V30 41 H -4.303281 -1.300515 1.274322 0
M  V30 42 H -1.668981 -3.751738 -1.367169 0
M  V30 43 H -1.630002 -6.162589 -1.235075 0
M  V30 44 H -2.398598 -7.295355 0.877902 0
M  V30 45 H -3.164160 -5.960547 2.746838 0
M  V30 46 H -3.204688 -3.454297 2.610289 0
M  V30 END ATOM
M  V30 BEGIN BOND
M  V30 1 1 1 2
M  V30 2 1 2 3
M  V30 3 1 2 4
M  V30 4 1 2 5
M  V30 5 2 5 6
M  V30 6 1 6 7
M  V30 7 2 7 8
M  V30 8 1 8 9
M  V30 9 2 9 10
M  V30 10 1 10 11
M  V30 11 2 11 12
M  V30 12 1 12 13
M  V30 13 1 13 14
M  V30 14 1 14 15
M  V30 15 2 15 16
M  V30 16 1 16 17
M  V30 17 2 17 18
M  V30 18 1 18 19
M  V30 19 1 19 20
M  V30 20 1 20 21
M  V30 21 2 21 22
M  V30 22 1 22 23
M  V30 23 1 23 24
M  V30 24 2 24 25
M  V30 25 1 25 26
M  V30 26 2 26 27
M  V30 27 1 27 28
M  V30 28 2 28 29
M  V30 29 1 23 30
M  V30 30 2 30 31
M  V30 31 1 18 32
M  V30 32 1 13 5
M  V30 33 1 32 15
M  V30 34 1 12 7
M  V30 35 1 31 21
M  V30 36 1 29 24
M  V30 37 1 8 33
M  V30 38 1 9 34
M  V30 39 1 10 35
M  V30 40 1 11 36
M  V30 41 1 14 37
M  V30 42 1 14 38
M  V30 43 1 20 39
M  V30 44 1 20 40
M  V30 45 1 22 41
M  V30 46 1 25 42
M  V30 47 1 26 43
M  V30 48 1 27 44
M  V30 49 1 28 45
M  V30 50 1 29 46
M  V30 END BOND
M  V30 END CTAB
M  END
>  <Dataset>  (929) 
ChEMBL_Kinases

>  <Ligand_Instance>  (929) 
nan

>  <PDB_ID>  (929) 
nan

>  <Standardized_SMILES>  (929) 
FC(F)(F)c1nc2ccccc2n1Cc1nnc(SCc2cn(-c3ccccc3)nn2)o1

>  <Name>  (929) 
nan

>  <Pocket>  (929) 
nan

>  <ATP_Site>  (929) 
nan

>  <Peripheral>  (929) 
nan

>  <Num_H_Atoms_ProtBoundConf>  (929) 
nan

>  <Num_Resolved_Atoms>  (929) 
nan

>  <Num_Not_Resolved_Atoms>  (929) 
nan

$$$$
CHEMBL4633633
     RDKit          3D

  0  0  0  0  0  0  0  0  0  0999 V3000
M  V30 BEGIN CTAB
M  V30 COUNTS 66 70 0 0 0
M  V30 BEGIN ATOM
M  V30 1 C 4.235585 1.374814 4.972276 0
M  V30 2 N 2.821661 1.630165 4.810667 0
M  V30 3 C 2.072223 1.419139 6.033474 0
M  V30 4 C 2.238772 0.777185 3.775904 0 CFG=2
M  V30 5 C 2.912579 1.037865 2.483957 0
M  V30 6 C 2.039515 0.888788 1.265914 0
M  V30 7 C 0.869016 -0.064863 1.518331 0 CFG=1
M  V30 8 C 1.320717 -1.430457 1.915949 0
M  V30 9 C 0.033211 0.639051 2.573327 0 CFG=1
M  V30 10 C -1.237357 -0.125425 2.878272 0
M  V30 11 C -2.071093 -0.116350 1.607378 0
M  V30 12 C -1.307043 -0.778490 0.520977 0 CFG=2
M  V30 13 C 0.024256 -0.052671 0.272523 0 CFG=2
M  V30 14 C 0.740487 -0.490849 -0.932243 0
M  V30 15 C 0.050093 -1.308918 -1.945472 0
M  V30 16 C -1.314740 -1.786729 -1.634112 0 CFG=2
M  V30 17 C -1.316898 -3.088753 -0.854246 0
M  V30 18 C -2.262916 -1.902976 -2.738480 0
M  V30 19 C -2.181981 -2.346758 -4.124721 0
M  V30 20 C -3.255668 -2.341891 -4.988194 0
M  V30 21 C -3.161026 -2.771374 -6.299326 0
M  V30 22 C -1.973435 -3.232801 -6.818746 0
M  V30 23 N -0.925975 -3.234174 -5.965209 0
M  V30 24 C -1.045903 -2.813244 -4.702251 0
M  V30 25 C -3.484420 -1.494979 -2.335119 0
M  V30 26 C -3.395763 -1.075229 -0.893500 0
M  V30 27 C -1.977660 -0.673275 -0.820541 0 CFG=1
M  V30 28 C 0.766468 1.043422 3.789565 0
M  V30 29 H 4.438718 1.457540 6.077247 0
M  V30 30 H 4.814719 2.187588 4.498633 0
M  V30 31 H 4.553545 0.385098 4.597144 0
M  V30 32 H 2.753019 1.626320 6.882822 0
M  V30 33 H 1.736650 0.374106 6.127024 0
M  V30 34 H 1.223849 2.134060 6.125299 0
M  V30 35 H 2.436185 -0.262499 4.109048 0
M  V30 36 H 3.759978 0.318985 2.362811 0
M  V30 37 H 3.395053 2.045548 2.430274 0
M  V30 38 H 1.572105 1.866204 1.019784 0
M  V30 39 H 2.638813 0.542814 0.416890 0
M  V30 40 H 1.089572 -2.237120 1.212550 0
M  V30 41 H 0.922279 -1.747409 2.914859 0
M  V30 42 H 2.440658 -1.445209 2.021122 0
M  V30 43 H -0.322306 1.581430 2.063619 0
M  V30 44 H -1.030747 -1.159517 3.212829 0
M  V30 45 H -1.763806 0.380407 3.691075 0
M  V30 46 H -2.961743 -0.733166 1.830750 0
M  V30 47 H -2.319653 0.923465 1.358928 0
M  V30 48 H -1.041172 -1.806251 0.778120 0
M  V30 49 H -0.291436 1.022749 0.141283 0
M  V30 50 H 1.719550 -0.963086 -0.597640 0
M  V30 51 H 1.116304 0.429860 -1.480529 0
M  V30 52 H 0.684330 -2.241346 -2.082965 0
M  V30 53 H 0.035519 -0.842951 -2.970535 0
M  V30 54 H -0.319624 -3.293016 -0.416977 0
M  V30 55 H -2.165245 -3.208884 -0.182893 0
M  V30 56 H -1.427770 -3.889008 -1.644239 0
M  V30 57 H -4.233113 -1.999475 -4.682040 0
M  V30 58 H -4.025757 -2.752561 -6.946617 0
M  V30 59 H -1.946186 -3.554722 -7.837391 0
M  V30 60 H -0.123627 -2.890331 -4.185413 0
M  V30 61 H -4.489623 -1.396121 -2.774456 0
M  V30 62 H -4.003263 -0.143852 -0.699454 0
M  V30 63 H -3.685595 -1.856602 -0.192795 0
M  V30 64 H -1.766905 0.266142 -1.331542 0
M  V30 65 H 0.330854 0.496599 4.653369 0
M  V30 66 H 0.599947 2.129687 4.050888 0
M  V30 END ATOM
M  V30 BEGIN BOND
M  V30 1 1 1 2
M  V30 2 1 2 3
M  V30 3 1 2 4
M  V30 4 1 4 5
M  V30 5 1 5 6
M  V30 6 1 6 7
M  V30 7 1 7 8 CFG=1
M  V30 8 1 7 9
M  V30 9 1 9 10
M  V30 10 1 10 11
M  V30 11 1 11 12
M  V30 12 1 12 13
M  V30 13 1 13 14
M  V30 14 1 14 15
M  V30 15 1 15 16
M  V30 16 1 16 17 CFG=1
M  V30 17 1 16 18
M  V30 18 1 18 19
M  V30 19 2 19 20
M  V30 20 1 20 21
M  V30 21 2 21 22
M  V30 22 1 22 23
M  V30 23 2 23 24
M  V30 24 2 18 25
M  V30 25 1 25 26
M  V30 26 1 26 27
M  V30 27 1 9 28
M  V30 28 1 28 4
M  V30 29 1 13 7
M  V30 30 1 27 16
M  V30 31 1 27 12
M  V30 32 1 24 19
M  V30 33 1 1 29
M  V30 34 1 1 30
M  V30 35 1 1 31
M  V30 36 1 3 32
M  V30 37 1 3 33
M  V30 38 1 3 34
M  V30 39 1 4 35 CFG=1
M  V30 40 1 5 36
M  V30 41 1 5 37
M  V30 42 1 6 38
M  V30 43 1 6 39
M  V30 44 1 8 40
M  V30 45 1 8 41
M  V30 46 1 8 42
M  V30 47 1 9 43 CFG=3
M  V30 48 1 10 44
M  V30 49 1 10 45
M  V30 50 1 11 46
M  V30 51 1 11 47
M  V30 52 1 12 48 CFG=1
M  V30 53 1 13 49 CFG=3
M  V30 54 1 14 50
M  V30 55 1 14 51
M  V30 56 1 15 52
M  V30 57 1 15 53
M  V30 58 1 17 54
M  V30 59 1 17 55
M  V30 60 1 17 56
M  V30 61 1 20 57
M  V30 62 1 21 58
M  V30 63 1 22 59
M  V30 64 1 24 60
M  V30 65 1 25 61
M  V30 66 1 26 62
M  V30 67 1 26 63
M  V30 68 1 27 64 CFG=3
M  V30 69 1 28 65
M  V30 70 1 28 66
M  V30 END BOND
M  V30 END CTAB
M  END
>  <Dataset>  (930) 
ChEMBL_Kinases

>  <Ligand_Instance>  (930) 
nan

>  <PDB_ID>  (930) 
nan

>  <Standardized_SMILES>  (930) 
CN(C)[C@@H]1CC[C@@]2(C)[C@@H](CC[C@@H]3[C@@H]2CC[C@]2(C)C(c4cccnc4)=CC[C@@H]32)C1

>  <Name>  (930) 
nan

>  <Pocket>  (930) 
nan

>  <ATP_Site>  (930) 
nan

>  <Peripheral>  (930) 
nan

>  <Num_H_Atoms_ProtBoundConf>  (930) 
nan

>  <Num_Resolved_Atoms>  (930) 
nan

>  <Num_Not_Resolved_Atoms>  (930) 
nan

$$$$
CHEMBL4577449
     RDKit          3D

  0  0  0  0  0  0  0  0  0  0999 V3000
M  V30 BEGIN CTAB
M  V30 COUNTS 38 40 0 0 0
M  V30 BEGIN ATOM
M  V30 1 C -1.119168 -2.790525 4.860288 0
M  V30 2 C -0.922975 -2.825301 3.355425 0
M  V30 3 C 0.475150 -3.299503 3.050773 0
M  V30 4 C 0.685365 -3.337877 1.551435 0
M  V30 5 N 0.546108 -2.143276 0.842277 0
M  V30 6 C 0.405376 -0.932491 0.123935 0
M  V30 7 N 1.056715 0.235033 0.241357 0
M  V30 8 C 0.812475 1.303566 -0.514552 0
M  V30 9 C 1.600105 2.505099 -0.272531 0
M  V30 10 C 1.290091 3.565908 -1.094111 0
M  V30 11 C 2.053604 4.715687 -0.852451 0
M  V30 12 N 3.001788 4.771581 0.097416 0
M  V30 13 C 3.243003 3.674307 0.865511 0
M  V30 14 C 2.554709 2.485952 0.719526 0
M  V30 15 N -0.144019 1.164277 -1.431362 0
M  V30 16 C -0.857765 0.077087 -1.651045 0
M  V30 17 C -1.796618 0.173898 -2.661874 0
M  V30 18 N -2.527366 -0.959530 -2.877714 0
M  V30 19 C -2.335818 -2.067289 -2.157601 0
M  V30 20 C -1.389152 -2.117227 -1.160862 0
M  V30 21 C -0.586146 -1.015576 -0.855573 0
M  V30 22 H -0.873673 -3.781545 5.281821 0
M  V30 23 H -0.420929 -2.001360 5.232059 0
M  V30 24 H -2.176384 -2.517321 5.070986 0
M  V30 25 H -1.643405 -3.603950 2.967713 0
M  V30 26 H -1.113682 -1.829793 2.923353 0
M  V30 27 H 0.536080 -4.357498 3.379228 0
M  V30 28 H 1.249021 -2.751775 3.586378 0
M  V30 29 H -0.136102 -4.046437 1.186968 0
M  V30 30 H 1.616562 -3.887707 1.294948 0
M  V30 31 H 1.329316 -1.802412 1.491542 0
M  V30 32 H 0.524044 3.502913 -1.852919 0
M  V30 33 H 1.868076 5.599254 -1.461970 0
M  V30 34 H 4.020799 3.763705 1.623835 0
M  V30 35 H 2.737643 1.616771 1.319599 0
M  V30 36 H -1.940363 1.059269 -3.227871 0
M  V30 37 H -2.916708 -2.961872 -2.332181 0
M  V30 38 H -1.231038 -3.005175 -0.579575 0
M  V30 END ATOM
M  V30 BEGIN BOND
M  V30 1 1 1 2
M  V30 2 1 2 3
M  V30 3 1 3 4
M  V30 4 1 4 5
M  V30 5 1 5 6
M  V30 6 2 6 7
M  V30 7 1 7 8
M  V30 8 1 8 9
M  V30 9 2 9 10
M  V30 10 1 10 11
M  V30 11 2 11 12
M  V30 12 1 12 13
M  V30 13 2 13 14
M  V30 14 2 8 15
M  V30 15 1 15 16
M  V30 16 2 16 17
M  V30 17 1 17 18
M  V30 18 2 18 19
M  V30 19 1 19 20
M  V30 20 2 20 21
M  V30 21 1 21 6
M  V30 22 1 14 9
M  V30 23 1 21 16
M  V30 24 1 1 22
M  V30 25 1 1 23
M  V30 26 1 1 24
M  V30 27 1 2 25
M  V30 28 1 2 26
M  V30 29 1 3 27
M  V30 30 1 3 28
M  V30 31 1 4 29
M  V30 32 1 4 30
M  V30 33 1 5 31
M  V30 34 1 10 32
M  V30 35 1 11 33
M  V30 36 1 13 34
M  V30 37 1 14 35
M  V30 38 1 17 36
M  V30 39 1 19 37
M  V30 40 1 20 38
M  V30 END BOND
M  V30 END CTAB
M  END
>  <Dataset>  (931) 
ChEMBL_Kinases

>  <Ligand_Instance>  (931) 
nan

>  <PDB_ID>  (931) 
nan

>  <Standardized_SMILES>  (931) 
CCCCNc1nc(-c2ccncc2)nc2cnccc12

>  <Name>  (931) 
nan

>  <Pocket>  (931) 
nan

>  <ATP_Site>  (931) 
nan

>  <Peripheral>  (931) 
nan

>  <Num_H_Atoms_ProtBoundConf>  (931) 
nan

>  <Num_Resolved_Atoms>  (931) 
nan

>  <Num_Not_Resolved_Atoms>  (931) 
nan

$$$$
CHEMBL4577411
     RDKit          3D

  0  0  0  0  0  0  0  0  0  0999 V3000
M  V30 BEGIN CTAB
M  V30 COUNTS 45 48 0 0 0
M  V30 BEGIN ATOM
M  V30 1 C -2.490518 -4.000110 0.896692 0
M  V30 2 C -1.090940 -3.576763 1.363391 0
M  V30 3 C -0.284941 -4.866639 1.509366 0
M  V30 4 C -0.552596 -2.660200 0.317282 0
M  V30 5 N 0.130050 -1.562850 0.960981 0
M  V30 6 C 0.150739 -0.168762 0.615014 0
M  V30 7 C 1.391478 0.406766 0.316991 0
M  V30 8 C 1.486758 1.739249 -0.023173 0
M  V30 9 C 2.757545 2.377576 -0.340444 0
M  V30 10 C 2.766111 3.715848 -0.671112 0
M  V30 11 C 3.929919 4.414647 -0.989798 0
M  V30 12 N 5.098493 3.747324 -0.972636 0
M  V30 13 C 5.144049 2.443428 -0.657249 0
M  V30 14 C 3.988811 1.757700 -0.342861 0
M  V30 15 N 0.392900 2.516554 -0.076824 0
M  V30 16 C -0.826997 1.983530 0.208106 0
M  V30 17 C -1.967051 2.761618 0.160077 0
M  V30 18 N -3.193124 2.231603 0.445039 0
M  V30 19 C -3.292775 0.915144 0.781806 0
M  V30 20 C -2.164974 0.104322 0.839441 0
M  V30 21 C -0.955149 0.659864 0.550238 0
M  V30 22 C 0.901088 -1.989655 2.135517 0
M  V30 23 C -0.149299 -2.310730 3.188624 0
M  V30 24 N -1.265894 -3.012146 2.665080 0
M  V30 25 H -3.131658 -4.312535 1.742748 0
M  V30 26 H -2.966376 -3.194180 0.323224 0
M  V30 27 H -2.370333 -4.900519 0.250984 0
M  V30 28 H 0.545012 -4.861192 0.743823 0
M  V30 29 H 0.174257 -4.914000 2.510407 0
M  V30 30 H -0.909489 -5.770027 1.382443 0
M  V30 31 H -1.234818 -2.382701 -0.486760 0
M  V30 32 H 0.270214 -3.241530 -0.195611 0
M  V30 33 H 2.257908 -0.215450 0.361100 0
M  V30 34 H 1.880798 4.312131 -0.706456 0
M  V30 35 H 3.923459 5.470468 -1.249004 0
M  V30 36 H 6.056202 1.857162 -0.627750 0
M  V30 37 H 4.016437 0.708519 -0.087947 0
M  V30 38 H -1.807673 3.804408 -0.116819 0
M  V30 39 H -4.263735 0.539811 0.996538 0
M  V30 40 H -2.273694 -0.917064 1.104675 0
M  V30 41 H 1.449633 -2.914506 1.882416 0
M  V30 42 H 1.574198 -1.188814 2.452501 0
M  V30 43 H -0.445146 -1.339133 3.643599 0
M  V30 44 H 0.380903 -2.867130 4.013753 0
M  V30 45 H -2.200951 -2.674044 2.902734 0
M  V30 END ATOM
M  V30 BEGIN BOND
M  V30 1 1 1 2
M  V30 2 1 2 3
M  V30 3 1 2 4
M  V30 4 1 4 5
M  V30 5 1 5 6
M  V30 6 2 6 7
M  V30 7 1 7 8
M  V30 8 1 8 9
M  V30 9 2 9 10
M  V30 10 1 10 11
M  V30 11 2 11 12
M  V30 12 1 12 13
M  V30 13 2 13 14
M  V30 14 2 8 15
M  V30 15 1 15 16
M  V30 16 2 16 17
M  V30 17 1 17 18
M  V30 18 2 18 19
M  V30 19 1 19 20
M  V30 20 2 20 21
M  V30 21 1 5 22
M  V30 22 1 22 23
M  V30 23 1 23 24
M  V30 24 1 24 2
M  V30 25 1 21 6
M  V30 26 1 14 9
M  V30 27 1 21 16
M  V30 28 1 1 25
M  V30 29 1 1 26
M  V30 30 1 1 27
M  V30 31 1 3 28
M  V30 32 1 3 29
M  V30 33 1 3 30
M  V30 34 1 4 31
M  V30 35 1 4 32
M  V30 36 1 7 33
M  V30 37 1 10 34
M  V30 38 1 11 35
M  V30 39 1 13 36
M  V30 40 1 14 37
M  V30 41 1 17 38
M  V30 42 1 19 39
M  V30 43 1 20 40
M  V30 44 1 22 41
M  V30 45 1 22 42
M  V30 46 1 23 43
M  V30 47 1 23 44
M  V30 48 1 24 45
M  V30 END BOND
M  V30 END CTAB
M  END
>  <Dataset>  (932) 
ChEMBL_Kinases

>  <Ligand_Instance>  (932) 
nan

>  <PDB_ID>  (932) 
nan

>  <Standardized_SMILES>  (932) 
CC1(C)CN(c2cc(-c3ccncc3)nc3cnccc23)CCN1

>  <Name>  (932) 
nan

>  <Pocket>  (932) 
nan

>  <ATP_Site>  (932) 
nan

>  <Peripheral>  (932) 
nan

>  <Num_H_Atoms_ProtBoundConf>  (932) 
nan

>  <Num_Resolved_Atoms>  (932) 
nan

>  <Num_Not_Resolved_Atoms>  (932) 
nan

$$$$
CHEMBL4577370
     RDKit          3D

  0  0  0  0  0  0  0  0  0  0999 V3000
M  V30 BEGIN CTAB
M  V30 COUNTS 49 51 0 0 0
M  V30 BEGIN ATOM
M  V30 1 O 2.292179 -3.562549 0.261560 0
M  V30 2 C 2.191924 -2.322333 0.530920 0
M  V30 3 O 1.021719 -1.774843 0.957226 0
M  V30 4 C 3.423089 -1.574021 0.350930 0
M  V30 5 C 4.674452 -2.014986 0.055623 0
M  V30 6 C 5.739286 -1.177951 -0.027321 0
M  V30 7 C 5.689682 0.208549 0.174134 0
M  V30 8 C 4.401361 0.576198 0.464555 0
M  V30 9 C 3.277527 -0.182712 0.569714 0
M  V30 10 C 2.017589 0.535919 0.852661 0
M  V30 11 O 2.204893 0.964539 2.063756 0
M  V30 12 N 0.776890 0.876382 0.254314 0
M  V30 13 C 0.084017 1.653252 1.199691 0
M  V30 14 C 0.630175 2.852277 1.597843 0
M  V30 15 C -0.024416 3.678631 2.478286 0
M  V30 16 C -1.258502 3.247047 2.941595 0
M  V30 17 C -1.798225 2.022736 2.523008 0
M  V30 18 C -1.112851 1.194000 1.623789 0
M  V30 19 S -2.288946 -0.167709 1.408632 0
M  V30 20 C -3.357642 0.406487 0.034400 0
M  V30 21 C -2.704150 0.041259 -1.273206 0
M  V30 22 S -2.935535 -1.677120 -1.531715 0
M  V30 23 O -4.427984 -1.887627 -1.736220 0
M  V30 24 O -2.224136 -1.997798 -2.850900 0
M  V30 25 C -2.402321 -2.762338 -0.313799 0
M  V30 26 C -3.312539 -2.874415 0.752353 0
M  V30 27 C -3.190324 -3.717131 1.865086 0
M  V30 28 C -2.063567 -4.511817 1.913174 0
M  V30 29 Cl -1.803963 -5.612584 3.267968 0
M  V30 30 C -1.158254 -4.419381 0.881262 0
M  V30 31 C -1.308572 -3.580085 -0.198879 0
M  V30 32 H 0.492544 -2.291080 1.691447 0
M  V30 33 H 4.760455 -3.095503 -0.107219 0
M  V30 34 H 6.696214 -1.661370 -0.272163 0
M  V30 35 H 6.548156 0.835227 0.102402 0
M  V30 36 H 4.334581 1.668566 0.626100 0
M  V30 37 H 0.828611 0.424809 -0.679353 0
M  V30 38 H 1.578776 3.082097 1.183763 0
M  V30 39 H 0.494128 4.583768 2.717921 0
M  V30 40 H -1.651972 4.001015 3.620372 0
M  V30 41 H -2.764210 1.990874 3.063220 0
M  V30 42 H -3.456001 1.522604 0.035589 0
M  V30 43 H -4.364686 -0.008854 0.162632 0
M  V30 44 H -3.238321 0.615611 -2.081241 0
M  V30 45 H -1.646375 0.362234 -1.262362 0
M  V30 46 H -4.254189 -2.303274 0.829304 0
M  V30 47 H -3.914749 -3.766768 2.658179 0
M  V30 48 H -0.258356 -5.044296 0.900605 0
M  V30 49 H -0.644564 -3.462988 -1.034037 0
M  V30 END ATOM
M  V30 BEGIN BOND
M  V30 1 2 1 2
M  V30 2 1 2 3
M  V30 3 1 2 4
M  V30 4 2 4 5
M  V30 5 1 5 6
M  V30 6 2 6 7
M  V30 7 1 7 8
M  V30 8 2 8 9
M  V30 9 1 9 10
M  V30 10 2 10 11
M  V30 11 1 10 12
M  V30 12 1 12 13
M  V30 13 2 13 14
M  V30 14 1 14 15
M  V30 15 2 15 16
M  V30 16 1 16 17
M  V30 17 2 17 18
M  V30 18 1 18 19
M  V30 19 1 19 20
M  V30 20 1 20 21
M  V30 21 1 21 22
M  V30 22 2 22 23
M  V30 23 2 22 24
M  V30 24 1 22 25
M  V30 25 2 25 26
M  V30 26 1 26 27
M  V30 27 2 27 28
M  V30 28 1 28 29
M  V30 29 1 28 30
M  V30 30 2 30 31
M  V30 31 1 9 4
M  V30 32 1 18 13
M  V30 33 1 31 25
M  V30 34 1 3 32
M  V30 35 1 5 33
M  V30 36 1 6 34
M  V30 37 1 7 35
M  V30 38 1 8 36
M  V30 39 1 12 37
M  V30 40 1 14 38
M  V30 41 1 15 39
M  V30 42 1 16 40
M  V30 43 1 17 41
M  V30 44 1 20 42
M  V30 45 1 20 43
M  V30 46 1 21 44
M  V30 47 1 21 45
M  V30 48 1 26 46
M  V30 49 1 27 47
M  V30 50 1 30 48
M  V30 51 1 31 49
M  V30 END BOND
M  V30 END CTAB
M  END
>  <Dataset>  (933) 
ChEMBL_Kinases

>  <Ligand_Instance>  (933) 
nan

>  <PDB_ID>  (933) 
nan

>  <Standardized_SMILES>  (933) 
O=C(O)c1ccccc1C(=O)Nc1ccccc1SCCS(=O)(=O)c1ccc(Cl)cc1

>  <Name>  (933) 
nan

>  <Pocket>  (933) 
nan

>  <ATP_Site>  (933) 
nan

>  <Peripheral>  (933) 
nan

>  <Num_H_Atoms_ProtBoundConf>  (933) 
nan

>  <Num_Resolved_Atoms>  (933) 
nan

>  <Num_Not_Resolved_Atoms>  (933) 
nan

$$$$
CHEMBL4632740
     RDKit          3D

  0  0  0  0  0  0  0  0  0  0999 V3000
M  V30 BEGIN CTAB
M  V30 COUNTS 73 79 0 0 0
M  V30 BEGIN ATOM
M  V30 1 C 3.710589 -4.184060 4.175900 0
M  V30 2 O 2.335853 -3.938207 4.243474 0
M  V30 3 C 1.790162 -2.841439 3.633983 0
M  V30 4 C 2.510472 -1.870363 2.924355 0
M  V30 5 C 1.891943 -0.767214 2.314904 0
M  V30 6 C 2.862879 0.051045 1.608460 0
M  V30 7 O 3.207905 0.899072 2.500867 0
M  V30 8 N 3.341273 -0.028473 0.253724 0
M  V30 9 C 3.193015 -0.790955 -0.996129 0
M  V30 10 C 4.078095 0.244644 -1.632891 0
M  V30 11 C 3.577721 1.044012 -2.774841 0
M  V30 12 O 4.782066 0.726820 -3.418861 0
M  V30 13 C 5.202071 -0.231111 -2.482109 0
M  V30 14 C 4.359671 0.847832 -0.326007 0
M  V30 15 C 0.547721 -0.631010 2.415251 0
M  V30 16 C -0.240493 -1.525326 3.092393 0
M  V30 17 C 0.467998 -2.594475 3.668112 0
M  V30 18 N -0.422756 -3.544547 4.334665 0
M  V30 19 C -1.821379 -3.834945 4.160678 0
M  V30 20 N -3.076536 -4.328575 4.340178 0
M  V30 21 C -3.817841 -4.081069 3.270470 0
M  V30 22 C -5.002883 -4.292760 2.707090 0
M  V30 23 C -5.464425 -3.941631 1.474503 0
M  V30 24 C -4.937634 -3.302968 0.448178 0
M  V30 25 C -4.348700 -2.587537 -0.724415 0
M  V30 26 C -4.268926 -1.174327 -0.647536 0
M  V30 27 C -3.572508 -0.418980 -1.557489 0
M  V30 28 C -2.975147 -1.189062 -2.519852 0
M  V30 29 N -2.071054 -0.544955 -3.382469 0
M  V30 30 C -1.601336 0.724036 -3.084176 0
M  V30 31 O -1.774920 1.578729 -2.156424 0
M  V30 32 C -0.790549 1.934016 -3.358316 0
M  V30 33 C -0.975241 2.925349 -2.219798 0
M  V30 34 C -0.194536 2.890389 -1.096533 0
M  V30 35 C -0.335640 3.734475 -0.029406 0
M  V30 36 C -1.294550 4.687801 -0.025985 0
M  V30 37 F -1.563717 5.594876 0.957794 0
M  V30 38 C -2.104044 4.766343 -1.137407 0
M  V30 39 C -1.969920 3.922448 -2.213045 0
M  V30 40 C -2.988582 -2.537054 -2.688186 0
M  V30 41 C -3.708817 -3.299765 -1.751063 0
M  V30 42 C -3.591804 -3.062947 1.108935 0
M  V30 43 N -3.091258 -3.416188 2.370405 0
M  V30 44 N -1.957645 -3.319367 2.979030 0
M  V30 45 H 4.257026 -3.406480 4.737765 0
M  V30 46 H 3.870049 -5.183535 4.649201 0
M  V30 47 H 3.976269 -4.230776 3.083480 0
M  V30 48 H 3.573979 -2.080716 2.908021 0
M  V30 49 H 3.753567 -1.759554 -0.920575 0
M  V30 50 H 2.191007 -0.835594 -1.396416 0
M  V30 51 H 3.501596 2.127526 -2.500506 0
M  V30 52 H 2.743585 0.672710 -3.385879 0
M  V30 53 H 6.235533 0.017441 -2.114090 0
M  V30 54 H 5.120240 -1.222113 -2.901837 0
M  V30 55 H 4.161485 1.931161 -0.203309 0
M  V30 56 H 5.361863 0.536563 0.054316 0
M  V30 57 H 0.209900 0.282238 1.902172 0
M  V30 58 H -1.258245 -1.228632 3.076083 0
M  V30 59 H -0.111477 -4.212537 5.108211 0
M  V30 60 H -5.769366 -4.832759 3.300362 0
M  V30 61 H -6.381913 -4.046230 0.877079 0
M  V30 62 H -4.792255 -0.721524 0.182364 0
M  V30 63 H -3.598209 0.628023 -1.400606 0
M  V30 64 H -1.560585 -0.722165 -4.264597 0
M  V30 65 H 0.282416 1.617583 -3.241751 0
M  V30 66 H -0.936962 2.440071 -4.288818 0
M  V30 67 H 0.636070 2.160043 -0.981080 0
M  V30 68 H 0.289285 3.705620 0.871173 0
M  V30 69 H -2.907238 5.491457 -1.216276 0
M  V30 70 H -2.593379 4.001682 -3.077866 0
M  V30 71 H -2.461700 -3.042816 -3.520705 0
M  V30 72 H -3.780909 -4.368346 -1.810062 0
M  V30 73 H -2.667494 -2.516547 0.676862 0
M  V30 END ATOM
M  V30 BEGIN BOND
M  V30 1 1 1 2
M  V30 2 1 2 3
M  V30 3 2 3 4
M  V30 4 1 4 5
M  V30 5 1 5 6
M  V30 6 2 6 7
M  V30 7 1 6 8
M  V30 8 1 8 9
M  V30 9 1 9 10
M  V30 10 1 10 11
M  V30 11 1 11 12
M  V30 12 1 12 13
M  V30 13 1 10 14
M  V30 14 2 5 15
M  V30 15 1 15 16
M  V30 16 2 16 17
M  V30 17 1 17 18
M  V30 18 1 18 19
M  V30 19 1 19 20
M  V30 20 2 20 21
M  V30 21 1 21 22
M  V30 22 2 22 23
M  V30 23 1 23 24
M  V30 24 1 24 25
M  V30 25 2 25 26
M  V30 26 1 26 27
M  V30 27 2 27 28
M  V30 28 1 28 29
M  V30 29 1 29 30
M  V30 30 2 30 31
M  V30 31 1 30 32
M  V30 32 1 32 33
M  V30 33 2 33 34
M  V30 34 1 34 35
M  V30 35 2 35 36
M  V30 36 1 36 37
M  V30 37 1 36 38
M  V30 38 2 38 39
M  V30 39 1 28 40
M  V30 40 2 40 41
M  V30 41 2 24 42
M  V30 42 1 42 43
M  V30 43 1 43 44
M  V30 44 1 17 3
M  V30 45 2 44 19
M  V30 46 1 14 8
M  V30 47 1 43 21
M  V30 48 1 13 10
M  V30 49 1 41 25
M  V30 50 1 39 33
M  V30 51 1 1 45
M  V30 52 1 1 46
M  V30 53 1 1 47
M  V30 54 1 4 48
M  V30 55 1 9 49
M  V30 56 1 9 50
M  V30 57 1 11 51
M  V30 58 1 11 52
M  V30 59 1 13 53
M  V30 60 1 13 54
M  V30 61 1 14 55
M  V30 62 1 14 56
M  V30 63 1 15 57
M  V30 64 1 16 58
M  V30 65 1 18 59
M  V30 66 1 22 60
M  V30 67 1 23 61
M  V30 68 1 26 62
M  V30 69 1 27 63
M  V30 70 1 29 64
M  V30 71 1 32 65
M  V30 72 1 32 66
M  V30 73 1 34 67
M  V30 74 1 35 68
M  V30 75 1 38 69
M  V30 76 1 39 70
M  V30 77 1 40 71
M  V30 78 1 41 72
M  V30 79 1 42 73
M  V30 END BOND
M  V30 END CTAB
M  END
>  <Dataset>  (934) 
ChEMBL_Kinases

>  <Ligand_Instance>  (934) 
nan

>  <PDB_ID>  (934) 
nan

>  <Standardized_SMILES>  (934) 
COc1cc(C(=O)N2CC3(COC3)C2)ccc1Nc1nc2ccc(-c3ccc(NC(=O)Cc4ccc(F)cc4)cc3)cn2n1

>  <Name>  (934) 
nan

>  <Pocket>  (934) 
nan

>  <ATP_Site>  (934) 
nan

>  <Peripheral>  (934) 
nan

>  <Num_H_Atoms_ProtBoundConf>  (934) 
nan

>  <Num_Resolved_Atoms>  (934) 
nan

>  <Num_Not_Resolved_Atoms>  (934) 
nan

$$$$
CHEMBL4577252
     RDKit          3D

  0  0  0  0  0  0  0  0  0  0999 V3000
M  V30 BEGIN CTAB
M  V30 COUNTS 35 36 0 0 0
M  V30 BEGIN ATOM
M  V30 1 C -0.697400 -2.537148 4.123380 0
M  V30 2 C -1.679592 -2.089015 3.069981 0
M  V30 3 C -2.269442 -3.390358 2.495850 0
M  V30 4 N -1.140514 -1.344376 1.972453 0
M  V30 5 C -2.363303 -1.097843 1.209346 0
M  V30 6 C 0.033505 -0.807682 1.382186 0
M  V30 7 S -0.039189 0.223486 -0.146415 0
M  V30 8 C 1.696327 0.491127 -0.257198 0
M  V30 9 C 2.270081 1.277075 -1.316307 0
M  V30 10 O 3.490322 1.494955 -1.424171 0
M  V30 11 C 1.396644 1.876323 -2.353831 0
M  V30 12 C 1.686466 2.677520 -3.478816 0
M  V30 13 C 0.573544 3.024642 -4.194241 0
M  V30 14 C -0.674002 2.638067 -3.855397 0
M  V30 15 Cl -2.156227 2.985165 -4.640700 0
M  V30 16 S -0.456635 1.618564 -2.315707 0
M  V30 17 C 2.213756 -0.158494 0.781903 0
M  V30 18 N 3.646752 -0.058061 0.868319 0
M  V30 19 C 1.395351 -0.829228 1.634715 0
M  V30 20 C 1.939106 -1.541343 2.751858 0
M  V30 21 N 2.406122 -2.122245 3.666264 0
M  V30 22 H -0.083104 -3.339184 3.713067 0
M  V30 23 H -0.179504 -1.720225 4.639037 0
M  V30 24 H -1.351160 -3.066507 4.897129 0
M  V30 25 H -2.526892 -1.526727 3.568706 0
M  V30 26 H -3.374288 -3.269120 2.410977 0
M  V30 27 H -1.767360 -3.590780 1.528279 0
M  V30 28 H -2.019990 -4.231307 3.161246 0
M  V30 29 H -3.020047 -0.444043 1.814107 0
M  V30 30 H -2.888925 -2.013078 0.897972 0
M  V30 31 H -2.135077 -0.485740 0.297989 0
M  V30 32 H 2.729354 2.887458 -3.596020 0
M  V30 33 H 0.756782 3.645318 -5.072982 0
M  V30 34 H 4.198662 0.666810 1.401737 0
M  V30 35 H 4.284040 -0.715462 0.394572 0
M  V30 END ATOM
M  V30 BEGIN BOND
M  V30 1 1 1 2
M  V30 2 1 2 3
M  V30 3 1 2 4
M  V30 4 1 4 5
M  V30 5 1 4 6
M  V30 6 1 6 7
M  V30 7 1 7 8
M  V30 8 1 8 9
M  V30 9 2 9 10
M  V30 10 1 9 11
M  V30 11 2 11 12
M  V30 12 1 12 13
M  V30 13 2 13 14
M  V30 14 1 14 15
M  V30 15 1 14 16
M  V30 16 2 8 17
M  V30 17 1 17 18
M  V30 18 1 17 19
M  V30 19 1 19 20
M  V30 20 3 20 21
M  V30 21 2 19 6
M  V30 22 1 16 11
M  V30 23 1 1 22
M  V30 24 1 1 23
M  V30 25 1 1 24
M  V30 26 1 2 25
M  V30 27 1 3 26
M  V30 28 1 3 27
M  V30 29 1 3 28
M  V30 30 1 5 29
M  V30 31 1 5 30
M  V30 32 1 5 31
M  V30 33 1 12 32
M  V30 34 1 13 33
M  V30 35 1 18 34
M  V30 36 1 18 35
M  V30 END BOND
M  V30 END CTAB
M  END
>  <Dataset>  (935) 
ChEMBL_Kinases

>  <Ligand_Instance>  (935) 
nan

>  <PDB_ID>  (935) 
nan

>  <Standardized_SMILES>  (935) 
CC(C)N(C)c1sc(C(=O)c2ccc(Cl)s2)c(N)c1C#N

>  <Name>  (935) 
nan

>  <Pocket>  (935) 
nan

>  <ATP_Site>  (935) 
nan

>  <Peripheral>  (935) 
nan

>  <Num_H_Atoms_ProtBoundConf>  (935) 
nan

>  <Num_Resolved_Atoms>  (935) 
nan

>  <Num_Not_Resolved_Atoms>  (935) 
nan

$$$$
CHEMBL4632807
     RDKit          3D

  0  0  0  0  0  0  0  0  0  0999 V3000
M  V30 BEGIN CTAB
M  V30 COUNTS 55 58 0 0 0
M  V30 BEGIN ATOM
M  V30 1 C -1.434297 -0.949525 4.925694 0
M  V30 2 C 0.042140 -1.074946 4.577073 0
M  V30 3 C 0.583274 -2.270865 5.365290 0
M  V30 4 O 0.770718 0.050714 4.982245 0
M  V30 5 C 1.480608 0.895956 4.140015 0
M  V30 6 C 2.103695 1.929750 4.835766 0
M  V30 7 N 2.843894 2.862512 4.210563 0
M  V30 8 C 3.013786 2.832894 2.869061 0
M  V30 9 C 2.409304 1.821422 2.152130 0
M  V30 10 C 2.523486 1.685726 0.682845 0
M  V30 11 C 3.708082 2.111463 0.073806 0
M  V30 12 C 3.811875 1.984257 -1.296003 0
M  V30 13 C 2.768977 1.452865 -2.012609 0
M  V30 14 N 2.512515 1.182876 -3.301742 0
M  V30 15 N 1.308928 0.649540 -3.488422 0
M  V30 16 C 0.692786 0.540549 -2.273538 0
M  V30 17 C -0.628427 -0.018962 -2.272480 0
M  V30 18 O -1.084458 -0.363027 -3.416671 0
M  V30 19 N -1.618142 -0.314818 -1.337845 0
M  V30 20 C -2.913852 -0.853921 -1.214793 0
M  V30 21 C -3.160119 -2.260784 -1.604535 0
M  V30 22 C -2.321257 -3.263274 -0.830646 0
M  V30 23 C -2.646601 -4.616685 -1.450231 0
M  V30 24 O -2.113019 -4.759922 -2.723571 0
M  V30 25 C -1.977582 -3.536115 -3.398374 0
M  V30 26 C -3.163003 -2.627275 -3.032705 0
M  V30 27 C 1.608323 1.037111 -1.404860 0
M  V30 28 C 1.481669 1.153442 -0.044299 0
M  V30 29 C 1.645943 0.853943 2.769850 0
M  V30 30 H -1.915520 -1.943723 4.832128 0
M  V30 31 H -1.972543 -0.261651 4.244997 0
M  V30 32 H -1.587244 -0.648640 5.986128 0
M  V30 33 H 0.064391 -1.267021 3.481383 0
M  V30 34 H 0.047980 -2.387120 6.319438 0
M  V30 35 H 1.664104 -2.106706 5.559574 0
M  V30 36 H 0.507976 -3.208609 4.761677 0
M  V30 37 H 2.059164 2.084475 5.910078 0
M  V30 38 H 3.606215 3.571922 2.331691 0
M  V30 39 H 4.500895 2.522600 0.676475 0
M  V30 40 H 4.686784 2.288897 -1.823989 0
M  V30 41 H 3.175013 1.362353 -4.110393 0
M  V30 42 H -1.257143 -0.028956 -0.376133 0
M  V30 43 H -3.689201 -0.239710 -1.785712 0
M  V30 44 H -3.294718 -0.756480 -0.151907 0
M  V30 45 H -4.222882 -2.479573 -1.222964 0
M  V30 46 H -1.249084 -3.091322 -0.966264 0
M  V30 47 H -2.657607 -3.306582 0.222947 0
M  V30 48 H -3.768219 -4.651016 -1.553193 0
M  V30 49 H -2.310389 -5.445717 -0.803647 0
M  V30 50 H -1.021797 -3.059014 -3.192438 0
M  V30 51 H -2.073229 -3.736197 -4.483107 0
M  V30 52 H -3.263586 -1.838602 -3.766999 0
M  V30 53 H -4.055413 -3.311940 -3.247984 0
M  V30 54 H 0.592581 0.840425 0.468092 0
M  V30 55 H 1.129306 0.022069 2.316354 0
M  V30 END ATOM
M  V30 BEGIN BOND
M  V30 1 1 1 2
M  V30 2 1 2 3
M  V30 3 1 2 4
M  V30 4 1 4 5
M  V30 5 2 5 6
M  V30 6 1 6 7
M  V30 7 2 7 8
M  V30 8 1 8 9
M  V30 9 1 9 10
M  V30 10 2 10 11
M  V30 11 1 11 12
M  V30 12 2 12 13
M  V30 13 1 13 14
M  V30 14 1 14 15
M  V30 15 2 15 16
M  V30 16 1 16 17
M  V30 17 2 17 18
M  V30 18 1 17 19
M  V30 19 1 19 20
M  V30 20 1 20 21
M  V30 21 1 21 22
M  V30 22 1 22 23
M  V30 23 1 23 24
M  V30 24 1 24 25
M  V30 25 1 25 26
M  V30 26 1 16 27
M  V30 27 2 27 28
M  V30 28 2 9 29
M  V30 29 1 29 5
M  V30 30 1 28 10
M  V30 31 1 27 13
M  V30 32 1 26 21
M  V30 33 1 1 30
M  V30 34 1 1 31
M  V30 35 1 1 32
M  V30 36 1 2 33
M  V30 37 1 3 34
M  V30 38 1 3 35
M  V30 39 1 3 36
M  V30 40 1 6 37
M  V30 41 1 8 38
M  V30 42 1 11 39
M  V30 43 1 12 40
M  V30 44 1 14 41
M  V30 45 1 19 42
M  V30 46 1 20 43
M  V30 47 1 20 44
M  V30 48 1 21 45
M  V30 49 1 22 46
M  V30 50 1 22 47
M  V30 51 1 23 48
M  V30 52 1 23 49
M  V30 53 1 25 50
M  V30 54 1 25 51
M  V30 55 1 26 52
M  V30 56 1 26 53
M  V30 57 1 28 54
M  V30 58 1 29 55
M  V30 END BOND
M  V30 END CTAB
M  END
>  <Dataset>  (936) 
ChEMBL_Kinases

>  <Ligand_Instance>  (936) 
nan

>  <PDB_ID>  (936) 
nan

>  <Standardized_SMILES>  (936) 
CC(C)Oc1cncc(-c2ccc3[nH]nc(C(=O)NCC4CCOCC4)c3c2)c1

>  <Name>  (936) 
nan

>  <Pocket>  (936) 
nan

>  <ATP_Site>  (936) 
nan

>  <Peripheral>  (936) 
nan

>  <Num_H_Atoms_ProtBoundConf>  (936) 
nan

>  <Num_Resolved_Atoms>  (936) 
nan

>  <Num_Not_Resolved_Atoms>  (936) 
nan

$$$$
CHEMBL4577134
     RDKit          3D

  0  0  0  0  0  0  0  0  0  0999 V3000
M  V30 BEGIN CTAB
M  V30 COUNTS 57 61 0 0 0
M  V30 BEGIN ATOM
M  V30 1 C 1.385494 -0.157030 5.629386 0
M  V30 2 N 2.359897 0.702532 4.966182 0
M  V30 3 N 3.530016 1.114112 5.432642 0
M  V30 4 C 4.153546 1.899121 4.528660 0
M  V30 5 C 3.325704 1.994069 3.411581 0
M  V30 6 C 3.679983 2.769914 2.227579 0
M  V30 7 C 3.860180 4.125373 2.510650 0
M  V30 8 C 4.202403 4.990634 1.476282 0
M  V30 9 N 4.353429 4.512711 0.229094 0
M  V30 10 C 4.185454 3.218554 -0.062900 0
M  V30 11 C 3.845473 2.324297 0.932643 0
M  V30 12 C 2.223494 1.231462 3.736095 0
M  V30 13 C 1.102163 1.052328 2.849054 0
M  V30 14 C 0.209881 1.905149 2.314723 0
M  V30 15 C -0.775012 1.483321 1.492037 0
M  V30 16 C -0.783433 0.076806 1.245228 0
M  V30 17 C -1.810166 -0.590542 0.350562 0
M  V30 18 O -2.710472 0.032262 -0.229672 0
M  V30 19 N -1.640024 -1.981163 0.245114 0
M  V30 20 C -2.594490 -2.660451 -0.595115 0 CFG=2
M  V30 21 C -3.400202 -3.692896 0.160964 0
M  V30 22 N -2.568001 -4.670830 0.826156 0
M  V30 23 C -1.700362 -5.316863 -0.134289 0
M  V30 24 C -1.992206 -4.916468 -1.549591 0
M  V30 25 C -1.819061 -3.414341 -1.655274 0 CFG=1
M  V30 26 C -2.157074 -2.933092 -3.031125 0
M  V30 27 C -1.165445 -2.435725 -3.868035 0
M  V30 28 C -1.418530 -1.972727 -5.159608 0
M  V30 29 C -2.728068 -2.033333 -5.575458 0
M  V30 30 C -3.772412 -2.515440 -4.800461 0
M  V30 31 F -5.053800 -2.560866 -5.243638 0
M  V30 32 C -3.463362 -2.966970 -3.513769 0
M  V30 33 S 0.569075 -0.533896 2.171526 0
M  V30 34 H 1.843655 -0.676691 6.495389 0
M  V30 35 H 0.589058 0.517770 6.018179 0
M  V30 36 H 0.914237 -0.875724 4.931123 0
M  V30 37 H 5.115558 2.311389 4.761731 0
M  V30 38 H 3.771463 4.642000 3.459163 0
M  V30 39 H 4.376680 6.055416 1.521525 0
M  V30 40 H 4.287974 2.762547 -1.030222 0
M  V30 41 H 3.674173 1.241875 0.852534 0
M  V30 42 H 0.330580 2.955078 2.585636 0
M  V30 43 H -1.521618 2.118485 1.032053 0
M  V30 44 H -0.911290 -2.578607 0.698138 0
M  V30 45 H -3.339579 -1.965567 -1.039624 0
M  V30 46 H -4.013796 -4.233293 -0.587159 0
M  V30 47 H -4.120399 -3.233226 0.863575 0
M  V30 48 H -3.217094 -5.398319 1.205513 0
M  V30 49 H -1.650317 -6.415586 0.004943 0
M  V30 50 H -0.670391 -4.914195 0.094104 0
M  V30 51 H -2.936927 -5.292718 -1.954094 0
M  V30 52 H -1.171370 -5.365356 -2.168539 0
M  V30 53 H -0.726935 -3.245890 -1.556155 0
M  V30 54 H -0.126045 -2.380765 -3.554727 0
M  V30 55 H -0.619145 -1.592554 -5.782674 0
M  V30 56 H -2.980735 -1.681202 -6.584178 0
M  V30 57 H -4.269795 -3.348633 -2.892364 0
M  V30 END ATOM
M  V30 BEGIN BOND
M  V30 1 1 1 2
M  V30 2 1 2 3
M  V30 3 2 3 4
M  V30 4 1 4 5
M  V30 5 1 5 6
M  V30 6 2 6 7
M  V30 7 1 7 8
M  V30 8 2 8 9
M  V30 9 1 9 10
M  V30 10 2 10 11
M  V30 11 2 5 12
M  V30 12 1 12 13
M  V30 13 2 13 14
M  V30 14 1 14 15
M  V30 15 2 15 16
M  V30 16 1 16 17
M  V30 17 2 17 18
M  V30 18 1 17 19
M  V30 19 1 19 20
M  V30 20 1 20 21
M  V30 21 1 21 22
M  V30 22 1 22 23
M  V30 23 1 23 24
M  V30 24 1 24 25
M  V30 25 1 25 26
M  V30 26 2 26 27
M  V30 27 1 27 28
M  V30 28 2 28 29
M  V30 29 1 29 30
M  V30 30 1 30 31
M  V30 31 2 30 32
M  V30 32 1 16 33
M  V30 33 1 12 2
M  V30 34 1 33 13
M  V30 35 1 11 6
M  V30 36 1 25 20
M  V30 37 1 32 26
M  V30 38 1 1 34
M  V30 39 1 1 35
M  V30 40 1 1 36
M  V30 41 1 4 37
M  V30 42 1 7 38
M  V30 43 1 8 39
M  V30 44 1 10 40
M  V30 45 1 11 41
M  V30 46 1 14 42
M  V30 47 1 15 43
M  V30 48 1 19 44
M  V30 49 1 20 45 CFG=3
M  V30 50 1 21 46
M  V30 51 1 21 47
M  V30 52 1 22 48
M  V30 53 1 23 49
M  V30 54 1 23 50
M  V30 55 1 24 51
M  V30 56 1 24 52
M  V30 57 1 25 53 CFG=1
M  V30 58 1 27 54
M  V30 59 1 28 55
M  V30 60 1 29 56
M  V30 61 1 32 57
M  V30 END BOND
M  V30 END CTAB
M  END
>  <Dataset>  (937) 
ChEMBL_Kinases

>  <Ligand_Instance>  (937) 
nan

>  <PDB_ID>  (937) 
nan

>  <Standardized_SMILES>  (937) 
Cn1ncc(-c2ccncc2)c1-c1ccc(C(=O)N[C@@H]2CNCC[C@H]2c2cccc(F)c2)s1

>  <Name>  (937) 
nan

>  <Pocket>  (937) 
nan

>  <ATP_Site>  (937) 
nan

>  <Peripheral>  (937) 
nan

>  <Num_H_Atoms_ProtBoundConf>  (937) 
nan

>  <Num_Resolved_Atoms>  (937) 
nan

>  <Num_Not_Resolved_Atoms>  (937) 
nan

$$$$
CHEMBL4577102
     RDKit          3D

  0  0  0  0  0  0  0  0  0  0999 V3000
M  V30 BEGIN CTAB
M  V30 COUNTS 41 43 0 0 0
M  V30 BEGIN ATOM
M  V30 1 C 0.425562 -4.490512 1.422565 0
M  V30 2 C 0.763417 -3.059681 0.912455 0
M  V30 3 C 1.887220 -2.566299 1.779140 0
M  V30 4 C 1.286599 -3.306457 -0.472292 0
M  V30 5 C 1.722127 -2.139185 -1.252546 0
M  V30 6 O 1.888355 -0.898590 -1.347736 0
M  V30 7 O 2.165272 -2.631457 -2.472462 0
M  V30 8 N -0.375233 -2.211512 1.018110 0
M  V30 9 C -0.653052 -0.796181 1.054235 0
M  V30 10 N 0.326734 0.114259 1.028801 0
M  V30 11 C 0.197553 1.441801 1.085669 0
M  V30 12 C 1.326868 2.364213 1.051308 0
M  V30 13 C 1.086703 3.720472 1.115463 0
M  V30 14 C 2.231219 4.489470 1.074195 0
M  V30 15 N 3.501770 4.058716 0.981431 0
M  V30 16 C 3.731734 2.715017 0.918373 0
M  V30 17 C 2.621241 1.902656 0.955990 0
M  V30 18 N -1.064262 1.901099 1.178822 0
M  V30 19 C -2.119343 1.061860 1.211408 0
M  V30 20 C -3.419054 1.505109 1.305509 0
M  V30 21 N -4.502672 0.685931 1.339805 0
M  V30 22 C -4.331990 -0.668195 1.279276 0
M  V30 23 C -3.032689 -1.117641 1.184997 0
M  V30 24 C -1.930908 -0.296726 1.149728 0
M  V30 25 H -0.045812 -5.065137 0.620143 0
M  V30 26 H 1.410537 -4.944669 1.669329 0
M  V30 27 H -0.138422 -4.384287 2.349902 0
M  V30 28 H 2.622466 -1.969923 1.211289 0
M  V30 29 H 1.456390 -2.051058 2.661038 0
M  V30 30 H 2.455960 -3.431760 2.204306 0
M  V30 31 H 0.570647 -3.946967 -1.066145 0
M  V30 32 H 2.166123 -4.004511 -0.328013 0
M  V30 33 H 2.612524 -2.117918 -3.212721 0
M  V30 34 H -1.214395 -2.819144 1.078445 0
M  V30 35 H 0.107217 4.169487 1.191333 0
M  V30 36 H 2.144834 5.584318 1.119376 0
M  V30 37 H 4.681546 2.204725 0.842297 0
M  V30 38 H 2.724098 0.811448 0.910027 0
M  V30 39 H -3.549085 2.585703 1.353385 0
M  V30 40 H -5.203924 -1.302583 1.307723 0
M  V30 41 H -2.981040 -2.191941 1.141123 0
M  V30 END ATOM
M  V30 BEGIN BOND
M  V30 1 1 1 2
M  V30 2 1 2 3
M  V30 3 1 2 4
M  V30 4 1 4 5
M  V30 5 2 5 6
M  V30 6 1 5 7
M  V30 7 1 2 8
M  V30 8 1 8 9
M  V30 9 2 9 10
M  V30 10 1 10 11
M  V30 11 1 11 12
M  V30 12 2 12 13
M  V30 13 1 13 14
M  V30 14 2 14 15
M  V30 15 1 15 16
M  V30 16 2 16 17
M  V30 17 2 11 18
M  V30 18 1 18 19
M  V30 19 2 19 20
M  V30 20 1 20 21
M  V30 21 2 21 22
M  V30 22 1 22 23
M  V30 23 2 23 24
M  V30 24 1 24 9
M  V30 25 1 17 12
M  V30 26 1 24 19
M  V30 27 1 1 25
M  V30 28 1 1 26
M  V30 29 1 1 27
M  V30 30 1 3 28
M  V30 31 1 3 29
M  V30 32 1 3 30
M  V30 33 1 4 31
M  V30 34 1 4 32
M  V30 35 1 7 33
M  V30 36 1 8 34
M  V30 37 1 13 35
M  V30 38 1 14 36
M  V30 39 1 16 37
M  V30 40 1 17 38
M  V30 41 1 20 39
M  V30 42 1 22 40
M  V30 43 1 23 41
M  V30 END BOND
M  V30 END CTAB
M  END
>  <Dataset>  (938) 
ChEMBL_Kinases

>  <Ligand_Instance>  (938) 
nan

>  <PDB_ID>  (938) 
nan

>  <Standardized_SMILES>  (938) 
CC(C)(CC(=O)O)Nc1nc(-c2ccncc2)nc2cnccc12

>  <Name>  (938) 
nan

>  <Pocket>  (938) 
nan

>  <ATP_Site>  (938) 
nan

>  <Peripheral>  (938) 
nan

>  <Num_H_Atoms_ProtBoundConf>  (938) 
nan

>  <Num_Resolved_Atoms>  (938) 
nan

>  <Num_Not_Resolved_Atoms>  (938) 
nan

$$$$
CHEMBL4577079
     RDKit          3D

  0  0  0  0  0  0  0  0  0  0999 V3000
M  V30 BEGIN CTAB
M  V30 COUNTS 52 55 0 0 0
M  V30 BEGIN ATOM
M  V30 1 C -1.448084 -3.537444 2.788512 0
M  V30 2 C -0.068945 -3.894486 2.248074 0
M  V30 3 C 0.488802 -4.933968 3.204097 0
M  V30 4 C 0.796979 -2.698814 2.125950 0
M  V30 5 C 1.458437 -2.420703 0.839103 0
M  V30 6 C 1.943681 -1.012439 0.822799 0
M  V30 7 C 3.194765 -0.470437 1.142743 0
M  V30 8 N 3.215107 0.849036 0.987605 0
M  V30 9 C 2.020602 1.241695 0.570897 0
M  V30 10 C 1.540485 2.498998 0.270580 0
M  V30 11 C 2.378917 3.668132 0.385923 0
M  V30 12 N 3.732945 3.702730 0.796881 0
M  V30 13 O 2.002309 4.820209 0.130812 0
M  V30 14 C 0.242651 2.691781 -0.151482 0
M  V30 15 C -0.589093 1.572336 -0.270812 0
M  V30 16 C -1.969054 1.749916 -0.716284 0
M  V30 17 C -2.899729 0.842613 -0.210285 0
M  V30 18 C -4.241755 0.951006 -0.593190 0
M  V30 19 C -4.649859 1.948710 -1.467172 0
M  V30 20 C -3.703402 2.848669 -1.963858 0
M  V30 21 C -2.389663 2.724048 -1.574564 0
M  V30 22 C -0.058328 0.336502 0.042355 0
M  V30 23 C 1.224662 0.117089 0.462872 0
M  V30 24 C 0.883076 -2.799719 -0.444667 0
M  V30 25 C -0.459287 -3.430055 -0.470260 0
M  V30 26 S -0.382927 -4.737847 0.725446 0
M  V30 27 O 0.781987 -5.598192 0.401535 0
M  V30 28 O -1.648579 -5.519281 0.747534 0
M  V30 29 H -1.333617 -2.948160 3.719771 0
M  V30 30 H -2.055633 -3.028048 2.009338 0
M  V30 31 H -1.948992 -4.494017 3.057346 0
M  V30 32 H 0.468731 -4.462702 4.218534 0
M  V30 33 H 1.555947 -5.103225 2.915606 0
M  V30 34 H -0.072830 -5.866842 3.163223 0
M  V30 35 H 1.540299 -2.768819 2.953682 0
M  V30 36 H 0.201958 -1.801970 2.417324 0
M  V30 37 H 2.440398 -2.998033 0.911577 0
M  V30 38 H 4.009447 -1.133736 1.475464 0
M  V30 39 H 4.085777 1.382612 1.191010 0
M  V30 40 H 4.224948 3.802029 1.696748 0
M  V30 41 H 4.321849 3.597702 -0.063396 0
M  V30 42 H -0.154379 3.651676 -0.390241 0
M  V30 43 H -2.706991 0.025131 0.474481 0
M  V30 44 H -5.008013 0.257217 -0.218323 0
M  V30 45 H -5.700505 2.049477 -1.779307 0
M  V30 46 H -3.996399 3.627422 -2.640231 0
M  V30 47 H -1.606803 3.374265 -1.911266 0
M  V30 48 H -0.729175 -0.476383 -0.062150 0
M  V30 49 H 1.538045 -3.500836 -1.053822 0
M  V30 50 H 0.838364 -1.909916 -1.144296 0
M  V30 51 H -1.326874 -2.773127 -0.329566 0
M  V30 52 H -0.617910 -3.908342 -1.458964 0
M  V30 END ATOM
M  V30 BEGIN BOND
M  V30 1 1 1 2
M  V30 2 1 2 3
M  V30 3 1 2 4
M  V30 4 1 4 5
M  V30 5 1 5 6
M  V30 6 2 6 7
M  V30 7 1 7 8
M  V30 8 1 8 9
M  V30 9 2 9 10
M  V30 10 1 10 11
M  V30 11 1 11 12
M  V30 12 2 11 13
M  V30 13 1 10 14
M  V30 14 2 14 15
M  V30 15 1 15 16
M  V30 16 2 16 17
M  V30 17 1 17 18
M  V30 18 2 18 19
M  V30 19 1 19 20
M  V30 20 2 20 21
M  V30 21 1 15 22
M  V30 22 2 22 23
M  V30 23 1 5 24
M  V30 24 1 24 25
M  V30 25 1 25 26
M  V30 26 2 26 27
M  V30 27 2 26 28
M  V30 28 1 26 2
M  V30 29 1 23 6
M  V30 30 1 23 9
M  V30 31 1 21 16
M  V30 32 1 1 29
M  V30 33 1 1 30
M  V30 34 1 1 31
M  V30 35 1 3 32
M  V30 36 1 3 33
M  V30 37 1 3 34
M  V30 38 1 4 35
M  V30 39 1 4 36
M  V30 40 1 5 37
M  V30 41 1 7 38
M  V30 42 1 8 39
M  V30 43 1 12 40
M  V30 44 1 12 41
M  V30 45 1 14 42
M  V30 46 1 17 43
M  V30 47 1 18 44
M  V30 48 1 19 45
M  V30 49 1 20 46
M  V30 50 1 21 47
M  V30 51 1 22 48
M  V30 52 1 24 49
M  V30 53 1 24 50
M  V30 54 1 25 51
M  V30 55 1 25 52
M  V30 END BOND
M  V30 END CTAB
M  END
>  <Dataset>  (939) 
ChEMBL_Kinases

>  <Ligand_Instance>  (939) 
nan

>  <PDB_ID>  (939) 
nan

>  <Standardized_SMILES>  (939) 
CC1(C)CC(c2c[nH]c3c(C(N)=O)cc(-c4ccccc4)cc23)CCS1(=O)=O

>  <Name>  (939) 
nan

>  <Pocket>  (939) 
nan

>  <ATP_Site>  (939) 
nan

>  <Peripheral>  (939) 
nan

>  <Num_H_Atoms_ProtBoundConf>  (939) 
nan

>  <Num_Resolved_Atoms>  (939) 
nan

>  <Num_Not_Resolved_Atoms>  (939) 
nan

$$$$
CHEMBL4576938
     RDKit          3D

  0  0  0  0  0  0  0  0  0  0999 V3000
M  V30 BEGIN CTAB
M  V30 COUNTS 50 54 0 0 0
M  V30 BEGIN ATOM
M  V30 1 C 3.566632 -0.090358 -5.389419 0
M  V30 2 C 3.322796 -0.687396 -4.051337 0
M  V30 3 C 3.156802 0.167455 -2.971517 0
M  V30 4 C 2.932386 -0.426929 -1.762263 0
M  V30 5 C 2.850066 -1.771424 -1.479625 0
M  V30 6 C 2.600483 -2.333500 -0.153124 0
M  V30 7 C 2.525491 -3.723589 0.060474 0
M  V30 8 S 2.197667 -3.801349 1.856423 0
M  V30 9 C 2.218853 -1.909473 2.012381 0
M  V30 10 C 1.989656 -1.269572 3.332112 0
M  V30 11 N 0.553113 -0.985270 3.442323 0
M  V30 12 N 0.174312 0.191570 2.980969 0
M  V30 13 C -1.109993 0.585196 3.006903 0
M  V30 14 C -1.432306 1.874976 2.391394 0
M  V30 15 C -1.755854 1.633801 0.935346 0
M  V30 16 O -2.083959 2.821808 0.277338 0
M  V30 17 C -2.673012 2.320251 -0.904689 0
M  V30 18 C -3.610902 1.310461 -0.299773 0
M  V30 19 O -4.717917 1.059082 -0.837076 0
M  V30 20 O -2.919361 0.867773 0.834203 0
M  V30 21 C -1.975530 -0.336086 3.552850 0
M  V30 22 C -3.303476 0.038358 3.625924 0
M  V30 23 C -4.261380 -0.784995 4.165847 0
M  V30 24 C -3.877893 -2.014868 4.645884 0
M  V30 25 C -2.560630 -2.429276 4.595404 0
M  V30 26 C -1.619161 -1.572753 4.044214 0
M  V30 27 C -0.282886 -1.894172 3.975679 0
M  V30 28 O 0.124369 -3.006011 4.402821 0
M  V30 29 N 2.440698 -1.500293 0.848942 0
M  V30 30 C 3.023512 -2.561647 -2.592899 0
M  V30 31 C 3.257568 -2.063410 -3.871600 0
M  V30 32 H 4.151797 -0.799505 -6.008978 0
M  V30 33 H 2.602913 0.083524 -5.932688 0
M  V30 34 H 4.143347 0.834519 -5.303770 0
M  V30 35 H 3.205431 1.230123 -3.099762 0
M  V30 36 H 2.805808 0.275905 -0.931910 0
M  V30 37 H 2.650080 -4.490167 -0.733561 0
M  V30 38 H 2.600043 -0.356161 3.349531 0
M  V30 39 H 2.339676 -1.915959 4.160823 0
M  V30 40 H -2.333107 2.383498 2.783816 0
M  V30 41 H -0.536952 2.535600 2.422384 0
M  V30 42 H -0.910959 1.114585 0.413440 0
M  V30 43 H -1.966563 1.725322 -1.510900 0
M  V30 44 H -3.211863 3.089844 -1.466405 0
M  V30 45 H -3.698374 0.990228 3.300714 0
M  V30 46 H -5.318386 -0.538740 4.246368 0
M  V30 47 H -4.534593 -2.745931 5.088862 0
M  V30 48 H -2.210882 -3.398628 4.965936 0
M  V30 49 H 2.987022 -3.639613 -2.534997 0
M  V30 50 H 3.386938 -2.728241 -4.713747 0
M  V30 END ATOM
M  V30 BEGIN BOND
M  V30 1 1 1 2
M  V30 2 2 2 3
M  V30 3 1 3 4
M  V30 4 2 4 5
M  V30 5 1 5 6
M  V30 6 2 6 7
M  V30 7 1 7 8
M  V30 8 1 8 9
M  V30 9 1 9 10
M  V30 10 1 10 11
M  V30 11 1 11 12
M  V30 12 2 12 13
M  V30 13 1 13 14
M  V30 14 1 14 15
M  V30 15 1 15 16
M  V30 16 1 16 17
M  V30 17 1 17 18
M  V30 18 2 18 19
M  V30 19 1 18 20
M  V30 20 1 13 21
M  V30 21 2 21 22
M  V30 22 1 22 23
M  V30 23 2 23 24
M  V30 24 1 24 25
M  V30 25 2 25 26
M  V30 26 1 26 27
M  V30 27 2 27 28
M  V30 28 2 9 29
M  V30 29 1 5 30
M  V30 30 2 30 31
M  V30 31 1 31 2
M  V30 32 1 29 6
M  V30 33 1 27 11
M  V30 34 1 20 15
M  V30 35 1 26 21
M  V30 36 1 1 32
M  V30 37 1 1 33
M  V30 38 1 1 34
M  V30 39 1 3 35
M  V30 40 1 4 36
M  V30 41 1 7 37
M  V30 42 1 10 38
M  V30 43 1 10 39
M  V30 44 1 14 40
M  V30 45 1 14 41
M  V30 46 1 15 42
M  V30 47 1 17 43
M  V30 48 1 17 44
M  V30 49 1 22 45
M  V30 50 1 23 46
M  V30 51 1 24 47
M  V30 52 1 25 48
M  V30 53 1 30 49
M  V30 54 1 31 50
M  V30 END BOND
M  V30 END CTAB
M  END
>  <Dataset>  (940) 
ChEMBL_Kinases

>  <Ligand_Instance>  (940) 
nan

>  <PDB_ID>  (940) 
nan

>  <Standardized_SMILES>  (940) 
Cc1ccc(-c2csc(Cn3nc(CC4OCC(=O)O4)c4ccccc4c3=O)n2)cc1

>  <Name>  (940) 
nan

>  <Pocket>  (940) 
nan

>  <ATP_Site>  (940) 
nan

>  <Peripheral>  (940) 
nan

>  <Num_H_Atoms_ProtBoundConf>  (940) 
nan

>  <Num_Resolved_Atoms>  (940) 
nan

>  <Num_Not_Resolved_Atoms>  (940) 
nan

$$$$
CHEMBL4576899
     RDKit          3D

  0  0  0  0  0  0  0  0  0  0999 V3000
M  V30 BEGIN CTAB
M  V30 COUNTS 41 43 0 0 0
M  V30 BEGIN ATOM
M  V30 1 O 2.743191 1.656880 1.080324 0
M  V30 2 C 2.005538 0.668089 0.762963 0
M  V30 3 N 2.763562 -0.513074 0.978903 0
M  V30 4 C 4.067521 -0.140497 1.470936 0
M  V30 5 C 4.459939 0.026506 2.784084 0
M  V30 6 C 5.770419 0.388926 3.023577 0
M  V30 7 N 6.661476 0.581081 2.034276 0
M  V30 8 N 6.250674 0.412202 0.785876 0
M  V30 9 C 4.988290 0.058671 0.461504 0
M  V30 10 C 0.644724 0.796655 0.275419 0
M  V30 11 C 0.236145 2.139193 0.194482 0
M  V30 12 C -1.011210 2.495457 -0.240423 0
M  V30 13 C -1.433278 3.918627 -0.322101 0
M  V30 14 F -0.373122 4.731652 0.101500 0
M  V30 15 F -2.490223 4.206955 0.497743 0
M  V30 16 F -1.651931 4.302607 -1.643182 0
M  V30 17 C -1.920024 1.544174 -0.618135 0
M  V30 18 C -1.495955 0.234996 -0.529974 0
M  V30 19 C -0.253612 -0.180627 -0.099705 0
M  V30 20 O 0.202189 -1.432974 0.002469 0
M  V30 21 C -0.271967 -2.691018 -0.229544 0
M  V30 22 C -1.442077 -3.150757 0.516225 0
M  V30 23 C -1.204907 -3.706365 1.776653 0
M  V30 24 C -2.163187 -4.208487 2.630895 0
M  V30 25 C -3.475258 -4.164520 2.216981 0
M  V30 26 C -3.777849 -3.630442 0.986833 0
M  V30 27 C -2.778546 -3.145017 0.178303 0
M  V30 28 H 2.311296 -1.405091 0.769994 0
M  V30 29 H 3.684452 -0.147626 3.498564 0
M  V30 30 H 6.026355 0.506797 4.070082 0
M  V30 31 H 4.801943 -0.040908 -0.592466 0
M  V30 32 H 0.868398 2.984748 0.466413 0
M  V30 33 H -2.915009 1.784839 -0.967238 0
M  V30 34 H -2.199715 -0.509811 -0.826815 0
M  V30 35 H 0.565420 -3.419235 -0.002908 0
M  V30 36 H -0.486317 -2.822364 -1.329174 0
M  V30 37 H -0.173551 -3.767418 2.159384 0
M  V30 38 H -1.894771 -4.622128 3.591582 0
M  V30 39 H -4.292820 -4.534051 2.818691 0
M  V30 40 H -4.799907 -3.574697 0.617840 0
M  V30 41 H -2.993462 -2.727997 -0.795749 0
M  V30 END ATOM
M  V30 BEGIN BOND
M  V30 1 2 1 2
M  V30 2 1 2 3
M  V30 3 1 3 4
M  V30 4 2 4 5
M  V30 5 1 5 6
M  V30 6 2 6 7
M  V30 7 1 7 8
M  V30 8 2 8 9
M  V30 9 1 2 10
M  V30 10 2 10 11
M  V30 11 1 11 12
M  V30 12 1 12 13
M  V30 13 1 13 14
M  V30 14 1 13 15
M  V30 15 1 13 16
M  V30 16 2 12 17
M  V30 17 1 17 18
M  V30 18 2 18 19
M  V30 19 1 19 20
M  V30 20 1 20 21
M  V30 21 1 21 22
M  V30 22 2 22 23
M  V30 23 1 23 24
M  V30 24 2 24 25
M  V30 25 1 25 26
M  V30 26 2 26 27
M  V30 27 1 9 4
M  V30 28 1 19 10
M  V30 29 1 27 22
M  V30 30 1 3 28
M  V30 31 1 5 29
M  V30 32 1 6 30
M  V30 33 1 9 31
M  V30 34 1 11 32
M  V30 35 1 17 33
M  V30 36 1 18 34
M  V30 37 1 21 35
M  V30 38 1 21 36
M  V30 39 1 23 37
M  V30 40 1 24 38
M  V30 41 1 25 39
M  V30 42 1 26 40
M  V30 43 1 27 41
M  V30 END BOND
M  V30 END CTAB
M  END
>  <Dataset>  (941) 
ChEMBL_Kinases

>  <Ligand_Instance>  (941) 
nan

>  <PDB_ID>  (941) 
nan

>  <Standardized_SMILES>  (941) 
O=C(Nc1ccnnc1)c1cc(C(F)(F)F)ccc1OCc1ccccc1

>  <Name>  (941) 
nan

>  <Pocket>  (941) 
nan

>  <ATP_Site>  (941) 
nan

>  <Peripheral>  (941) 
nan

>  <Num_H_Atoms_ProtBoundConf>  (941) 
nan

>  <Num_Resolved_Atoms>  (941) 
nan

>  <Num_Not_Resolved_Atoms>  (941) 
nan

$$$$
CHEMBL4633241
     RDKit          3D

  0  0  0  0  0  0  0  0  0  0999 V3000
M  V30 BEGIN CTAB
M  V30 COUNTS 64 67 0 0 0
M  V30 BEGIN ATOM
M  V30 1 C 3.312724 4.258014 5.209139 0
M  V30 2 O 2.860855 3.085026 4.933360 0
M  V30 3 C 2.423887 1.909199 4.630376 0
M  V30 4 C 2.900787 1.405073 3.416994 0
M  V30 5 C 2.498983 0.134499 2.976348 0
M  V30 6 C 2.963085 -0.403778 1.694685 0
M  V30 7 C 4.258574 -0.716500 1.299848 0
M  V30 8 N 4.506427 -1.213013 0.079225 0
M  V30 9 C 3.515674 -1.425919 -0.800244 0
M  V30 10 C 2.182800 -1.167849 -0.558306 0
M  V30 11 C 1.054128 -1.369291 -1.453196 0
M  V30 12 C 1.217649 -0.778530 -2.701183 0
M  V30 13 C 0.194492 -0.892152 -3.636328 0
M  V30 14 C -0.991794 -1.564156 -3.410335 0
M  V30 15 C -2.041488 -1.635381 -4.450734 0
M  V30 16 C -2.564457 -3.036228 -4.646493 0
M  V30 17 C -3.935799 -2.955958 -5.243821 0
M  V30 18 N -4.865414 -2.532626 -4.208854 0
M  V30 19 C -4.998532 -3.644715 -3.286122 0
M  V30 20 C -4.340608 -1.412206 -3.454067 0
M  V30 21 C -3.202618 -0.731677 -4.213100 0
M  V30 22 C -1.114499 -2.143965 -2.148011 0
M  V30 23 C -0.115400 -2.050649 -1.182532 0
M  V30 24 C 1.963710 -0.645895 0.733444 0
M  V30 25 C 0.574249 -0.259480 1.095877 0
M  V30 26 C 1.639433 -0.586647 3.764360 0
M  V30 27 C 1.123663 -0.164208 4.969384 0
M  V30 28 O 0.294727 -0.675994 5.891279 0
M  V30 29 C -0.314881 -1.949555 5.942819 0
M  V30 30 C 1.546641 1.115067 5.377300 0
M  V30 31 O 1.158223 1.749217 6.554740 0
M  V30 32 C 0.009073 2.545078 6.674572 0
M  V30 33 H 4.335936 4.460316 4.734938 0
M  V30 34 H 2.741479 5.167930 4.838299 0
M  V30 35 H 3.541146 4.404879 6.302573 0
M  V30 36 H 3.583798 1.908241 2.737107 0
M  V30 37 H 4.988246 -0.523266 2.051051 0
M  V30 38 H 3.740425 -1.829520 -1.790494 0
M  V30 39 H 2.124523 -0.222734 -2.979493 0
M  V30 40 H 0.336572 -0.433540 -4.599524 0
M  V30 41 H -1.553151 -1.320916 -5.397155 0
M  V30 42 H -1.872548 -3.657424 -5.277124 0
M  V30 43 H -2.579636 -3.586406 -3.658085 0
M  V30 44 H -4.223617 -3.935870 -5.673417 0
M  V30 45 H -3.912861 -2.162351 -6.026922 0
M  V30 46 H -4.958749 -4.604252 -3.842275 0
M  V30 47 H -4.259156 -3.595032 -2.462039 0
M  V30 48 H -6.022891 -3.643322 -2.803879 0
M  V30 49 H -5.170145 -0.645733 -3.424857 0
M  V30 50 H -4.083124 -1.624606 -2.419530 0
M  V30 51 H -2.955710 0.153413 -3.586927 0
M  V30 52 H -3.627153 -0.339294 -5.156825 0
M  V30 53 H -2.012606 -2.691370 -1.906166 0
M  V30 54 H -0.197905 -2.504522 -0.210222 0
M  V30 55 H 0.003425 -0.049260 0.169032 0
M  V30 56 H 0.549408 0.695967 1.662199 0
M  V30 57 H 0.032130 -1.061797 1.624781 0
M  V30 58 H 1.281337 -1.564296 3.537515 0
M  V30 59 H -0.426023 -2.334461 6.951752 0
M  V30 60 H 0.361096 -2.650956 5.392578 0
M  V30 61 H -1.290445 -1.979369 5.455040 0
M  V30 62 H -0.475323 2.557834 5.663949 0
M  V30 63 H 0.205695 3.598687 6.935098 0
M  V30 64 H -0.708002 2.182850 7.442313 0
M  V30 END ATOM
M  V30 BEGIN BOND
M  V30 1 1 1 2
M  V30 2 1 2 3
M  V30 3 2 3 4
M  V30 4 1 4 5
M  V30 5 1 5 6
M  V30 6 2 6 7
M  V30 7 1 7 8
M  V30 8 2 8 9
M  V30 9 1 9 10
M  V30 10 1 10 11
M  V30 11 2 11 12
M  V30 12 1 12 13
M  V30 13 2 13 14
M  V30 14 1 14 15
M  V30 15 1 15 16
M  V30 16 1 16 17
M  V30 17 1 17 18
M  V30 18 1 18 19
M  V30 19 1 18 20
M  V30 20 1 20 21
M  V30 21 1 14 22
M  V30 22 2 22 23
M  V30 23 2 10 24
M  V30 24 1 24 25
M  V30 25 2 5 26
M  V30 26 1 26 27
M  V30 27 1 27 28
M  V30 28 1 28 29
M  V30 29 2 27 30
M  V30 30 1 30 31
M  V30 31 1 31 32
M  V30 32 1 30 3
M  V30 33 1 24 6
M  V30 34 1 23 11
M  V30 35 1 21 15
M  V30 36 1 1 33
M  V30 37 1 1 34
M  V30 38 1 1 35
M  V30 39 1 4 36
M  V30 40 1 7 37
M  V30 41 1 9 38
M  V30 42 1 12 39
M  V30 43 1 13 40
M  V30 44 1 15 41
M  V30 45 1 16 42
M  V30 46 1 16 43
M  V30 47 1 17 44
M  V30 48 1 17 45
M  V30 49 1 19 46
M  V30 50 1 19 47
M  V30 51 1 19 48
M  V30 52 1 20 49
M  V30 53 1 20 50
M  V30 54 1 21 51
M  V30 55 1 21 52
M  V30 56 1 22 53
M  V30 57 1 23 54
M  V30 58 1 25 55
M  V30 59 1 25 56
M  V30 60 1 25 57
M  V30 61 1 26 58
M  V30 62 1 29 59
M  V30 63 1 29 60
M  V30 64 1 29 61
M  V30 65 1 32 62
M  V30 66 1 32 63
M  V30 67 1 32 64
M  V30 END BOND
M  V30 END CTAB
M  END
>  <Dataset>  (942) 
ChEMBL_Kinases

>  <Ligand_Instance>  (942) 
nan

>  <PDB_ID>  (942) 
nan

>  <Standardized_SMILES>  (942) 
COc1cc(-c2cncc(-c3ccc(C4CCN(C)CC4)cc3)c2C)cc(OC)c1OC

>  <Name>  (942) 
nan

>  <Pocket>  (942) 
nan

>  <ATP_Site>  (942) 
nan

>  <Peripheral>  (942) 
nan

>  <Num_H_Atoms_ProtBoundConf>  (942) 
nan

>  <Num_Resolved_Atoms>  (942) 
nan

>  <Num_Not_Resolved_Atoms>  (942) 
nan

$$$$
CHEMBL4632887
     RDKit          3D

  0  0  0  0  0  0  0  0  0  0999 V3000
M  V30 BEGIN CTAB
M  V30 COUNTS 45 46 0 0 0
M  V30 BEGIN ATOM
M  V30 1 C 1.204817 -5.050045 2.033359 0
M  V30 2 N 2.218226 -4.035175 1.799613 0
M  V30 3 C 1.825146 -3.112324 0.765460 0
M  V30 4 C 2.827909 -2.022873 0.496881 0
M  V30 5 N 3.063795 -1.196906 1.671559 0
M  V30 6 C 3.721847 -1.624945 2.870412 0
M  V30 7 C 2.568345 0.141491 1.536814 0
M  V30 8 N 3.194114 1.314096 1.544459 0
M  V30 9 C 2.611952 2.492536 1.377256 0
M  V30 10 C 1.263831 2.422710 1.185901 0
M  V30 11 C 0.385468 3.551424 0.972225 0
M  V30 12 N 1.083924 4.807321 0.992919 0
M  V30 13 O -0.644491 4.166506 0.770983 0
M  V30 14 C 0.508569 1.270073 1.157675 0
M  V30 15 N -0.890464 1.120779 0.962917 0
M  V30 16 C -1.665258 0.456197 -0.026164 0
M  V30 17 C -1.179079 0.074222 -1.254471 0
M  V30 18 C -2.083620 -0.597699 -2.032728 0
M  V30 19 C -3.375337 -0.902746 -1.691749 0
M  V30 20 C -3.809995 -0.499292 -0.459905 0
M  V30 21 C -5.207879 -0.790653 0.014427 0
M  V30 22 F -5.994612 0.251721 -0.381100 0
M  V30 23 F -5.678317 -1.984242 -0.498228 0
M  V30 24 F -5.215782 -0.841874 1.397757 0
M  V30 25 C -2.970361 0.174209 0.370930 0
M  V30 26 N 1.226027 0.137268 1.342590 0
M  V30 27 H 1.557916 -6.076387 1.958665 0
M  V30 28 H 0.857224 -4.898242 3.095327 0
M  V30 29 H 0.285534 -4.905906 1.429749 0
M  V30 30 H 3.148680 -4.478425 1.594096 0
M  V30 31 H 0.829695 -2.682470 0.921789 0
M  V30 32 H 1.757984 -3.717953 -0.179964 0
M  V30 33 H 3.820883 -2.465043 0.218184 0
M  V30 34 H 2.528105 -1.415738 -0.371700 0
M  V30 35 H 4.575730 -0.937071 3.142839 0
M  V30 36 H 4.195837 -2.625560 2.681946 0
M  V30 37 H 3.023447 -1.707274 3.728370 0
M  V30 38 H 3.104480 3.432745 1.381623 0
M  V30 39 H 1.412120 5.647327 0.493436 0
M  V30 40 H 1.401943 5.647426 0.456179 0
M  V30 41 H -1.294802 1.650658 1.758633 0
M  V30 42 H -0.162187 0.313322 -1.532221 0
M  V30 43 H -1.774804 -0.931565 -3.023057 0
M  V30 44 H -4.070987 -1.430228 -2.308164 0
M  V30 45 H -3.356737 0.485601 1.354622 0
M  V30 END ATOM
M  V30 BEGIN BOND
M  V30 1 1 1 2
M  V30 2 1 2 3
M  V30 3 1 3 4
M  V30 4 1 4 5
M  V30 5 1 5 6
M  V30 6 1 5 7
M  V30 7 2 7 8
M  V30 8 1 8 9
M  V30 9 2 9 10
M  V30 10 1 10 11
M  V30 11 1 11 12
M  V30 12 2 11 13
M  V30 13 1 10 14
M  V30 14 1 14 15
M  V30 15 1 15 16
M  V30 16 2 16 17
M  V30 17 1 17 18
M  V30 18 2 18 19
M  V30 19 1 19 20
M  V30 20 1 20 21
M  V30 21 1 21 22
M  V30 22 1 21 23
M  V30 23 1 21 24
M  V30 24 2 20 25
M  V30 25 2 14 26
M  V30 26 1 26 7
M  V30 27 1 25 16
M  V30 28 1 1 27
M  V30 29 1 1 28
M  V30 30 1 1 29
M  V30 31 1 2 30
M  V30 32 1 3 31
M  V30 33 1 3 32
M  V30 34 1 4 33
M  V30 35 1 4 34
M  V30 36 1 6 35
M  V30 37 1 6 36
M  V30 38 1 6 37
M  V30 39 1 9 38
M  V30 40 1 12 39
M  V30 41 1 12 40
M  V30 42 1 15 41
M  V30 43 1 17 42
M  V30 44 1 18 43
M  V30 45 1 19 44
M  V30 46 1 25 45
M  V30 END BOND
M  V30 END CTAB
M  END
>  <Dataset>  (943) 
ChEMBL_Kinases

>  <Ligand_Instance>  (943) 
nan

>  <PDB_ID>  (943) 
nan

>  <Standardized_SMILES>  (943) 
CNCCN(C)c1ncc(C(N)=O)c(Nc2cccc(C(F)(F)F)c2)n1

>  <Name>  (943) 
nan

>  <Pocket>  (943) 
nan

>  <ATP_Site>  (943) 
nan

>  <Peripheral>  (943) 
nan

>  <Num_H_Atoms_ProtBoundConf>  (943) 
nan

>  <Num_Resolved_Atoms>  (943) 
nan

>  <Num_Not_Resolved_Atoms>  (943) 
nan

$$$$
CHEMBL4632891
     RDKit          3D

  0  0  0  0  0  0  0  0  0  0999 V3000
M  V30 BEGIN CTAB
M  V30 COUNTS 66 69 0 0 0
M  V30 BEGIN ATOM
M  V30 1 C 3.990473 -5.797484 2.440385 0
M  V30 2 C 4.683058 -4.799160 3.342311 0
M  V30 3 N 4.798022 -3.500111 2.704769 0
M  V30 4 C 3.582665 -2.862944 2.332742 0
M  V30 5 O 2.758160 -3.726181 2.721593 0
M  V30 6 C 3.565200 -1.562882 1.688698 0
M  V30 7 C 4.784422 -0.988623 1.442933 0
M  V30 8 N 4.837358 0.208640 0.849365 0
M  V30 9 C 3.750185 0.896124 0.473395 0
M  V30 10 C 3.881399 2.145848 -0.121310 0
M  V30 11 C 2.741233 2.829856 -0.472659 0
M  V30 12 C 1.502648 2.284960 -0.238152 0
M  V30 13 C 0.345213 3.086327 -0.593363 0
M  V30 14 C -0.959698 2.717318 -0.367129 0
M  V30 15 C -2.080157 3.450005 -0.710224 0
M  V30 16 Cl -3.709984 2.895061 -0.378745 0
M  V30 17 C -1.904801 4.659758 -1.333818 0
M  V30 18 O -3.000186 5.424954 -1.694519 0
M  V30 19 C -0.621881 5.078478 -1.584025 0
M  V30 20 Cl -0.443614 6.619799 -2.376543 0
M  V30 21 C 0.448124 4.293746 -1.213331 0
M  V30 22 N 1.442439 1.079353 0.334685 0
M  V30 23 C 2.509315 0.356504 0.701844 0
M  V30 24 C 2.416917 -0.894958 1.318709 0
M  V30 25 N 1.165822 -1.468259 1.565327 0
M  V30 26 C -0.195212 -1.084325 1.215885 0 CFG=1
M  V30 27 C -0.418063 -1.259930 -0.239740 0
M  V30 28 C -1.324346 -2.399685 -0.634808 0
M  V30 29 C -2.686494 -2.283857 0.012014 0 CFG=2
M  V30 30 C -3.672422 -1.641662 -0.915952 0
M  V30 31 N -4.998125 -1.490777 -0.387900 0
M  V30 32 C -5.705410 -2.724945 -0.192403 0
M  V30 33 C -5.773477 -0.497480 -1.096865 0
M  V30 34 C -2.581074 -1.546455 1.337222 0
M  V30 35 C -1.238528 -1.836045 1.992792 0
M  V30 36 H 3.820871 -5.389235 1.423560 0
M  V30 37 H 4.568286 -6.738558 2.310372 0
M  V30 38 H 2.987596 -6.075986 2.828966 0
M  V30 39 H 5.683381 -5.168937 3.652945 0
M  V30 40 H 4.051654 -4.665744 4.244105 0
M  V30 41 H 5.769952 -3.090166 2.547588 0
M  V30 42 H 5.761516 -1.341429 1.649733 0
M  V30 43 H 4.909378 2.487167 -0.261968 0
M  V30 44 H 2.999287 3.777172 -0.919969 0
M  V30 45 H -1.196947 1.790523 0.127703 0
M  V30 46 H -3.536341 5.916664 -1.011508 0
M  V30 47 H 1.390164 4.748819 -1.473882 0
M  V30 48 H 1.113033 -2.355960 2.104014 0
M  V30 49 H -0.343851 0.008544 1.464212 0
M  V30 50 H 0.578344 -1.515488 -0.713130 0
M  V30 51 H -0.704425 -0.312787 -0.717818 0
M  V30 52 H -1.472961 -2.341068 -1.729054 0
M  V30 53 H -0.884567 -3.388007 -0.415040 0
M  V30 54 H -3.034114 -3.304113 0.241141 0
M  V30 55 H -3.298119 -0.607868 -1.110379 0
M  V30 56 H -3.766895 -2.160394 -1.880831 0
M  V30 57 H -5.449605 -3.360965 -1.090842 0
M  V30 58 H -5.387224 -3.296355 0.684169 0
M  V30 59 H -6.797018 -2.567726 -0.176182 0
M  V30 60 H -6.072535 -0.906658 -2.063318 0
M  V30 61 H -6.630877 -0.132868 -0.533953 0
M  V30 62 H -5.102676 0.366970 -1.325152 0
M  V30 63 H -3.396632 -1.754628 2.029717 0
M  V30 64 H -2.583070 -0.463457 1.096488 0
M  V30 65 H -0.983377 -2.929661 1.972494 0
M  V30 66 H -1.324629 -1.463073 3.039879 0
M  V30 END ATOM
M  V30 BEGIN BOND
M  V30 1 1 1 2
M  V30 2 1 2 3
M  V30 3 1 3 4
M  V30 4 2 4 5
M  V30 5 1 4 6
M  V30 6 2 6 7
M  V30 7 1 7 8
M  V30 8 2 8 9
M  V30 9 1 9 10
M  V30 10 2 10 11
M  V30 11 1 11 12
M  V30 12 1 12 13
M  V30 13 2 13 14
M  V30 14 1 14 15
M  V30 15 1 15 16
M  V30 16 2 15 17
M  V30 17 1 17 18
M  V30 18 1 17 19
M  V30 19 1 19 20
M  V30 20 2 19 21
M  V30 21 2 12 22
M  V30 22 1 22 23
M  V30 23 2 23 24
M  V30 24 1 24 25
M  V30 25 1 25 26
M  V30 26 1 26 27
M  V30 27 1 27 28
M  V30 28 1 28 29
M  V30 29 1 29 30
M  V30 30 1 30 31
M  V30 31 1 31 32
M  V30 32 1 31 33
M  V30 33 1 29 34
M  V30 34 1 34 35
M  V30 35 1 24 6
M  V30 36 1 35 26
M  V30 37 1 23 9
M  V30 38 1 21 13
M  V30 39 1 1 36
M  V30 40 1 1 37
M  V30 41 1 1 38
M  V30 42 1 2 39
M  V30 43 1 2 40
M  V30 44 1 3 41
M  V30 45 1 7 42
M  V30 46 1 10 43
M  V30 47 1 11 44
M  V30 48 1 14 45
M  V30 49 1 18 46
M  V30 50 1 21 47
M  V30 51 1 25 48
M  V30 52 1 26 49 CFG=3
M  V30 53 1 27 50
M  V30 54 1 27 51
M  V30 55 1 28 52
M  V30 56 1 28 53
M  V30 57 1 29 54 CFG=1
M  V30 58 1 30 55
M  V30 59 1 30 56
M  V30 60 1 32 57
M  V30 61 1 32 58
M  V30 62 1 32 59
M  V30 63 1 33 60
M  V30 64 1 33 61
M  V30 65 1 33 62
M  V30 66 1 34 63
M  V30 67 1 34 64
M  V30 68 1 35 65
M  V30 69 1 35 66
M  V30 END BOND
M  V30 END CTAB
M  END
>  <Dataset>  (944) 
ChEMBL_Kinases

>  <Ligand_Instance>  (944) 
nan

>  <PDB_ID>  (944) 
nan

>  <Standardized_SMILES>  (944) 
CCNC(=O)c1cnc2ccc(-c3cc(Cl)c(O)c(Cl)c3)nc2c1N[C@H]1CC[C@H](CN(C)C)CC1

>  <Name>  (944) 
nan

>  <Pocket>  (944) 
nan

>  <ATP_Site>  (944) 
nan

>  <Peripheral>  (944) 
nan

>  <Num_H_Atoms_ProtBoundConf>  (944) 
nan

>  <Num_Resolved_Atoms>  (944) 
nan

>  <Num_Not_Resolved_Atoms>  (944) 
nan

$$$$
CHEMBL4632903
     RDKit          3D

  0  0  0  0  0  0  0  0  0  0999 V3000
M  V30 BEGIN CTAB
M  V30 COUNTS 61 65 0 0 0
M  V30 BEGIN ATOM
M  V30 1 C 1.987690 -4.427895 -0.542821 0
M  V30 2 O 0.821544 -4.838695 0.112760 0
M  V30 3 C -0.115154 -4.001694 0.691213 0
M  V30 4 C 0.079235 -2.634797 0.636233 0
M  V30 5 C -0.867322 -1.819150 1.220368 0
M  V30 6 C -0.746357 -0.364081 1.194423 0
M  V30 7 C 0.490603 0.294017 1.202453 0
M  V30 8 N 0.571189 1.637991 1.182629 0
M  V30 9 C -0.513264 2.428745 1.154740 0
M  V30 10 C -0.555204 3.818323 1.135918 0
M  V30 11 N 0.562978 4.720741 1.119735 0
M  V30 12 C 1.461608 5.216684 2.170645 0
M  V30 13 C 2.864287 5.103217 1.634385 0 CFG=1
M  V30 14 C 3.718867 4.496186 2.752782 0
M  V30 15 O 3.009276 4.302925 0.537958 0
M  V30 16 C 2.255275 4.702541 -0.559620 0 CFG=1
M  V30 17 C 1.930459 3.447076 -1.364016 0
M  V30 18 C 0.939709 5.318863 -0.153375 0
M  V30 19 S -2.158913 4.317294 1.108026 0
M  V30 20 N -2.898804 2.596595 1.120460 0
M  V30 21 C -1.775605 1.881479 1.145221 0
M  V30 22 C -1.850715 0.505662 1.165539 0
M  V30 23 C -2.001060 -2.276884 1.859227 0
M  V30 24 C -2.198209 -3.658621 1.913982 0
M  V30 25 C -1.243434 -4.471224 1.325113 0
M  V30 26 C -1.371115 -5.931124 1.331306 0
M  V30 27 O -1.109922 -6.981373 1.968546 0
M  V30 28 N -2.065878 -6.403686 0.160747 0
M  V30 29 C -2.337666 -7.814570 -0.100152 0
M  V30 30 C -2.862397 -7.975760 -1.495405 0
M  V30 31 O -2.032349 -7.358541 -2.427971 0
M  V30 32 C -1.949489 -5.985632 -2.226260 0
M  V30 33 C -2.596675 -5.565141 -0.927126 0
M  V30 34 H 2.645296 -5.339468 -0.663335 0
M  V30 35 H 2.602102 -3.722618 0.056795 0
M  V30 36 H 1.848268 -3.988407 -1.536977 0
M  V30 37 H 0.930990 -2.170031 0.162970 0
M  V30 38 H 1.407599 -0.312084 1.226651 0
M  V30 39 H 1.226267 6.307582 2.259119 0
M  V30 40 H 1.298412 4.673903 3.123855 0
M  V30 41 H 3.314552 6.100535 1.418921 0
M  V30 42 H 3.653969 3.391951 2.774649 0
M  V30 43 H 4.776023 4.799920 2.650108 0
M  V30 44 H 3.361735 4.830496 3.753593 0
M  V30 45 H 2.870356 5.399360 -1.173450 0
M  V30 46 H 2.307111 3.547793 -2.402868 0
M  V30 47 H 2.397098 2.535134 -0.932732 0
M  V30 48 H 0.824844 3.239471 -1.379107 0
M  V30 49 H 1.121834 6.415693 -0.050466 0
M  V30 50 H 0.205238 5.102681 -0.938135 0
M  V30 51 H -2.773307 -0.086742 1.157038 0
M  V30 52 H -2.779540 -1.735707 2.335912 0
M  V30 53 H -3.037763 -4.163391 2.379034 0
M  V30 54 H -3.105486 -8.220154 0.590615 0
M  V30 55 H -1.445401 -8.455609 0.024026 0
M  V30 56 H -2.793493 -9.078976 -1.746360 0
M  V30 57 H -3.918826 -7.687030 -1.619964 0
M  V30 58 H -0.904194 -5.654641 -2.231163 0
M  V30 59 H -2.476888 -5.478163 -3.055551 0
M  V30 60 H -3.678355 -5.686060 -1.038334 0
M  V30 61 H -2.349448 -4.505527 -0.757079 0
M  V30 END ATOM
M  V30 BEGIN BOND
M  V30 1 1 1 2
M  V30 2 1 2 3
M  V30 3 2 3 4
M  V30 4 1 4 5
M  V30 5 1 5 6
M  V30 6 1 6 7
M  V30 7 2 7 8
M  V30 8 1 8 9
M  V30 9 2 9 10
M  V30 10 1 10 11
M  V30 11 1 11 12
M  V30 12 1 12 13
M  V30 13 1 13 14
M  V30 14 1 13 15
M  V30 15 1 15 16
M  V30 16 1 16 17
M  V30 17 1 16 18
M  V30 18 1 10 19
M  V30 19 1 19 20
M  V30 20 2 20 21
M  V30 21 1 21 22
M  V30 22 2 5 23
M  V30 23 1 23 24
M  V30 24 2 24 25
M  V30 25 1 25 26
M  V30 26 2 26 27
M  V30 27 1 26 28
M  V30 28 1 28 29
M  V30 29 1 29 30
M  V30 30 1 30 31
M  V30 31 1 31 32
M  V30 32 1 32 33
M  V30 33 1 25 3
M  V30 34 1 33 28
M  V30 35 2 22 6
M  V30 36 1 21 9
M  V30 37 1 18 11
M  V30 38 1 1 34
M  V30 39 1 1 35
M  V30 40 1 1 36
M  V30 41 1 4 37
M  V30 42 1 7 38
M  V30 43 1 12 39
M  V30 44 1 12 40
M  V30 45 1 13 41 CFG=3
M  V30 46 1 14 42
M  V30 47 1 14 43
M  V30 48 1 14 44
M  V30 49 1 16 45 CFG=3
M  V30 50 1 17 46
M  V30 51 1 17 47
M  V30 52 1 17 48
M  V30 53 1 18 49
M  V30 54 1 18 50
M  V30 55 1 22 51
M  V30 56 1 23 52
M  V30 57 1 24 53
M  V30 58 1 29 54
M  V30 59 1 29 55
M  V30 60 1 30 56
M  V30 61 1 30 57
M  V30 62 1 32 58
M  V30 63 1 32 59
M  V30 64 1 33 60
M  V30 65 1 33 61
M  V30 END BOND
M  V30 END CTAB
M  END
>  <Dataset>  (945) 
ChEMBL_Kinases

>  <Ligand_Instance>  (945) 
nan

>  <PDB_ID>  (945) 
nan

>  <Standardized_SMILES>  (945) 
COc1cc(-c2cnc3c(N4C[C@@H](C)O[C@@H](C)C4)snc3c2)ccc1C(=O)N1CCOCC1

>  <Name>  (945) 
nan

>  <Pocket>  (945) 
nan

>  <ATP_Site>  (945) 
nan

>  <Peripheral>  (945) 
nan

>  <Num_H_Atoms_ProtBoundConf>  (945) 
nan

>  <Num_Resolved_Atoms>  (945) 
nan

>  <Num_Not_Resolved_Atoms>  (945) 
nan

$$$$
CHEMBL4632910
     RDKit          3D

  0  0  0  0  0  0  0  0  0  0999 V3000
M  V30 BEGIN CTAB
M  V30 COUNTS 56 59 0 0 0
M  V30 BEGIN ATOM
M  V30 1 C 1.498776 -2.020883 -2.275239 0
M  V30 2 O 2.032766 -0.760437 -2.618750 0
M  V30 3 C 1.290500 0.393392 -2.359935 0
M  V30 4 C 0.040783 0.370541 -1.776131 0
M  V30 5 C -0.585515 1.582664 -1.575684 0
M  V30 6 C -1.832005 1.544285 -0.994153 0
M  V30 7 C -2.565406 0.300273 -0.556524 0
M  V30 8 N -1.969102 -0.127111 0.659600 0
M  V30 9 C -2.559030 -1.277941 1.295826 0
M  V30 10 C -1.781491 -1.537268 2.552123 0
M  V30 11 C -0.740816 -2.614524 2.432921 0
M  V30 12 N -1.237436 -3.791768 1.783165 0
M  V30 13 S -0.100912 -5.053855 1.826202 0
M  V30 14 C 1.402842 -4.632260 0.978545 0
M  V30 15 O -0.596708 -6.327599 1.251091 0
M  V30 16 O 0.275410 -5.309197 3.263251 0
M  V30 17 C -1.765791 -3.537770 0.468518 0
M  V30 18 C -2.797933 -2.455581 0.440437 0
M  V30 19 C -2.437541 2.779549 -0.806955 0
M  V30 20 C -1.894407 3.998205 -1.152005 0
M  V30 21 C -0.643004 3.988802 -1.732231 0
M  V30 22 C -0.005945 2.774287 -1.935425 0
M  V30 23 C 1.254331 2.754087 -2.520989 0
M  V30 24 C 1.937213 1.559916 -2.748954 0
M  V30 25 O 3.190177 1.585860 -3.334827 0
M  V30 26 C 3.715642 2.839629 -3.673878 0
M  V30 27 C -0.304071 5.384327 -1.996058 0
M  V30 28 O 0.762763 5.796441 -2.522179 0
M  V30 29 N -1.395749 6.200963 -1.551563 0
M  V30 30 C -2.410532 5.358285 -1.016157 0
M  V30 31 O -3.521016 5.657780 -0.523494 0
M  V30 32 H 2.299732 -2.791157 -2.226468 0
M  V30 33 H 0.774754 -2.392759 -3.041581 0
M  V30 34 H 1.000129 -2.038724 -1.294180 0
M  V30 35 H -0.407334 -0.573229 -1.496256 0
M  V30 36 H -3.637213 0.569420 -0.481905 0
M  V30 37 H -2.440256 -0.386245 -1.417566 0
M  V30 38 H -1.992769 0.684313 1.315865 0
M  V30 39 H -3.570535 -0.901955 1.649146 0
M  V30 40 H -2.430642 -1.810754 3.426966 0
M  V30 41 H -1.260918 -0.597098 2.903388 0
M  V30 42 H 0.071127 -2.203931 1.775654 0
M  V30 43 H -0.279814 -2.812948 3.411501 0
M  V30 44 H 2.023112 -5.546464 0.843638 0
M  V30 45 H 1.186146 -4.130392 0.013247 0
M  V30 46 H 1.978614 -3.954364 1.636308 0
M  V30 47 H -0.897074 -3.334344 -0.190751 0
M  V30 48 H -2.248472 -4.450925 0.059613 0
M  V30 49 H -3.765466 -2.943231 0.766266 0
M  V30 50 H -2.992793 -2.156865 -0.603009 0
M  V30 51 H -3.417257 2.775975 -0.351069 0
M  V30 52 H 1.704160 3.675843 -2.800120 0
M  V30 53 H 3.737418 3.509428 -2.785185 0
M  V30 54 H 3.126668 3.325159 -4.475195 0
M  V30 55 H 4.749392 2.735808 -4.104804 0
M  V30 56 H -1.448817 7.245621 -1.607452 0
M  V30 END ATOM
M  V30 BEGIN BOND
M  V30 1 1 1 2
M  V30 2 1 2 3
M  V30 3 2 3 4
M  V30 4 1 4 5
M  V30 5 2 5 6
M  V30 6 1 6 7
M  V30 7 1 7 8
M  V30 8 1 8 9
M  V30 9 1 9 10
M  V30 10 1 10 11
M  V30 11 1 11 12
M  V30 12 1 12 13
M  V30 13 1 13 14
M  V30 14 2 13 15
M  V30 15 2 13 16
M  V30 16 1 12 17
M  V30 17 1 17 18
M  V30 18 1 6 19
M  V30 19 2 19 20
M  V30 20 1 20 21
M  V30 21 2 21 22
M  V30 22 1 22 23
M  V30 23 2 23 24
M  V30 24 1 24 25
M  V30 25 1 25 26
M  V30 26 1 21 27
M  V30 27 2 27 28
M  V30 28 1 27 29
M  V30 29 1 29 30
M  V30 30 2 30 31
M  V30 31 1 24 3
M  V30 32 1 22 5
M  V30 33 1 18 9
M  V30 34 1 30 20
M  V30 35 1 1 32
M  V30 36 1 1 33
M  V30 37 1 1 34
M  V30 38 1 4 35
M  V30 39 1 7 36
M  V30 40 1 7 37
M  V30 41 1 8 38
M  V30 42 1 9 39
M  V30 43 1 10 40
M  V30 44 1 10 41
M  V30 45 1 11 42
M  V30 46 1 11 43
M  V30 47 1 14 44
M  V30 48 1 14 45
M  V30 49 1 14 46
M  V30 50 1 17 47
M  V30 51 1 17 48
M  V30 52 1 18 49
M  V30 53 1 18 50
M  V30 54 1 19 51
M  V30 55 1 23 52
M  V30 56 1 26 53
M  V30 57 1 26 54
M  V30 58 1 26 55
M  V30 59 1 29 56
M  V30 END BOND
M  V30 END CTAB
M  END
>  <Dataset>  (946) 
ChEMBL_Kinases

>  <Ligand_Instance>  (946) 
nan

>  <PDB_ID>  (946) 
nan

>  <Standardized_SMILES>  (946) 
COc1cc2c(CNC3CCN(S(C)(=O)=O)CC3)cc3c(c2cc1OC)C(=O)NC3=O

>  <Name>  (946) 
nan

>  <Pocket>  (946) 
nan

>  <ATP_Site>  (946) 
nan

>  <Peripheral>  (946) 
nan

>  <Num_H_Atoms_ProtBoundConf>  (946) 
nan

>  <Num_Resolved_Atoms>  (946) 
nan

>  <Num_Not_Resolved_Atoms>  (946) 
nan

$$$$
CHEMBL4632931
     RDKit          3D

  0  0  0  0  0  0  0  0  0  0999 V3000
M  V30 BEGIN CTAB
M  V30 COUNTS 49 52 0 0 0
M  V30 BEGIN ATOM
M  V30 1 C 4.931866 -5.438643 3.910563 0
M  V30 2 C 4.061412 -4.401900 3.210015 0
M  V30 3 C 2.664507 -4.538766 3.797779 0
M  V30 4 C 4.641573 -3.041011 3.622444 0
M  V30 5 N 3.914290 -1.987378 3.018313 0
M  V30 6 C 3.190713 -0.938725 2.417259 0
M  V30 7 N 3.284021 0.394816 2.530276 0
M  V30 8 C 2.465119 1.229649 1.876765 0
M  V30 9 Br 2.723762 3.092447 2.137972 0
M  V30 10 C 1.540253 0.594042 1.096840 0
M  V30 11 N 1.352128 -0.696640 0.907432 0
M  V30 12 C 0.470119 -1.372203 0.151287 0
M  V30 13 C -0.545400 -0.737886 -0.680285 0
M  V30 14 C -1.290161 0.193824 0.022203 0
M  V30 15 C -2.300586 0.964275 -0.500899 0
M  V30 16 C -2.601789 0.799327 -1.835651 0
M  V30 17 C -3.607449 1.490220 -2.638816 0
M  V30 18 O -4.062842 1.562375 -3.780693 0
M  V30 19 N -4.369833 2.452432 -1.850459 0
M  V30 20 C -5.429091 3.257916 -2.449935 0
M  V30 21 C -5.913292 4.503205 -1.770538 0
M  V30 22 C -6.727236 3.287940 -1.599082 0
M  V30 23 C -1.864940 -0.138211 -2.572022 0
M  V30 24 C -0.840977 -0.908319 -2.009049 0
M  V30 25 C 0.779082 -2.698581 0.357900 0
M  V30 26 N 1.808037 -2.763578 1.211049 0
M  V30 27 C 2.204506 -1.522802 1.586858 0
M  V30 28 H 4.866234 -6.417869 3.407205 0
M  V30 29 H 4.589444 -5.576719 4.959526 0
M  V30 30 H 5.978506 -5.110707 3.960857 0
M  V30 31 H 4.048151 -4.508446 2.137391 0
M  V30 32 H 2.657312 -5.192480 4.683461 0
M  V30 33 H 1.945496 -4.921906 3.021366 0
M  V30 34 H 2.296275 -3.537278 4.089241 0
M  V30 35 H 5.741675 -3.052234 3.486824 0
M  V30 36 H 4.468907 -3.044358 4.746226 0
M  V30 37 H 4.575850 -1.316120 3.546852 0
M  V30 38 H 0.924737 1.326194 0.593246 0
M  V30 39 H -1.166609 0.416802 1.089823 0
M  V30 40 H -2.874508 1.683958 0.039917 0
M  V30 41 H -4.283546 2.695340 -0.823956 0
M  V30 42 H -5.657204 3.146997 -3.528338 0
M  V30 43 H -5.326282 4.884945 -0.910061 0
M  V30 44 H -6.284062 5.320507 -2.441649 0
M  V30 45 H -6.710622 2.748965 -0.633753 0
M  V30 46 H -7.690914 3.234326 -2.110810 0
M  V30 47 H -2.015673 -0.356643 -3.636834 0
M  V30 48 H -0.226209 -1.646414 -2.491177 0
M  V30 49 H 0.258150 -3.522137 -0.107283 0
M  V30 END ATOM
M  V30 BEGIN BOND
M  V30 1 1 1 2
M  V30 2 1 2 3
M  V30 3 1 2 4
M  V30 4 1 4 5
M  V30 5 1 5 6
M  V30 6 2 6 7
M  V30 7 1 7 8
M  V30 8 1 8 9
M  V30 9 2 8 10
M  V30 10 1 10 11
M  V30 11 1 11 12
M  V30 12 1 12 13
M  V30 13 2 13 14
M  V30 14 1 14 15
M  V30 15 2 15 16
M  V30 16 1 16 17
M  V30 17 2 17 18
M  V30 18 1 17 19
M  V30 19 1 19 20
M  V30 20 1 20 21
M  V30 21 1 21 22
M  V30 22 1 16 23
M  V30 23 2 23 24
M  V30 24 2 12 25
M  V30 25 1 25 26
M  V30 26 2 26 27
M  V30 27 1 27 6
M  V30 28 1 27 11
M  V30 29 1 24 13
M  V30 30 1 22 20
M  V30 31 1 1 28
M  V30 32 1 1 29
M  V30 33 1 1 30
M  V30 34 1 2 31
M  V30 35 1 3 32
M  V30 36 1 3 33
M  V30 37 1 3 34
M  V30 38 1 4 35
M  V30 39 1 4 36
M  V30 40 1 5 37
M  V30 41 1 10 38
M  V30 42 1 14 39
M  V30 43 1 15 40
M  V30 44 1 19 41
M  V30 45 1 20 42
M  V30 46 1 21 43
M  V30 47 1 21 44
M  V30 48 1 22 45
M  V30 49 1 22 46
M  V30 50 1 23 47
M  V30 51 1 24 48
M  V30 52 1 25 49
M  V30 END BOND
M  V30 END CTAB
M  END
>  <Dataset>  (947) 
ChEMBL_Kinases

>  <Ligand_Instance>  (947) 
nan

>  <PDB_ID>  (947) 
nan

>  <Standardized_SMILES>  (947) 
CC(C)CNc1nc(Br)cn2c(-c3ccc(C(=O)NC4CC4)cc3)cnc12

>  <Name>  (947) 
nan

>  <Pocket>  (947) 
nan

>  <ATP_Site>  (947) 
nan

>  <Peripheral>  (947) 
nan

>  <Num_H_Atoms_ProtBoundConf>  (947) 
nan

>  <Num_Resolved_Atoms>  (947) 
nan

>  <Num_Not_Resolved_Atoms>  (947) 
nan

$$$$
CHEMBL4632986
     RDKit          3D

  0  0  0  0  0  0  0  0  0  0999 V3000
M  V30 BEGIN CTAB
M  V30 COUNTS 47 50 0 0 0
M  V30 BEGIN ATOM
M  V30 1 C 0.603234 -0.009394 7.144956 0
M  V30 2 C -0.055321 0.791064 6.066501 0
M  V30 3 N 0.700713 0.790962 4.833420 0
M  V30 4 C 2.028684 1.254240 4.657683 0
M  V30 5 O 2.648534 1.717442 5.665755 0
M  V30 6 C 2.744788 1.239790 3.393937 0
M  V30 7 C 4.040897 1.698379 3.362992 0
M  V30 8 C 4.763494 1.720005 2.186324 0
M  V30 9 C 4.243274 1.291551 0.984812 0
M  V30 10 C 2.933745 0.824220 0.997676 0
M  V30 11 C 2.286250 0.355882 -0.239236 0
M  V30 12 C 2.556524 0.868664 -1.481859 0
M  V30 13 C 1.884582 0.378349 -2.582631 0
M  V30 14 C 0.955772 -0.621246 -2.381723 0
M  V30 15 N 0.174735 -1.244804 -3.313850 0
M  V30 16 C -0.568043 -2.137754 -2.613022 0
M  V30 17 N -1.604007 -3.127789 -2.788879 0
M  V30 18 C -2.910169 -2.670786 -2.411121 0
M  V30 19 C -3.153195 -1.417661 -1.882758 0
M  V30 20 C -4.394389 -0.962100 -1.498029 0
M  V30 21 C -5.482019 -1.800911 -1.642612 0
M  V30 22 C -5.302229 -3.062503 -2.163808 0
M  V30 23 C -4.022429 -3.455940 -2.530889 0
M  V30 24 C -3.874607 -4.783273 -3.078726 0
M  V30 25 N -3.775601 -5.850371 -3.517984 0
M  V30 26 N -0.234599 -2.043222 -1.317716 0
M  V30 27 N 0.700874 -1.120707 -1.123564 0
M  V30 28 C 1.357613 -0.642017 -0.049733 0
M  V30 29 C 2.246076 0.820094 2.201449 0
M  V30 30 H 0.612601 -1.080905 6.925692 0
M  V30 31 H -0.001381 0.157145 8.079963 0
M  V30 32 H 1.645570 0.317143 7.375459 0
M  V30 33 H -0.306439 1.816303 6.418541 0
M  V30 34 H -1.036869 0.296791 5.847683 0
M  V30 35 H 0.294943 0.432110 3.946269 0
M  V30 36 H 4.559537 2.063385 4.243253 0
M  V30 37 H 5.792571 2.067306 2.074543 0
M  V30 38 H 4.767798 1.290637 0.042043 0
M  V30 39 H 3.283016 1.640218 -1.586619 0
M  V30 40 H 2.060550 0.747856 -3.589427 0
M  V30 41 H -1.535213 -4.108038 -3.145834 0
M  V30 42 H -2.289912 -0.743412 -1.766731 0
M  V30 43 H -4.451216 0.051728 -1.093225 0
M  V30 44 H -6.411105 -1.344287 -1.308746 0
M  V30 45 H -6.185791 -3.671159 -2.253672 0
M  V30 46 H 1.061656 -1.126678 0.878885 0
M  V30 47 H 1.236588 0.449425 2.156153 0
M  V30 END ATOM
M  V30 BEGIN BOND
M  V30 1 1 1 2
M  V30 2 1 2 3
M  V30 3 1 3 4
M  V30 4 2 4 5
M  V30 5 1 4 6
M  V30 6 2 6 7
M  V30 7 1 7 8
M  V30 8 2 8 9
M  V30 9 1 9 10
M  V30 10 1 10 11
M  V30 11 1 11 12
M  V30 12 2 12 13
M  V30 13 1 13 14
M  V30 14 2 14 15
M  V30 15 1 15 16
M  V30 16 1 16 17
M  V30 17 1 17 18
M  V30 18 2 18 19
M  V30 19 1 19 20
M  V30 20 2 20 21
M  V30 21 1 21 22
M  V30 22 2 22 23
M  V30 23 1 23 24
M  V30 24 3 24 25
M  V30 25 2 16 26
M  V30 26 1 26 27
M  V30 27 1 27 28
M  V30 28 2 10 29
M  V30 29 1 29 6
M  V30 30 2 28 11
M  V30 31 1 27 14
M  V30 32 1 23 18
M  V30 33 1 1 30
M  V30 34 1 1 31
M  V30 35 1 1 32
M  V30 36 1 2 33
M  V30 37 1 2 34
M  V30 38 1 3 35
M  V30 39 1 7 36
M  V30 40 1 8 37
M  V30 41 1 9 38
M  V30 42 1 12 39
M  V30 43 1 13 40
M  V30 44 1 17 41
M  V30 45 1 19 42
M  V30 46 1 20 43
M  V30 47 1 21 44
M  V30 48 1 22 45
M  V30 49 1 28 46
M  V30 50 1 29 47
M  V30 END BOND
M  V30 END CTAB
M  END
>  <Dataset>  (948) 
ChEMBL_Kinases

>  <Ligand_Instance>  (948) 
nan

>  <PDB_ID>  (948) 
nan

>  <Standardized_SMILES>  (948) 
CCNC(=O)c1cccc(-c2ccc3nc(Nc4ccccc4C#N)nn3c2)c1

>  <Name>  (948) 
nan

>  <Pocket>  (948) 
nan

>  <ATP_Site>  (948) 
nan

>  <Peripheral>  (948) 
nan

>  <Num_H_Atoms_ProtBoundConf>  (948) 
nan

>  <Num_Resolved_Atoms>  (948) 
nan

>  <Num_Not_Resolved_Atoms>  (948) 
nan

$$$$
CHEMBL4633081
     RDKit          3D

  0  0  0  0  0  0  0  0  0  0999 V3000
M  V30 BEGIN CTAB
M  V30 COUNTS 54 58 0 0 0
M  V30 BEGIN ATOM
M  V30 1 N 8.606026 -0.595520 -2.266021 0
M  V30 2 C 8.448367 -0.267245 -1.182176 0
M  V30 3 C 8.246744 0.146544 0.161022 0
M  V30 4 C 9.233606 0.106600 1.127953 0
M  V30 5 C 9.061200 0.499569 2.437835 0
M  V30 6 C 7.807617 0.976936 2.843339 0
M  V30 7 C 6.782039 1.034415 1.898575 0
M  V30 8 C 7.030200 0.622517 0.602037 0
M  V30 9 N 5.913238 0.735243 -0.291568 0
M  V30 10 C 4.590229 1.178742 0.025445 0
M  V30 11 N 3.948618 2.356355 0.149191 0
M  V30 12 C 2.649629 2.104243 0.474418 0
M  V30 13 C 1.544099 2.885573 0.723089 0
M  V30 14 C 0.307345 2.325324 1.041294 0
M  V30 15 C 0.187084 0.941778 1.109143 0
M  V30 16 C -1.085872 0.305309 1.433560 0
M  V30 17 C -1.125826 -0.899885 2.105017 0
M  V30 18 C -2.356860 -1.461280 2.382389 0
M  V30 19 C -3.472688 -0.763214 1.960120 0
M  V30 20 N -4.799867 -1.238182 2.177790 0
M  V30 21 C -5.157116 -2.019823 1.075379 0
M  V30 22 O -4.481937 -2.310209 0.020968 0
M  V30 23 C -6.216966 -2.829888 0.483869 0
M  V30 24 C -5.825834 -3.431595 -0.843562 0
M  V30 25 C -7.009220 -4.234319 -1.326554 0
M  V30 26 C -6.959106 -4.962343 -2.610904 0
M  V30 27 C -7.700769 -3.648260 -2.556180 0
M  V30 28 C -3.437352 0.441367 1.289363 0
M  V30 29 C -2.212230 1.015638 1.004856 0
M  V30 30 C 1.336788 0.190288 0.848887 0
M  V30 31 N 2.538581 0.745138 0.539601 0
M  V30 32 N 3.710272 0.193894 0.268269 0
M  V30 33 H 10.210267 -0.270032 0.789489 0
M  V30 34 H 9.887581 0.439880 3.143951 0
M  V30 35 H 7.754168 1.265560 3.886557 0
M  V30 36 H 5.836683 1.406068 2.248758 0
M  V30 37 H 6.012469 0.481132 -1.297367 0
M  V30 38 H 1.704400 3.968823 0.653787 0
M  V30 39 H -0.538607 2.970386 1.231664 0
M  V30 40 H -0.229845 -1.405177 2.412508 0
M  V30 41 H -2.475976 -2.399548 2.901483 0
M  V30 42 H -5.659093 -1.294464 2.770531 0
M  V30 43 H -6.401904 -3.698690 1.178448 0
M  V30 44 H -7.197191 -2.348190 0.373051 0
M  V30 45 H -5.582180 -2.671989 -1.594516 0
M  V30 46 H -4.970449 -4.142198 -0.716187 0
M  V30 47 H -7.660238 -4.654868 -0.529541 0
M  V30 48 H -6.025855 -5.029568 -3.206608 0
M  V30 49 H -7.602253 -5.852676 -2.700325 0
M  V30 50 H -7.187052 -2.831687 -3.100631 0
M  V30 51 H -8.800252 -3.645464 -2.505369 0
M  V30 52 H -4.317492 0.984645 0.959743 0
M  V30 53 H -2.142677 1.954530 0.484287 0
M  V30 54 H 1.176416 -0.893638 0.918543 0
M  V30 END ATOM
M  V30 BEGIN BOND
M  V30 1 3 1 2
M  V30 2 1 2 3
M  V30 3 2 3 4
M  V30 4 1 4 5
M  V30 5 2 5 6
M  V30 6 1 6 7
M  V30 7 2 7 8
M  V30 8 1 8 9
M  V30 9 1 9 10
M  V30 10 1 10 11
M  V30 11 2 11 12
M  V30 12 1 12 13
M  V30 13 2 13 14
M  V30 14 1 14 15
M  V30 15 1 15 16
M  V30 16 2 16 17
M  V30 17 1 17 18
M  V30 18 2 18 19
M  V30 19 1 19 20
M  V30 20 1 20 21
M  V30 21 2 21 22
M  V30 22 1 21 23
M  V30 23 1 23 24
M  V30 24 1 24 25
M  V30 25 1 25 26
M  V30 26 1 26 27
M  V30 27 1 19 28
M  V30 28 2 28 29
M  V30 29 2 15 30
M  V30 30 1 30 31
M  V30 31 1 31 32
M  V30 32 1 8 3
M  V30 33 2 32 10
M  V30 34 1 31 12
M  V30 35 1 29 16
M  V30 36 1 27 25
M  V30 37 1 4 33
M  V30 38 1 5 34
M  V30 39 1 6 35
M  V30 40 1 7 36
M  V30 41 1 9 37
M  V30 42 1 13 38
M  V30 43 1 14 39
M  V30 44 1 17 40
M  V30 45 1 18 41
M  V30 46 1 20 42
M  V30 47 1 23 43
M  V30 48 1 23 44
M  V30 49 1 24 45
M  V30 50 1 24 46
M  V30 51 1 25 47
M  V30 52 1 26 48
M  V30 53 1 26 49
M  V30 54 1 27 50
M  V30 55 1 27 51
M  V30 56 1 28 52
M  V30 57 1 29 53
M  V30 58 1 30 54
M  V30 END BOND
M  V30 END CTAB
M  END
>  <Dataset>  (949) 
ChEMBL_Kinases

>  <Ligand_Instance>  (949) 
nan

>  <PDB_ID>  (949) 
nan

>  <Standardized_SMILES>  (949) 
N#Cc1ccccc1Nc1nc2ccc(-c3ccc(NC(=O)CCC4CC4)cc3)cn2n1

>  <Name>  (949) 
nan

>  <Pocket>  (949) 
nan

>  <ATP_Site>  (949) 
nan

>  <Peripheral>  (949) 
nan

>  <Num_H_Atoms_ProtBoundConf>  (949) 
nan

>  <Num_Resolved_Atoms>  (949) 
nan

>  <Num_Not_Resolved_Atoms>  (949) 
nan

$$$$
CHEMBL4633136
     RDKit          3D

  0  0  0  0  0  0  0  0  0  0999 V3000
M  V30 BEGIN CTAB
M  V30 COUNTS 42 45 0 0 0
M  V30 BEGIN ATOM
M  V30 1 O 4.172039 -1.764862 1.050775 0
M  V30 2 C 2.983530 -1.294427 1.074640 0
M  V30 3 N 2.356219 -1.733536 -0.102517 0
M  V30 4 C 2.911064 -2.553470 -1.152696 0
M  V30 5 C 2.192852 -3.817148 -1.381949 0
M  V30 6 C 1.216116 -3.740815 -2.476450 0
M  V30 7 S 1.304305 -2.048872 -3.023897 0
M  V30 8 O 0.276681 -1.212064 -2.335669 0
M  V30 9 O 1.236752 -1.949321 -4.517081 0
M  V30 10 C 2.943092 -1.726973 -2.400409 0
M  V30 11 C 2.602585 -0.494726 2.205409 0
M  V30 12 N 3.541616 -0.307437 3.154061 0
M  V30 13 N 3.023455 0.455089 4.129153 0
M  V30 14 C 1.757252 0.801228 3.886113 0
M  V30 15 C 0.778555 1.539076 4.512192 0
M  V30 16 C -0.460527 1.672244 3.918587 0
M  V30 17 C -0.679003 1.048543 2.693863 0
M  V30 18 C -1.998985 1.178506 2.040938 0
M  V30 19 C -2.725982 2.341176 1.909374 0
M  V30 20 C -3.949673 2.313967 1.273226 0
M  V30 21 C -4.486933 1.149560 0.753063 0
M  V30 22 C -3.749237 -0.009497 0.890893 0
M  V30 23 F -4.286945 -1.140954 0.377382 0
M  V30 24 C -2.525432 0.009000 1.525280 0
M  V30 25 F -1.904688 -1.215038 1.589269 0
M  V30 26 C 0.295196 0.308139 2.060370 0
M  V30 27 C 1.516237 0.195424 2.677367 0
M  V30 28 H 1.376165 -1.411112 -0.196163 0
M  V30 29 H 3.955613 -2.792685 -0.872263 0
M  V30 30 H 1.664710 -4.127975 -0.454823 0
M  V30 31 H 2.902384 -4.664951 -1.588336 0
M  V30 32 H 0.176482 -4.015251 -2.209991 0
M  V30 33 H 1.500931 -4.404833 -3.336343 0
M  V30 34 H 3.654140 -2.128071 -3.153417 0
M  V30 35 H 3.081932 -0.663852 -2.192401 0
M  V30 36 H 3.578631 0.730468 4.974968 0
M  V30 37 H 1.020976 1.992942 5.458911 0
M  V30 38 H -1.244543 2.247235 4.392285 0
M  V30 39 H -2.272327 3.233042 2.329495 0
M  V30 40 H -4.512337 3.234604 1.175749 0
M  V30 41 H -5.445200 1.132071 0.255694 0
M  V30 42 H 0.087194 -0.156991 1.117062 0
M  V30 END ATOM
M  V30 BEGIN BOND
M  V30 1 2 1 2
M  V30 2 1 2 3
M  V30 3 1 3 4
M  V30 4 1 4 5
M  V30 5 1 5 6
M  V30 6 1 6 7
M  V30 7 2 7 8
M  V30 8 2 7 9
M  V30 9 1 7 10
M  V30 10 1 2 11
M  V30 11 2 11 12
M  V30 12 1 12 13
M  V30 13 1 13 14
M  V30 14 2 14 15
M  V30 15 1 15 16
M  V30 16 2 16 17
M  V30 17 1 17 18
M  V30 18 2 18 19
M  V30 19 1 19 20
M  V30 20 2 20 21
M  V30 21 1 21 22
M  V30 22 1 22 23
M  V30 23 2 22 24
M  V30 24 1 24 25
M  V30 25 1 17 26
M  V30 26 2 26 27
M  V30 27 1 10 4
M  V30 28 1 27 11
M  V30 29 1 27 14
M  V30 30 1 24 18
M  V30 31 1 3 28
M  V30 32 1 4 29
M  V30 33 1 5 30
M  V30 34 1 5 31
M  V30 35 1 6 32
M  V30 36 1 6 33
M  V30 37 1 10 34
M  V30 38 1 10 35
M  V30 39 1 13 36
M  V30 40 1 15 37
M  V30 41 1 16 38
M  V30 42 1 19 39
M  V30 43 1 20 40
M  V30 44 1 21 41
M  V30 45 1 26 42
M  V30 END BOND
M  V30 END CTAB
M  END
>  <Dataset>  (950) 
ChEMBL_Kinases

>  <Ligand_Instance>  (950) 
nan

>  <PDB_ID>  (950) 
nan

>  <Standardized_SMILES>  (950) 
O=C(NC1CCS(=O)(=O)C1)c1n[nH]c2ccc(-c3cccc(F)c3F)cc12

>  <Name>  (950) 
nan

>  <Pocket>  (950) 
nan

>  <ATP_Site>  (950) 
nan

>  <Peripheral>  (950) 
nan

>  <Num_H_Atoms_ProtBoundConf>  (950) 
nan

>  <Num_Resolved_Atoms>  (950) 
nan

>  <Num_Not_Resolved_Atoms>  (950) 
nan

$$$$
CHEMBL4633141
     RDKit          3D

  0  0  0  0  0  0  0  0  0  0999 V3000
M  V30 BEGIN CTAB
M  V30 COUNTS 40 43 0 0 0
M  V30 BEGIN ATOM
M  V30 1 O -0.207862 -2.030389 0.409166 0
M  V30 2 C 0.688386 -1.731647 -0.437469 0
M  V30 3 N 1.188361 -2.667073 -1.385328 0
M  V30 4 C 0.662267 -4.027330 -1.399629 0
M  V30 5 C 1.808472 -5.030396 -1.211440 0
M  V30 6 C 2.255428 -5.181062 -2.645930 0
M  V30 7 O 1.022198 -5.361596 -3.293486 0
M  V30 8 C 0.210758 -4.363221 -2.781835 0
M  V30 9 C 1.233471 -0.376496 -0.446009 0
M  V30 10 N 2.181999 0.135030 -1.257755 0
M  V30 11 N 2.423381 1.403684 -0.972978 0
M  V30 12 C 1.628890 1.768684 0.049390 0
M  V30 13 C 1.450739 2.946473 0.751644 0
M  V30 14 C 0.532028 3.042445 1.793125 0
M  V30 15 C -0.211678 1.939420 2.126628 0
M  V30 16 C -1.162604 2.116303 3.238083 0
M  V30 17 C -0.664824 2.785981 4.354222 0
M  V30 18 C -1.451966 3.026529 5.483912 0
M  V30 19 C -2.753086 2.572151 5.453447 0
M  V30 20 C -3.272388 1.901124 4.350545 0
M  V30 21 F -4.554598 1.460184 4.335755 0
M  V30 22 C -2.477390 1.667093 3.229444 0
M  V30 23 F -2.904146 1.027282 2.126279 0
M  V30 24 C -0.033707 0.768137 1.427383 0
M  V30 25 C 0.870571 0.664512 0.398306 0
M  V30 26 H 1.924294 -2.449851 -2.092656 0
M  V30 27 H -0.105853 -4.185153 -0.631556 0
M  V30 28 H 1.455664 -5.958701 -0.741213 0
M  V30 29 H 2.584263 -4.519100 -0.615850 0
M  V30 30 H 2.698434 -4.227142 -2.948570 0
M  V30 31 H 2.934587 -6.020503 -2.828199 0
M  V30 32 H 0.266710 -3.498311 -3.484545 0
M  V30 33 H -0.872827 -4.677966 -2.813632 0
M  V30 34 H 3.098124 2.072402 -1.418870 0
M  V30 35 H 2.028215 3.812129 0.496642 0
M  V30 36 H 0.440249 3.976720 2.296264 0
M  V30 37 H 0.337456 3.145679 4.399278 0
M  V30 38 H -1.038776 3.550473 6.339253 0
M  V30 39 H -3.372629 2.759236 6.337602 0
M  V30 40 H -0.637132 -0.084180 1.716409 0
M  V30 END ATOM
M  V30 BEGIN BOND
M  V30 1 2 1 2
M  V30 2 1 2 3
M  V30 3 1 3 4
M  V30 4 1 4 5
M  V30 5 1 5 6
M  V30 6 1 6 7
M  V30 7 1 7 8
M  V30 8 1 2 9
M  V30 9 2 9 10
M  V30 10 1 10 11
M  V30 11 1 11 12
M  V30 12 2 12 13
M  V30 13 1 13 14
M  V30 14 2 14 15
M  V30 15 1 15 16
M  V30 16 2 16 17
M  V30 17 1 17 18
M  V30 18 2 18 19
M  V30 19 1 19 20
M  V30 20 1 20 21
M  V30 21 2 20 22
M  V30 22 1 22 23
M  V30 23 1 15 24
M  V30 24 2 24 25
M  V30 25 1 8 4
M  V30 26 1 25 9
M  V30 27 1 25 12
M  V30 28 1 22 16
M  V30 29 1 3 26
M  V30 30 1 4 27
M  V30 31 1 5 28
M  V30 32 1 5 29
M  V30 33 1 6 30
M  V30 34 1 6 31
M  V30 35 1 8 32
M  V30 36 1 8 33
M  V30 37 1 11 34
M  V30 38 1 13 35
M  V30 39 1 14 36
M  V30 40 1 17 37
M  V30 41 1 18 38
M  V30 42 1 19 39
M  V30 43 1 24 40
M  V30 END BOND
M  V30 END CTAB
M  END
>  <Dataset>  (951) 
ChEMBL_Kinases

>  <Ligand_Instance>  (951) 
nan

>  <PDB_ID>  (951) 
nan

>  <Standardized_SMILES>  (951) 
O=C(NC1CCOC1)c1n[nH]c2ccc(-c3cccc(F)c3F)cc12

>  <Name>  (951) 
nan

>  <Pocket>  (951) 
nan

>  <ATP_Site>  (951) 
nan

>  <Peripheral>  (951) 
nan

>  <Num_H_Atoms_ProtBoundConf>  (951) 
nan

>  <Num_Resolved_Atoms>  (951) 
nan

>  <Num_Not_Resolved_Atoms>  (951) 
nan

$$$$
CHEMBL4633156
     RDKit          3D

  0  0  0  0  0  0  0  0  0  0999 V3000
M  V30 BEGIN CTAB
M  V30 COUNTS 64 66 0 0 0
M  V30 BEGIN ATOM
M  V30 1 C 1.969032 -0.674513 5.105202 0
M  V30 2 C 2.743704 -1.320859 3.978474 0
M  V30 3 C 2.127659 -2.613114 3.514017 0
M  V30 4 C 2.975508 -0.395066 2.845165 0
M  V30 5 C 4.042700 0.457598 2.661463 0
M  V30 6 N 3.853704 1.115415 1.502024 0
M  V30 7 N 2.724450 0.731524 0.932514 0
M  V30 8 C 2.078640 1.062767 -0.203220 0
M  V30 9 N 2.728322 2.037163 -0.995866 0
M  V30 10 C 2.775287 3.477931 -1.083020 0
M  V30 11 C 1.404818 3.989014 -1.334509 0
M  V30 12 C 0.894078 4.450559 -2.524690 0
M  V30 13 C -0.392759 4.902285 -2.639017 0
M  V30 14 C -1.240511 4.912410 -1.548778 0
M  V30 15 C -0.732899 4.450796 -0.354686 0
M  V30 16 C 0.555064 3.999494 -0.242640 0
M  V30 17 F 0.950918 3.570448 0.973683 0
M  V30 18 C 0.900393 0.437024 -0.464490 0
M  V30 19 C 0.317056 -0.512944 0.346704 0
M  V30 20 N -0.886330 -1.158254 0.032224 0
M  V30 21 C -1.712052 -1.211069 -1.139456 0 CFG=1
M  V30 22 C -0.926199 -1.784068 -2.330493 0
M  V30 23 O -1.803480 -1.798717 -3.404306 0
M  V30 24 C -2.989928 -1.953803 -0.985057 0
M  V30 25 C -2.984033 -3.392470 -0.691628 0
M  V30 26 C -2.324276 -3.931769 0.508962 0
M  V30 27 C -2.496301 -5.459350 0.620617 0
M  V30 28 C -3.947054 -5.857080 0.703898 0
M  V30 29 N -4.612830 -5.271658 1.842374 0
M  V30 30 N 1.003878 -0.802530 1.463253 0
M  V30 31 C 2.164731 -0.191858 1.730335 0
M  V30 32 H 1.254797 -1.408169 5.564368 0
M  V30 33 H 1.345412 0.147882 4.685481 0
M  V30 34 H 2.614928 -0.280116 5.904717 0
M  V30 35 H 3.754082 -1.574474 4.405594 0
M  V30 36 H 2.620813 -3.509910 3.947343 0
M  V30 37 H 1.069932 -2.648133 3.776262 0
M  V30 38 H 2.286341 -2.681279 2.405235 0
M  V30 39 H 4.886484 0.569845 3.344593 0
M  V30 40 H 3.272066 1.429564 -1.629254 0
M  V30 41 H 3.103983 3.895775 -0.097660 0
M  V30 42 H 3.444505 3.780511 -1.902105 0
M  V30 43 H 1.574812 4.431875 -3.361356 0
M  V30 44 H -0.767020 5.261354 -3.596068 0
M  V30 45 H -2.266481 5.262146 -1.595339 0
M  V30 46 H -1.387135 4.457633 0.486130 0
M  V30 47 H 0.459787 0.787199 -1.389200 0
M  V30 48 H -1.282940 -1.678980 0.822479 0
M  V30 49 H -1.965629 -0.170420 -1.429112 0
M  V30 50 H -0.119960 -1.087435 -2.586566 0
M  V30 51 H -0.495043 -2.775072 -2.092223 0
M  V30 52 H -1.810481 -0.895318 -3.803484 0
M  V30 53 H -3.607083 -1.402473 -0.230166 0
M  V30 54 H -3.565800 -1.814459 -1.943821 0
M  V30 55 H -2.688509 -3.975898 -1.619365 0
M  V30 56 H -4.090906 -3.681911 -0.607568 0
M  V30 57 H -1.200562 -3.834561 0.345148 0
M  V30 58 H -2.582298 -3.532249 1.474639 0
M  V30 59 H -1.990482 -5.823917 1.530758 0
M  V30 60 H -2.028601 -5.986580 -0.231007 0
M  V30 61 H -4.045830 -6.976458 0.793023 0
M  V30 62 H -4.503212 -5.601502 -0.216733 0
M  V30 63 H -5.235154 -4.496622 1.527417 0
M  V30 64 H -4.005639 -5.038536 2.632503 0
M  V30 END ATOM
M  V30 BEGIN BOND
M  V30 1 1 1 2
M  V30 2 1 2 3
M  V30 3 1 2 4
M  V30 4 1 4 5
M  V30 5 2 5 6
M  V30 6 1 6 7
M  V30 7 1 7 8
M  V30 8 1 8 9
M  V30 9 1 9 10
M  V30 10 1 10 11
M  V30 11 2 11 12
M  V30 12 1 12 13
M  V30 13 2 13 14
M  V30 14 1 14 15
M  V30 15 2 15 16
M  V30 16 1 16 17
M  V30 17 2 8 18
M  V30 18 1 18 19
M  V30 19 1 19 20
M  V30 20 1 20 21
M  V30 21 1 21 22
M  V30 22 1 22 23
M  V30 23 1 21 24
M  V30 24 1 24 25
M  V30 25 1 25 26
M  V30 26 1 26 27
M  V30 27 1 27 28
M  V30 28 1 28 29
M  V30 29 2 19 30
M  V30 30 1 30 31
M  V30 31 2 31 4
M  V30 32 1 31 7
M  V30 33 1 16 11
M  V30 34 1 1 32
M  V30 35 1 1 33
M  V30 36 1 1 34
M  V30 37 1 2 35
M  V30 38 1 3 36
M  V30 39 1 3 37
M  V30 40 1 3 38
M  V30 41 1 5 39
M  V30 42 1 9 40
M  V30 43 1 10 41
M  V30 44 1 10 42
M  V30 45 1 12 43
M  V30 46 1 13 44
M  V30 47 1 14 45
M  V30 48 1 15 46
M  V30 49 1 18 47
M  V30 50 1 20 48
M  V30 51 1 21 49 CFG=3
M  V30 52 1 22 50
M  V30 53 1 22 51
M  V30 54 1 23 52
M  V30 55 1 24 53
M  V30 56 1 24 54
M  V30 57 1 25 55
M  V30 58 1 25 56
M  V30 59 1 26 57
M  V30 60 1 26 58
M  V30 61 1 27 59
M  V30 62 1 27 60
M  V30 63 1 28 61
M  V30 64 1 28 62
M  V30 65 1 29 63
M  V30 66 1 29 64
M  V30 END BOND
M  V30 END CTAB
M  END
>  <Dataset>  (952) 
ChEMBL_Kinases

>  <Ligand_Instance>  (952) 
nan

>  <PDB_ID>  (952) 
nan

>  <Standardized_SMILES>  (952) 
CC(C)c1cnn2c(NCc3ccccc3F)cc(N[C@@H](CO)CCCCCN)nc12

>  <Name>  (952) 
nan

>  <Pocket>  (952) 
nan

>  <ATP_Site>  (952) 
nan

>  <Peripheral>  (952) 
nan

>  <Num_H_Atoms_ProtBoundConf>  (952) 
nan

>  <Num_Resolved_Atoms>  (952) 
nan

>  <Num_Not_Resolved_Atoms>  (952) 
nan

$$$$
CHEMBL4633210
     RDKit          3D

  0  0  0  0  0  0  0  0  0  0999 V3000
M  V30 BEGIN CTAB
M  V30 COUNTS 49 53 0 0 0
M  V30 BEGIN ATOM
M  V30 1 C 2.538635 -5.879726 2.085118 0
M  V30 2 C 1.881746 -4.704243 1.791064 0
M  V30 3 C 0.555825 -4.795926 1.422511 0
M  V30 4 C -0.156573 -3.569199 1.107914 0
M  V30 5 N 0.407515 -2.384849 1.160300 0
M  V30 6 C -0.090434 -1.171192 0.908007 0
M  V30 7 N 0.748566 -0.001334 1.030868 0
M  V30 8 C 1.446383 1.221721 1.113750 0
M  V30 9 C 1.591050 1.934866 -0.214141 0
M  V30 10 C 2.897320 1.587882 -0.893422 0
M  V30 11 N 3.984765 1.966078 -0.035648 0
M  V30 12 C 3.950814 1.067565 1.103460 0
M  V30 13 C 2.699904 1.264312 1.927813 0
M  V30 14 C -1.408034 -1.106683 0.527226 0
M  V30 15 C -2.166192 -0.019864 0.206594 0
M  V30 16 C -3.520935 -0.212957 -0.167245 0
M  V30 17 S -3.686547 -2.010055 -0.046886 0
M  V30 18 C -2.027419 -2.335505 0.462973 0
M  V30 19 N -1.423430 -3.474374 0.738821 0
M  V30 20 C -4.596742 0.640267 -0.564922 0
M  V30 21 C -4.396614 2.046642 -0.144948 0
M  V30 22 C -3.252272 2.074373 0.843001 0
M  V30 23 C -2.075459 1.448036 0.094609 0
M  V30 24 C -0.138925 -5.984820 1.333563 0
M  V30 25 C 0.597125 -7.113288 1.645826 0
M  V30 26 N 1.889639 -7.045436 2.007058 0
M  V30 27 H 3.568505 -5.966869 2.385841 0
M  V30 28 H 2.432407 -3.777755 1.862995 0
M  V30 29 H 1.693158 -0.378519 1.214750 0
M  V30 30 H 0.742913 1.919057 1.704584 0
M  V30 31 H 0.753870 1.646510 -0.850946 0
M  V30 32 H 1.607094 3.023341 -0.022773 0
M  V30 33 H 2.924423 2.182470 -1.826848 0
M  V30 34 H 2.906874 0.495938 -1.070621 0
M  V30 35 H 3.857315 2.941453 0.324961 0
M  V30 36 H 4.055428 0.031303 0.726446 0
M  V30 37 H 4.825590 1.309429 1.739978 0
M  V30 38 H 2.697832 0.416617 2.666846 0
M  V30 39 H 2.821522 2.205706 2.490728 0
M  V30 40 H -5.571599 0.299267 -0.155634 0
M  V30 41 H -4.725646 0.626283 -1.683506 0
M  V30 42 H -5.289926 2.492153 0.349503 0
M  V30 43 H -4.055017 2.678209 -1.004436 0
M  V30 44 H -2.992135 3.121746 1.036450 0
M  V30 45 H -3.461603 1.501408 1.763009 0
M  V30 46 H -1.193588 1.924627 0.498489 0
M  V30 47 H -2.152000 1.781353 -0.967778 0
M  V30 48 H -1.177681 -5.953449 1.035409 0
M  V30 49 H 0.075454 -8.070023 1.584888 0
M  V30 END ATOM
M  V30 BEGIN BOND
M  V30 1 2 1 2
M  V30 2 1 2 3
M  V30 3 1 3 4
M  V30 4 2 4 5
M  V30 5 1 5 6
M  V30 6 1 6 7
M  V30 7 1 7 8
M  V30 8 1 8 9
M  V30 9 1 9 10
M  V30 10 1 10 11
M  V30 11 1 11 12
M  V30 12 1 12 13
M  V30 13 2 6 14
M  V30 14 1 14 15
M  V30 15 2 15 16
M  V30 16 1 16 17
M  V30 17 1 17 18
M  V30 18 2 18 19
M  V30 19 1 16 20
M  V30 20 1 20 21
M  V30 21 1 21 22
M  V30 22 1 22 23
M  V30 23 2 3 24
M  V30 24 1 24 25
M  V30 25 2 25 26
M  V30 26 1 26 1
M  V30 27 1 19 4
M  V30 28 1 13 8
M  V30 29 1 18 14
M  V30 30 1 23 15
M  V30 31 1 1 27
M  V30 32 1 2 28
M  V30 33 1 7 29
M  V30 34 1 8 30
M  V30 35 1 9 31
M  V30 36 1 9 32
M  V30 37 1 10 33
M  V30 38 1 10 34
M  V30 39 1 11 35
M  V30 40 1 12 36
M  V30 41 1 12 37
M  V30 42 1 13 38
M  V30 43 1 13 39
M  V30 44 1 20 40
M  V30 45 1 20 41
M  V30 46 1 21 42
M  V30 47 1 21 43
M  V30 48 1 22 44
M  V30 49 1 22 45
M  V30 50 1 23 46
M  V30 51 1 23 47
M  V30 52 1 24 48
M  V30 53 1 25 49
M  V30 END BOND
M  V30 END CTAB
M  END
>  <Dataset>  (953) 
ChEMBL_Kinases

>  <Ligand_Instance>  (953) 
nan

>  <PDB_ID>  (953) 
nan

>  <Standardized_SMILES>  (953) 
c1cc(-c2nc(NC3CCNCC3)c3c4c(sc3n2)CCCC4)ccn1

>  <Name>  (953) 
nan

>  <Pocket>  (953) 
nan

>  <ATP_Site>  (953) 
nan

>  <Peripheral>  (953) 
nan

>  <Num_H_Atoms_ProtBoundConf>  (953) 
nan

>  <Num_Resolved_Atoms>  (953) 
nan

>  <Num_Not_Resolved_Atoms>  (953) 
nan

$$$$
CHEMBL4633229
     RDKit          3D

  0  0  0  0  0  0  0  0  0  0999 V3000
M  V30 BEGIN CTAB
M  V30 COUNTS 63 66 0 0 0
M  V30 BEGIN ATOM
M  V30 1 C 4.547263 -2.302700 3.100668 0
M  V30 2 C 3.769492 -1.024169 2.921359 0
M  V30 3 C 3.298774 -0.440204 4.237766 0
M  V30 4 C 4.658148 -0.028921 2.301541 0
M  V30 5 N 5.350391 0.759284 1.803829 0
M  V30 6 C 2.623369 -1.309415 2.019530 0
M  V30 7 C 2.854027 -1.132008 0.686376 0
M  V30 8 C 1.843855 -1.369736 -0.218640 0
M  V30 9 N 1.835514 -1.291574 -1.638516 0
M  V30 10 C 0.782844 -0.638823 -2.312737 0
M  V30 11 N -0.082526 0.015763 -1.515488 0
M  V30 12 C -1.143275 0.683285 -2.043270 0
M  V30 13 N -2.008723 1.373461 -1.149346 0
M  V30 14 C -1.646993 1.506174 0.220677 0
M  V30 15 C -2.686003 2.043243 1.121804 0
M  V30 16 C -4.025793 2.322258 0.551615 0
M  V30 17 C -4.324720 1.487201 -0.688458 0 CFG=2
M  V30 18 N -4.174549 0.111740 -0.303863 0
M  V30 19 C -3.248722 1.929136 -1.679962 0
M  V30 20 N -1.318276 0.679855 -3.378722 0
M  V30 21 C -0.484971 0.040690 -4.238125 0
M  V30 22 C 0.579346 -0.625112 -3.674315 0
M  V30 23 C 1.534847 -1.346759 -4.491988 0
M  V30 24 N 1.336152 -1.329871 -5.904489 0
M  V30 25 O 2.545358 -2.011419 -4.200043 0
M  V30 26 C 0.598126 -1.790829 0.254633 0
M  V30 27 C 0.341319 -1.979485 1.617415 0
M  V30 28 C -0.918971 -2.433869 2.164321 0
M  V30 29 C -0.873794 -3.178984 3.347777 0
M  V30 30 C -2.006274 -3.673638 3.959293 0
M  V30 31 C -3.251193 -3.446967 3.414133 0
M  V30 32 C -3.326801 -2.717689 2.250451 0
M  V30 33 C -2.177795 -2.235463 1.661413 0
M  V30 34 C 1.399268 -1.724301 2.498973 0
M  V30 35 H 3.854990 -3.152934 3.188521 0
M  V30 36 H 5.191319 -2.425997 2.202903 0
M  V30 37 H 5.230397 -2.221239 3.980550 0
M  V30 38 H 2.431979 0.191804 4.018780 0
M  V30 39 H 4.146243 0.138870 4.654828 0
M  V30 40 H 3.084597 -1.270286 4.919999 0
M  V30 41 H 3.759884 -0.814794 0.188571 0
M  V30 42 H 2.707686 -1.791510 -1.887582 0
M  V30 43 H -1.331168 0.518333 0.612652 0
M  V30 44 H -0.706511 2.133315 0.265901 0
M  V30 45 H -2.311622 3.021272 1.547166 0
M  V30 46 H -2.827473 1.402364 2.040881 0
M  V30 47 H -4.172875 3.403520 0.273119 0
M  V30 48 H -4.828867 2.121758 1.285885 0
M  V30 49 H -5.330993 1.678890 -1.053491 0
M  V30 50 H -3.980846 -0.019522 0.708151 0
M  V30 51 H -3.515316 -0.422278 -0.900362 0
M  V30 52 H -3.446801 1.608719 -2.703737 0
M  V30 53 H -3.200100 3.054815 -1.638866 0
M  V30 54 H -0.648158 0.055479 -5.298788 0
M  V30 55 H 1.826839 -1.783103 -6.700744 0
M  V30 56 H 1.870543 -1.812528 -6.660940 0
M  V30 57 H -0.286801 -2.022288 -0.326519 0
M  V30 58 H 0.028553 -3.424530 3.871115 0
M  V30 59 H -1.985000 -4.250451 4.872918 0
M  V30 60 H -4.203963 -3.780629 3.800885 0
M  V30 61 H -4.268922 -2.481008 1.730628 0
M  V30 62 H -2.238039 -1.665455 0.746412 0
M  V30 63 H 1.296245 -1.843303 3.585844 0
M  V30 END ATOM
M  V30 BEGIN BOND
M  V30 1 1 1 2
M  V30 2 1 2 3
M  V30 3 1 2 4
M  V30 4 3 4 5
M  V30 5 1 2 6
M  V30 6 2 6 7
M  V30 7 1 7 8
M  V30 8 1 8 9
M  V30 9 1 9 10
M  V30 10 2 10 11
M  V30 11 1 11 12
M  V30 12 1 12 13
M  V30 13 1 13 14
M  V30 14 1 14 15
M  V30 15 1 15 16
M  V30 16 1 16 17
M  V30 17 1 17 18
M  V30 18 1 17 19
M  V30 19 2 12 20
M  V30 20 1 20 21
M  V30 21 2 21 22
M  V30 22 1 22 23
M  V30 23 1 23 24
M  V30 24 2 23 25
M  V30 25 2 8 26
M  V30 26 1 26 27
M  V30 27 1 27 28
M  V30 28 2 28 29
M  V30 29 1 29 30
M  V30 30 2 30 31
M  V30 31 1 31 32
M  V30 32 2 32 33
M  V30 33 2 27 34
M  V30 34 1 34 6
M  V30 35 1 22 10
M  V30 36 1 33 28
M  V30 37 1 19 13
M  V30 38 1 1 35
M  V30 39 1 1 36
M  V30 40 1 1 37
M  V30 41 1 3 38
M  V30 42 1 3 39
M  V30 43 1 3 40
M  V30 44 1 7 41
M  V30 45 1 9 42
M  V30 46 1 14 43
M  V30 47 1 14 44
M  V30 48 1 15 45
M  V30 49 1 15 46
M  V30 50 1 16 47
M  V30 51 1 16 48
M  V30 52 1 17 49 CFG=3
M  V30 53 1 18 50
M  V30 54 1 18 51
M  V30 55 1 19 52
M  V30 56 1 19 53
M  V30 57 1 21 54
M  V30 58 1 24 55
M  V30 59 1 24 56
M  V30 60 1 26 57
M  V30 61 1 29 58
M  V30 62 1 30 59
M  V30 63 1 31 60
M  V30 64 1 32 61
M  V30 65 1 33 62
M  V30 66 1 34 63
M  V30 END BOND
M  V30 END CTAB
M  END
>  <Dataset>  (954) 
ChEMBL_Kinases

>  <Ligand_Instance>  (954) 
nan

>  <PDB_ID>  (954) 
nan

>  <Standardized_SMILES>  (954) 
CC(C)(C#N)c1cc(Nc2nc(N3CCC[C@H](N)C3)ncc2C(N)=O)cc(-c2ccccc2)c1

>  <Name>  (954) 
nan

>  <Pocket>  (954) 
nan

>  <ATP_Site>  (954) 
nan

>  <Peripheral>  (954) 
nan

>  <Num_H_Atoms_ProtBoundConf>  (954) 
nan

>  <Num_Resolved_Atoms>  (954) 
nan

>  <Num_Not_Resolved_Atoms>  (954) 
nan

$$$$
CHEMBL4632856
     RDKit          3D

  0  0  0  0  0  0  0  0  0  0999 V3000
M  V30 BEGIN CTAB
M  V30 COUNTS 66 70 0 0 0
M  V30 BEGIN ATOM
M  V30 1 C 6.154081 2.395437 6.646810 0
M  V30 2 O 4.972835 1.972632 6.002834 0
M  V30 3 C 5.047110 1.168318 4.861774 0
M  V30 4 C 6.278144 0.794514 4.375478 0
M  V30 5 C 6.400813 0.003891 3.255526 0
M  V30 6 S 7.988805 -0.441610 2.679874 0
M  V30 7 C 8.467582 -1.956706 3.485279 0
M  V30 8 O 8.996168 0.641628 2.925554 0
M  V30 9 O 7.878683 -0.662036 1.191286 0
M  V30 10 C 5.236563 -0.418599 2.611892 0
M  V30 11 C 4.037962 -0.009485 3.149616 0
M  V30 12 C 3.863507 0.779289 4.265037 0
M  V30 13 N 2.597732 1.168794 4.775518 0
M  V30 14 C 1.321551 0.843359 4.247156 0
M  V30 15 N 0.147109 1.251278 4.808598 0
M  V30 16 C -0.850706 0.773660 4.060159 0
M  V30 17 C -2.220991 0.865823 4.144324 0
M  V30 18 C -3.049953 0.263384 3.216643 0
M  V30 19 C -2.503200 -0.440137 2.191697 0
M  V30 20 C -3.195787 -1.153445 1.103073 0
M  V30 21 C -2.654789 -2.289381 0.531275 0
M  V30 22 C -3.373542 -2.888673 -0.487584 0
M  V30 23 C -4.573100 -2.313963 -0.859221 0
M  V30 24 N -5.246717 -3.011584 -1.933676 0
M  V30 25 C -4.768391 -2.419353 -3.126350 0
M  V30 26 O -3.942556 -1.484491 -3.405623 0
M  V30 27 C -5.019322 -2.627761 -4.567851 0 CFG=1
M  V30 28 C -6.498524 -2.659650 -4.888405 0
M  V30 29 C -4.255319 -1.721963 -5.426465 0
M  V30 30 C -4.470433 -0.346165 -5.370933 0
M  V30 31 C -3.791558 0.578758 -6.146685 0
M  V30 32 C -2.844327 0.090665 -7.026262 0
M  V30 33 F -2.129945 0.938192 -7.828033 0
M  V30 34 C -2.563534 -1.271102 -7.148294 0
M  V30 35 C -3.282144 -2.106655 -6.343527 0
M  V30 36 C -5.123854 -1.178676 -0.294467 0
M  V30 37 C -4.398618 -0.586265 0.722912 0
M  V30 38 C -1.112778 -0.510281 2.141241 0
M  V30 39 N -0.311662 0.079783 3.049474 0
M  V30 40 N 0.996319 0.133378 3.179399 0
M  V30 41 H 6.762961 1.507365 6.936336 0
M  V30 42 H 6.785720 2.922794 5.886101 0
M  V30 43 H 5.920225 3.024594 7.510292 0
M  V30 44 H 7.174334 1.126859 4.881314 0
M  V30 45 H 7.846473 -2.154274 4.382865 0
M  V30 46 H 9.533279 -1.881378 3.783267 0
M  V30 47 H 8.386379 -2.821584 2.817900 0
M  V30 48 H 5.340306 -1.029372 1.746314 0
M  V30 49 H 3.194912 -0.375599 2.598385 0
M  V30 50 H 2.644534 1.770719 5.652137 0
M  V30 51 H -2.681413 1.413047 4.939340 0
M  V30 52 H -4.135263 0.292678 3.218480 0
M  V30 53 H -1.709386 -2.694226 0.865819 0
M  V30 54 H -2.978002 -3.778781 -0.956336 0
M  V30 55 H -5.919442 -3.748933 -2.197787 0
M  V30 56 H -4.649770 -3.661187 -4.819486 0
M  V30 57 H -6.964699 -3.333973 -4.136730 0
M  V30 58 H -6.967311 -1.653413 -4.920819 0
M  V30 59 H -6.668270 -3.087915 -5.898538 0
M  V30 60 H -5.198999 0.058630 -4.697083 0
M  V30 61 H -4.002764 1.638944 -6.058935 0
M  V30 62 H -1.824404 -1.633106 -7.836916 0
M  V30 63 H -3.074153 -3.167162 -6.428699 0
M  V30 64 H -6.071517 -0.796787 -0.648929 0
M  V30 65 H -4.798577 0.303980 1.188309 0
M  V30 66 H -0.591585 -1.061020 1.341583 0
M  V30 END ATOM
M  V30 BEGIN BOND
M  V30 1 1 1 2
M  V30 2 1 2 3
M  V30 3 2 3 4
M  V30 4 1 4 5
M  V30 5 1 5 6
M  V30 6 1 6 7
M  V30 7 2 6 8
M  V30 8 2 6 9
M  V30 9 2 5 10
M  V30 10 1 10 11
M  V30 11 2 11 12
M  V30 12 1 12 13
M  V30 13 1 13 14
M  V30 14 1 14 15
M  V30 15 2 15 16
M  V30 16 1 16 17
M  V30 17 2 17 18
M  V30 18 1 18 19
M  V30 19 1 19 20
M  V30 20 2 20 21
M  V30 21 1 21 22
M  V30 22 2 22 23
M  V30 23 1 23 24
M  V30 24 1 24 25
M  V30 25 2 25 26
M  V30 26 1 25 27
M  V30 27 1 27 28
M  V30 28 1 27 29
M  V30 29 2 29 30
M  V30 30 1 30 31
M  V30 31 2 31 32
M  V30 32 1 32 33
M  V30 33 1 32 34
M  V30 34 2 34 35
M  V30 35 1 23 36
M  V30 36 2 36 37
M  V30 37 2 19 38
M  V30 38 1 38 39
M  V30 39 1 39 40
M  V30 40 1 12 3
M  V30 41 2 40 14
M  V30 42 1 39 16
M  V30 43 1 37 20
M  V30 44 1 35 29
M  V30 45 1 1 41
M  V30 46 1 1 42
M  V30 47 1 1 43
M  V30 48 1 4 44
M  V30 49 1 7 45
M  V30 50 1 7 46
M  V30 51 1 7 47
M  V30 52 1 10 48
M  V30 53 1 11 49
M  V30 54 1 13 50
M  V30 55 1 17 51
M  V30 56 1 18 52
M  V30 57 1 21 53
M  V30 58 1 22 54
M  V30 59 1 24 55
M  V30 60 1 27 56 CFG=3
M  V30 61 1 28 57
M  V30 62 1 28 58
M  V30 63 1 28 59
M  V30 64 1 30 60
M  V30 65 1 31 61
M  V30 66 1 34 62
M  V30 67 1 35 63
M  V30 68 1 36 64
M  V30 69 1 37 65
M  V30 70 1 38 66
M  V30 END BOND
M  V30 END CTAB
M  END
>  <Dataset>  (955) 
ChEMBL_Kinases

>  <Ligand_Instance>  (955) 
nan

>  <PDB_ID>  (955) 
nan

>  <Standardized_SMILES>  (955) 
COc1cc(S(C)(=O)=O)ccc1Nc1nc2ccc(-c3ccc(NC(=O)[C@@H](C)c4ccc(F)cc4)cc3)cn2n1

>  <Name>  (955) 
nan

>  <Pocket>  (955) 
nan

>  <ATP_Site>  (955) 
nan

>  <Peripheral>  (955) 
nan

>  <Num_H_Atoms_ProtBoundConf>  (955) 
nan

>  <Num_Resolved_Atoms>  (955) 
nan

>  <Num_Not_Resolved_Atoms>  (955) 
nan

$$$$
CHEMBL4475587
     RDKit          3D

  0  0  0  0  0  0  0  0  0  0999 V3000
M  V30 BEGIN CTAB
M  V30 COUNTS 34 37 0 0 0
M  V30 BEGIN ATOM
M  V30 1 C -2.509489 -5.873910 2.204851 0
M  V30 2 C -2.354117 -4.415036 1.965123 0
M  V30 3 C -1.111746 -3.894230 1.714651 0
M  V30 4 C -0.977291 -2.540532 1.495524 0
M  V30 5 C 0.242214 -1.792201 1.242381 0
M  V30 6 N 1.364141 -1.936418 1.972425 0
M  V30 7 N 2.338516 -1.136266 1.543597 0
M  V30 8 C 1.863750 -0.420618 0.479197 0
M  V30 9 C 2.452339 0.536120 -0.317674 0
M  V30 10 C 1.604418 1.019363 -1.293186 0
M  V30 11 N 2.185065 2.058956 -2.114949 0
M  V30 12 C 1.793022 3.249793 -1.415722 0
M  V30 13 N 2.494062 4.193472 -1.172466 0
M  V30 14 C 2.138275 5.288266 -0.540462 0
M  V30 15 C 0.735049 5.365843 -0.087091 0
M  V30 16 S 0.110534 3.668507 -0.715827 0
M  V30 17 N 0.322544 0.654985 -1.521312 0
M  V30 18 C -0.200764 -0.280813 -0.713657 0
M  V30 19 C 0.562945 -0.841635 0.309641 0
M  V30 20 C -2.158792 -1.805918 1.549070 0
M  V30 21 C -3.395536 -2.363690 1.804054 0
M  V30 22 N -3.465537 -3.682801 2.010527 0
M  V30 23 H -1.654821 -6.431786 1.742911 0
M  V30 24 H -2.412946 -6.086705 3.317951 0
M  V30 25 H -3.472712 -6.281670 1.818635 0
M  V30 26 H -0.188252 -4.463347 1.668669 0
M  V30 27 H 3.280108 -1.096732 1.974441 0
M  V30 28 H 3.469818 0.856906 -0.174224 0
M  V30 29 H 2.730360 2.162330 -2.965633 0
M  V30 30 H 2.275024 6.269058 -0.106797 0
M  V30 31 H -0.354871 5.619275 0.363116 0
M  V30 32 H -1.231368 -0.638605 -0.821040 0
M  V30 33 H -2.163231 -0.716865 1.395340 0
M  V30 34 H -4.312317 -1.786580 1.846178 0
M  V30 END ATOM
M  V30 BEGIN BOND
M  V30 1 1 1 2
M  V30 2 2 2 3
M  V30 3 1 3 4
M  V30 4 1 4 5
M  V30 5 2 5 6
M  V30 6 1 6 7
M  V30 7 1 7 8
M  V30 8 2 8 9
M  V30 9 1 9 10
M  V30 10 1 10 11
M  V30 11 1 11 12
M  V30 12 2 12 13
M  V30 13 1 13 14
M  V30 14 2 14 15
M  V30 15 1 15 16
M  V30 16 2 10 17
M  V30 17 1 17 18
M  V30 18 2 18 19
M  V30 19 2 4 20
M  V30 20 1 20 21
M  V30 21 2 21 22
M  V30 22 1 22 2
M  V30 23 1 19 5
M  V30 24 1 19 8
M  V30 25 1 16 12
M  V30 26 1 1 23
M  V30 27 1 1 24
M  V30 28 1 1 25
M  V30 29 1 3 26
M  V30 30 1 7 27
M  V30 31 1 9 28
M  V30 32 1 11 29
M  V30 33 1 14 30
M  V30 34 1 15 31
M  V30 35 1 18 32
M  V30 36 1 20 33
M  V30 37 1 21 34
M  V30 END BOND
M  V30 END CTAB
M  END
>  <Dataset>  (956) 
ChEMBL_Kinases

>  <Ligand_Instance>  (956) 
nan

>  <PDB_ID>  (956) 
nan

>  <Standardized_SMILES>  (956) 
Cc1cc(-c2n[nH]c3cc(Nc4nccs4)ncc23)ccn1

>  <Name>  (956) 
nan

>  <Pocket>  (956) 
nan

>  <ATP_Site>  (956) 
nan

>  <Peripheral>  (956) 
nan

>  <Num_H_Atoms_ProtBoundConf>  (956) 
nan

>  <Num_Resolved_Atoms>  (956) 
nan

>  <Num_Not_Resolved_Atoms>  (956) 
nan

$$$$
CHEMBL4475520
     RDKit          3D

  0  0  0  0  0  0  0  0  0  0999 V3000
M  V30 BEGIN CTAB
M  V30 COUNTS 50 53 0 0 0
M  V30 BEGIN ATOM
M  V30 1 C 1.017097 -6.535919 1.500891 0
M  V30 2 O 0.510421 -6.067505 0.282364 0
M  V30 3 C 0.627236 -4.767870 -0.131517 0
M  V30 4 C 1.291939 -3.881167 0.725324 0
M  V30 5 C 1.425819 -2.563259 0.335855 0
M  V30 6 C 0.926217 -2.107262 -0.862109 0
M  V30 7 C 1.024250 -0.733674 -1.348183 0
M  V30 8 C 1.109215 -0.358131 -2.679326 0
M  V30 9 N 1.195996 0.958425 -3.007006 0
M  V30 10 C 1.200159 1.902002 -2.046534 0
M  V30 11 N 1.279395 3.228744 -2.204732 0
M  V30 12 C 1.250712 3.808070 -0.975275 0
M  V30 13 C 1.150865 2.811326 -0.025812 0
M  V30 14 N 1.080173 2.793952 1.407665 0
M  V30 15 C -0.246265 2.855208 1.956320 0
M  V30 16 O -1.114614 2.914491 1.016661 0
M  V30 17 C -0.560186 2.850710 3.378401 0
M  V30 18 C -0.121293 1.671529 4.157199 0
M  V30 19 C -1.274028 0.683399 4.155482 0
M  V30 20 C -2.502252 1.446206 3.724083 0
M  V30 21 C -2.092958 2.876251 3.470126 0
M  V30 22 C 1.118047 1.599672 -0.692819 0
M  V30 23 C 1.031332 0.262786 -0.389348 0
M  V30 24 C 0.273893 -3.003341 -1.690303 0
M  V30 25 C 0.120255 -4.334940 -1.332323 0
M  V30 26 O -0.517430 -5.301815 -2.097012 0
M  V30 27 C -1.056223 -4.903539 -3.342219 0
M  V30 28 H 0.586174 -7.527149 1.756426 0
M  V30 29 H 2.116173 -6.648784 1.509314 0
M  V30 30 H 0.739961 -5.861315 2.332220 0
M  V30 31 H 1.706602 -4.186138 1.682638 0
M  V30 32 H 1.935413 -1.842531 0.973098 0
M  V30 33 H 1.098429 -1.186053 -3.375002 0
M  V30 34 H 1.352963 3.818625 -3.062203 0
M  V30 35 H 1.287419 4.819359 -0.608485 0
M  V30 36 H 1.889153 2.741873 2.087090 0
M  V30 37 H -0.211335 3.803322 3.827428 0
M  V30 38 H 0.011778 1.986275 5.227677 0
M  V30 39 H 0.776308 1.151034 3.859888 0
M  V30 40 H -1.092248 -0.134502 3.410930 0
M  V30 41 H -1.479425 0.240490 5.136905 0
M  V30 42 H -3.273598 1.458309 4.524816 0
M  V30 43 H -2.981461 0.960443 2.838257 0
M  V30 44 H -2.453886 3.566405 4.251201 0
M  V30 45 H -2.564059 3.185126 2.514176 0
M  V30 46 H 0.966962 0.021030 0.674850 0
M  V30 47 H -0.127811 -2.694413 -2.624814 0
M  V30 48 H -0.211402 -4.761922 -4.061858 0
M  V30 49 H -1.616802 -3.952237 -3.218759 0
M  V30 50 H -1.701559 -5.703033 -3.772384 0
M  V30 END ATOM
M  V30 BEGIN BOND
M  V30 1 1 1 2
M  V30 2 1 2 3
M  V30 3 2 3 4
M  V30 4 1 4 5
M  V30 5 2 5 6
M  V30 6 1 6 7
M  V30 7 2 7 8
M  V30 8 1 8 9
M  V30 9 2 9 10
M  V30 10 1 10 11
M  V30 11 1 11 12
M  V30 12 2 12 13
M  V30 13 1 13 14
M  V30 14 1 14 15
M  V30 15 2 15 16
M  V30 16 1 15 17
M  V30 17 1 17 18
M  V30 18 1 18 19
M  V30 19 1 19 20
M  V30 20 1 20 21
M  V30 21 1 13 22
M  V30 22 2 22 23
M  V30 23 1 6 24
M  V30 24 2 24 25
M  V30 25 1 25 26
M  V30 26 1 26 27
M  V30 27 1 25 3
M  V30 28 1 23 7
M  V30 29 1 22 10
M  V30 30 1 21 17
M  V30 31 1 1 28
M  V30 32 1 1 29
M  V30 33 1 1 30
M  V30 34 1 4 31
M  V30 35 1 5 32
M  V30 36 1 8 33
M  V30 37 1 11 34
M  V30 38 1 12 35
M  V30 39 1 14 36
M  V30 40 1 17 37
M  V30 41 1 18 38
M  V30 42 1 18 39
M  V30 43 1 19 40
M  V30 44 1 19 41
M  V30 45 1 20 42
M  V30 46 1 20 43
M  V30 47 1 21 44
M  V30 48 1 21 45
M  V30 49 1 23 46
M  V30 50 1 24 47
M  V30 51 1 27 48
M  V30 52 1 27 49
M  V30 53 1 27 50
M  V30 END BOND
M  V30 END CTAB
M  END
>  <Dataset>  (957) 
ChEMBL_Kinases

>  <Ligand_Instance>  (957) 
nan

>  <PDB_ID>  (957) 
nan

>  <Standardized_SMILES>  (957) 
COc1ccc(-c2cnc3[nH]cc(NC(=O)C4CCCC4)c3c2)cc1OC

>  <Name>  (957) 
nan

>  <Pocket>  (957) 
nan

>  <ATP_Site>  (957) 
nan

>  <Peripheral>  (957) 
nan

>  <Num_H_Atoms_ProtBoundConf>  (957) 
nan

>  <Num_Resolved_Atoms>  (957) 
nan

>  <Num_Not_Resolved_Atoms>  (957) 
nan

$$$$
CHEMBL465091
     RDKit          3D

  0  0  0  0  0  0  0  0  0  0999 V3000
M  V30 BEGIN CTAB
M  V30 COUNTS 17 18 0 0 0
M  V30 BEGIN ATOM
M  V30 1 N -1.369561 1.586599 2.034796 0
M  V30 2 C -0.116899 0.944071 2.218099 0
M  V30 3 N 0.488777 0.684018 3.391232 0
M  V30 4 N 1.637305 0.076446 3.163798 0
M  V30 5 C 1.830757 -0.086651 1.823602 0
M  V30 6 C 2.825949 -0.640464 1.040367 0
M  V30 7 C 2.694974 -0.636265 -0.328250 0
M  V30 8 C 1.574677 -0.080662 -0.899869 0
M  V30 9 Br 1.374621 -0.065064 -2.793856 0
M  V30 10 C 0.553827 0.484804 -0.152687 0
M  V30 11 C 0.709740 0.467889 1.221210 0
M  V30 12 H -1.967897 1.803358 2.867350 0
M  V30 13 H -1.700588 1.844394 1.088249 0
M  V30 14 H 2.339629 -0.256085 3.860326 0
M  V30 15 H 3.704523 -1.074028 1.535107 0
M  V30 16 H 3.439001 -1.053001 -0.971450 0
M  V30 17 H -0.301885 0.907698 -0.620998 0
M  V30 END ATOM
M  V30 BEGIN BOND
M  V30 1 1 1 2
M  V30 2 2 2 3
M  V30 3 1 3 4
M  V30 4 1 4 5
M  V30 5 2 5 6
M  V30 6 1 6 7
M  V30 7 2 7 8
M  V30 8 1 8 9
M  V30 9 1 8 10
M  V30 10 2 10 11
M  V30 11 1 11 2
M  V30 12 1 11 5
M  V30 13 1 1 12
M  V30 14 1 1 13
M  V30 15 1 4 14
M  V30 16 1 6 15
M  V30 17 1 7 16
M  V30 18 1 10 17
M  V30 END BOND
M  V30 END CTAB
M  END
>  <Dataset>  (958) 
ChEMBL_Kinases

>  <Ligand_Instance>  (958) 
nan

>  <PDB_ID>  (958) 
nan

>  <Standardized_SMILES>  (958) 
Nc1n[nH]c2ccc(Br)cc12

>  <Name>  (958) 
nan

>  <Pocket>  (958) 
nan

>  <ATP_Site>  (958) 
nan

>  <Peripheral>  (958) 
nan

>  <Num_H_Atoms_ProtBoundConf>  (958) 
nan

>  <Num_Resolved_Atoms>  (958) 
nan

>  <Num_Not_Resolved_Atoms>  (958) 
nan

$$$$
CHEMBL4475515
     RDKit          3D

  0  0  0  0  0  0  0  0  0  0999 V3000
M  V30 BEGIN CTAB
M  V30 COUNTS 36 38 0 0 0
M  V30 BEGIN ATOM
M  V30 1 C -2.443255 -3.127780 2.834681 0
M  V30 2 C -1.513142 -3.480236 1.692398 0
M  V30 3 N -0.959665 -2.307748 1.049782 0
M  V30 4 N 0.163822 -1.729797 1.404196 0
M  V30 5 C 0.477638 -0.659121 0.675151 0
M  V30 6 C 1.683175 0.138704 0.859791 0
M  V30 7 C 2.827802 -0.678917 0.832538 0
M  V30 8 C 4.058893 -0.097874 1.010391 0
M  V30 9 C 4.160260 1.271804 1.213350 0
M  V30 10 S 5.501377 2.481385 1.486300 0
M  V30 11 C 4.251641 3.938411 1.596247 0
M  V30 12 N 3.210547 3.409896 1.441943 0
M  V30 13 C 3.020449 2.104945 1.243444 0
M  V30 14 C 1.795857 1.494417 1.062548 0
M  V30 15 C -0.549274 -0.564917 -0.221289 0
M  V30 16 C -0.780915 0.348483 -1.286256 0
M  V30 17 N 0.235784 1.370716 -1.482943 0
M  V30 18 O -1.443369 0.773500 -2.217970 0
M  V30 19 C -1.449759 -1.601523 0.019722 0
M  V30 20 N -2.669795 -1.920110 -0.641682 0
M  V30 21 C -2.694425 -2.323525 -2.054949 0
M  V30 22 H -3.351771 -3.765213 2.729156 0
M  V30 23 H -2.772655 -2.082639 2.840006 0
M  V30 24 H -2.012182 -3.388425 3.828075 0
M  V30 25 H -0.688407 -4.089843 2.152819 0
M  V30 26 H -1.973141 -4.116385 0.917112 0
M  V30 27 H 2.896463 -1.742434 0.686874 0
M  V30 28 H 5.034502 -0.565414 1.018594 0
M  V30 29 H 4.499756 5.001229 1.763922 0
M  V30 30 H 0.850938 2.005020 1.085920 0
M  V30 31 H 0.248598 2.397241 -1.190775 0
M  V30 32 H 0.153569 2.384132 -1.148785 0
M  V30 33 H -3.595549 -1.876821 -0.125555 0
M  V30 34 H -3.251053 -1.526525 -2.629030 0
M  V30 35 H -1.637538 -2.270296 -2.431509 0
M  V30 36 H -3.071510 -3.331212 -2.219233 0
M  V30 END ATOM
M  V30 BEGIN BOND
M  V30 1 1 1 2
M  V30 2 1 2 3
M  V30 3 1 3 4
M  V30 4 2 4 5
M  V30 5 1 5 6
M  V30 6 2 6 7
M  V30 7 1 7 8
M  V30 8 2 8 9
M  V30 9 1 9 10
M  V30 10 1 10 11
M  V30 11 2 11 12
M  V30 12 1 12 13
M  V30 13 2 13 14
M  V30 14 1 5 15
M  V30 15 1 15 16
M  V30 16 1 16 17
M  V30 17 2 16 18
M  V30 18 2 15 19
M  V30 19 1 19 20
M  V30 20 1 20 21
M  V30 21 1 19 3
M  V30 22 1 14 6
M  V30 23 1 13 9
M  V30 24 1 1 22
M  V30 25 1 1 23
M  V30 26 1 1 24
M  V30 27 1 2 25
M  V30 28 1 2 26
M  V30 29 1 7 27
M  V30 30 1 8 28
M  V30 31 1 11 29
M  V30 32 1 14 30
M  V30 33 1 17 31
M  V30 34 1 17 32
M  V30 35 1 20 33
M  V30 36 1 21 34
M  V30 37 1 21 35
M  V30 38 1 21 36
M  V30 END BOND
M  V30 END CTAB
M  END
>  <Dataset>  (959) 
ChEMBL_Kinases

>  <Ligand_Instance>  (959) 
nan

>  <PDB_ID>  (959) 
nan

>  <Standardized_SMILES>  (959) 
CCn1nc(-c2ccc3scnc3c2)c(C(N)=O)c1NC

>  <Name>  (959) 
nan

>  <Pocket>  (959) 
nan

>  <ATP_Site>  (959) 
nan

>  <Peripheral>  (959) 
nan

>  <Num_H_Atoms_ProtBoundConf>  (959) 
nan

>  <Num_Resolved_Atoms>  (959) 
nan

>  <Num_Not_Resolved_Atoms>  (959) 
nan

$$$$
CHEMBL465339
     RDKit          3D

  0  0  0  0  0  0  0  0  0  0999 V3000
M  V30 BEGIN CTAB
M  V30 COUNTS 58 62 0 0 0
M  V30 BEGIN ATOM
M  V30 1 C -1.990907 -2.727670 0.634392 0
M  V30 2 O -0.838489 -3.301510 1.194827 0
M  V30 3 C 0.320010 -3.582053 0.487167 0
M  V30 4 C 1.291490 -2.603280 0.413498 0
M  V30 5 C 1.179308 -1.283406 1.035449 0
M  V30 6 C 1.591467 -0.952735 2.315006 0
M  V30 7 O 1.438018 0.273672 2.767303 0
M  V30 8 C 0.899455 1.243505 2.060076 0
M  V30 9 C 0.746747 2.527447 2.553848 0
M  V30 10 C 0.171487 3.520632 1.769033 0
M  V30 11 C -0.254720 3.230671 0.481669 0
M  V30 12 C -0.100816 1.948769 -0.007675 0
M  V30 13 C 0.469690 0.949796 0.761029 0
M  V30 14 C 0.598806 -0.315116 0.220123 0
M  V30 15 O 0.205131 -0.553396 -0.948670 0
M  V30 16 C -0.857096 4.363870 -0.275980 0
M  V30 17 C -1.855748 5.020060 0.686030 0
M  V30 18 O -2.573486 5.989346 -0.008821 0
M  V30 19 C -1.202621 5.569265 1.911188 0
M  V30 20 C -0.913878 7.033687 1.797443 0
M  V30 21 C -2.131878 5.297263 3.098011 0
M  V30 22 O -0.016637 4.812095 2.177587 0
M  V30 23 C 2.475021 -2.797584 -0.269933 0
M  V30 24 C 2.667970 -4.026294 -0.893830 0
M  V30 25 C 1.707595 -5.025568 -0.834572 0
M  V30 26 C 0.549574 -4.784547 -0.144075 0
M  V30 27 C -0.497365 -5.797330 -0.046759 0
M  V30 28 C -0.247844 -6.944437 -0.664476 0
M  V30 29 C 0.972108 -7.306555 -1.438261 0
M  V30 30 C 0.502248 -7.690995 -2.824034 0
M  V30 31 C 1.575671 -8.550085 -0.813631 0
M  V30 32 O 1.887916 -6.252739 -1.451413 0
M  V30 33 H -2.931744 -3.233379 0.942064 0
M  V30 34 H -2.090543 -1.673730 0.995459 0
M  V30 35 H -1.913077 -2.688451 -0.473699 0
M  V30 36 H 2.034517 -1.753095 2.895073 0
M  V30 37 H 1.070321 2.771748 3.547774 0
M  V30 38 H -0.450842 1.758073 -1.032259 0
M  V30 39 H -1.501096 3.998324 -1.118915 0
M  V30 40 H -0.139030 5.134606 -0.566986 0
M  V30 41 H -2.527900 4.187155 0.984554 0
M  V30 42 H -2.523967 5.774757 -0.982610 0
M  V30 43 H -1.539879 7.419876 0.965008 0
M  V30 44 H 0.135468 7.181548 1.488650 0
M  V30 45 H -1.186971 7.580756 2.710532 0
M  V30 46 H -2.582054 4.289193 3.023159 0
M  V30 47 H -1.589478 5.331338 4.070408 0
M  V30 48 H -2.936930 6.082984 3.163497 0
M  V30 49 H 3.258865 -2.058279 -0.350956 0
M  V30 50 H 3.580705 -4.218783 -1.439158 0
M  V30 51 H -1.434351 -5.676749 0.480076 0
M  V30 52 H -0.968736 -7.762342 -0.649065 0
M  V30 53 H 0.096473 -6.767577 -3.325258 0
M  V30 54 H -0.362834 -8.379269 -2.733545 0
M  V30 55 H 1.283898 -8.079239 -3.478282 0
M  V30 56 H 2.349364 -8.251674 -0.070861 0
M  V30 57 H 0.790534 -9.131059 -0.280076 0
M  V30 58 H 2.055669 -9.159360 -1.618868 0
M  V30 END ATOM
M  V30 BEGIN BOND
M  V30 1 1 1 2
M  V30 2 1 2 3
M  V30 3 2 3 4
M  V30 4 1 4 5
M  V30 5 2 5 6
M  V30 6 1 6 7
M  V30 7 1 7 8
M  V30 8 2 8 9
M  V30 9 1 9 10
M  V30 10 2 10 11
M  V30 11 1 11 12
M  V30 12 2 12 13
M  V30 13 1 13 14
M  V30 14 2 14 15
M  V30 15 1 11 16
M  V30 16 1 16 17
M  V30 17 1 17 18
M  V30 18 1 17 19
M  V30 19 1 19 20
M  V30 20 1 19 21
M  V30 21 1 19 22
M  V30 22 1 4 23
M  V30 23 2 23 24
M  V30 24 1 24 25
M  V30 25 2 25 26
M  V30 26 1 26 27
M  V30 27 2 27 28
M  V30 28 1 28 29
M  V30 29 1 29 30
M  V30 30 1 29 31
M  V30 31 1 29 32
M  V30 32 1 26 3
M  V30 33 1 14 5
M  V30 34 1 32 25
M  V30 35 1 13 8
M  V30 36 1 22 10
M  V30 37 1 1 33
M  V30 38 1 1 34
M  V30 39 1 1 35
M  V30 40 1 6 36
M  V30 41 1 9 37
M  V30 42 1 12 38
M  V30 43 1 16 39
M  V30 44 1 16 40
M  V30 45 1 17 41
M  V30 46 1 18 42
M  V30 47 1 20 43
M  V30 48 1 20 44
M  V30 49 1 20 45
M  V30 50 1 21 46
M  V30 51 1 21 47
M  V30 52 1 21 48
M  V30 53 1 23 49
M  V30 54 1 24 50
M  V30 55 1 27 51
M  V30 56 1 28 52
M  V30 57 1 30 53
M  V30 58 1 30 54
M  V30 59 1 30 55
M  V30 60 1 31 56
M  V30 61 1 31 57
M  V30 62 1 31 58
M  V30 END BOND
M  V30 END CTAB
M  END
>  <Dataset>  (960) 
ChEMBL_Kinases

>  <Ligand_Instance>  (960) 
nan

>  <PDB_ID>  (960) 
nan

>  <Standardized_SMILES>  (960) 
COc1c(-c2coc3cc4c(cc3c2=O)CC(O)C(C)(C)O4)ccc2c1C=CC(C)(C)O2

>  <Name>  (960) 
MUNDULONE

>  <Pocket>  (960) 
nan

>  <ATP_Site>  (960) 
nan

>  <Peripheral>  (960) 
nan

>  <Num_H_Atoms_ProtBoundConf>  (960) 
nan

>  <Num_Resolved_Atoms>  (960) 
nan

>  <Num_Not_Resolved_Atoms>  (960) 
nan

$$$$
CHEMBL465374
     RDKit          3D

  0  0  0  0  0  0  0  0  0  0999 V3000
M  V30 BEGIN CTAB
M  V30 COUNTS 72 76 0 0 0
M  V30 BEGIN ATOM
M  V30 1 C -1.941819 -1.961754 6.522451 0
M  V30 2 O -1.053822 -1.717172 5.441073 0
M  V30 3 C -1.396708 -0.925858 4.361610 0
M  V30 4 C -2.648112 -0.315624 4.252039 0
M  V30 5 C -2.994800 0.479501 3.171983 0
M  V30 6 C -4.328022 1.096722 2.990094 0
M  V30 7 C -2.018375 0.647227 2.182007 0
M  V30 8 N -2.119368 1.430516 1.002345 0
M  V30 9 C -2.287935 2.835416 0.788907 0
M  V30 10 C -2.232431 3.227546 -0.652876 0
M  V30 11 N -1.091573 2.695881 -1.341232 0
M  V30 12 C -1.014598 3.026172 -2.721457 0
M  V30 13 C -2.186893 2.492894 -3.478416 0
M  V30 14 C -0.851349 4.523568 -2.951976 0
M  V30 15 C -0.875234 1.306968 -1.128519 0
M  V30 16 C -2.037832 0.780801 -0.307826 0
M  V30 17 C -0.794581 0.041065 2.302732 0
M  V30 18 C -0.440453 -0.742186 3.353399 0
M  V30 19 N 0.832411 -1.394596 3.461397 0
M  V30 20 C 1.768679 -1.251914 2.402418 0
M  V30 21 N 1.289621 -1.952470 1.347763 0
M  V30 22 C 1.916425 -2.061845 0.159069 0
M  V30 23 N 1.390487 -2.796761 -0.953141 0
M  V30 24 C 1.644862 -4.183666 -0.940492 0
M  V30 25 C 2.359474 -4.772772 0.088049 0
M  V30 26 C 2.553948 -6.133084 0.034060 0
M  V30 27 C 2.066365 -6.932228 -1.001489 0
M  V30 28 C 1.359992 -6.381129 -2.027911 0
M  V30 29 F 0.859263 -7.097415 -3.058954 0
M  V30 30 C 1.183973 -5.025457 -1.945882 0
M  V30 31 C 0.460354 -4.288004 -2.963130 0
M  V30 32 N -0.061452 -5.049236 -4.040850 0
M  V30 33 O -0.062516 -3.383721 -3.601164 0
M  V30 34 C 3.146625 -1.414361 -0.017806 0
M  V30 35 C 4.075657 -1.277825 -1.036034 0
M  V30 36 C 5.080999 -0.476366 -0.506906 0
M  V30 37 N 4.804261 -0.138108 0.747745 0
M  V30 38 C 3.626980 -0.701576 1.063669 0
M  V30 39 N 2.950165 -0.632130 2.228595 0
M  V30 40 H -1.698063 -1.190630 7.276647 0
M  V30 41 H -2.993909 -2.034085 6.236065 0
M  V30 42 H -1.692591 -2.937972 7.030900 0
M  V30 43 H -3.404617 -0.450720 5.029883 0
M  V30 44 H -4.469743 1.307161 1.899980 0
M  V30 45 H -5.108046 0.321884 3.241221 0
M  V30 46 H -4.524428 1.981835 3.594312 0
M  V30 47 H -1.523164 3.446567 1.342252 0
M  V30 48 H -3.256011 3.155693 1.206790 0
M  V30 49 H -3.144858 2.939314 -1.207250 0
M  V30 50 H -2.180437 4.336016 -0.732600 0
M  V30 51 H -0.103337 2.558816 -3.161995 0
M  V30 52 H -2.505769 1.533004 -3.044476 0
M  V30 53 H -3.039083 3.210526 -3.402059 0
M  V30 54 H -1.869201 2.342320 -4.545450 0
M  V30 55 H -0.115128 4.927734 -2.263793 0
M  V30 56 H -0.435916 4.627075 -3.990105 0
M  V30 57 H -1.837068 4.986749 -2.944546 0
M  V30 58 H 0.079811 1.042459 -0.622533 0
M  V30 59 H -0.903985 0.782006 -2.102554 0
M  V30 60 H -2.982265 0.791632 -0.849253 0
M  V30 61 H -1.779691 -0.304080 -0.132626 0
M  V30 62 H 0.006172 0.128678 1.571647 0
M  V30 63 H 1.022903 -1.955978 4.331399 0
M  V30 64 H 0.861914 -2.316975 -1.707235 0
M  V30 65 H 2.757692 -4.189789 0.913142 0
M  V30 66 H 3.110289 -6.622263 0.826226 0
M  V30 67 H 2.220002 -8.018997 -1.038862 0
M  V30 68 H -0.441510 -5.888543 -4.527501 0
M  V30 69 H -0.437024 -5.553274 -4.861589 0
M  V30 70 H 3.967603 -1.731327 -2.010490 0
M  V30 71 H 5.974994 -0.170903 -1.068061 0
M  V30 72 H 5.394069 0.450915 1.357797 0
M  V30 END ATOM
M  V30 BEGIN BOND
M  V30 1 1 1 2
M  V30 2 1 2 3
M  V30 3 2 3 4
M  V30 4 1 4 5
M  V30 5 1 5 6
M  V30 6 2 5 7
M  V30 7 1 7 8
M  V30 8 1 8 9
M  V30 9 1 9 10
M  V30 10 1 10 11
M  V30 11 1 11 12
M  V30 12 1 12 13
M  V30 13 1 12 14
M  V30 14 1 11 15
M  V30 15 1 15 16
M  V30 16 1 7 17
M  V30 17 2 17 18
M  V30 18 1 18 19
M  V30 19 1 19 20
M  V30 20 2 20 21
M  V30 21 1 21 22
M  V30 22 1 22 23
M  V30 23 1 23 24
M  V30 24 2 24 25
M  V30 25 1 25 26
M  V30 26 2 26 27
M  V30 27 1 27 28
M  V30 28 1 28 29
M  V30 29 2 28 30
M  V30 30 1 30 31
M  V30 31 1 31 32
M  V30 32 2 31 33
M  V30 33 2 22 34
M  V30 34 1 34 35
M  V30 35 2 35 36
M  V30 36 1 36 37
M  V30 37 1 37 38
M  V30 38 2 38 39
M  V30 39 1 18 3
M  V30 40 1 39 20
M  V30 41 1 16 8
M  V30 42 1 30 24
M  V30 43 1 38 34
M  V30 44 1 1 40
M  V30 45 1 1 41
M  V30 46 1 1 42
M  V30 47 1 4 43
M  V30 48 1 6 44
M  V30 49 1 6 45
M  V30 50 1 6 46
M  V30 51 1 9 47
M  V30 52 1 9 48
M  V30 53 1 10 49
M  V30 54 1 10 50
M  V30 55 1 12 51
M  V30 56 1 13 52
M  V30 57 1 13 53
M  V30 58 1 13 54
M  V30 59 1 14 55
M  V30 60 1 14 56
M  V30 61 1 14 57
M  V30 62 1 15 58
M  V30 63 1 15 59
M  V30 64 1 16 60
M  V30 65 1 16 61
M  V30 66 1 17 62
M  V30 67 1 19 63
M  V30 68 1 23 64
M  V30 69 1 25 65
M  V30 70 1 26 66
M  V30 71 1 27 67
M  V30 72 1 32 68
M  V30 73 1 32 69
M  V30 74 1 35 70
M  V30 75 1 36 71
M  V30 76 1 37 72
M  V30 END BOND
M  V30 END CTAB
M  END
>  <Dataset>  (961) 
ChEMBL_Kinases

>  <Ligand_Instance>  (961) 
nan

>  <PDB_ID>  (961) 
nan

>  <Standardized_SMILES>  (961) 
COc1cc(C)c(N2CCN(C(C)C)CC2)cc1Nc1nc(Nc2cccc(F)c2C(N)=O)c2cc[nH]c2n1

>  <Name>  (961) 
nan

>  <Pocket>  (961) 
nan

>  <ATP_Site>  (961) 
nan

>  <Peripheral>  (961) 
nan

>  <Num_H_Atoms_ProtBoundConf>  (961) 
nan

>  <Num_Resolved_Atoms>  (961) 
nan

>  <Num_Not_Resolved_Atoms>  (961) 
nan

$$$$
CHEMBL465738
     RDKit          3D

  0  0  0  0  0  0  0  0  0  0999 V3000
M  V30 BEGIN CTAB
M  V30 COUNTS 39 42 0 0 0
M  V30 BEGIN ATOM
M  V30 1 C 1.737577 -5.515911 3.554278 0
M  V30 2 C 2.517385 -4.215155 3.335738 0
M  V30 3 O 1.655533 -3.377493 2.589978 0
M  V30 4 C 1.930827 -2.109197 2.161790 0
M  V30 5 O 3.075908 -1.714724 2.498577 0
M  V30 6 C 0.975812 -1.318602 1.395122 0
M  V30 7 C -0.244787 -1.887533 1.100548 0
M  V30 8 C -1.163736 -1.135157 0.366479 0
M  V30 9 C -0.866453 0.134454 -0.052519 0
M  V30 10 C 0.344601 0.683133 0.246603 0
M  V30 11 C 1.265760 -0.041420 0.969577 0
M  V30 12 N 2.359608 0.726173 1.121675 0
M  V30 13 C 2.110746 1.911378 0.497004 0
M  V30 14 C 2.968090 2.986287 0.410807 0
M  V30 15 C 2.584498 4.131146 -0.256168 0
M  V30 16 C 1.316309 4.127999 -0.817309 0
M  V30 17 C 0.512213 3.038154 -0.701012 0
M  V30 18 C 0.848879 1.891170 -0.053928 0
M  V30 19 C -2.041994 0.568945 -0.762484 0
M  V30 20 O -2.340690 1.604345 -1.344207 0
M  V30 21 N -3.025364 -0.453020 -0.755286 0
M  V30 22 C -4.379489 -0.512686 -1.328653 0
M  V30 23 O -5.303521 -0.049307 -0.393464 0
M  V30 24 C -2.491713 -1.580952 -0.029174 0
M  V30 25 O -3.055653 -2.681433 0.198150 0
M  V30 26 H 0.639886 -5.358046 3.493579 0
M  V30 27 H 2.018394 -6.276271 2.809394 0
M  V30 28 H 1.942527 -5.911393 4.563211 0
M  V30 29 H 2.748648 -3.814716 4.342173 0
M  V30 30 H 3.415400 -4.474757 2.754197 0
M  V30 31 H -0.451027 -2.889504 1.443804 0
M  V30 32 H 3.211136 0.444075 1.621777 0
M  V30 33 H 3.951578 2.965176 0.856209 0
M  V30 34 H 3.274065 4.956246 -0.308362 0
M  V30 35 H 1.057309 5.055267 -1.334595 0
M  V30 36 H -0.428335 3.151499 -1.167406 0
M  V30 37 H -4.604822 -1.541294 -1.613589 0
M  V30 38 H -4.390471 0.188121 -2.191034 0
M  V30 39 H -5.087669 -0.345802 0.524630 0
M  V30 END ATOM
M  V30 BEGIN BOND
M  V30 1 1 1 2
M  V30 2 1 2 3
M  V30 3 1 3 4
M  V30 4 2 4 5
M  V30 5 1 4 6
M  V30 6 2 6 7
M  V30 7 1 7 8
M  V30 8 2 8 9
M  V30 9 1 9 10
M  V30 10 2 10 11
M  V30 11 1 11 12
M  V30 12 1 12 13
M  V30 13 2 13 14
M  V30 14 1 14 15
M  V30 15 2 15 16
M  V30 16 1 16 17
M  V30 17 2 17 18
M  V30 18 1 9 19
M  V30 19 2 19 20
M  V30 20 1 19 21
M  V30 21 1 21 22
M  V30 22 1 22 23
M  V30 23 1 21 24
M  V30 24 2 24 25
M  V30 25 1 11 6
M  V30 26 1 18 13
M  V30 27 1 24 8
M  V30 28 1 18 10
M  V30 29 1 1 26
M  V30 30 1 1 27
M  V30 31 1 1 28
M  V30 32 1 2 29
M  V30 33 1 2 30
M  V30 34 1 7 31
M  V30 35 1 12 32
M  V30 36 1 14 33
M  V30 37 1 15 34
M  V30 38 1 16 35
M  V30 39 1 17 36
M  V30 40 1 22 37
M  V30 41 1 22 38
M  V30 42 1 23 39
M  V30 END BOND
M  V30 END CTAB
M  END
>  <Dataset>  (962) 
ChEMBL_Kinases

>  <Ligand_Instance>  (962) 
nan

>  <PDB_ID>  (962) 
nan

>  <Standardized_SMILES>  (962) 
CCOC(=O)c1cc2c(c3c1[nH]c1ccccc13)C(=O)N(CO)C2=O

>  <Name>  (962) 
nan

>  <Pocket>  (962) 
nan

>  <ATP_Site>  (962) 
nan

>  <Peripheral>  (962) 
nan

>  <Num_H_Atoms_ProtBoundConf>  (962) 
nan

>  <Num_Resolved_Atoms>  (962) 
nan

>  <Num_Not_Resolved_Atoms>  (962) 
nan

$$$$
CHEMBL466009
     RDKit          3D

  0  0  0  0  0  0  0  0  0  0999 V3000
M  V30 BEGIN CTAB
M  V30 COUNTS 47 50 0 0 0
M  V30 BEGIN ATOM
M  V30 1 C -3.310917 -0.611066 0.546292 0
M  V30 2 C -2.797907 -1.950163 0.110547 0 CFG=1
M  V30 3 N -1.440877 -1.923581 -0.391074 0
M  V30 4 C -0.763493 -1.319326 -1.478762 0
M  V30 5 C 0.456345 -1.146994 -2.120761 0
M  V30 6 N 1.668055 -1.749112 -1.616835 0
M  V30 7 C 2.393330 -0.946815 -0.661830 0
M  V30 8 C 3.492322 -1.470061 0.029909 0
M  V30 9 C 4.149759 -0.642872 0.944480 0
M  V30 10 N 3.743161 0.630415 1.161805 0
M  V30 11 C 2.694537 1.161129 0.514909 0
M  V30 12 N 2.249064 2.492988 0.726939 0
M  V30 13 C 2.834674 3.392741 1.652278 0
M  V30 14 N 2.124083 3.374072 2.819881 0
M  V30 15 C 2.466037 4.138706 3.882304 0
M  V30 16 C 3.556449 4.974851 3.825836 0
M  V30 17 C 4.278173 4.991377 2.634892 0
M  V30 18 N 3.911929 4.229065 1.618759 0
M  V30 19 C 2.032048 0.364529 -0.389435 0
M  V30 20 C -0.181973 -0.380443 -3.043030 0
M  V30 21 O 0.399901 0.165802 -4.032269 0
M  V30 22 C -1.409268 -0.526400 -2.436452 0
M  V30 23 O -2.538977 -0.055543 -2.769246 0
M  V30 24 C -2.982109 -3.013638 1.126210 0
M  V30 25 C -4.106289 -3.845357 1.143197 0
M  V30 26 C -4.327718 -4.864246 2.065587 0
M  V30 27 C -3.341552 -5.054022 3.037691 0
M  V30 28 C -2.212037 -4.265648 3.071671 0
M  V30 29 C -2.049882 -3.272516 2.131781 0
M  V30 30 H -4.413761 -0.558996 0.350556 0
M  V30 31 H -2.847267 0.172202 -0.057445 0
M  V30 32 H -3.153608 -0.393483 1.626996 0
M  V30 33 H -3.434921 -2.239809 -0.778733 0
M  V30 34 H -0.779052 -2.493987 0.193791 0
M  V30 35 H 2.032078 -2.667555 -1.876676 0
M  V30 36 H 3.792302 -2.491315 -0.162747 0
M  V30 37 H 4.996254 -1.104756 1.451892 0
M  V30 38 H 1.434680 2.868302 0.178837 0
M  V30 39 H 1.900630 4.131577 4.823380 0
M  V30 40 H 3.925069 5.630369 4.609385 0
M  V30 41 H 5.153705 5.600169 2.457877 0
M  V30 42 H 1.184327 0.764103 -0.925238 0
M  V30 43 H -4.818477 -3.626022 0.352709 0
M  V30 44 H -5.245551 -5.441843 1.971963 0
M  V30 45 H -3.509360 -5.849581 3.757874 0
M  V30 46 H -1.455289 -4.444308 3.852659 0
M  V30 47 H -1.158541 -2.677209 2.189239 0
M  V30 END ATOM
M  V30 BEGIN BOND
M  V30 1 1 1 2
M  V30 2 1 2 3
M  V30 3 1 3 4
M  V30 4 2 4 5
M  V30 5 1 5 6
M  V30 6 1 6 7
M  V30 7 2 7 8
M  V30 8 1 8 9
M  V30 9 2 9 10
M  V30 10 1 10 11
M  V30 11 1 11 12
M  V30 12 1 12 13
M  V30 13 2 13 14
M  V30 14 1 14 15
M  V30 15 2 15 16
M  V30 16 1 16 17
M  V30 17 2 17 18
M  V30 18 2 11 19
M  V30 19 1 5 20
M  V30 20 2 20 21
M  V30 21 1 20 22
M  V30 22 2 22 23
M  V30 23 1 2 24
M  V30 24 2 24 25
M  V30 25 1 25 26
M  V30 26 2 26 27
M  V30 27 1 27 28
M  V30 28 2 28 29
M  V30 29 1 22 4
M  V30 30 1 29 24
M  V30 31 1 19 7
M  V30 32 1 18 13
M  V30 33 1 1 30
M  V30 34 1 1 31
M  V30 35 1 1 32
M  V30 36 1 2 33 CFG=3
M  V30 37 1 3 34
M  V30 38 1 6 35
M  V30 39 1 8 36
M  V30 40 1 9 37
M  V30 41 1 12 38
M  V30 42 1 15 39
M  V30 43 1 16 40
M  V30 44 1 17 41
M  V30 45 1 19 42
M  V30 46 1 25 43
M  V30 47 1 26 44
M  V30 48 1 27 45
M  V30 49 1 28 46
M  V30 50 1 29 47
M  V30 END BOND
M  V30 END CTAB
M  END
>  <Dataset>  (963) 
ChEMBL_Kinases

>  <Ligand_Instance>  (963) 
nan

>  <PDB_ID>  (963) 
nan

>  <Standardized_SMILES>  (963) 
C[C@@H](Nc1c(Nc2ccnc(Nc3ncccn3)c2)c(=O)c1=O)c1ccccc1

>  <Name>  (963) 
nan

>  <Pocket>  (963) 
nan

>  <ATP_Site>  (963) 
nan

>  <Peripheral>  (963) 
nan

>  <Num_H_Atoms_ProtBoundConf>  (963) 
nan

>  <Num_Resolved_Atoms>  (963) 
nan

>  <Num_Not_Resolved_Atoms>  (963) 
nan

$$$$
CHEMBL4475494
     RDKit          3D

  0  0  0  0  0  0  0  0  0  0999 V3000
M  V30 BEGIN CTAB
M  V30 COUNTS 62 66 0 0 0
M  V30 BEGIN ATOM
M  V30 1 C 1.734789 4.858056 5.193689 0
M  V30 2 C 2.629964 3.656663 5.021703 0
M  V30 3 C 2.707578 2.868213 6.332528 0
M  V30 4 O 3.895554 4.105327 4.687992 0
M  V30 5 C 2.057641 2.721754 3.987009 0 CFG=2
M  V30 6 F 2.951432 1.646092 3.900892 0
M  V30 7 C 1.997626 3.302093 2.603570 0
M  V30 8 N 1.431073 2.342158 1.646697 0
M  V30 9 C 2.193426 1.367234 0.873567 0
M  V30 10 C 1.143751 0.673745 0.088128 0
M  V30 11 C 1.302375 -0.353792 -0.820861 0
M  V30 12 C 0.150821 -0.822393 -1.415672 0
M  V30 13 N 0.121264 -1.896460 -2.386303 0
M  V30 14 C -0.053219 -3.065025 -1.578024 0
M  V30 15 O -0.123690 -2.820532 -0.324827 0
M  V30 16 C -0.156626 -4.475137 -2.020166 0
M  V30 17 C 0.338508 -5.082280 -3.155987 0
M  V30 18 N -0.058431 -6.384442 -3.039627 0
M  V30 19 N -0.740036 -6.554475 -1.922260 0
M  V30 20 C -1.331679 -7.648614 -1.372851 0
M  V30 21 C -1.997396 -7.588129 -0.181655 0
M  V30 22 C -2.089566 -6.397030 0.508032 0
M  V30 23 N -1.494513 -5.318264 -0.054381 0
M  V30 24 C -0.833406 -5.400098 -1.246831 0
M  V30 25 C -1.113648 -0.332038 -1.157101 0
M  V30 26 N -2.305853 -0.804775 -1.764371 0
M  V30 27 C -2.524493 -0.738429 -3.191109 0
M  V30 28 C -3.198986 -2.001557 -3.717939 0
M  V30 29 O -4.267582 -2.356532 -2.877587 0
M  V30 30 C -3.822473 -2.654481 -1.608804 0
M  V30 31 C -3.360666 -1.385178 -0.940125 0
M  V30 32 C -1.263784 0.694761 -0.247425 0
M  V30 33 C -0.116295 1.169176 0.352180 0
M  V30 34 C 0.043773 2.234364 1.343826 0
M  V30 35 O -0.874358 2.954834 1.862763 0
M  V30 36 H 0.678253 4.622046 4.885161 0
M  V30 37 H 1.747090 5.148990 6.277524 0
M  V30 38 H 2.146502 5.692487 4.611383 0
M  V30 39 H 2.613268 3.551712 7.199009 0
M  V30 40 H 1.860631 2.132338 6.380846 0
M  V30 41 H 3.634181 2.246583 6.373394 0
M  V30 42 H 4.519743 4.082208 5.470210 0
M  V30 43 H 1.116927 2.295337 4.352411 0
M  V30 44 H 1.476024 4.280463 2.557958 0
M  V30 45 H 3.048017 3.489684 2.277426 0
M  V30 46 H 2.760295 0.671584 1.521049 0
M  V30 47 H 2.826031 1.959535 0.180548 0
M  V30 48 H 2.221900 -0.840554 -1.127242 0
M  V30 49 H 0.178832 -2.115504 -3.418625 0
M  V30 50 H 0.907099 -4.572909 -3.925688 0
M  V30 51 H -1.294855 -8.604861 -1.863395 0
M  V30 52 H -2.476085 -8.429123 0.284032 0
M  V30 53 H -2.571319 -6.195050 1.439018 0
M  V30 54 H -3.235873 0.094294 -3.450091 0
M  V30 55 H -1.614618 -0.566823 -3.782398 0
M  V30 56 H -3.632766 -1.775838 -4.712663 0
M  V30 57 H -2.469108 -2.843645 -3.747147 0
M  V30 58 H -4.714071 -3.064252 -1.058111 0
M  V30 59 H -3.061108 -3.452538 -1.575510 0
M  V30 60 H -4.222937 -0.689205 -0.928890 0
M  V30 61 H -2.988515 -1.572943 0.089245 0
M  V30 62 H -2.227593 1.118933 -0.004415 0
M  V30 END ATOM
M  V30 BEGIN BOND
M  V30 1 1 1 2
M  V30 2 1 2 3
M  V30 3 1 2 4
M  V30 4 1 2 5
M  V30 5 1 5 6
M  V30 6 1 5 7
M  V30 7 1 7 8
M  V30 8 1 8 9
M  V30 9 1 9 10
M  V30 10 2 10 11
M  V30 11 1 11 12
M  V30 12 1 12 13
M  V30 13 1 13 14
M  V30 14 2 14 15
M  V30 15 1 14 16
M  V30 16 1 16 17
M  V30 17 2 17 18
M  V30 18 1 18 19
M  V30 19 1 19 20
M  V30 20 2 20 21
M  V30 21 1 21 22
M  V30 22 2 22 23
M  V30 23 1 23 24
M  V30 24 2 12 25
M  V30 25 1 25 26
M  V30 26 1 26 27
M  V30 27 1 27 28
M  V30 28 1 28 29
M  V30 29 1 29 30
M  V30 30 1 30 31
M  V30 31 1 25 32
M  V30 32 2 32 33
M  V30 33 1 33 34
M  V30 34 2 34 35
M  V30 35 1 34 8
M  V30 36 1 33 10
M  V30 37 2 24 16
M  V30 38 1 31 26
M  V30 39 1 24 19
M  V30 40 1 1 36
M  V30 41 1 1 37
M  V30 42 1 1 38
M  V30 43 1 3 39
M  V30 44 1 3 40
M  V30 45 1 3 41
M  V30 46 1 4 42
M  V30 47 1 5 43 CFG=1
M  V30 48 1 7 44
M  V30 49 1 7 45
M  V30 50 1 9 46
M  V30 51 1 9 47
M  V30 52 1 11 48
M  V30 53 1 13 49
M  V30 54 1 17 50
M  V30 55 1 20 51
M  V30 56 1 21 52
M  V30 57 1 22 53
M  V30 58 1 27 54
M  V30 59 1 27 55
M  V30 60 1 28 56
M  V30 61 1 28 57
M  V30 62 1 30 58
M  V30 63 1 30 59
M  V30 64 1 31 60
M  V30 65 1 31 61
M  V30 66 1 32 62
M  V30 END BOND
M  V30 END CTAB
M  END
>  <Dataset>  (964) 
ChEMBL_Kinases

>  <Ligand_Instance>  (964) 
nan

>  <PDB_ID>  (964) 
nan

>  <Standardized_SMILES>  (964) 
CC(C)(O)[C@H](F)CN1Cc2cc(NC(=O)c3cnn4cccnc34)c(N3CCOCC3)cc2C1=O

>  <Name>  (964) 
nan

>  <Pocket>  (964) 
nan

>  <ATP_Site>  (964) 
nan

>  <Peripheral>  (964) 
nan

>  <Num_H_Atoms_ProtBoundConf>  (964) 
nan

>  <Num_Resolved_Atoms>  (964) 
nan

>  <Num_Not_Resolved_Atoms>  (964) 
nan

$$$$
CHEMBL4475448
     RDKit          3D

  0  0  0  0  0  0  0  0  0  0999 V3000
M  V30 BEGIN CTAB
M  V30 COUNTS 48 51 0 0 0
M  V30 BEGIN ATOM
M  V30 1 C -0.413586 -5.228826 0.460389 0
M  V30 2 C 0.244467 -3.887422 0.460854 0
M  V30 3 N 1.485101 -3.607118 0.181101 0
M  V30 4 C 1.750399 -2.264647 0.281262 0
M  V30 5 C 3.096754 -1.857530 -0.001601 0
M  V30 6 C 3.324836 -1.902968 -1.499297 0
M  V30 7 C 2.764357 -0.655144 -2.109758 0
M  V30 8 C 3.635016 0.512888 -1.706353 0
M  V30 9 C 4.322360 0.325368 -0.412216 0
M  V30 10 C 3.715320 -0.660046 0.551638 0
M  V30 11 C 0.563506 -1.727990 0.648141 0
M  V30 12 C 0.213934 -0.376716 0.967058 0
M  V30 13 C 0.700650 0.872706 0.732776 0
M  V30 14 C 0.315065 2.104232 1.180096 0
M  V30 15 N -0.753035 2.129259 2.018965 0
M  V30 16 C -1.338863 0.963527 2.339226 0
M  V30 17 N -2.445971 1.048681 3.224070 0
M  V30 18 C -3.653186 1.205511 2.486897 0
M  V30 19 O -3.578991 1.245513 1.211375 0
M  V30 20 C -5.003086 1.326303 3.114860 0
M  V30 21 C -6.038756 2.165853 2.356491 0
M  V30 22 C -6.140922 0.683178 2.299030 0
M  V30 23 C -0.880733 -0.206253 1.842359 0
M  V30 24 N -0.347575 -2.741711 0.753735 0
M  V30 25 H 0.179091 -5.956277 1.087164 0
M  V30 26 H -0.648728 -5.611479 -0.532552 0
M  V30 27 H -1.391251 -5.159929 1.022084 0
M  V30 28 H 3.778294 -2.771100 0.329375 0
M  V30 29 H 4.434623 -1.855109 -1.690270 0
M  V30 30 H 2.891518 -2.823385 -1.947949 0
M  V30 31 H 1.716342 -0.459583 -1.832336 0
M  V30 32 H 2.726289 -0.738091 -3.242954 0
M  V30 33 H 4.383969 0.652943 -2.510327 0
M  V30 34 H 3.012191 1.451563 -1.746398 0
M  V30 35 H 5.418748 0.127181 -0.611569 0
M  V30 36 H 4.357447 1.345975 0.078686 0
M  V30 37 H 4.650438 -1.024463 1.127794 0
M  V30 38 H 3.189477 -0.165508 1.417503 0
M  V30 39 H 1.520897 0.875187 0.060628 0
M  V30 40 H 0.856026 2.978725 0.860365 0
M  V30 41 H -2.564125 1.022274 4.263162 0
M  V30 42 H -5.115260 1.297416 4.200999 0
M  V30 43 H -6.781443 2.746153 2.928171 0
M  V30 44 H -5.675752 2.712009 1.443682 0
M  V30 45 H -6.991799 0.244285 2.859400 0
M  V30 46 H -5.878988 0.230196 1.315154 0
M  V30 47 H -1.482519 -1.058224 2.213563 0
M  V30 48 H -1.378520 -2.694617 1.020250 0
M  V30 END ATOM
M  V30 BEGIN BOND
M  V30 1 1 1 2
M  V30 2 2 2 3
M  V30 3 1 3 4
M  V30 4 1 4 5
M  V30 5 1 5 6
M  V30 6 1 6 7
M  V30 7 1 7 8
M  V30 8 1 8 9
M  V30 9 1 9 10
M  V30 10 2 4 11
M  V30 11 1 11 12
M  V30 12 2 12 13
M  V30 13 1 13 14
M  V30 14 2 14 15
M  V30 15 1 15 16
M  V30 16 1 16 17
M  V30 17 1 17 18
M  V30 18 2 18 19
M  V30 19 1 18 20
M  V30 20 1 20 21
M  V30 21 1 21 22
M  V30 22 2 16 23
M  V30 23 1 11 24
M  V30 24 1 24 2
M  V30 25 1 10 5
M  V30 26 1 23 12
M  V30 27 1 22 20
M  V30 28 1 1 25
M  V30 29 1 1 26
M  V30 30 1 1 27
M  V30 31 1 5 28
M  V30 32 1 6 29
M  V30 33 1 6 30
M  V30 34 1 7 31
M  V30 35 1 7 32
M  V30 36 1 8 33
M  V30 37 1 8 34
M  V30 38 1 9 35
M  V30 39 1 9 36
M  V30 40 1 10 37
M  V30 41 1 10 38
M  V30 42 1 13 39
M  V30 43 1 14 40
M  V30 44 1 17 41
M  V30 45 1 20 42
M  V30 46 1 21 43
M  V30 47 1 21 44
M  V30 48 1 22 45
M  V30 49 1 22 46
M  V30 50 1 23 47
M  V30 51 1 24 48
M  V30 END BOND
M  V30 END CTAB
M  END
>  <Dataset>  (965) 
ChEMBL_Kinases

>  <Ligand_Instance>  (965) 
nan

>  <PDB_ID>  (965) 
nan

>  <Standardized_SMILES>  (965) 
Cc1nc(C2CCCCC2)c(-c2ccnc(NC(=O)C3CC3)c2)[nH]1

>  <Name>  (965) 
nan

>  <Pocket>  (965) 
nan

>  <ATP_Site>  (965) 
nan

>  <Peripheral>  (965) 
nan

>  <Num_H_Atoms_ProtBoundConf>  (965) 
nan

>  <Num_Resolved_Atoms>  (965) 
nan

>  <Num_Not_Resolved_Atoms>  (965) 
nan

$$$$
CHEMBL4475381
     RDKit          3D

  0  0  0  0  0  0  0  0  0  0999 V3000
M  V30 BEGIN CTAB
M  V30 COUNTS 60 66 0 0 0
M  V30 BEGIN ATOM
M  V30 1 C 5.361911 -1.552749 4.924273 0
M  V30 2 N 6.379573 -0.866205 4.150428 0
M  V30 3 C 6.582496 -1.578337 2.925858 0
M  V30 4 C 5.641217 -1.229641 1.818142 0
M  V30 5 N 5.142276 0.110135 1.887778 0
M  V30 6 C 3.889915 0.553703 1.384874 0
M  V30 7 C 3.365178 1.829373 1.440285 0
M  V30 8 C 2.115984 2.089252 0.891582 0
M  V30 9 C 1.355501 1.114835 0.280030 0
M  V30 10 C 0.067665 1.462490 -0.268282 0
M  V30 11 N -0.200396 2.549304 -1.015577 0
M  V30 12 N -1.473311 2.585923 -1.368066 0
M  V30 13 C -2.087513 1.501625 -0.850816 0
M  V30 14 C -3.414959 1.057369 -0.918536 0
M  V30 15 C -3.819514 -0.128176 -0.284832 0
M  V30 16 C -5.224029 -0.482732 -0.410029 0 CFG=2
M  V30 17 C -5.899779 -1.544587 0.375980 0
M  V30 18 C -5.783362 -1.665168 -1.064939 0 CFG=1
M  V30 19 C -6.931699 -1.433809 -1.988842 0
M  V30 20 O -7.844190 -0.573405 -1.752993 0
M  V30 21 N -6.895166 -2.265406 -3.141474 0
M  V30 22 C -5.730206 -3.058170 -2.943787 0
M  V30 23 C -5.313783 -4.037434 -3.839065 0
M  V30 24 C -4.182285 -4.770992 -3.559271 0
M  V30 25 C -3.486438 -4.518338 -2.396563 0
M  V30 26 F -2.382898 -5.245170 -2.138810 0
M  V30 27 C -3.965887 -3.531637 -1.564200 0
M  V30 28 C -5.082716 -2.738114 -1.743750 0
M  V30 29 C -2.810520 -0.782677 0.385658 0
M  V30 30 C -1.497058 -0.378931 0.474670 0
M  V30 31 C -1.130272 0.789548 -0.158758 0
M  V30 32 C 1.941956 -0.133033 0.261874 0
M  V30 33 N 3.150394 -0.398745 0.789171 0
M  V30 34 C 6.146210 0.908472 2.557847 0
M  V30 35 C 6.095235 0.524743 4.018459 0
M  V30 36 H 4.433164 -0.922140 4.995894 0
M  V30 37 H 5.081180 -2.513694 4.446078 0
M  V30 38 H 5.735547 -1.791413 5.957193 0
M  V30 39 H 6.602095 -2.691581 3.096755 0
M  V30 40 H 7.633109 -1.356988 2.578615 0
M  V30 41 H 4.815890 -1.991957 1.822338 0
M  V30 42 H 6.143654 -1.383018 0.820447 0
M  V30 43 H 3.986000 2.560575 1.924031 0
M  V30 44 H 1.763648 3.122540 0.972238 0
M  V30 45 H -1.947035 3.311191 -1.943157 0
M  V30 46 H -4.113564 1.677176 -1.486106 0
M  V30 47 H -5.867706 0.444049 -0.559886 0
M  V30 48 H -6.941182 -1.401743 0.770999 0
M  V30 49 H -5.291538 -2.183287 1.039031 0
M  V30 50 H -7.593494 -2.245353 -3.914121 0
M  V30 51 H -5.821510 -4.274308 -4.761104 0
M  V30 52 H -3.849187 -5.527472 -4.237232 0
M  V30 53 H -3.360197 -3.408912 -0.679524 0
M  V30 54 H -3.095214 -1.680479 0.884691 0
M  V30 55 H -0.765447 -0.933755 1.010378 0
M  V30 56 H 1.362756 -0.935495 -0.218295 0
M  V30 57 H 5.859677 1.992244 2.486418 0
M  V30 58 H 7.163812 0.782554 2.138474 0
M  V30 59 H 5.070140 0.762383 4.376610 0
M  V30 60 H 6.872541 1.080601 4.585788 0
M  V30 END ATOM
M  V30 BEGIN BOND
M  V30 1 1 1 2
M  V30 2 1 2 3
M  V30 3 1 3 4
M  V30 4 1 4 5
M  V30 5 1 5 6
M  V30 6 2 6 7
M  V30 7 1 7 8
M  V30 8 2 8 9
M  V30 9 1 9 10
M  V30 10 2 10 11
M  V30 11 1 11 12
M  V30 12 1 12 13
M  V30 13 2 13 14
M  V30 14 1 14 15
M  V30 15 1 15 16
M  V30 16 1 16 17
M  V30 17 1 18 17 CFG=1
M  V30 18 1 18 19
M  V30 19 2 19 20
M  V30 20 1 19 21
M  V30 21 1 21 22
M  V30 22 2 22 23
M  V30 23 1 23 24
M  V30 24 2 24 25
M  V30 25 1 25 26
M  V30 26 1 25 27
M  V30 27 2 27 28
M  V30 28 2 15 29
M  V30 29 1 29 30
M  V30 30 2 30 31
M  V30 31 1 9 32
M  V30 32 2 32 33
M  V30 33 1 5 34
M  V30 34 1 34 35
M  V30 35 1 35 2
M  V30 36 1 33 6
M  V30 37 1 31 10
M  V30 38 1 31 13
M  V30 39 1 18 16
M  V30 40 1 28 22
M  V30 41 1 28 18
M  V30 42 1 1 36
M  V30 43 1 1 37
M  V30 44 1 1 38
M  V30 45 1 3 39
M  V30 46 1 3 40
M  V30 47 1 4 41
M  V30 48 1 4 42
M  V30 49 1 7 43
M  V30 50 1 8 44
M  V30 51 1 12 45
M  V30 52 1 14 46
M  V30 53 1 16 47 CFG=3
M  V30 54 1 17 48
M  V30 55 1 17 49
M  V30 56 1 21 50
M  V30 57 1 23 51
M  V30 58 1 24 52
M  V30 59 1 27 53
M  V30 60 1 29 54
M  V30 61 1 30 55
M  V30 62 1 32 56
M  V30 63 1 34 57
M  V30 64 1 34 58
M  V30 65 1 35 59
M  V30 66 1 35 60
M  V30 END BOND
M  V30 END CTAB
M  END
>  <Dataset>  (966) 
ChEMBL_Kinases

>  <Ligand_Instance>  (966) 
nan

>  <PDB_ID>  (966) 
nan

>  <Standardized_SMILES>  (966) 
CN1CCN(c2ccc(-c3n[nH]c4cc([C@@H]5C[C@@]56C(=O)Nc5ccc(F)cc56)ccc34)cn2)CC1

>  <Name>  (966) 
nan

>  <Pocket>  (966) 
nan

>  <ATP_Site>  (966) 
nan

>  <Peripheral>  (966) 
nan

>  <Num_H_Atoms_ProtBoundConf>  (966) 
nan

>  <Num_Resolved_Atoms>  (966) 
nan

>  <Num_Not_Resolved_Atoms>  (966) 
nan

$$$$
CHEMBL4640847
     RDKit          3D

  0  0  0  0  0  0  0  0  0  0999 V3000
M  V30 BEGIN CTAB
M  V30 COUNTS 66 69 0 0 0
M  V30 BEGIN ATOM
M  V30 1 C 1.690702 -1.060454 5.998809 0
M  V30 2 N 1.397036 -0.978090 4.532792 0
M  V30 3 C 1.704420 -2.365624 4.120202 0
M  V30 4 C 2.360029 -0.092229 3.995012 0
M  V30 5 C 2.233805 0.395787 2.606830 0 CFG=1
M  V30 6 C 2.227211 -0.534336 1.478508 0
M  V30 7 C 0.966720 -0.946087 0.835269 0
M  V30 8 C -0.229577 -0.038935 0.997575 0 CFG=2
M  V30 9 N -0.349848 0.785120 -0.149799 0
M  V30 10 C -0.747546 0.501682 -1.456592 0
M  V30 11 C -0.696930 1.432365 -2.466382 0
M  V30 12 C -0.180992 2.749475 -2.191240 0
M  V30 13 O 0.289441 3.508096 -1.320177 0
M  V30 14 N 0.090038 3.982417 -2.812892 0
M  V30 15 C 0.656906 5.009768 -1.953818 0
M  V30 16 C -0.157553 4.265099 -4.217505 0
M  V30 17 C -1.091710 1.224852 -3.758940 0
M  V30 18 N -1.573206 0.036897 -4.121892 0
M  V30 19 C -1.663493 -0.943272 -3.203289 0
M  V30 20 C -2.180872 -2.181492 -3.575938 0
M  V30 21 C -2.285041 -3.170015 -2.631390 0
M  V30 22 C -1.878091 -2.932140 -1.320744 0
M  V30 23 C -2.055817 -4.034557 -0.408353 0
M  V30 24 C -2.556537 -5.264536 -0.756371 0
M  V30 25 C -2.738270 -6.309383 0.093499 0
M  V30 26 Cl -3.380919 -7.845181 -0.425963 0
M  V30 27 C -2.412695 -6.193535 1.435331 0
M  V30 28 O -2.587107 -7.237505 2.316759 0
M  V30 29 C -1.907382 -4.985813 1.843027 0
M  V30 30 Cl -1.489453 -4.823321 3.543816 0
M  V30 31 C -1.744618 -3.965173 0.944572 0
M  V30 32 N -1.382995 -1.726004 -0.997858 0
M  V30 33 C -1.260619 -0.733248 -1.879117 0
M  V30 34 C -0.204725 0.803006 2.245364 0
M  V30 35 C 1.146228 1.447589 2.449976 0
M  V30 36 H 2.776519 -0.973124 6.141664 0
M  V30 37 H 1.332550 -2.035930 6.382973 0
M  V30 38 H 1.092765 -0.282397 6.525501 0
M  V30 39 H 1.370517 -3.073099 4.916114 0
M  V30 40 H 1.195325 -2.636878 3.187437 0
M  V30 41 H 2.795201 -2.400128 3.967995 0
M  V30 42 H 2.452458 0.838915 4.644711 0
M  V30 43 H 3.402940 -0.530162 4.079908 0
M  V30 44 H 3.188855 1.035874 2.463185 0
M  V30 45 H 2.734686 -1.495818 1.806842 0
M  V30 46 H 2.945330 -0.183608 0.671922 0
M  V30 47 H 0.720526 -2.032528 0.993380 0
M  V30 48 H 1.178095 -0.950807 -0.290071 0
M  V30 49 H -1.088851 -0.738839 1.139392 0
M  V30 50 H -0.088193 1.776640 0.040764 0
M  V30 51 H 1.669510 4.701278 -1.648551 0
M  V30 52 H -0.000722 5.361005 -1.157162 0
M  V30 53 H 0.834175 5.925055 -2.598814 0
M  V30 54 H 0.472440 3.680854 -4.908432 0
M  V30 55 H 0.178378 5.332484 -4.383531 0
M  V30 56 H -1.232944 4.280872 -4.462866 0
M  V30 57 H -1.071709 1.917375 -4.580216 0
M  V30 58 H -2.473982 -2.271085 -4.632562 0
M  V30 59 H -2.700390 -4.058056 -3.078639 0
M  V30 60 H -2.843752 -5.477148 -1.756527 0
M  V30 61 H -2.928926 -7.036347 3.239893 0
M  V30 62 H -1.350481 -3.072333 1.377722 0
M  V30 63 H -0.542689 0.241777 3.124890 0
M  V30 64 H -0.934633 1.633023 2.092665 0
M  V30 65 H 1.390961 2.029078 1.538745 0
M  V30 66 H 1.076281 2.138535 3.289826 0
M  V30 END ATOM
M  V30 BEGIN BOND
M  V30 1 1 1 2
M  V30 2 1 2 3
M  V30 3 1 2 4
M  V30 4 1 4 5
M  V30 5 1 5 6
M  V30 6 1 6 7
M  V30 7 1 7 8
M  V30 8 1 8 9
M  V30 9 1 9 10
M  V30 10 2 10 11
M  V30 11 1 11 12
M  V30 12 2 12 13
M  V30 13 1 12 14
M  V30 14 1 14 15
M  V30 15 1 14 16
M  V30 16 1 11 17
M  V30 17 2 17 18
M  V30 18 1 18 19
M  V30 19 2 19 20
M  V30 20 1 20 21
M  V30 21 2 21 22
M  V30 22 1 22 23
M  V30 23 2 23 24
M  V30 24 1 24 25
M  V30 25 1 25 26
M  V30 26 2 25 27
M  V30 27 1 27 28
M  V30 28 1 27 29
M  V30 29 1 29 30
M  V30 30 2 29 31
M  V30 31 1 22 32
M  V30 32 2 32 33
M  V30 33 1 8 34
M  V30 34 1 34 35
M  V30 35 1 35 5
M  V30 36 1 33 10
M  V30 37 1 33 19
M  V30 38 1 31 23
M  V30 39 1 1 36
M  V30 40 1 1 37
M  V30 41 1 1 38
M  V30 42 1 3 39
M  V30 43 1 3 40
M  V30 44 1 3 41
M  V30 45 1 4 42
M  V30 46 1 4 43
M  V30 47 1 5 44 CFG=3
M  V30 48 1 6 45
M  V30 49 1 6 46
M  V30 50 1 7 47
M  V30 51 1 7 48
M  V30 52 1 8 49 CFG=1
M  V30 53 1 9 50
M  V30 54 1 15 51
M  V30 55 1 15 52
M  V30 56 1 15 53
M  V30 57 1 16 54
M  V30 58 1 16 55
M  V30 59 1 16 56
M  V30 60 1 17 57
M  V30 61 1 20 58
M  V30 62 1 21 59
M  V30 63 1 24 60
M  V30 64 1 28 61
M  V30 65 1 31 62
M  V30 66 1 34 63
M  V30 67 1 34 64
M  V30 68 1 35 65
M  V30 69 1 35 66
M  V30 END BOND
M  V30 END CTAB
M  END
>  <Dataset>  (967) 
ChEMBL_Kinases

>  <Ligand_Instance>  (967) 
nan

>  <PDB_ID>  (967) 
nan

>  <Standardized_SMILES>  (967) 
CN(C)C[C@H]1CC[C@H](Nc2c(C(=O)N(C)C)cnc3ccc(-c4cc(Cl)c(O)c(Cl)c4)nc23)CC1

>  <Name>  (967) 
nan

>  <Pocket>  (967) 
nan

>  <ATP_Site>  (967) 
nan

>  <Peripheral>  (967) 
nan

>  <Num_H_Atoms_ProtBoundConf>  (967) 
nan

>  <Num_Resolved_Atoms>  (967) 
nan

>  <Num_Not_Resolved_Atoms>  (967) 
nan

$$$$
CHEMBL4475271
     RDKit          3D

  0  0  0  0  0  0  0  0  0  0999 V3000
M  V30 BEGIN CTAB
M  V30 COUNTS 130 135 0 0 0
M  V30 BEGIN ATOM
M  V30 1 C -2.742163 -7.218093 -0.542502 0
M  V30 2 O -3.066622 -6.342484 0.456805 0
M  V30 3 C -4.393889 -5.990439 0.544097 0 CFG=1
M  V30 4 C -5.111448 -6.421510 1.692523 0
M  V30 5 C -5.582463 -6.306046 2.898513 0
M  V30 6 C -5.102591 -5.003201 3.294623 0
M  V30 7 C -5.299448 -4.379852 4.432418 0
M  V30 8 C -6.068267 -4.833432 5.613599 0
M  V30 9 C -4.759050 -3.120579 4.907144 0
M  V30 10 O -4.704553 -2.285094 5.784540 0
M  V30 11 N -3.862121 -2.223055 4.328902 0
M  V30 12 C -2.950562 -1.274396 3.785379 0
M  V30 13 C -3.298618 -0.161901 3.171201 0
M  V30 14 C -2.181387 0.646952 2.617402 0
M  V30 15 O -2.665888 1.661868 2.077548 0
M  V30 16 C -0.801173 0.197354 2.761663 0
M  V30 17 N -0.027493 1.215738 2.157678 0
M  V30 18 C 0.709256 2.252028 2.888779 0
M  V30 19 C 1.369725 3.211647 1.989255 0
M  V30 20 C 2.659404 3.492803 1.888865 0
M  V30 21 C 3.664038 4.286073 1.212196 0
M  V30 22 C 3.258241 5.225262 0.138660 0 CFG=2
M  V30 23 C 2.594210 4.562714 -1.074234 0
M  V30 24 C 3.788206 4.102065 -1.794573 0 CFG=1
M  V30 25 C 3.676366 3.665441 -3.218588 0 CFG=2
M  V30 26 C 2.468841 2.855979 -3.496160 0
M  V30 27 C 2.482996 2.068225 -4.770784 0
M  V30 28 C 3.839906 1.689403 -5.193288 0
M  V30 29 C 3.838533 0.840254 -6.310800 0
M  V30 30 C 5.056080 0.414236 -6.801036 0
M  V30 31 O 5.119956 -0.427187 -7.904561 0
M  V30 32 C 6.273004 0.800372 -6.224489 0
M  V30 33 C 6.207238 1.639508 -5.124685 0
M  V30 34 C 5.027126 2.078518 -4.614406 0
M  V30 35 C 5.004057 2.957297 -3.457036 0 CFG=1
M  V30 36 C 6.067767 4.019122 -3.410326 0
M  V30 37 C 6.074298 4.746746 -2.107688 0
M  V30 38 C 4.708745 5.315771 -1.795291 0 CFG=1
M  V30 39 C 4.256370 6.362409 -2.783620 0
M  V30 40 C 4.528889 5.857601 -0.434642 0 CFG=1
M  V30 41 O 4.390873 7.264505 -0.430555 0
M  V30 42 C -0.384288 -0.899448 3.352300 0
M  V30 43 C 0.984168 -1.388935 3.460067 0
M  V30 44 C 1.435434 -2.573963 2.744762 0 CFG=1
M  V30 45 C 0.634877 -3.826378 3.085383 0
M  V30 46 C 1.939419 -2.667407 1.392414 0
M  V30 47 C 1.230160 -2.226546 0.180518 0 CFG=2
M  V30 48 O 1.110536 -0.859545 0.098774 0
M  V30 49 C 2.091784 -0.326247 -0.787485 0
M  V30 50 C 0.120970 -3.052997 -0.383611 0 CFG=2
M  V30 51 O 0.102126 -2.882617 -1.823023 0
M  V30 52 C -1.252616 -2.479477 -0.012072 0 CFG=1
M  V30 53 C -1.552452 -1.177670 -0.675716 0
M  V30 54 C -2.342556 -3.453764 0.094071 0
M  V30 55 C -3.613308 -3.624055 -0.134925 0
M  V30 56 C -4.270436 -2.387945 -0.727833 0
M  V30 57 C -4.612190 -4.647652 -0.025780 0 CFG=2
M  V30 58 O -5.921115 -4.149623 0.288943 0
M  V30 59 C -7.017697 -4.049110 -0.467833 0
M  V30 60 N -7.998245 -3.472115 0.416666 0
M  V30 61 O -7.289760 -4.328612 -1.635441 0
M  V30 62 C -1.508222 -1.652428 3.885982 0
M  V30 63 O -1.434897 -2.750332 4.534636 0
M  V30 64 H -2.955929 -6.862761 -1.562788 0
M  V30 65 H -3.219824 -8.220466 -0.438848 0
M  V30 66 H -1.647611 -7.393068 -0.520081 0
M  V30 67 H -4.799149 -6.675121 -0.367757 0
M  V30 68 H -5.588161 -7.419907 1.655261 0
M  V30 69 H -6.109294 -6.650400 3.701050 0
M  V30 70 H -4.511469 -4.355891 2.700520 0
M  V30 71 H -6.874056 -4.120165 5.911357 0
M  V30 72 H -6.587666 -5.794555 5.438962 0
M  V30 73 H -5.426262 -5.019191 6.506811 0
M  V30 74 H -3.765755 -2.681207 3.399377 0
M  V30 75 H -4.371539 -0.130695 3.223099 0
M  V30 76 H 0.065248 1.324202 1.125189 0
M  V30 77 H 1.349410 1.861965 3.677046 0
M  V30 78 H -0.106850 2.825887 3.418596 0
M  V30 79 H 0.865901 3.848155 1.268596 0
M  V30 80 H 3.195339 2.861501 2.643422 0
M  V30 81 H 4.448819 3.565932 0.797580 0
M  V30 82 H 4.294336 4.898946 1.930395 0
M  V30 83 H 2.605243 6.039845 0.493713 0
M  V30 84 H 2.028916 3.671720 -0.737452 0
M  V30 85 H 1.984626 5.278057 -1.634291 0
M  V30 86 H 4.336568 3.328435 -1.207228 0
M  V30 87 H 3.684352 4.520670 -3.935464 0
M  V30 88 H 2.201208 2.264500 -2.605359 0
M  V30 89 H 1.616268 3.599192 -3.604437 0
M  V30 90 H 1.898405 1.123843 -4.592442 0
M  V30 91 H 1.946755 2.622237 -5.578394 0
M  V30 92 H 2.949950 0.483753 -6.833103 0
M  V30 93 H 4.799592 -1.379510 -7.805396 0
M  V30 94 H 7.203913 0.446469 -6.636822 0
M  V30 95 H 7.145734 1.911330 -4.712145 0
M  V30 96 H 5.172849 2.312601 -2.554564 0
M  V30 97 H 5.970483 4.750144 -4.228410 0
M  V30 98 H 7.088580 3.581241 -3.538484 0
M  V30 99 H 6.790917 5.583752 -2.130381 0
M  V30 100 H 6.310600 4.071353 -1.245241 0
M  V30 101 H 3.188354 6.303781 -3.014047 0
M  V30 102 H 4.815015 6.327824 -3.740186 0
M  V30 103 H 4.423043 7.380834 -2.374839 0
M  V30 104 H 5.423344 5.581555 0.171353 0
M  V30 105 H 5.235022 7.650885 -0.148007 0
M  V30 106 H 1.084030 -1.576526 4.613899 0
M  V30 107 H 1.658081 -0.498195 3.363720 0
M  V30 108 H 2.452205 -2.822499 3.381044 0
M  V30 109 H -0.284502 -3.816238 2.543310 0
M  V30 110 H 0.720483 -4.046826 4.131192 0
M  V30 111 H 1.206604 -4.695994 2.592333 0
M  V30 112 H 2.207261 -3.770069 1.214065 0
M  V30 113 H 3.008945 -2.219563 1.401029 0
M  V30 114 H 2.084243 -2.401191 -0.634676 0
M  V30 115 H 1.997899 0.757677 -0.843764 0
M  V30 116 H 2.023671 -0.877283 -1.729684 0
M  V30 117 H 3.077004 -0.613875 -0.313513 0
M  V30 118 H 0.198202 -4.132226 -0.248868 0
M  V30 119 H 1.028494 -3.147901 -2.103351 0
M  V30 120 H -1.062146 -2.138429 1.093967 0
M  V30 121 H -2.202445 -1.298857 -1.606620 0
M  V30 122 H -0.645026 -0.699473 -1.170540 0
M  V30 123 H -1.911476 -0.372760 -0.012843 0
M  V30 124 H -1.870908 -4.358216 0.537588 0
M  V30 125 H -3.923763 -1.519241 -0.167288 0
M  V30 126 H -4.200526 -2.358676 -1.823490 0
M  V30 127 H -5.383755 -2.378667 -0.546853 0
M  V30 128 H -4.824698 -4.882570 -1.171737 0
M  V30 129 H -8.759252 -3.173854 1.040084 0
M  V30 130 H -8.798177 -3.194377 1.056935 0
M  V30 END ATOM
M  V30 BEGIN BOND
M  V30 1 1 1 2
M  V30 2 1 2 3
M  V30 3 1 3 4
M  V30 4 2 4 5
M  V30 5 1 5 6
M  V30 6 2 6 7
M  V30 7 1 7 8
M  V30 8 1 7 9
M  V30 9 2 9 10
M  V30 10 1 9 11
M  V30 11 1 11 12
M  V30 12 2 12 13
M  V30 13 1 13 14
M  V30 14 2 14 15
M  V30 15 1 14 16
M  V30 16 1 16 17
M  V30 17 1 17 18
M  V30 18 1 18 19
M  V30 19 2 19 20
M  V30 20 1 20 21
M  V30 21 1 21 22
M  V30 22 1 22 23
M  V30 23 1 23 24
M  V30 24 1 24 25
M  V30 25 1 25 26
M  V30 26 1 26 27
M  V30 27 1 27 28
M  V30 28 2 28 29
M  V30 29 1 29 30
M  V30 30 1 30 31
M  V30 31 2 30 32
M  V30 32 1 32 33
M  V30 33 2 33 34
M  V30 34 1 34 35
M  V30 35 1 35 36
M  V30 36 1 36 37
M  V30 37 1 37 38
M  V30 38 1 38 39 CFG=3
M  V30 39 1 38 40
M  V30 40 1 40 41
M  V30 41 2 16 42
M  V30 42 1 42 43
M  V30 43 1 43 44
M  V30 44 1 44 45
M  V30 45 1 44 46
M  V30 46 1 46 47
M  V30 47 1 47 48
M  V30 48 1 48 49
M  V30 49 1 47 50
M  V30 50 1 50 51
M  V30 51 1 50 52
M  V30 52 1 52 53
M  V30 53 1 52 54
M  V30 54 2 54 55
M  V30 55 1 55 56
M  V30 56 1 55 57
M  V30 57 1 57 58
M  V30 58 1 58 59
M  V30 59 1 59 60
M  V30 60 2 59 61
M  V30 61 1 42 62
M  V30 62 2 62 63
M  V30 63 1 57 3
M  V30 64 1 62 12
M  V30 65 1 40 22
M  V30 66 1 38 24
M  V30 67 1 35 25
M  V30 68 1 34 28
M  V30 69 1 1 64
M  V30 70 1 1 65
M  V30 71 1 1 66
M  V30 72 1 3 67 CFG=3
M  V30 73 1 4 68
M  V30 74 1 5 69
M  V30 75 1 6 70
M  V30 76 1 8 71
M  V30 77 1 8 72
M  V30 78 1 8 73
M  V30 79 1 11 74
M  V30 80 1 13 75
M  V30 81 1 17 76
M  V30 82 1 18 77
M  V30 83 1 18 78
M  V30 84 1 19 79
M  V30 85 1 20 80
M  V30 86 1 21 81
M  V30 87 1 21 82
M  V30 88 1 22 83 CFG=1
M  V30 89 1 23 84
M  V30 90 1 23 85
M  V30 91 1 24 86 CFG=1
M  V30 92 1 25 87 CFG=3
M  V30 93 1 26 88
M  V30 94 1 26 89
M  V30 95 1 27 90
M  V30 96 1 27 91
M  V30 97 1 29 92
M  V30 98 1 31 93
M  V30 99 1 32 94
M  V30 100 1 33 95
M  V30 101 1 35 96 CFG=1
M  V30 102 1 36 97
M  V30 103 1 36 98
M  V30 104 1 37 99
M  V30 105 1 37 100
M  V30 106 1 39 101
M  V30 107 1 39 102
M  V30 108 1 39 103
M  V30 109 1 40 104 CFG=1
M  V30 110 1 41 105
M  V30 111 1 43 106
M  V30 112 1 43 107
M  V30 113 1 44 108 CFG=1
M  V30 114 1 45 109
M  V30 115 1 45 110
M  V30 116 1 45 111
M  V30 117 1 46 112
M  V30 118 1 46 113
M  V30 119 1 47 114 CFG=3
M  V30 120 1 49 115
M  V30 121 1 49 116
M  V30 122 1 49 117
M  V30 123 1 50 118 CFG=3
M  V30 124 1 51 119
M  V30 125 1 52 120 CFG=1
M  V30 126 1 53 121
M  V30 127 1 53 122
M  V30 128 1 53 123
M  V30 129 1 54 124
M  V30 130 1 56 125
M  V30 131 1 56 126
M  V30 132 1 56 127
M  V30 133 1 57 128 CFG=3
M  V30 134 1 60 129
M  V30 135 1 60 130
M  V30 END BOND
M  V30 END CTAB
M  END
>  <Dataset>  (968) 
ChEMBL_Kinases

>  <Ligand_Instance>  (968) 
nan

>  <PDB_ID>  (968) 
nan

>  <Standardized_SMILES>  (968) 
CO[C@H]1/C=C\C=C(/C)C(=O)NC2=CC(=O)C(NC/C=C/C[C@@H]3C[C@H]4[C@@H]5CCc6cc(O)ccc6[C@H]5CC[C@]4(C)[C@H]3O)=C(C[C@@H](C)C[C@H](OC)[C@H](O)[C@@H](C)/C=C(\C)[C@@H]1OC(N)=O)C2=O

>  <Name>  (968) 
nan

>  <Pocket>  (968) 
nan

>  <ATP_Site>  (968) 
nan

>  <Peripheral>  (968) 
nan

>  <Num_H_Atoms_ProtBoundConf>  (968) 
nan

>  <Num_Resolved_Atoms>  (968) 
nan

>  <Num_Not_Resolved_Atoms>  (968) 
nan

$$$$
CHEMBL4475201
     RDKit          3D

  0  0  0  0  0  0  0  0  0  0999 V3000
M  V30 BEGIN CTAB
M  V30 COUNTS 49 51 0 0 0
M  V30 BEGIN ATOM
M  V30 1 C 0.585074 -4.097640 4.745404 0
M  V30 2 C 1.238560 -2.877385 4.075412 0
M  V30 3 C 1.875338 -2.035535 5.168058 0
M  V30 4 O 0.282104 -2.209637 3.379066 0
M  V30 5 C 0.370295 -2.044798 2.054825 0
M  V30 6 C 1.464803 -1.242820 1.463541 0
M  V30 7 C 2.868933 -1.670993 1.737359 0
M  V30 8 C 1.311896 0.177949 2.026621 0
M  V30 9 N 1.282317 -1.193469 -0.007413 0
M  V30 10 C 0.349341 -0.555767 -0.839078 0
M  V30 11 C -0.669440 0.257496 -0.409200 0
M  V30 12 C -1.600527 0.917928 -1.179379 0
M  V30 13 C -2.664138 1.770492 -0.668871 0
M  V30 14 C -2.921737 2.060942 0.653468 0
M  V30 15 C -3.954677 2.882557 1.054681 0
M  V30 16 N -4.780638 3.452312 0.129026 0
M  V30 17 C -4.558113 3.189970 -1.177133 0
M  V30 18 C -3.523209 2.367440 -1.569328 0
M  V30 19 N -1.473982 0.725203 -2.528908 0
M  V30 20 C -0.496064 -0.060139 -3.013593 0
M  V30 21 C -0.421443 -0.214700 -4.377037 0
M  V30 22 N 0.520849 -0.982470 -4.988037 0
M  V30 23 C 1.440143 -1.634192 -4.217663 0
M  V30 24 C 1.348688 -1.466677 -2.852706 0
M  V30 25 C 0.409623 -0.698761 -2.206664 0
M  V30 26 H -0.507709 -3.924513 4.803965 0
M  V30 27 H 0.761183 -5.020297 4.164418 0
M  V30 28 H 1.024985 -4.258977 5.751701 0
M  V30 29 H 2.049147 -3.255093 3.438193 0
M  V30 30 H 1.528301 -2.414668 6.145432 0
M  V30 31 H 1.530862 -0.977266 5.102457 0
M  V30 32 H 2.969651 -2.107167 5.142876 0
M  V30 33 H -0.604671 -1.568273 1.716318 0
M  V30 34 H 0.307414 -3.078355 1.590420 0
M  V30 35 H 3.533760 -1.041163 1.040718 0
M  V30 36 H 3.197151 -1.335800 2.736662 0
M  V30 37 H 3.116507 -2.709062 1.470926 0
M  V30 38 H 0.400822 0.280354 2.654524 0
M  V30 39 H 2.154089 0.321665 2.733622 0
M  V30 40 H 1.433413 0.952367 1.257073 0
M  V30 41 H 2.018572 -1.769668 -0.460593 0
M  V30 42 H -0.819157 0.459706 0.627946 0
M  V30 43 H -2.275929 1.616228 1.390632 0
M  V30 44 H -4.100808 3.069240 2.116827 0
M  V30 45 H -5.183665 3.616622 -1.952267 0
M  V30 46 H -3.372296 2.178385 -2.629145 0
M  V30 47 H -1.132256 0.286436 -5.006537 0
M  V30 48 H 2.181196 -2.239141 -4.713608 0
M  V30 49 H 2.098346 -2.006321 -2.329411 0
M  V30 END ATOM
M  V30 BEGIN BOND
M  V30 1 1 1 2
M  V30 2 1 2 3
M  V30 3 1 2 4
M  V30 4 1 4 5
M  V30 5 1 5 6
M  V30 6 1 6 7
M  V30 7 1 6 8
M  V30 8 1 6 9
M  V30 9 1 9 10
M  V30 10 2 10 11
M  V30 11 1 11 12
M  V30 12 1 12 13
M  V30 13 2 13 14
M  V30 14 1 14 15
M  V30 15 2 15 16
M  V30 16 1 16 17
M  V30 17 2 17 18
M  V30 18 2 12 19
M  V30 19 1 19 20
M  V30 20 2 20 21
M  V30 21 1 21 22
M  V30 22 2 22 23
M  V30 23 1 23 24
M  V30 24 2 24 25
M  V30 25 1 25 10
M  V30 26 1 18 13
M  V30 27 1 25 20
M  V30 28 1 1 26
M  V30 29 1 1 27
M  V30 30 1 1 28
M  V30 31 1 2 29
M  V30 32 1 3 30
M  V30 33 1 3 31
M  V30 34 1 3 32
M  V30 35 1 5 33
M  V30 36 1 5 34
M  V30 37 1 7 35
M  V30 38 1 7 36
M  V30 39 1 7 37
M  V30 40 1 8 38
M  V30 41 1 8 39
M  V30 42 1 8 40
M  V30 43 1 9 41
M  V30 44 1 11 42
M  V30 45 1 14 43
M  V30 46 1 15 44
M  V30 47 1 17 45
M  V30 48 1 18 46
M  V30 49 1 21 47
M  V30 50 1 23 48
M  V30 51 1 24 49
M  V30 END BOND
M  V30 END CTAB
M  END
>  <Dataset>  (969) 
ChEMBL_Kinases

>  <Ligand_Instance>  (969) 
nan

>  <PDB_ID>  (969) 
nan

>  <Standardized_SMILES>  (969) 
CC(C)OCC(C)(C)Nc1cc(-c2ccncc2)nc2cnccc12

>  <Name>  (969) 
nan

>  <Pocket>  (969) 
nan

>  <ATP_Site>  (969) 
nan

>  <Peripheral>  (969) 
nan

>  <Num_H_Atoms_ProtBoundConf>  (969) 
nan

>  <Num_Resolved_Atoms>  (969) 
nan

>  <Num_Not_Resolved_Atoms>  (969) 
nan

$$$$
CHEMBL467078
     RDKit          3D

  0  0  0  0  0  0  0  0  0  0999 V3000
M  V30 BEGIN CTAB
M  V30 COUNTS 37 39 0 0 0
M  V30 BEGIN ATOM
M  V30 1 C -0.204390 -3.375071 2.989490 0
M  V30 2 C 0.564425 -2.623020 1.894200 0
M  V30 3 N 1.418689 -1.632160 2.462277 0
M  V30 4 C 2.282705 -0.740886 1.767201 0
M  V30 5 C 2.608450 0.433379 1.123097 0
M  V30 6 N 1.656361 1.469601 0.969047 0
M  V30 7 C 0.845732 1.453606 -0.199748 0
M  V30 8 C 0.992228 0.457159 -1.143551 0
M  V30 9 C 0.251220 0.351255 -2.317468 0
M  V30 10 N -0.672016 1.307743 -2.522064 0
M  V30 11 C -0.860237 2.303192 -1.638616 0
M  V30 12 C -0.118566 2.402427 -0.471466 0
M  V30 13 C 3.900605 0.006187 0.885878 0
M  V30 14 O 4.787672 0.692924 0.276355 0
M  V30 15 C 3.588233 -1.189371 1.535214 0
M  V30 16 O 4.496428 -2.081609 1.638304 0
M  V30 17 C -0.526588 -2.015191 1.054358 0
M  V30 18 C -1.128107 -0.932864 1.665912 0
M  V30 19 C -2.159432 -0.243059 1.037846 0
M  V30 20 C -2.571922 -0.668049 -0.221260 0
M  V30 21 F -3.574061 -0.020950 -0.864895 0
M  V30 22 C -1.958166 -1.755312 -0.820688 0
M  V30 23 C -0.934894 -2.437823 -0.194790 0
M  V30 24 H -1.079503 -2.757452 3.325608 0
M  V30 25 H 0.459067 -3.510625 3.871269 0
M  V30 26 H -0.582546 -4.344941 2.651351 0
M  V30 27 H 1.057194 -3.406810 1.302567 0
M  V30 28 H 1.435733 -1.520951 3.520470 0
M  V30 29 H 1.499608 2.255280 1.654186 0
M  V30 30 H 1.734377 -0.299324 -0.964755 0
M  V30 31 H 0.452117 -0.482937 -2.996547 0
M  V30 32 H -1.613564 3.053913 -1.839934 0
M  V30 33 H -0.276915 3.219307 0.247979 0
M  V30 34 H -0.878136 -0.524974 2.645138 0
M  V30 35 H -2.666839 0.622437 1.485412 0
M  V30 36 H -2.232641 -2.127995 -1.787766 0
M  V30 37 H -0.394670 -3.293459 -0.576641 0
M  V30 END ATOM
M  V30 BEGIN BOND
M  V30 1 1 1 2
M  V30 2 1 2 3
M  V30 3 1 3 4
M  V30 4 2 4 5
M  V30 5 1 5 6
M  V30 6 1 6 7
M  V30 7 2 7 8
M  V30 8 1 8 9
M  V30 9 2 9 10
M  V30 10 1 10 11
M  V30 11 2 11 12
M  V30 12 1 5 13
M  V30 13 2 13 14
M  V30 14 1 13 15
M  V30 15 2 15 16
M  V30 16 1 2 17
M  V30 17 2 17 18
M  V30 18 1 18 19
M  V30 19 2 19 20
M  V30 20 1 20 21
M  V30 21 1 20 22
M  V30 22 2 22 23
M  V30 23 1 15 4
M  V30 24 1 23 17
M  V30 25 1 12 7
M  V30 26 1 1 24
M  V30 27 1 1 25
M  V30 28 1 1 26
M  V30 29 1 2 27
M  V30 30 1 3 28
M  V30 31 1 6 29
M  V30 32 1 8 30
M  V30 33 1 9 31
M  V30 34 1 11 32
M  V30 35 1 12 33
M  V30 36 1 18 34
M  V30 37 1 19 35
M  V30 38 1 22 36
M  V30 39 1 23 37
M  V30 END BOND
M  V30 END CTAB
M  END
>  <Dataset>  (970) 
ChEMBL_Kinases

>  <Ligand_Instance>  (970) 
nan

>  <PDB_ID>  (970) 
nan

>  <Standardized_SMILES>  (970) 
CC(Nc1c(Nc2ccncc2)c(=O)c1=O)c1ccc(F)cc1

>  <Name>  (970) 
nan

>  <Pocket>  (970) 
nan

>  <ATP_Site>  (970) 
nan

>  <Peripheral>  (970) 
nan

>  <Num_H_Atoms_ProtBoundConf>  (970) 
nan

>  <Num_Resolved_Atoms>  (970) 
nan

>  <Num_Not_Resolved_Atoms>  (970) 
nan

$$$$
CHEMBL467079
     RDKit          3D

  0  0  0  0  0  0  0  0  0  0999 V3000
M  V30 BEGIN CTAB
M  V30 COUNTS 38 40 0 0 0
M  V30 BEGIN ATOM
M  V30 1 N -1.944922 -3.194850 2.969873 0
M  V30 2 C -0.531737 -3.076540 3.037044 0
M  V30 3 O 0.149255 -4.047683 3.456950 0
M  V30 4 C -0.044117 -1.727669 2.567187 0
M  V30 5 N 1.374946 -1.614610 2.636810 0
M  V30 6 C 2.182469 -0.503370 2.316260 0
M  V30 7 C 1.901131 0.757670 1.862858 0
M  V30 8 N 0.854821 1.636268 1.477296 0
M  V30 9 C 0.417215 1.767279 0.147199 0
M  V30 10 C 1.023290 1.015339 -0.835681 0
M  V30 11 C 0.507447 1.228338 -2.113325 0
M  V30 12 N -0.504851 2.093643 -2.405762 0
M  V30 13 C -1.080309 2.814913 -1.436301 0
M  V30 14 C -0.606093 2.641672 -0.150022 0
M  V30 15 C 3.236398 1.079929 1.856324 0
M  V30 16 O 4.046160 2.012790 1.600085 0
M  V30 17 C 3.518883 -0.177359 2.308393 0
M  V30 18 O 4.548108 -0.867228 2.624257 0
M  V30 19 C -0.472150 -1.663148 1.133092 0
M  V30 20 C -1.521047 -0.969364 0.575396 0
M  V30 21 C -1.729137 -1.058295 -0.785221 0
M  V30 22 C -0.912812 -1.823245 -1.592449 0
M  V30 23 C 0.149925 -2.530251 -1.049821 0
M  V30 24 C 0.340315 -2.426462 0.318727 0
M  V30 25 H -2.944450 -3.086871 3.243541 0
M  V30 26 H -2.185775 -3.725107 2.103567 0
M  V30 27 H -0.583379 -0.945468 3.174093 0
M  V30 28 H 1.887222 -2.473100 2.971241 0
M  V30 29 H 0.408852 2.201359 2.255424 0
M  V30 30 H 1.820375 0.319448 -0.677553 0
M  V30 31 H 0.881397 0.711148 -2.983389 0
M  V30 32 H -1.883111 3.514867 -1.600217 0
M  V30 33 H -1.057598 3.218104 0.662671 0
M  V30 34 H -2.090860 -0.406201 1.300006 0
M  V30 35 H -2.567332 -0.493311 -1.172663 0
M  V30 36 H -1.090625 -1.881480 -2.657081 0
M  V30 37 H 0.773212 -3.121997 -1.708553 0
M  V30 38 H 1.203605 -3.020294 0.651924 0
M  V30 END ATOM
M  V30 BEGIN BOND
M  V30 1 1 1 2
M  V30 2 2 2 3
M  V30 3 1 2 4
M  V30 4 1 4 5
M  V30 5 1 5 6
M  V30 6 2 6 7
M  V30 7 1 7 8
M  V30 8 1 8 9
M  V30 9 2 9 10
M  V30 10 1 10 11
M  V30 11 2 11 12
M  V30 12 1 12 13
M  V30 13 2 13 14
M  V30 14 1 7 15
M  V30 15 2 15 16
M  V30 16 1 15 17
M  V30 17 2 17 18
M  V30 18 1 4 19
M  V30 19 2 19 20
M  V30 20 1 20 21
M  V30 21 2 21 22
M  V30 22 1 22 23
M  V30 23 2 23 24
M  V30 24 1 17 6
M  V30 25 1 24 19
M  V30 26 1 14 9
M  V30 27 1 1 25
M  V30 28 1 1 26
M  V30 29 1 4 27
M  V30 30 1 5 28
M  V30 31 1 8 29
M  V30 32 1 10 30
M  V30 33 1 11 31
M  V30 34 1 13 32
M  V30 35 1 14 33
M  V30 36 1 20 34
M  V30 37 1 21 35
M  V30 38 1 22 36
M  V30 39 1 23 37
M  V30 40 1 24 38
M  V30 END BOND
M  V30 END CTAB
M  END
>  <Dataset>  (971) 
ChEMBL_Kinases

>  <Ligand_Instance>  (971) 
nan

>  <PDB_ID>  (971) 
nan

>  <Standardized_SMILES>  (971) 
NC(=O)C(Nc1c(Nc2ccncc2)c(=O)c1=O)c1ccccc1

>  <Name>  (971) 
nan

>  <Pocket>  (971) 
nan

>  <ATP_Site>  (971) 
nan

>  <Peripheral>  (971) 
nan

>  <Num_H_Atoms_ProtBoundConf>  (971) 
nan

>  <Num_Resolved_Atoms>  (971) 
nan

>  <Num_Not_Resolved_Atoms>  (971) 
nan

$$$$
CHEMBL467532
     RDKit          3D

  0  0  0  0  0  0  0  0  0  0999 V3000
M  V30 BEGIN CTAB
M  V30 COUNTS 38 40 0 0 0
M  V30 BEGIN ATOM
M  V30 1 C 0.123363 -3.279294 3.165566 0
M  V30 2 C 0.833896 -2.435455 2.132235 0
M  V30 3 N 1.442505 -1.267291 2.687089 0
M  V30 4 C 2.186672 -0.260825 2.012164 0
M  V30 5 C 2.343222 0.921293 1.328348 0
M  V30 6 N 1.232613 1.756252 1.031035 0
M  V30 7 C 0.512262 1.605788 -0.185443 0
M  V30 8 C 0.876775 0.653785 -1.109465 0
M  V30 9 C 0.172179 0.521389 -2.278581 0
M  V30 10 N -0.885594 1.300811 -2.568220 0
M  V30 11 C -1.261666 2.249589 -1.664918 0
M  V30 12 C -0.562256 2.407074 -0.465300 0
M  V30 13 C 3.723792 0.714227 1.233904 0
M  V30 14 O 4.449689 1.580466 0.639795 0
M  V30 15 C 3.541404 -0.482966 1.930085 0
M  V30 16 O 4.620074 -1.132927 2.128834 0
M  V30 17 C -0.232730 -2.016646 1.158043 0
M  V30 18 C -0.322464 -2.641403 -0.071136 0
M  V30 19 C -1.319044 -2.192331 -0.878940 0
M  V30 20 C -2.192443 -1.169901 -0.493668 0
M  V30 21 C -2.061957 -0.569261 0.758510 0
M  V30 22 O -2.888416 0.448536 1.210652 0
M  V30 23 C -1.068429 -1.001782 1.590189 0
M  V30 24 H 0.652619 -3.374360 4.112226 0
M  V30 25 H -0.910551 -2.926826 3.359686 0
M  V30 26 H 0.009709 -4.297835 2.702380 0
M  V30 27 H 1.611678 -3.022715 1.607060 0
M  V30 28 H 1.329967 -1.127104 3.726623 0
M  V30 29 H 0.941726 2.489251 1.714077 0
M  V30 30 H 1.724972 0.011463 -0.903181 0
M  V30 31 H 0.507522 -0.249849 -2.972234 0
M  V30 32 H -2.123995 2.851549 -1.950885 0
M  V30 33 H -0.898584 3.173700 0.219971 0
M  V30 34 H 0.345126 -3.427666 -0.374072 0
M  V30 35 H -1.496689 -2.598595 -1.868360 0
M  V30 36 H -2.992855 -0.796525 -1.120392 0
M  V30 37 H -3.543217 0.316596 1.970088 0
M  V30 38 H -0.946155 -0.551345 2.568413 0
M  V30 END ATOM
M  V30 BEGIN BOND
M  V30 1 1 1 2
M  V30 2 1 2 3
M  V30 3 1 3 4
M  V30 4 2 4 5
M  V30 5 1 5 6
M  V30 6 1 6 7
M  V30 7 2 7 8
M  V30 8 1 8 9
M  V30 9 2 9 10
M  V30 10 1 10 11
M  V30 11 2 11 12
M  V30 12 1 5 13
M  V30 13 2 13 14
M  V30 14 1 13 15
M  V30 15 2 15 16
M  V30 16 1 2 17
M  V30 17 2 17 18
M  V30 18 1 18 19
M  V30 19 2 19 20
M  V30 20 1 20 21
M  V30 21 1 21 22
M  V30 22 2 21 23
M  V30 23 1 15 4
M  V30 24 1 23 17
M  V30 25 1 12 7
M  V30 26 1 1 24
M  V30 27 1 1 25
M  V30 28 1 1 26
M  V30 29 1 2 27
M  V30 30 1 3 28
M  V30 31 1 6 29
M  V30 32 1 8 30
M  V30 33 1 9 31
M  V30 34 1 11 32
M  V30 35 1 12 33
M  V30 36 1 18 34
M  V30 37 1 19 35
M  V30 38 1 20 36
M  V30 39 1 22 37
M  V30 40 1 23 38
M  V30 END BOND
M  V30 END CTAB
M  END
>  <Dataset>  (972) 
ChEMBL_Kinases

>  <Ligand_Instance>  (972) 
nan

>  <PDB_ID>  (972) 
nan

>  <Standardized_SMILES>  (972) 
CC(Nc1c(Nc2ccncc2)c(=O)c1=O)c1cccc(O)c1

>  <Name>  (972) 
nan

>  <Pocket>  (972) 
nan

>  <ATP_Site>  (972) 
nan

>  <Peripheral>  (972) 
nan

>  <Num_H_Atoms_ProtBoundConf>  (972) 
nan

>  <Num_Resolved_Atoms>  (972) 
nan

>  <Num_Not_Resolved_Atoms>  (972) 
nan

$$$$
CHEMBL4475135
     RDKit          3D

  0  0  0  0  0  0  0  0  0  0999 V3000
M  V30 BEGIN CTAB
M  V30 COUNTS 59 63 0 0 0
M  V30 BEGIN ATOM
M  V30 1 C 6.335964 -1.199396 3.666557 0
M  V30 2 C 5.020607 -0.533804 3.400864 0
M  V30 3 C 4.344824 0.178354 4.373147 0
M  V30 4 C 3.124596 0.783895 4.090053 0
M  V30 5 C 2.512467 1.516147 5.233432 0
M  V30 6 C 2.547876 0.697724 2.840309 0
M  V30 7 C 3.268580 -0.023100 1.919287 0
M  V30 8 N 2.753634 -0.167288 0.602167 0
M  V30 9 C 1.580090 0.288471 -0.053748 0
M  V30 10 N 1.526969 1.473791 -0.709990 0
M  V30 11 C 0.402474 1.897355 -1.333780 0
M  V30 12 C -0.723305 1.094013 -1.298043 0
M  V30 13 C -0.681416 -0.123065 -0.628592 0
M  V30 14 C -1.872653 -0.960727 -0.598487 0
M  V30 15 C -3.117369 -0.698286 -0.058446 0
M  V30 16 C -3.500028 0.536404 0.620726 0
M  V30 17 C -2.988860 1.078108 1.782595 0
M  V30 18 C -3.501683 2.270450 2.255043 0
M  V30 19 C -4.515508 2.918115 1.575597 0
M  V30 20 F -4.995836 4.095187 2.075260 0
M  V30 21 C -5.045919 2.382750 0.395183 0
M  V30 22 C -4.517750 1.173261 -0.073740 0
M  V30 23 N -3.858187 -1.818725 -0.305665 0
M  V30 24 N -3.107796 -2.699474 -0.953060 0
M  V30 25 N -1.896492 -2.210892 -1.147275 0
M  V30 26 C -0.786944 -2.886278 -1.825187 0
M  V30 27 C -0.693983 -4.273863 -1.251599 0
M  V30 28 C -1.701520 -5.224844 -1.846812 0
M  V30 29 N -1.315181 -5.363610 -3.260487 0
M  V30 30 C -1.679364 -4.096027 -3.858011 0
M  V30 31 C -0.923830 -2.929171 -3.307230 0
M  V30 32 N 0.480693 -0.462648 -0.036783 0
M  V30 33 C 4.477680 -0.647810 2.126010 0
M  V30 34 H 6.847587 -0.608192 4.449919 0
M  V30 35 H 6.907283 -1.183973 2.695938 0
M  V30 36 H 6.234833 -2.252192 3.970614 0
M  V30 37 H 4.836891 0.221936 5.350113 0
M  V30 38 H 1.510417 1.855091 4.899547 0
M  V30 39 H 3.072371 2.435053 5.485871 0
M  V30 40 H 2.361086 0.849699 6.105563 0
M  V30 41 H 1.614934 1.172641 2.659789 0
M  V30 42 H 3.193478 -0.683650 -0.184658 0
M  V30 43 H 0.456206 2.854498 -1.829513 0
M  V30 44 H -1.629740 1.452762 -1.810295 0
M  V30 45 H -2.202676 0.486008 2.224293 0
M  V30 46 H -3.061472 2.655445 3.178664 0
M  V30 47 H -5.844820 2.928425 -0.106835 0
M  V30 48 H -5.000200 0.855512 -0.987154 0
M  V30 49 H 0.175174 -2.387402 -1.585199 0
M  V30 50 H -0.958143 -4.191477 -0.159936 0
M  V30 51 H 0.306620 -4.728627 -1.391656 0
M  V30 52 H -1.616241 -6.186135 -1.304349 0
M  V30 53 H -2.731975 -4.859933 -1.862959 0
M  V30 54 H -0.272652 -5.410568 -3.264139 0
M  V30 55 H -1.391667 -4.190033 -4.946499 0
M  V30 56 H -2.774292 -3.989133 -3.844105 0
M  V30 57 H 0.094690 -2.956045 -3.764719 0
M  V30 58 H -1.409200 -2.016918 -3.735735 0
M  V30 59 H 4.997547 -1.202745 1.357694 0
M  V30 END ATOM
M  V30 BEGIN BOND
M  V30 1 1 1 2
M  V30 2 2 2 3
M  V30 3 1 3 4
M  V30 4 1 4 5
M  V30 5 2 4 6
M  V30 6 1 6 7
M  V30 7 1 7 8
M  V30 8 1 8 9
M  V30 9 2 9 10
M  V30 10 1 10 11
M  V30 11 2 11 12
M  V30 12 1 12 13
M  V30 13 1 13 14
M  V30 14 2 14 15
M  V30 15 1 15 16
M  V30 16 2 16 17
M  V30 17 1 17 18
M  V30 18 2 18 19
M  V30 19 1 19 20
M  V30 20 1 19 21
M  V30 21 2 21 22
M  V30 22 1 15 23
M  V30 23 2 23 24
M  V30 24 1 24 25
M  V30 25 1 25 26
M  V30 26 1 26 27
M  V30 27 1 27 28
M  V30 28 1 28 29
M  V30 29 1 29 30
M  V30 30 1 30 31
M  V30 31 2 13 32
M  V30 32 2 7 33
M  V30 33 1 33 2
M  V30 34 1 32 9
M  V30 35 1 25 14
M  V30 36 1 31 26
M  V30 37 1 22 16
M  V30 38 1 1 34
M  V30 39 1 1 35
M  V30 40 1 1 36
M  V30 41 1 3 37
M  V30 42 1 5 38
M  V30 43 1 5 39
M  V30 44 1 5 40
M  V30 45 1 6 41
M  V30 46 1 8 42
M  V30 47 1 11 43
M  V30 48 1 12 44
M  V30 49 1 17 45
M  V30 50 1 18 46
M  V30 51 1 21 47
M  V30 52 1 22 48
M  V30 53 1 26 49
M  V30 54 1 27 50
M  V30 55 1 27 51
M  V30 56 1 28 52
M  V30 57 1 28 53
M  V30 58 1 29 54
M  V30 59 1 30 55
M  V30 60 1 30 56
M  V30 61 1 31 57
M  V30 62 1 31 58
M  V30 63 1 33 59
M  V30 END BOND
M  V30 END CTAB
M  END
>  <Dataset>  (973) 
ChEMBL_Kinases

>  <Ligand_Instance>  (973) 
nan

>  <PDB_ID>  (973) 
nan

>  <Standardized_SMILES>  (973) 
Cc1cc(C)cc(Nc2nccc(-c3c(-c4ccc(F)cc4)nnn3C3CCNCC3)n2)c1

>  <Name>  (973) 
nan

>  <Pocket>  (973) 
nan

>  <ATP_Site>  (973) 
nan

>  <Peripheral>  (973) 
nan

>  <Num_H_Atoms_ProtBoundConf>  (973) 
nan

>  <Num_Resolved_Atoms>  (973) 
nan

>  <Num_Not_Resolved_Atoms>  (973) 
nan

$$$$
CHEMBL4475119
     RDKit          3D

  0  0  0  0  0  0  0  0  0  0999 V3000
M  V30 BEGIN CTAB
M  V30 COUNTS 45 48 0 0 0
M  V30 BEGIN ATOM
M  V30 1 C 4.092246 -2.203238 5.707614 0
M  V30 2 S 4.891132 -1.116839 4.526543 0
M  V30 3 C 3.765931 -0.382484 3.381165 0
M  V30 4 N 4.160838 0.461715 2.413609 0
M  V30 5 C 3.091704 0.857346 1.700158 0
M  V30 6 C 3.133931 1.774712 0.567267 0
M  V30 7 C 2.740343 1.271975 -0.659632 0
M  V30 8 C 2.744737 2.065733 -1.798461 0
M  V30 9 C 3.145402 3.397407 -1.748678 0
M  V30 10 F 3.137889 4.142667 -2.876237 0
M  V30 11 C 3.527495 3.854379 -0.512083 0
M  V30 12 C 3.534369 3.094202 0.634165 0
M  V30 13 C 1.963854 0.253439 2.217040 0
M  V30 14 C 0.580200 0.383794 1.768128 0
M  V30 15 C 0.053935 1.676042 1.865116 0
M  V30 16 C -1.253735 1.978489 1.480751 0
M  V30 17 N -2.006973 0.947968 1.000252 0
M  V30 18 C -1.513189 -0.299934 0.901663 0
M  V30 19 N -2.360766 -1.324841 0.392714 0
M  V30 20 C -2.583401 -1.783295 -0.925072 0
M  V30 21 O -2.002794 -1.296402 -1.929049 0
M  V30 22 C -3.549208 -2.874539 -1.018048 0
M  V30 23 C -3.826573 -3.375839 -2.295693 0
M  V30 24 C -4.729349 -4.405049 -2.457893 0
M  V30 25 C -5.391541 -4.981800 -1.394839 0
M  V30 26 C -5.081125 -4.448115 -0.146390 0
M  V30 27 N -4.204037 -3.449275 0.003810 0
M  V30 28 C -0.232389 -0.603378 1.276556 0
M  V30 29 N 2.448549 -0.482963 3.232940 0
M  V30 30 H 4.532226 -2.175091 6.728852 0
M  V30 31 H 3.001254 -2.028309 5.799473 0
M  V30 32 H 4.228599 -3.256978 5.364324 0
M  V30 33 H 2.420554 0.237517 -0.741994 0
M  V30 34 H 2.424481 1.601120 -2.716648 0
M  V30 35 H 3.842109 4.898103 -0.468705 0
M  V30 36 H 3.841932 3.481275 1.602660 0
M  V30 37 H 0.624579 2.519202 2.242509 0
M  V30 38 H -1.636850 2.989661 1.566377 0
M  V30 39 H -2.833783 -1.715237 1.247430 0
M  V30 40 H -3.329365 -2.954546 -3.172646 0
M  V30 41 H -4.972110 -4.823182 -3.440551 0
M  V30 42 H -6.110976 -5.787629 -1.437756 0
M  V30 43 H -5.539106 -4.819999 0.768524 0
M  V30 44 H 0.209619 -1.587862 1.216701 0
M  V30 45 H 1.848192 -1.082926 3.854182 0
M  V30 END ATOM
M  V30 BEGIN BOND
M  V30 1 1 1 2
M  V30 2 1 2 3
M  V30 3 2 3 4
M  V30 4 1 4 5
M  V30 5 1 5 6
M  V30 6 2 6 7
M  V30 7 1 7 8
M  V30 8 2 8 9
M  V30 9 1 9 10
M  V30 10 1 9 11
M  V30 11 2 11 12
M  V30 12 2 5 13
M  V30 13 1 13 14
M  V30 14 2 14 15
M  V30 15 1 15 16
M  V30 16 2 16 17
M  V30 17 1 17 18
M  V30 18 1 18 19
M  V30 19 1 19 20
M  V30 20 2 20 21
M  V30 21 1 20 22
M  V30 22 2 22 23
M  V30 23 1 23 24
M  V30 24 2 24 25
M  V30 25 1 25 26
M  V30 26 2 26 27
M  V30 27 2 18 28
M  V30 28 1 13 29
M  V30 29 1 29 3
M  V30 30 1 12 6
M  V30 31 1 28 14
M  V30 32 1 27 22
M  V30 33 1 1 30
M  V30 34 1 1 31
M  V30 35 1 1 32
M  V30 36 1 7 33
M  V30 37 1 8 34
M  V30 38 1 11 35
M  V30 39 1 12 36
M  V30 40 1 15 37
M  V30 41 1 16 38
M  V30 42 1 19 39
M  V30 43 1 23 40
M  V30 44 1 24 41
M  V30 45 1 25 42
M  V30 46 1 26 43
M  V30 47 1 28 44
M  V30 48 1 29 45
M  V30 END BOND
M  V30 END CTAB
M  END
>  <Dataset>  (974) 
ChEMBL_Kinases

>  <Ligand_Instance>  (974) 
nan

>  <PDB_ID>  (974) 
nan

>  <Standardized_SMILES>  (974) 
CSc1nc(-c2ccc(F)cc2)c(-c2ccnc(NC(=O)c3ccccn3)c2)[nH]1

>  <Name>  (974) 
nan

>  <Pocket>  (974) 
nan

>  <ATP_Site>  (974) 
nan

>  <Peripheral>  (974) 
nan

>  <Num_H_Atoms_ProtBoundConf>  (974) 
nan

>  <Num_Resolved_Atoms>  (974) 
nan

>  <Num_Not_Resolved_Atoms>  (974) 
nan

$$$$
CHEMBL467730
     RDKit          3D

  0  0  0  0  0  0  0  0  0  0999 V3000
M  V30 BEGIN CTAB
M  V30 COUNTS 37 39 0 0 0
M  V30 BEGIN ATOM
M  V30 1 C -0.213165 -3.330033 3.033306 0
M  V30 2 C 0.041223 -1.907902 2.510878 0
M  V30 3 N 1.368795 -1.507488 2.843643 0
M  V30 4 C 1.915242 -0.239289 2.549132 0
M  V30 5 C 1.429206 0.892925 1.930467 0
M  V30 6 N 0.287218 1.410972 1.304282 0
M  V30 7 C -0.063858 1.423867 -0.075730 0
M  V30 8 C -1.251917 1.938745 -0.591344 0
M  V30 9 C -1.456306 1.888677 -1.947536 0
M  V30 10 N -0.581254 1.371052 -2.832921 0
M  V30 11 C 0.564807 0.870190 -2.373588 0
M  V30 12 C 0.794088 0.908052 -1.019307 0
M  V30 13 C 2.622006 1.561442 2.110343 0
M  V30 14 O 3.212909 2.666090 1.899224 0
M  V30 15 C 3.107221 0.430181 2.728158 0
M  V30 16 O 4.195472 0.057966 3.273360 0
M  V30 17 C -0.207037 -2.013099 1.039493 0
M  V30 18 C 0.801217 -2.350472 0.173784 0
M  V30 19 C 0.670818 -2.479487 -1.203803 0
M  V30 20 C -0.624735 -2.226499 -1.649717 0
M  V30 21 C -1.679637 -1.884165 -0.837016 0
M  V30 22 C -1.465129 -1.777193 0.521354 0
M  V30 23 F -2.441377 -1.446379 1.393978 0
M  V30 24 H -1.249896 -3.629126 2.893138 0
M  V30 25 H 0.042986 -3.285680 4.114304 0
M  V30 26 H 0.523917 -4.024958 2.562754 0
M  V30 27 H -0.734883 -1.278339 2.979688 0
M  V30 28 H 2.012121 -2.190535 3.347847 0
M  V30 29 H -0.443591 1.868545 1.927415 0
M  V30 30 H -1.955777 2.354484 0.114901 0
M  V30 31 H -2.386592 2.293365 -2.337546 0
M  V30 32 H 1.262337 0.458007 -3.075599 0
M  V30 33 H 1.727539 0.499557 -0.649580 0
M  V30 34 H 1.793348 -2.535484 0.590032 0
M  V30 35 H 1.480049 -2.745243 -1.854637 0
M  V30 36 H -0.831227 -2.302747 -2.726050 0
M  V30 37 H -2.668489 -1.696422 -1.224137 0
M  V30 END ATOM
M  V30 BEGIN BOND
M  V30 1 1 1 2
M  V30 2 1 2 3
M  V30 3 1 3 4
M  V30 4 2 4 5
M  V30 5 1 5 6
M  V30 6 1 6 7
M  V30 7 2 7 8
M  V30 8 1 8 9
M  V30 9 2 9 10
M  V30 10 1 10 11
M  V30 11 2 11 12
M  V30 12 1 5 13
M  V30 13 2 13 14
M  V30 14 1 13 15
M  V30 15 2 15 16
M  V30 16 1 2 17
M  V30 17 2 17 18
M  V30 18 1 18 19
M  V30 19 2 19 20
M  V30 20 1 20 21
M  V30 21 2 21 22
M  V30 22 1 22 23
M  V30 23 1 15 4
M  V30 24 1 22 17
M  V30 25 1 12 7
M  V30 26 1 1 24
M  V30 27 1 1 25
M  V30 28 1 1 26
M  V30 29 1 2 27
M  V30 30 1 3 28
M  V30 31 1 6 29
M  V30 32 1 8 30
M  V30 33 1 9 31
M  V30 34 1 11 32
M  V30 35 1 12 33
M  V30 36 1 18 34
M  V30 37 1 19 35
M  V30 38 1 20 36
M  V30 39 1 21 37
M  V30 END BOND
M  V30 END CTAB
M  END
>  <Dataset>  (975) 
ChEMBL_Kinases

>  <Ligand_Instance>  (975) 
nan

>  <PDB_ID>  (975) 
nan

>  <Standardized_SMILES>  (975) 
CC(Nc1c(Nc2ccncc2)c(=O)c1=O)c1ccccc1F

>  <Name>  (975) 
nan

>  <Pocket>  (975) 
nan

>  <ATP_Site>  (975) 
nan

>  <Peripheral>  (975) 
nan

>  <Num_H_Atoms_ProtBoundConf>  (975) 
nan

>  <Num_Resolved_Atoms>  (975) 
nan

>  <Num_Not_Resolved_Atoms>  (975) 
nan

$$$$
CHEMBL4475097
     RDKit          3D

  0  0  0  0  0  0  0  0  0  0999 V3000
M  V30 BEGIN CTAB
M  V30 COUNTS 34 37 0 0 0
M  V30 BEGIN ATOM
M  V30 1 C -0.236842 -3.200259 1.029456 0
M  V30 2 O 0.380395 -1.933627 0.986535 0
M  V30 3 C 1.651018 -1.640402 1.395518 0
M  V30 4 C 2.460287 -2.649935 1.913094 0
M  V30 5 C 3.738716 -2.410533 2.336547 0
M  V30 6 Br 4.900009 -3.741072 3.053886 0
M  V30 7 C 4.243237 -1.128205 2.248384 0
M  V30 8 C 3.415995 -0.153537 1.731622 0
M  V30 9 N 3.659358 1.153973 1.541038 0
M  V30 10 C 2.594878 1.755526 1.016339 0
M  V30 11 C 1.569515 0.820345 0.836417 0
M  V30 12 C 0.233408 1.036628 0.293610 0
M  V30 13 C -0.204526 2.294388 -0.139340 0
M  V30 14 N -1.469246 2.165965 -0.581562 0
M  V30 15 C -1.804627 0.871899 -0.428080 0
M  V30 16 C -3.079185 0.245692 -0.766992 0
M  V30 17 C -4.168439 0.926708 -1.318053 0
M  V30 18 C -5.220550 0.064637 -1.523700 0
M  V30 19 C -4.763770 -1.160447 -1.090707 0
M  V30 20 Br -5.769898 -2.786918 -1.115008 0
M  V30 21 N -3.507130 -1.015890 -0.654869 0
M  V30 22 O -0.770625 0.253944 0.088816 0
M  V30 23 C 2.123318 -0.348736 1.293376 0
M  V30 24 H -0.159081 -3.745927 0.069284 0
M  V30 25 H 0.108327 -3.808431 1.890798 0
M  V30 26 H -1.338260 -3.009121 1.163807 0
M  V30 27 H 2.140662 -3.683721 2.016534 0
M  V30 28 H 5.238914 -0.869759 2.562708 0
M  V30 29 H 4.545208 1.694198 1.754017 0
M  V30 30 H 2.459703 2.805567 0.740470 0
M  V30 31 H 0.369440 3.212708 -0.123452 0
M  V30 32 H -4.211118 1.981884 -1.560677 0
M  V30 33 H -6.205063 0.251495 -1.929654 0
M  V30 34 H -2.925637 -1.792519 -0.271917 0
M  V30 END ATOM
M  V30 BEGIN BOND
M  V30 1 1 1 2
M  V30 2 1 2 3
M  V30 3 2 3 4
M  V30 4 1 4 5
M  V30 5 1 5 6
M  V30 6 2 5 7
M  V30 7 1 7 8
M  V30 8 1 8 9
M  V30 9 1 9 10
M  V30 10 2 10 11
M  V30 11 1 11 12
M  V30 12 2 12 13
M  V30 13 1 13 14
M  V30 14 2 14 15
M  V30 15 1 15 16
M  V30 16 2 16 17
M  V30 17 1 17 18
M  V30 18 2 18 19
M  V30 19 1 19 20
M  V30 20 1 19 21
M  V30 21 1 15 22
M  V30 22 1 11 23
M  V30 23 1 23 3
M  V30 24 2 23 8
M  V30 25 1 22 12
M  V30 26 1 21 16
M  V30 27 1 1 24
M  V30 28 1 1 25
M  V30 29 1 1 26
M  V30 30 1 4 27
M  V30 31 1 7 28
M  V30 32 1 9 29
M  V30 33 1 10 30
M  V30 34 1 13 31
M  V30 35 1 17 32
M  V30 36 1 18 33
M  V30 37 1 21 34
M  V30 END BOND
M  V30 END CTAB
M  END
>  <Dataset>  (976) 
ChEMBL_Kinases

>  <Ligand_Instance>  (976) 
nan

>  <PDB_ID>  (976) 
nan

>  <Standardized_SMILES>  (976) 
COc1cc(Br)cc2[nH]cc(-c3cnc(-c4ccc(Br)[nH]4)o3)c12

>  <Name>  (976) 
nan

>  <Pocket>  (976) 
nan

>  <ATP_Site>  (976) 
nan

>  <Peripheral>  (976) 
nan

>  <Num_H_Atoms_ProtBoundConf>  (976) 
nan

>  <Num_Resolved_Atoms>  (976) 
nan

>  <Num_Not_Resolved_Atoms>  (976) 
nan

$$$$
CHEMBL467911
     RDKit          3D

  0  0  0  0  0  0  0  0  0  0999 V3000
M  V30 BEGIN CTAB
M  V30 COUNTS 38 40 0 0 0
M  V30 BEGIN ATOM
M  V30 1 O -1.743004 -3.818194 3.045889 0
M  V30 2 C -1.519566 -2.563917 3.033463 0
M  V30 3 C -0.299321 -2.081699 2.604813 0
M  V30 4 N 0.990068 -2.379664 2.106120 0
M  V30 5 C 1.219622 -2.466594 0.703341 0
M  V30 6 C 0.163400 -2.255455 -0.171102 0
M  V30 7 C 0.512383 -2.366689 -1.491890 0
M  V30 8 N 1.706626 -2.643822 -1.993803 0
M  V30 9 C 2.752632 -2.853285 -1.142115 0
M  V30 10 C 2.480579 -2.757918 0.223446 0
M  V30 11 C -0.661460 -0.753540 2.815386 0
M  V30 12 N -0.459033 0.656216 2.819610 0
M  V30 13 C -0.760121 1.509395 1.712620 0
M  V30 14 C -2.212479 1.477386 1.309301 0
M  V30 15 O -2.673202 0.239162 0.927623 0
M  V30 16 C 0.149703 1.323566 0.558244 0
M  V30 17 C 1.494267 1.245163 0.898443 0
M  V30 18 C 2.491104 1.073466 -0.033431 0
M  V30 19 C 2.163482 0.970437 -1.389675 0
M  V30 20 C 0.826359 1.049705 -1.714440 0
M  V30 21 C -0.173547 1.221933 -0.779684 0
M  V30 22 C -1.900823 -1.237066 3.251108 0
M  V30 23 O -3.081615 -1.084180 3.701000 0
M  V30 24 H 1.780323 -2.537293 2.769126 0
M  V30 25 H -0.826289 -2.027736 0.169502 0
M  V30 26 H -0.245952 -2.219122 -2.275985 0
M  V30 27 H 3.732473 -3.080255 -1.538097 0
M  V30 28 H 3.321177 -2.926719 0.889539 0
M  V30 29 H -0.057604 1.001160 3.742385 0
M  V30 30 H -0.580463 2.559250 2.067697 0
M  V30 31 H -2.804902 1.903940 2.167319 0
M  V30 32 H -2.346175 2.183966 0.466903 0
M  V30 33 H -3.522646 0.395315 0.443013 0
M  V30 34 H 1.886279 1.308936 1.900910 0
M  V30 35 H 3.544682 1.008055 0.191599 0
M  V30 36 H 2.882654 0.834388 -2.188942 0
M  V30 37 H 0.471580 0.981350 -2.732475 0
M  V30 38 H -1.226470 1.289225 -0.984581 0
M  V30 END ATOM
M  V30 BEGIN BOND
M  V30 1 2 1 2
M  V30 2 1 2 3
M  V30 3 1 3 4
M  V30 4 1 4 5
M  V30 5 2 5 6
M  V30 6 1 6 7
M  V30 7 2 7 8
M  V30 8 1 8 9
M  V30 9 2 9 10
M  V30 10 2 3 11
M  V30 11 1 11 12
M  V30 12 1 12 13
M  V30 13 1 13 14
M  V30 14 1 14 15
M  V30 15 1 13 16
M  V30 16 2 16 17
M  V30 17 1 17 18
M  V30 18 2 18 19
M  V30 19 1 19 20
M  V30 20 2 20 21
M  V30 21 1 11 22
M  V30 22 2 22 23
M  V30 23 1 22 2
M  V30 24 1 10 5
M  V30 25 1 21 16
M  V30 26 1 4 24
M  V30 27 1 6 25
M  V30 28 1 7 26
M  V30 29 1 9 27
M  V30 30 1 10 28
M  V30 31 1 12 29
M  V30 32 1 13 30
M  V30 33 1 14 31
M  V30 34 1 14 32
M  V30 35 1 15 33
M  V30 36 1 17 34
M  V30 37 1 18 35
M  V30 38 1 19 36
M  V30 39 1 20 37
M  V30 40 1 21 38
M  V30 END BOND
M  V30 END CTAB
M  END
>  <Dataset>  (977) 
ChEMBL_Kinases

>  <Ligand_Instance>  (977) 
nan

>  <PDB_ID>  (977) 
nan

>  <Standardized_SMILES>  (977) 
O=c1c(Nc2ccncc2)c(NC(CO)c2ccccc2)c1=O

>  <Name>  (977) 
nan

>  <Pocket>  (977) 
nan

>  <ATP_Site>  (977) 
nan

>  <Peripheral>  (977) 
nan

>  <Num_H_Atoms_ProtBoundConf>  (977) 
nan

>  <Num_Resolved_Atoms>  (977) 
nan

>  <Num_Not_Resolved_Atoms>  (977) 
nan

$$$$
CHEMBL467987
     RDKit          3D

  0  0  0  0  0  0  0  0  0  0999 V3000
M  V30 BEGIN CTAB
M  V30 COUNTS 45 48 0 0 0
M  V30 BEGIN ATOM
M  V30 1 C -0.051392 -3.028816 0.335804 0
M  V30 2 C -0.694027 -2.385054 1.534317 0 CFG=2
M  V30 3 C -1.872689 -1.565342 1.158579 0
M  V30 4 C -1.380027 -0.638924 0.046790 0
M  V30 5 C -0.398477 0.296702 0.654943 0 CFG=2
M  V30 6 C 0.220057 1.217355 -0.327230 0
M  V30 7 C -0.025656 1.168585 -1.689312 0
M  V30 8 C 0.627287 2.097896 -2.490734 0
M  V30 9 O 0.368788 2.032056 -3.843369 0
M  V30 10 C 1.481125 3.016329 -1.897992 0
M  V30 11 O 2.094291 3.913916 -2.788287 0
M  V30 12 C 1.727044 3.066297 -0.541185 0
M  V30 13 C 1.081581 2.143069 0.276294 0
M  V30 14 C 1.278090 2.115105 1.735933 0
M  V30 15 C 1.267191 0.760268 2.354727 0
M  V30 16 C 0.720833 -0.325905 1.419442 0 CFG=1
M  V30 17 C 0.272974 -1.454224 2.282008 0 CFG=2
M  V30 18 C 1.330936 -2.463865 2.630322 0
M  V30 19 C 0.511166 -3.699512 3.027836 0
M  V30 20 C -0.918564 -3.401583 2.598725 0 CFG=2
M  V30 21 O -1.604306 -4.531629 2.180610 0
M  V30 22 H -0.879959 -3.261385 -0.386745 0
M  V30 23 H 0.615592 -2.305454 -0.158971 0
M  V30 24 H 0.537147 -3.927462 0.567497 0
M  V30 25 H -2.134214 -0.866336 1.999073 0
M  V30 26 H -2.766443 -2.130435 0.872474 0
M  V30 27 H -1.028947 -1.258718 -0.774459 0
M  V30 28 H -2.264394 -0.054198 -0.262570 0
M  V30 29 H -0.974977 0.952490 1.361197 0
M  V30 30 H -0.714516 0.398197 -2.004984 0
M  V30 31 H 0.743553 1.277634 -4.427375 0
M  V30 32 H 1.445552 4.617225 -3.166647 0
M  V30 33 H 2.394590 3.792703 -0.124064 0
M  V30 34 H 0.537686 2.784946 2.213574 0
M  V30 35 H 2.271088 2.577538 1.965133 0
M  V30 36 H 0.547554 0.769268 3.223883 0
M  V30 37 H 2.246742 0.419277 2.750217 0
M  V30 38 H 1.581376 -0.662018 0.805237 0
M  V30 39 H -0.228301 -1.156109 3.207880 0
M  V30 40 H 1.887353 -2.695310 1.689745 0
M  V30 41 H 1.988028 -2.150739 3.463209 0
M  V30 42 H 0.919315 -4.584453 2.460510 0
M  V30 43 H 0.605889 -3.872445 4.102858 0
M  V30 44 H -1.441019 -3.011614 3.479921 0
M  V30 45 H -1.096087 -5.358332 2.205331 0
M  V30 END ATOM
M  V30 BEGIN BOND
M  V30 1 1 2 1 CFG=3
M  V30 2 1 2 3
M  V30 3 1 3 4
M  V30 4 1 4 5
M  V30 5 1 5 6
M  V30 6 2 6 7
M  V30 7 1 7 8
M  V30 8 1 8 9
M  V30 9 2 8 10
M  V30 10 1 10 11
M  V30 11 1 10 12
M  V30 12 2 12 13
M  V30 13 1 13 14
M  V30 14 1 14 15
M  V30 15 1 15 16
M  V30 16 1 16 17
M  V30 17 1 17 18
M  V30 18 1 18 19
M  V30 19 1 19 20
M  V30 20 1 20 21
M  V30 21 1 17 2
M  V30 22 1 20 2
M  V30 23 1 16 5
M  V30 24 1 13 6
M  V30 25 1 1 22
M  V30 26 1 1 23
M  V30 27 1 1 24
M  V30 28 1 3 25
M  V30 29 1 3 26
M  V30 30 1 4 27
M  V30 31 1 4 28
M  V30 32 1 5 29 CFG=1
M  V30 33 1 7 30
M  V30 34 1 9 31
M  V30 35 1 11 32
M  V30 36 1 12 33
M  V30 37 1 14 34
M  V30 38 1 14 35
M  V30 39 1 15 36
M  V30 40 1 15 37
M  V30 41 1 16 38 CFG=3
M  V30 42 1 17 39 CFG=1
M  V30 43 1 18 40
M  V30 44 1 18 41
M  V30 45 1 19 42
M  V30 46 1 19 43
M  V30 47 1 20 44 CFG=1
M  V30 48 1 21 45
M  V30 END BOND
M  V30 END CTAB
M  END
>  <Dataset>  (978) 
ChEMBL_Kinases

>  <Ligand_Instance>  (978) 
nan

>  <PDB_ID>  (978) 
nan

>  <Standardized_SMILES>  (978) 
C[C@]12CC[C@@H]3c4cc(O)c(O)cc4CC[C@H]3[C@@H]1CC[C@@H]2O

>  <Name>  (978) 
nan

>  <Pocket>  (978) 
nan

>  <ATP_Site>  (978) 
nan

>  <Peripheral>  (978) 
nan

>  <Num_H_Atoms_ProtBoundConf>  (978) 
nan

>  <Num_Resolved_Atoms>  (978) 
nan

>  <Num_Not_Resolved_Atoms>  (978) 
nan

$$$$
CHEMBL466496
     RDKit          3D

  0  0  0  0  0  0  0  0  0  0999 V3000
M  V30 BEGIN CTAB
M  V30 COUNTS 37 39 0 0 0
M  V30 BEGIN ATOM
M  V30 1 C -0.309584 -4.081646 2.112603 0
M  V30 2 C -0.141976 -2.557310 2.199824 0 CFG=1
M  V30 3 N 1.245321 -2.274786 2.041544 0
M  V30 4 C 1.991612 -1.052917 2.030269 0
M  V30 5 C 2.598555 0.058920 1.487067 0
M  V30 6 N 2.601077 0.316355 0.092613 0
M  V30 7 C 1.781771 1.196008 -0.629846 0
M  V30 8 C 0.901782 2.096905 -0.081743 0
M  V30 9 C 0.081186 2.978411 -0.741477 0
M  V30 10 N 0.166660 2.936650 -2.093469 0
M  V30 11 C 0.998327 2.088961 -2.721746 0
M  V30 12 C 1.796357 1.228872 -1.997666 0
M  V30 13 C 3.001543 0.506659 2.751146 0
M  V30 14 O 3.652828 1.577689 2.854325 0
M  V30 15 C 2.396377 -0.603275 3.296483 0
M  V30 16 O 2.468100 -0.711543 4.567973 0
M  V30 17 C -1.048201 -1.970597 1.210592 0
M  V30 18 C -2.023337 -2.745903 0.563891 0
M  V30 19 C -2.909599 -2.270374 -0.361127 0
M  V30 20 C -2.872376 -0.946487 -0.706290 0
M  V30 21 C -1.929210 -0.153954 -0.092814 0
M  V30 22 C -1.040283 -0.646719 0.839575 0
M  V30 23 H -0.154546 -4.333457 1.041167 0
M  V30 24 H 0.585491 -4.529964 2.624823 0
M  V30 25 H -1.251896 -4.434051 2.530025 0
M  V30 26 H -0.516371 -2.304866 3.224111 0
M  V30 27 H 1.926095 -3.088511 1.891922 0
M  V30 28 H 3.321876 -0.234717 -0.458687 0
M  V30 29 H 0.821573 2.141978 1.016560 0
M  V30 30 H -0.577766 3.649439 -0.225736 0
M  V30 31 H 1.035956 2.087993 -3.812933 0
M  V30 32 H 2.459486 0.555091 -2.557812 0
M  V30 33 H -2.107520 -3.800515 0.790287 0
M  V30 34 H -3.640432 -2.911514 -0.828653 0
M  V30 35 H -3.551233 -0.534956 -1.428467 0
M  V30 36 H -1.877239 0.891667 -0.344081 0
M  V30 37 H -0.282757 -0.079960 1.358719 0
M  V30 END ATOM
M  V30 BEGIN BOND
M  V30 1 1 1 2
M  V30 2 1 2 3
M  V30 3 1 3 4
M  V30 4 2 4 5
M  V30 5 1 5 6
M  V30 6 1 6 7
M  V30 7 2 7 8
M  V30 8 1 8 9
M  V30 9 2 9 10
M  V30 10 1 10 11
M  V30 11 2 11 12
M  V30 12 1 5 13
M  V30 13 2 13 14
M  V30 14 1 13 15
M  V30 15 2 15 16
M  V30 16 1 2 17
M  V30 17 2 17 18
M  V30 18 1 18 19
M  V30 19 2 19 20
M  V30 20 1 20 21
M  V30 21 2 21 22
M  V30 22 1 15 4
M  V30 23 1 22 17
M  V30 24 1 12 7
M  V30 25 1 1 23
M  V30 26 1 1 24
M  V30 27 1 1 25
M  V30 28 1 2 26 CFG=1
M  V30 29 1 3 27
M  V30 30 1 6 28
M  V30 31 1 8 29
M  V30 32 1 9 30
M  V30 33 1 11 31
M  V30 34 1 12 32
M  V30 35 1 18 33
M  V30 36 1 19 34
M  V30 37 1 20 35
M  V30 38 1 21 36
M  V30 39 1 22 37
M  V30 END BOND
M  V30 END CTAB
M  END
>  <Dataset>  (979) 
ChEMBL_Kinases

>  <Ligand_Instance>  (979) 
nan

>  <PDB_ID>  (979) 
nan

>  <Standardized_SMILES>  (979) 
C[C@@H](Nc1c(Nc2ccncc2)c(=O)c1=O)c1ccccc1

>  <Name>  (979) 
nan

>  <Pocket>  (979) 
nan

>  <ATP_Site>  (979) 
nan

>  <Peripheral>  (979) 
nan

>  <Num_H_Atoms_ProtBoundConf>  (979) 
nan

>  <Num_Resolved_Atoms>  (979) 
nan

>  <Num_Not_Resolved_Atoms>  (979) 
nan

$$$$
CHEMBL4476485
     RDKit          3D

  0  0  0  0  0  0  0  0  0  0999 V3000
M  V30 BEGIN CTAB
M  V30 COUNTS 60 64 0 0 0
M  V30 BEGIN ATOM
M  V30 1 C -2.296689 -2.787600 2.341594 0
M  V30 2 C -0.839183 -2.420899 2.461126 0
M  V30 3 C -0.472065 -1.151477 2.086156 0
M  V30 4 C 0.830988 -0.671579 2.154173 0
M  V30 5 N 1.130200 0.644347 1.752818 0
M  V30 6 C 2.341883 1.354987 1.734268 0
M  V30 7 O 3.333733 0.705376 2.151433 0
M  V30 8 C 2.603696 2.715334 1.306922 0
M  V30 9 C 3.882285 3.223493 1.380142 0
M  V30 10 C 4.255229 4.493905 1.010504 0
M  V30 11 C 3.230013 5.280642 0.534994 0
M  V30 12 N 1.954612 4.873090 0.427391 0
M  V30 13 C 0.977970 5.771717 -0.081090 0
M  V30 14 C 0.511086 6.818917 0.671329 0
M  V30 15 C -0.437246 7.650265 0.103814 0
M  V30 16 C -0.919815 7.464159 -1.170176 0
M  V30 17 F -1.858416 8.306717 -1.701108 0
M  V30 18 C -0.433331 6.396570 -1.916311 0
M  V30 19 C 0.511064 5.548164 -1.384191 0
M  V30 20 C 1.685759 3.611460 0.814446 0
M  V30 21 O 0.486490 3.291072 0.690937 0
M  V30 22 C 1.711257 -1.608631 2.638348 0
M  V30 23 C 1.439021 -2.900148 3.037521 0
M  V30 24 C 0.122647 -3.303239 2.940063 0
M  V30 25 O -0.264638 -4.579137 3.314316 0
M  V30 26 C -0.827286 -5.518044 2.459198 0
M  V30 27 C -1.275412 -6.691104 3.011826 0
M  V30 28 C -1.830800 -7.620148 2.164025 0
M  V30 29 N -1.951025 -7.426222 0.827264 0
M  V30 30 C -1.515635 -6.281286 0.273105 0
M  V30 31 N -1.635028 -6.077252 -1.128479 0
M  V30 32 C -2.197120 -7.029582 -1.990847 0
M  V30 33 O -2.630187 -8.136059 -1.525103 0
M  V30 34 C -2.282836 -6.740763 -3.446860 0
M  V30 35 C -1.359437 -5.747990 -4.056678 0
M  V30 36 C -2.775375 -5.327049 -3.813769 0
M  V30 37 C -0.949668 -5.315603 1.080202 0
M  V30 38 H -2.494480 -2.861806 1.252473 0
M  V30 39 H -2.886307 -1.911782 2.683569 0
M  V30 40 H -2.530323 -3.707337 2.871742 0
M  V30 41 H -1.257783 -0.492155 1.714729 0
M  V30 42 H 0.312287 1.191352 1.408175 0
M  V30 43 H 4.712383 2.603769 1.758138 0
M  V30 44 H 5.279019 4.831315 1.094119 0
M  V30 45 H 3.494685 6.304237 0.230865 0
M  V30 46 H 0.870898 6.994080 1.678606 0
M  V30 47 H -0.803362 8.484498 0.715848 0
M  V30 48 H -0.801120 6.227648 -2.930567 0
M  V30 49 H 0.870743 4.716349 -1.998118 0
M  V30 50 H 2.755957 -1.363797 2.742500 0
M  V30 51 H 2.178052 -3.581629 3.407270 0
M  V30 52 H -1.195423 -6.872092 4.053964 0
M  V30 53 H -2.195256 -8.559832 2.575756 0
M  V30 54 H -1.282662 -5.161981 -1.537337 0
M  V30 55 H -2.735828 -7.541259 -4.084969 0
M  V30 56 H -0.548353 -5.347230 -3.447564 0
M  V30 57 H -1.087731 -5.877935 -5.117133 0
M  V30 58 H -3.472453 -5.234007 -4.665943 0
M  V30 59 H -2.898622 -4.619894 -2.959553 0
M  V30 60 H -0.584389 -4.381879 0.664999 0
M  V30 END ATOM
M  V30 BEGIN BOND
M  V30 1 1 1 2
M  V30 2 2 2 3
M  V30 3 1 3 4
M  V30 4 1 4 5
M  V30 5 1 5 6
M  V30 6 2 6 7
M  V30 7 1 6 8
M  V30 8 2 8 9
M  V30 9 1 9 10
M  V30 10 2 10 11
M  V30 11 1 11 12
M  V30 12 1 12 13
M  V30 13 2 13 14
M  V30 14 1 14 15
M  V30 15 2 15 16
M  V30 16 1 16 17
M  V30 17 1 16 18
M  V30 18 2 18 19
M  V30 19 1 12 20
M  V30 20 2 20 21
M  V30 21 2 4 22
M  V30 22 1 22 23
M  V30 23 2 23 24
M  V30 24 1 24 25
M  V30 25 1 25 26
M  V30 26 2 26 27
M  V30 27 1 27 28
M  V30 28 2 28 29
M  V30 29 1 29 30
M  V30 30 1 30 31
M  V30 31 1 31 32
M  V30 32 2 32 33
M  V30 33 1 32 34
M  V30 34 1 34 35
M  V30 35 1 35 36
M  V30 36 2 30 37
M  V30 37 1 24 2
M  V30 38 1 37 26
M  V30 39 1 20 8
M  V30 40 1 36 34
M  V30 41 1 19 13
M  V30 42 1 1 38
M  V30 43 1 1 39
M  V30 44 1 1 40
M  V30 45 1 3 41
M  V30 46 1 5 42
M  V30 47 1 9 43
M  V30 48 1 10 44
M  V30 49 1 11 45
M  V30 50 1 14 46
M  V30 51 1 15 47
M  V30 52 1 18 48
M  V30 53 1 19 49
M  V30 54 1 22 50
M  V30 55 1 23 51
M  V30 56 1 27 52
M  V30 57 1 28 53
M  V30 58 1 31 54
M  V30 59 1 34 55
M  V30 60 1 35 56
M  V30 61 1 35 57
M  V30 62 1 36 58
M  V30 63 1 36 59
M  V30 64 1 37 60
M  V30 END BOND
M  V30 END CTAB
M  END
>  <Dataset>  (980) 
ChEMBL_Kinases

>  <Ligand_Instance>  (980) 
nan

>  <PDB_ID>  (980) 
nan

>  <Standardized_SMILES>  (980) 
Cc1cc(NC(=O)c2cccn(-c3ccc(F)cc3)c2=O)ccc1Oc1ccnc(NC(=O)C2CC2)c1

>  <Name>  (980) 
nan

>  <Pocket>  (980) 
nan

>  <ATP_Site>  (980) 
nan

>  <Peripheral>  (980) 
nan

>  <Num_H_Atoms_ProtBoundConf>  (980) 
nan

>  <Num_Resolved_Atoms>  (980) 
nan

>  <Num_Not_Resolved_Atoms>  (980) 
nan

$$$$
CHEMBL4476463
     RDKit          3D

  0  0  0  0  0  0  0  0  0  0999 V3000
M  V30 BEGIN CTAB
M  V30 COUNTS 50 52 0 0 0
M  V30 BEGIN ATOM
M  V30 1 C 1.113525 -3.969617 2.990813 0
M  V30 2 N 0.997315 -2.667139 2.300939 0
M  V30 3 C -0.439166 -2.357624 2.369360 0
M  V30 4 C 1.722604 -1.667292 3.044523 0
M  V30 5 C 1.760225 -0.335052 2.374511 0
M  V30 6 C 2.437909 -0.350359 1.023068 0
M  V30 7 C 3.853670 -0.835433 1.272851 0
M  V30 8 C 2.596296 1.102455 0.581815 0
M  V30 9 N 1.802446 -1.146487 0.028325 0
M  V30 10 C 0.489482 -0.774992 -0.426148 0
M  V30 11 N -0.113042 0.303278 0.084725 0
M  V30 12 C -1.337287 0.706717 -0.295102 0
M  V30 13 C -1.922420 1.895638 0.314412 0
M  V30 14 C -1.300023 2.655445 1.282902 0
M  V30 15 N -2.162499 3.646809 1.571172 0
M  V30 16 N -3.258759 3.533132 0.841950 0
M  V30 17 C -3.161032 2.442177 0.028745 0
M  V30 18 C -4.139641 1.920965 -0.958009 0
M  V30 19 F -4.555526 0.651989 -0.691930 0
M  V30 20 F -3.616913 1.970315 -2.250913 0
M  V30 21 F -5.238657 2.754574 -0.963453 0
M  V30 22 N -2.032313 0.012479 -1.242960 0
M  V30 23 C -1.485898 -1.088004 -1.803367 0
M  V30 24 C -2.132892 -1.835479 -2.765937 0
M  V30 25 N -1.580570 -2.946101 -3.331047 0
M  V30 26 C -0.337920 -3.314907 -2.913299 0
M  V30 27 C 0.315338 -2.572783 -1.951356 0
M  V30 28 C -0.230822 -1.448943 -1.372326 0
M  V30 29 H 2.112357 -4.362441 2.721110 0
M  V30 30 H 0.986723 -3.853386 4.074746 0
M  V30 31 H 0.363972 -4.688416 2.623053 0
M  V30 32 H -0.911009 -2.647728 1.385487 0
M  V30 33 H -0.930398 -2.958100 3.143813 0
M  V30 34 H -0.591398 -1.283681 2.512053 0
M  V30 35 H 2.762998 -2.064365 3.234280 0
M  V30 36 H 1.239154 -1.608057 4.050572 0
M  V30 37 H 0.793807 0.170547 2.361020 0
M  V30 38 H 2.427167 0.321202 3.016615 0
M  V30 39 H 3.848987 -1.924487 1.501925 0
M  V30 40 H 4.343082 -0.231061 2.062850 0
M  V30 41 H 4.414222 -0.726784 0.306977 0
M  V30 42 H 2.561027 1.217458 -0.500338 0
M  V30 43 H 3.557872 1.540414 0.921307 0
M  V30 44 H 1.794184 1.726097 1.040794 0
M  V30 45 H 2.330771 -1.970930 -0.324290 0
M  V30 46 H -0.352931 2.566256 1.763376 0
M  V30 47 H -2.137009 4.469200 2.241975 0
M  V30 48 H -3.113505 -1.460669 -3.028888 0
M  V30 49 H 0.065340 -4.206089 -3.389979 0
M  V30 50 H 1.292680 -2.952178 -1.693457 0
M  V30 END ATOM
M  V30 BEGIN BOND
M  V30 1 1 1 2
M  V30 2 1 2 3
M  V30 3 1 2 4
M  V30 4 1 4 5
M  V30 5 1 5 6
M  V30 6 1 6 7
M  V30 7 1 6 8
M  V30 8 1 6 9
M  V30 9 1 9 10
M  V30 10 2 10 11
M  V30 11 1 11 12
M  V30 12 1 12 13
M  V30 13 2 13 14
M  V30 14 1 14 15
M  V30 15 1 15 16
M  V30 16 2 16 17
M  V30 17 1 17 18
M  V30 18 1 18 19
M  V30 19 1 18 20
M  V30 20 1 18 21
M  V30 21 2 12 22
M  V30 22 1 22 23
M  V30 23 2 23 24
M  V30 24 1 24 25
M  V30 25 2 25 26
M  V30 26 1 26 27
M  V30 27 2 27 28
M  V30 28 1 28 10
M  V30 29 1 17 13
M  V30 30 1 28 23
M  V30 31 1 1 29
M  V30 32 1 1 30
M  V30 33 1 1 31
M  V30 34 1 3 32
M  V30 35 1 3 33
M  V30 36 1 3 34
M  V30 37 1 4 35
M  V30 38 1 4 36
M  V30 39 1 5 37
M  V30 40 1 5 38
M  V30 41 1 7 39
M  V30 42 1 7 40
M  V30 43 1 7 41
M  V30 44 1 8 42
M  V30 45 1 8 43
M  V30 46 1 8 44
M  V30 47 1 9 45
M  V30 48 1 14 46
M  V30 49 1 15 47
M  V30 50 1 24 48
M  V30 51 1 26 49
M  V30 52 1 27 50
M  V30 END BOND
M  V30 END CTAB
M  END
>  <Dataset>  (981) 
ChEMBL_Kinases

>  <Ligand_Instance>  (981) 
nan

>  <PDB_ID>  (981) 
nan

>  <Standardized_SMILES>  (981) 
CN(C)CCC(C)(C)Nc1nc(-c2c[nH]nc2C(F)(F)F)nc2cnccc12

>  <Name>  (981) 
nan

>  <Pocket>  (981) 
nan

>  <ATP_Site>  (981) 
nan

>  <Peripheral>  (981) 
nan

>  <Num_H_Atoms_ProtBoundConf>  (981) 
nan

>  <Num_Resolved_Atoms>  (981) 
nan

>  <Num_Not_Resolved_Atoms>  (981) 
nan

$$$$
CHEMBL4476426
     RDKit          3D

  0  0  0  0  0  0  0  0  0  0999 V3000
M  V30 BEGIN CTAB
M  V30 COUNTS 34 37 0 0 0
M  V30 BEGIN ATOM
M  V30 1 C -0.251736 -4.068247 2.837847 0
M  V30 2 O 0.171173 -2.881730 2.228326 0
M  V30 3 C 1.363724 -2.270716 2.366199 0
M  V30 4 C 2.236394 -2.916099 3.208793 0
M  V30 5 C 3.497501 -2.415603 3.453491 0
M  V30 6 Br 4.755982 -3.240019 4.596455 0
M  V30 7 C 3.861177 -1.249948 2.830695 0
M  V30 8 C 2.965207 -0.625492 1.991511 0
M  V30 9 N 3.039261 0.482486 1.273761 0
M  V30 10 C 1.896660 0.697174 0.598514 0
M  V30 11 C 0.982936 -0.327495 0.870574 0
M  V30 12 C -0.337460 -0.379492 0.294090 0
M  V30 13 C -1.430639 -1.180037 0.329610 0
M  V30 14 N -2.401224 -0.655404 -0.475211 0
M  V30 15 C -1.887843 0.479925 -1.005992 0
M  V30 16 C -2.481203 1.439175 -1.930294 0
M  V30 17 C -3.782526 1.266760 -2.416525 0
M  V30 18 C -4.049306 2.328572 -3.258982 0
M  V30 19 Br -5.705341 2.582371 -4.198132 0
M  V30 20 C -2.930885 3.130576 -3.283731 0
M  V30 21 N -2.008843 2.573754 -2.479544 0
M  V30 22 O -0.690457 0.572017 -0.513622 0
M  V30 23 C 1.702224 -1.105685 1.732151 0
M  V30 24 H 0.422416 -4.926302 2.605558 0
M  V30 25 H -0.367122 -3.886877 3.922848 0
M  V30 26 H -1.240365 -4.363794 2.392239 0
M  V30 27 H 2.010061 -3.836554 3.728779 0
M  V30 28 H 4.840536 -0.822165 2.994183 0
M  V30 29 H 3.889948 1.084388 1.259436 0
M  V30 30 H 1.842565 1.596859 -0.037244 0
M  V30 31 H -1.573466 -2.056315 0.856552 0
M  V30 32 H -4.460742 0.459110 -2.183994 0
M  V30 33 H -2.842174 4.042589 -3.860060 0
M  V30 34 H -1.038040 2.928733 -2.270041 0
M  V30 END ATOM
M  V30 BEGIN BOND
M  V30 1 1 1 2
M  V30 2 1 2 3
M  V30 3 2 3 4
M  V30 4 1 4 5
M  V30 5 1 5 6
M  V30 6 2 5 7
M  V30 7 1 7 8
M  V30 8 1 8 9
M  V30 9 1 9 10
M  V30 10 2 10 11
M  V30 11 1 11 12
M  V30 12 2 12 13
M  V30 13 1 13 14
M  V30 14 2 14 15
M  V30 15 1 15 16
M  V30 16 2 16 17
M  V30 17 1 17 18
M  V30 18 1 18 19
M  V30 19 2 18 20
M  V30 20 1 20 21
M  V30 21 1 15 22
M  V30 22 1 11 23
M  V30 23 1 23 3
M  V30 24 2 23 8
M  V30 25 1 22 12
M  V30 26 1 21 16
M  V30 27 1 1 24
M  V30 28 1 1 25
M  V30 29 1 1 26
M  V30 30 1 4 27
M  V30 31 1 7 28
M  V30 32 1 9 29
M  V30 33 1 10 30
M  V30 34 1 13 31
M  V30 35 1 17 32
M  V30 36 1 20 33
M  V30 37 1 21 34
M  V30 END BOND
M  V30 END CTAB
M  END
>  <Dataset>  (982) 
ChEMBL_Kinases

>  <Ligand_Instance>  (982) 
nan

>  <PDB_ID>  (982) 
nan

>  <Standardized_SMILES>  (982) 
COc1cc(Br)cc2[nH]cc(-c3cnc(-c4cc(Br)c[nH]4)o3)c12

>  <Name>  (982) 
nan

>  <Pocket>  (982) 
nan

>  <ATP_Site>  (982) 
nan

>  <Peripheral>  (982) 
nan

>  <Num_H_Atoms_ProtBoundConf>  (982) 
nan

>  <Num_Resolved_Atoms>  (982) 
nan

>  <Num_Not_Resolved_Atoms>  (982) 
nan

$$$$
CHEMBL4476350
     RDKit          3D

  0  0  0  0  0  0  0  0  0  0999 V3000
M  V30 BEGIN CTAB
M  V30 COUNTS 38 40 0 0 0
M  V30 BEGIN ATOM
M  V30 1 C 0.292092 -2.186487 3.746183 0
M  V30 2 C 0.423903 -2.496305 2.260159 0
M  V30 3 C -0.563777 -3.675181 2.064414 0
M  V30 4 C 1.785643 -3.173025 2.070534 0
M  V30 5 N 1.907469 -3.468055 0.645213 0
M  V30 6 N 0.169033 -1.410937 1.379479 0
M  V30 7 C -0.046818 -0.296509 0.519288 0
M  V30 8 N 0.641310 0.854378 0.512967 0
M  V30 9 C 0.448234 1.900673 -0.281418 0
M  V30 10 C 1.268857 3.100826 -0.188710 0
M  V30 11 C 2.271910 3.601187 -1.006303 0
M  V30 12 N 2.720871 4.758233 -0.473608 0
M  V30 13 N 2.031820 4.989407 0.641723 0
M  V30 14 C 1.135557 4.009750 0.859359 0
M  V30 15 N -0.553669 1.709799 -1.135610 0
M  V30 16 C -1.322876 0.624144 -1.245401 0
M  V30 17 C -2.294843 0.691990 -2.222005 0
M  V30 18 N -3.094448 -0.403590 -2.356292 0
M  V30 19 C -2.908485 -1.480478 -1.551182 0
M  V30 20 C -1.920052 -1.487926 -0.593789 0
M  V30 21 C -1.069904 -0.425096 -0.391632 0
M  V30 22 H 0.905906 -2.917962 4.311241 0
M  V30 23 H -0.752702 -2.320963 4.070662 0
M  V30 24 H 0.580011 -1.163762 3.985786 0
M  V30 25 H -1.582967 -3.382560 2.345964 0
M  V30 26 H -0.457041 -4.123794 1.063870 0
M  V30 27 H -0.214167 -4.423749 2.804911 0
M  V30 28 H 2.618395 -2.585286 2.449314 0
M  V30 29 H 1.747760 -4.131436 2.614057 0
M  V30 30 H 2.530698 -2.776682 0.170025 0
M  V30 31 H 2.284745 -4.446417 0.496578 0
M  V30 32 H 0.993041 -1.024151 1.933198 0
M  V30 33 H 2.586121 3.082418 -1.912999 0
M  V30 34 H 2.187536 5.826773 1.246447 0
M  V30 35 H 0.451353 3.963045 1.700770 0
M  V30 36 H -2.421431 1.561506 -2.849379 0
M  V30 37 H -3.531591 -2.364712 -1.638153 0
M  V30 38 H -1.772777 -2.330198 0.036516 0
M  V30 END ATOM
M  V30 BEGIN BOND
M  V30 1 1 1 2
M  V30 2 1 2 3
M  V30 3 1 2 4
M  V30 4 1 4 5
M  V30 5 1 2 6
M  V30 6 1 6 7
M  V30 7 2 7 8
M  V30 8 1 8 9
M  V30 9 1 9 10
M  V30 10 1 10 11
M  V30 11 2 11 12
M  V30 12 1 12 13
M  V30 13 1 13 14
M  V30 14 2 9 15
M  V30 15 1 15 16
M  V30 16 2 16 17
M  V30 17 1 17 18
M  V30 18 2 18 19
M  V30 19 1 19 20
M  V30 20 2 20 21
M  V30 21 1 21 7
M  V30 22 2 14 10
M  V30 23 1 21 16
M  V30 24 1 1 22
M  V30 25 1 1 23
M  V30 26 1 1 24
M  V30 27 1 3 25
M  V30 28 1 3 26
M  V30 29 1 3 27
M  V30 30 1 4 28
M  V30 31 1 4 29
M  V30 32 1 5 30
M  V30 33 1 5 31
M  V30 34 1 6 32
M  V30 35 1 11 33
M  V30 36 1 13 34
M  V30 37 1 14 35
M  V30 38 1 17 36
M  V30 39 1 19 37
M  V30 40 1 20 38
M  V30 END BOND
M  V30 END CTAB
M  END
>  <Dataset>  (983) 
ChEMBL_Kinases

>  <Ligand_Instance>  (983) 
nan

>  <PDB_ID>  (983) 
nan

>  <Standardized_SMILES>  (983) 
CC(C)(CN)Nc1nc(-c2cn[nH]c2)nc2cnccc12

>  <Name>  (983) 
nan

>  <Pocket>  (983) 
nan

>  <ATP_Site>  (983) 
nan

>  <Peripheral>  (983) 
nan

>  <Num_H_Atoms_ProtBoundConf>  (983) 
nan

>  <Num_Resolved_Atoms>  (983) 
nan

>  <Num_Not_Resolved_Atoms>  (983) 
nan

$$$$
CHEMBL4649817
     RDKit          3D

  0  0  0  0  0  0  0  0  0  0999 V3000
M  V30 BEGIN CTAB
M  V30 COUNTS 59 63 0 0 0
M  V30 BEGIN ATOM
M  V30 1 C 4.160353 2.489257 5.286506 0
M  V30 2 C 4.536153 1.043598 5.231346 0
M  V30 3 C 3.519462 0.236256 6.015349 0
M  V30 4 C 4.661442 0.510969 3.822824 0
M  V30 5 N 3.529408 0.572091 3.001840 0
M  V30 6 C 2.402364 0.632950 2.184475 0
M  V30 7 N 1.648937 1.630073 1.753042 0
M  V30 8 C 0.594793 1.476621 0.944240 0
M  V30 9 C -0.098008 2.686737 0.575968 0
M  V30 10 C -1.194580 2.710495 -0.244473 0
M  V30 11 C -1.947713 3.757682 -0.683335 0
M  V30 12 C -1.512389 4.999648 -0.206167 0
M  V30 13 C -0.399496 5.065639 0.637629 0
M  V30 14 C 0.291733 3.942010 1.020618 0
M  V30 15 C 0.353513 0.188590 0.593894 0
M  V30 16 N 1.040206 -0.900506 0.963584 0
M  V30 17 C 0.864092 -2.195998 0.659228 0
M  V30 18 C -0.136879 -2.837199 -0.180211 0
M  V30 19 C -0.544005 -2.395862 -1.428441 0
M  V30 20 C -1.515610 -3.124821 -2.114118 0
M  V30 21 C -2.097604 -4.269954 -1.613965 0
M  V30 22 C -3.097431 -4.942319 -2.410330 0
M  V30 23 O -3.533146 -6.041656 -1.977634 0
M  V30 24 N -3.647639 -4.498921 -3.634214 0
M  V30 25 C -4.638107 -5.250533 -4.352803 0
M  V30 26 C -5.822792 -4.639365 -4.963157 0
M  V30 27 C -4.722610 -5.227149 -5.849515 0
M  V30 28 C -1.704359 -4.708966 -0.392269 0
M  V30 29 C -0.730662 -3.986070 0.305214 0
M  V30 30 C 1.855491 -2.850183 1.313737 0
M  V30 31 N 2.582926 -1.940353 1.978795 0
M  V30 32 C 2.090565 -0.678915 1.778312 0
M  V30 33 H 4.277218 2.818682 6.337528 0
M  V30 34 H 4.883148 3.060019 4.651419 0
M  V30 35 H 3.110119 2.593283 4.930764 0
M  V30 36 H 5.490067 0.934793 5.790596 0
M  V30 37 H 3.898776 -0.813518 6.011421 0
M  V30 38 H 2.527044 0.330489 5.529589 0
M  V30 39 H 3.482089 0.566901 7.074857 0
M  V30 40 H 5.020698 -0.570357 3.959392 0
M  V30 41 H 5.573036 0.983821 3.370600 0
M  V30 42 H 3.573258 1.631091 3.191331 0
M  V30 43 H -1.494355 1.706609 -0.590292 0
M  V30 44 H -2.792013 3.601364 -1.335865 0
M  V30 45 H -2.073376 5.880402 -0.521578 0
M  V30 46 H -0.071566 6.051734 1.002476 0
M  V30 47 H 1.155842 4.043863 1.682378 0
M  V30 48 H -0.494613 0.049067 -0.054530 0
M  V30 49 H -0.077056 -1.499721 -1.810195 0
M  V30 50 H -1.739552 -2.669886 -3.073045 0
M  V30 51 H -3.298312 -3.585775 -4.000393 0
M  V30 52 H -4.833453 -6.245381 -3.899241 0
M  V30 53 H -5.992282 -3.577055 -5.089042 0
M  V30 54 H -6.766312 -5.223069 -5.044406 0
M  V30 55 H -4.017145 -4.480720 -6.318348 0
M  V30 56 H -4.909530 -6.122909 -6.442884 0
M  V30 57 H -2.148684 -5.606426 0.019189 0
M  V30 58 H -0.483784 -4.420850 1.279186 0
M  V30 59 H 2.081202 -3.905231 1.342676 0
M  V30 END ATOM
M  V30 BEGIN BOND
M  V30 1 1 1 2
M  V30 2 1 2 3
M  V30 3 1 2 4
M  V30 4 1 4 5
M  V30 5 1 5 6
M  V30 6 2 6 7
M  V30 7 1 7 8
M  V30 8 1 8 9
M  V30 9 2 9 10
M  V30 10 1 10 11
M  V30 11 2 11 12
M  V30 12 1 12 13
M  V30 13 2 13 14
M  V30 14 2 8 15
M  V30 15 1 15 16
M  V30 16 1 16 17
M  V30 17 1 17 18
M  V30 18 2 18 19
M  V30 19 1 19 20
M  V30 20 2 20 21
M  V30 21 1 21 22
M  V30 22 2 22 23
M  V30 23 1 22 24
M  V30 24 1 24 25
M  V30 25 1 25 26
M  V30 26 1 26 27
M  V30 27 1 21 28
M  V30 28 2 28 29
M  V30 29 2 17 30
M  V30 30 1 30 31
M  V30 31 2 31 32
M  V30 32 1 32 6
M  V30 33 1 14 9
M  V30 34 1 32 16
M  V30 35 1 29 18
M  V30 36 1 27 25
M  V30 37 1 1 33
M  V30 38 1 1 34
M  V30 39 1 1 35
M  V30 40 1 2 36
M  V30 41 1 3 37
M  V30 42 1 3 38
M  V30 43 1 3 39
M  V30 44 1 4 40
M  V30 45 1 4 41
M  V30 46 1 5 42
M  V30 47 1 10 43
M  V30 48 1 11 44
M  V30 49 1 12 45
M  V30 50 1 13 46
M  V30 51 1 14 47
M  V30 52 1 15 48
M  V30 53 1 19 49
M  V30 54 1 20 50
M  V30 55 1 24 51
M  V30 56 1 25 52
M  V30 57 1 26 53
M  V30 58 1 26 54
M  V30 59 1 27 55
M  V30 60 1 27 56
M  V30 61 1 28 57
M  V30 62 1 29 58
M  V30 63 1 30 59
M  V30 END BOND
M  V30 END CTAB
M  END
>  <Dataset>  (984) 
ChEMBL_Kinases

>  <Ligand_Instance>  (984) 
nan

>  <PDB_ID>  (984) 
nan

>  <Standardized_SMILES>  (984) 
CC(C)CNc1nc(-c2ccccc2)cn2c(-c3ccc(C(=O)NC4CC4)cc3)cnc12

>  <Name>  (984) 
nan

>  <Pocket>  (984) 
nan

>  <ATP_Site>  (984) 
nan

>  <Peripheral>  (984) 
nan

>  <Num_H_Atoms_ProtBoundConf>  (984) 
nan

>  <Num_Resolved_Atoms>  (984) 
nan

>  <Num_Not_Resolved_Atoms>  (984) 
nan

$$$$
CHEMBL4649829
     RDKit          3D

  0  0  0  0  0  0  0  0  0  0999 V3000
M  V30 BEGIN CTAB
M  V30 COUNTS 37 40 0 0 0
M  V30 BEGIN ATOM
M  V30 1 C 0.069008 -2.792565 4.998724 0
M  V30 2 C -0.347566 -2.676186 3.687764 0
M  V30 3 C 0.574020 -3.302486 2.875780 0
M  V30 4 C 0.759128 -3.543926 1.453648 0
M  V30 5 C 1.040936 -4.853311 1.049053 0
M  V30 6 N 1.218687 -5.207289 -0.236267 0
M  V30 7 C 1.134901 -4.305065 -1.234843 0
M  V30 8 C 0.860152 -3.013838 -0.868146 0
M  V30 9 C 0.762618 -2.033692 -1.833127 0
M  V30 10 C 0.490102 -0.737131 -1.459569 0
M  V30 11 C 0.300789 -0.315857 -0.178364 0
M  V30 12 O 0.026356 0.950308 0.284088 0
M  V30 13 C -0.110532 2.076872 -0.538171 0 CFG=1
M  V30 14 C -1.446444 2.729860 -0.233996 0
M  V30 15 C -1.228639 4.171135 -0.559736 0
M  V30 16 N 0.185464 4.430336 -0.492600 0
M  V30 17 C 0.832529 3.196357 -0.130960 0
M  V30 18 C 0.400561 -1.314691 0.799421 0
M  V30 19 C 0.672697 -2.617904 0.439560 0
M  V30 20 C 1.546860 -3.791302 3.757309 0
M  V30 21 O 1.193994 -3.461096 4.977088 0
M  V30 22 H -0.458588 -2.394838 5.855503 0
M  V30 23 H -1.202950 -2.217601 3.259306 0
M  V30 24 H 1.122055 -5.634167 1.814305 0
M  V30 25 H 1.280791 -4.604719 -2.272511 0
M  V30 26 H 0.899086 -2.277830 -2.882678 0
M  V30 27 H 0.421656 -0.002461 -2.237419 0
M  V30 28 H 0.022860 1.851673 -1.591744 0
M  V30 29 H -1.655935 2.599371 0.844542 0
M  V30 30 H -2.258075 2.263348 -0.820448 0
M  V30 31 H -1.693619 4.441474 -1.535371 0
M  V30 32 H -1.799915 4.764678 0.205372 0
M  V30 33 H 0.468940 4.817690 -1.415087 0
M  V30 34 H 0.977181 3.110615 0.958659 0
M  V30 35 H 1.801191 3.154472 -0.678210 0
M  V30 36 H 0.269691 -1.060281 1.821542 0
M  V30 37 H 2.467656 -4.356378 3.560555 0
M  V30 END ATOM
M  V30 BEGIN BOND
M  V30 1 2 1 2
M  V30 2 1 2 3
M  V30 3 1 3 4
M  V30 4 2 4 5
M  V30 5 1 5 6
M  V30 6 2 6 7
M  V30 7 1 7 8
M  V30 8 2 8 9
M  V30 9 1 9 10
M  V30 10 2 10 11
M  V30 11 1 11 12
M  V30 12 1 12 13
M  V30 13 1 13 14
M  V30 14 1 14 15
M  V30 15 1 15 16
M  V30 16 1 16 17
M  V30 17 1 11 18
M  V30 18 2 18 19
M  V30 19 2 3 20
M  V30 20 1 20 21
M  V30 21 1 21 1
M  V30 22 1 19 4
M  V30 23 1 19 8
M  V30 24 1 17 13
M  V30 25 1 1 22
M  V30 26 1 2 23
M  V30 27 1 5 24
M  V30 28 1 7 25
M  V30 29 1 9 26
M  V30 30 1 10 27
M  V30 31 1 13 28 CFG=3
M  V30 32 1 14 29
M  V30 33 1 14 30
M  V30 34 1 15 31
M  V30 35 1 15 32
M  V30 36 1 16 33
M  V30 37 1 17 34
M  V30 38 1 17 35
M  V30 39 1 18 36
M  V30 40 1 20 37
M  V30 END BOND
M  V30 END CTAB
M  END
>  <Dataset>  (985) 
ChEMBL_Kinases

>  <Ligand_Instance>  (985) 
nan

>  <PDB_ID>  (985) 
nan

>  <Standardized_SMILES>  (985) 
c1cc(-c2cncc3ccc(O[C@H]4CCNC4)cc23)co1

>  <Name>  (985) 
nan

>  <Pocket>  (985) 
nan

>  <ATP_Site>  (985) 
nan

>  <Peripheral>  (985) 
nan

>  <Num_H_Atoms_ProtBoundConf>  (985) 
nan

>  <Num_Resolved_Atoms>  (985) 
nan

>  <Num_Not_Resolved_Atoms>  (985) 
nan

$$$$
CHEMBL4476212
     RDKit          3D

  0  0  0  0  0  0  0  0  0  0999 V3000
M  V30 BEGIN CTAB
M  V30 COUNTS 38 41 0 0 0
M  V30 BEGIN ATOM
M  V30 1 F 0.768422 -3.026654 6.076248 0
M  V30 2 C 1.033651 -2.864156 4.752172 0
M  V30 3 C 1.166244 -3.993869 4.013724 0
M  V30 4 C 1.442544 -3.745526 2.663998 0
M  V30 5 C 1.574496 -2.465450 2.106559 0
M  V30 6 O 1.831490 -2.263735 0.863468 0
M  V30 7 C 2.075993 -1.991529 -0.358637 0
M  V30 8 N 1.888532 -0.660639 -0.534394 0
M  V30 9 C 2.049763 0.002426 -1.703849 0
M  V30 10 N 1.815438 1.424964 -1.866792 0
M  V30 11 C 0.560518 1.545732 -1.157695 0
M  V30 12 C -0.622937 1.093866 -1.768959 0
M  V30 13 C -1.826693 1.173953 -1.042476 0
M  V30 14 C -1.811807 1.688113 0.237278 0
M  V30 15 C -3.087718 1.742933 0.959585 0
M  V30 16 N -3.308794 2.155455 2.243531 0
M  V30 17 N -4.594789 2.034073 2.510612 0
M  V30 18 N -5.221420 1.552544 1.436373 0
M  V30 19 N -4.295433 1.379407 0.499304 0
M  V30 20 C -0.671799 2.143936 0.879449 0
M  V30 21 C 0.485665 2.043427 0.119718 0
M  V30 22 N 2.429710 -0.744773 -2.765184 0
M  V30 23 C 2.635774 -2.086522 -2.663393 0
M  V30 24 C 2.454256 -2.711248 -1.443123 0
M  V30 25 Cl 2.671791 -4.417193 -1.105894 0
M  V30 26 C 1.411379 -1.396005 2.988895 0
M  V30 27 C 1.134177 -1.563674 4.345188 0
M  V30 28 H 1.076717 -5.001401 4.388146 0
M  V30 29 H 1.575932 -4.558453 1.971198 0
M  V30 30 H 2.456528 2.076847 -2.378193 0
M  V30 31 H -0.575594 0.700392 -2.779101 0
M  V30 32 H -2.720955 0.815182 -1.528147 0
M  V30 33 H -4.545394 1.007459 -0.443773 0
M  V30 34 H -0.671955 2.540472 1.882073 0
M  V30 35 H 1.439110 2.378545 0.537010 0
M  V30 36 H 2.938511 -2.729153 -3.469997 0
M  V30 37 H 1.503143 -0.379033 2.604668 0
M  V30 38 H 1.010223 -0.721842 5.012590 0
M  V30 END ATOM
M  V30 BEGIN BOND
M  V30 1 1 1 2
M  V30 2 2 2 3
M  V30 3 1 3 4
M  V30 4 2 4 5
M  V30 5 1 5 6
M  V30 6 1 6 7
M  V30 7 2 7 8
M  V30 8 1 8 9
M  V30 9 1 9 10
M  V30 10 1 10 11
M  V30 11 2 11 12
M  V30 12 1 12 13
M  V30 13 2 13 14
M  V30 14 1 14 15
M  V30 15 2 15 16
M  V30 16 1 16 17
M  V30 17 2 17 18
M  V30 18 1 18 19
M  V30 19 1 14 20
M  V30 20 2 20 21
M  V30 21 2 9 22
M  V30 22 1 22 23
M  V30 23 2 23 24
M  V30 24 1 24 25
M  V30 25 1 5 26
M  V30 26 2 26 27
M  V30 27 1 27 2
M  V30 28 1 24 7
M  V30 29 1 21 11
M  V30 30 1 19 15
M  V30 31 1 3 28
M  V30 32 1 4 29
M  V30 33 1 10 30
M  V30 34 1 12 31
M  V30 35 1 13 32
M  V30 36 1 19 33
M  V30 37 1 20 34
M  V30 38 1 21 35
M  V30 39 1 23 36
M  V30 40 1 26 37
M  V30 41 1 27 38
M  V30 END BOND
M  V30 END CTAB
M  END
>  <Dataset>  (986) 
ChEMBL_Kinases

>  <Ligand_Instance>  (986) 
nan

>  <PDB_ID>  (986) 
nan

>  <Standardized_SMILES>  (986) 
Fc1ccc(Oc2nc(Nc3ccc(-c4nnn[nH]4)cc3)ncc2Cl)cc1

>  <Name>  (986) 
nan

>  <Pocket>  (986) 
nan

>  <ATP_Site>  (986) 
nan

>  <Peripheral>  (986) 
nan

>  <Num_H_Atoms_ProtBoundConf>  (986) 
nan

>  <Num_Resolved_Atoms>  (986) 
nan

>  <Num_Not_Resolved_Atoms>  (986) 
nan

$$$$
CHEMBL4476186
     RDKit          3D

  0  0  0  0  0  0  0  0  0  0999 V3000
M  V30 BEGIN CTAB
M  V30 COUNTS 55 59 0 0 0
M  V30 BEGIN ATOM
M  V30 1 C 3.021534 -3.431819 3.046958 0
M  V30 2 N 3.684026 -2.499402 2.155654 0
M  V30 3 C 2.805195 -1.423742 1.855507 0
M  V30 4 O 1.682461 -1.543894 2.430129 0
M  V30 5 C 3.143112 -0.291311 0.979686 0
M  V30 6 C 4.364665 -0.168878 0.361899 0
M  V30 7 C 4.614904 0.932930 -0.456513 0
M  V30 8 C 3.585914 1.843875 -0.587777 0
M  V30 9 N 3.591348 2.981186 -1.320105 0
M  V30 10 N 2.430672 3.571314 -1.186743 0
M  V30 11 C 1.601577 2.882747 -0.379024 0
M  V30 12 C 0.234483 3.143046 0.058795 0
M  V30 13 C -0.158925 4.400068 0.499029 0
M  V30 14 C -1.466931 4.659044 0.918632 0
M  V30 15 C -2.414896 3.630903 0.898719 0
M  V30 16 C -2.045777 2.374098 0.465028 0
M  V30 17 C -3.069296 1.337346 0.463729 0
M  V30 18 O -4.215160 1.652158 0.857501 0
M  V30 19 N -2.827958 0.002619 0.041279 0
M  V30 20 C -3.807439 -1.051585 0.023644 0
M  V30 21 C -3.270947 -2.345802 -0.467963 0
M  V30 22 C -3.564539 -2.797735 -1.748532 0
M  V30 23 C -3.110797 -3.991350 -2.299122 0
M  V30 24 C -2.298791 -4.768098 -1.466847 0
M  V30 25 C -1.970407 -4.377945 -0.188832 0
M  V30 26 C -1.164466 -5.198386 0.570497 0
M  V30 27 C -0.823282 -4.828504 1.850661 0
M  V30 28 C -1.319065 -3.634380 2.305182 0
M  V30 29 C -2.132312 -2.789024 1.562300 0
M  V30 30 C -2.464333 -3.178763 0.276612 0
M  V30 31 C -0.740880 2.185763 0.065136 0
M  V30 32 C 2.342613 1.771390 0.007443 0
M  V30 33 C 2.156695 0.657220 0.805571 0
M  V30 34 H 3.660950 -4.326205 3.186758 0
M  V30 35 H 2.783985 -2.912848 4.010376 0
M  V30 36 H 2.059076 -3.785447 2.647404 0
M  V30 37 H 4.648435 -2.484477 1.718832 0
M  V30 38 H 5.126959 -0.918444 0.507208 0
M  V30 39 H 5.555751 1.033614 -0.936514 0
M  V30 40 H 4.335740 3.411885 -1.924710 0
M  V30 41 H 0.572821 5.215476 0.520148 0
M  V30 42 H -1.767778 5.651236 1.263607 0
M  V30 43 H -3.414050 3.887700 1.234916 0
M  V30 44 H -1.876484 -0.267419 -0.288029 0
M  V30 45 H -4.166916 -1.183840 1.059411 0
M  V30 46 H -4.641840 -0.757213 -0.656294 0
M  V30 47 H -4.208064 -2.135968 -2.346148 0
M  V30 48 H -3.385554 -4.268410 -3.302761 0
M  V30 49 H -1.943695 -5.708068 -1.905589 0
M  V30 50 H -0.810432 -6.125838 0.146333 0
M  V30 51 H -0.197645 -5.474587 2.428009 0
M  V30 52 H -1.021808 -3.379719 3.330520 0
M  V30 53 H -2.483829 -1.866272 1.985981 0
M  V30 54 H -0.474249 1.202517 -0.270755 0
M  V30 55 H 1.200708 0.546302 1.300414 0
M  V30 END ATOM
M  V30 BEGIN BOND
M  V30 1 1 1 2
M  V30 2 1 2 3
M  V30 3 2 3 4
M  V30 4 1 3 5
M  V30 5 2 5 6
M  V30 6 1 6 7
M  V30 7 2 7 8
M  V30 8 1 8 9
M  V30 9 1 9 10
M  V30 10 2 10 11
M  V30 11 1 11 12
M  V30 12 2 12 13
M  V30 13 1 13 14
M  V30 14 2 14 15
M  V30 15 1 15 16
M  V30 16 1 16 17
M  V30 17 2 17 18
M  V30 18 1 17 19
M  V30 19 1 19 20
M  V30 20 1 20 21
M  V30 21 2 21 22
M  V30 22 1 22 23
M  V30 23 2 23 24
M  V30 24 1 24 25
M  V30 25 2 25 26
M  V30 26 1 26 27
M  V30 27 2 27 28
M  V30 28 1 28 29
M  V30 29 2 29 30
M  V30 30 2 16 31
M  V30 31 1 11 32
M  V30 32 2 32 33
M  V30 33 1 33 5
M  V30 34 1 32 8
M  V30 35 1 31 12
M  V30 36 1 30 21
M  V30 37 1 30 25
M  V30 38 1 1 34
M  V30 39 1 1 35
M  V30 40 1 1 36
M  V30 41 1 2 37
M  V30 42 1 6 38
M  V30 43 1 7 39
M  V30 44 1 9 40
M  V30 45 1 13 41
M  V30 46 1 14 42
M  V30 47 1 15 43
M  V30 48 1 19 44
M  V30 49 1 20 45
M  V30 50 1 20 46
M  V30 51 1 22 47
M  V30 52 1 23 48
M  V30 53 1 24 49
M  V30 54 1 26 50
M  V30 55 1 27 51
M  V30 56 1 28 52
M  V30 57 1 29 53
M  V30 58 1 31 54
M  V30 59 1 33 55
M  V30 END BOND
M  V30 END CTAB
M  END
>  <Dataset>  (987) 
ChEMBL_Kinases

>  <Ligand_Instance>  (987) 
nan

>  <PDB_ID>  (987) 
nan

>  <Standardized_SMILES>  (987) 
CNC(=O)c1ccc2[nH]nc(-c3cccc(C(=O)NCc4cccc5ccccc45)c3)c2c1

>  <Name>  (987) 
nan

>  <Pocket>  (987) 
nan

>  <ATP_Site>  (987) 
nan

>  <Peripheral>  (987) 
nan

>  <Num_H_Atoms_ProtBoundConf>  (987) 
nan

>  <Num_Resolved_Atoms>  (987) 
nan

>  <Num_Not_Resolved_Atoms>  (987) 
nan

$$$$
CHEMBL4476155
     RDKit          3D

  0  0  0  0  0  0  0  0  0  0999 V3000
M  V30 BEGIN CTAB
M  V30 COUNTS 50 54 0 0 0
M  V30 BEGIN ATOM
M  V30 1 C -2.230222 -5.723315 3.927266 0
M  V30 2 C -2.097057 -4.584779 2.937890 0 CFG=1
M  V30 3 C -0.761649 -4.721108 2.196419 0
M  V30 4 N -0.686438 -3.518231 1.392442 0
M  V30 5 C 0.275208 -2.479569 1.514391 0
M  V30 6 C 1.287665 -2.516108 2.447879 0
M  V30 7 C 2.169615 -1.434079 2.470151 0
M  V30 8 C 2.022900 -0.378176 1.588951 0
M  V30 9 N 2.718968 0.762401 1.403689 0
M  V30 10 C 2.121296 1.445940 0.382780 0
M  V30 11 C 2.662808 2.732856 -0.044683 0
M  V30 12 C 1.755306 3.773896 0.146503 0
M  V30 13 C 2.063613 5.067256 -0.188654 0
M  V30 14 C 3.312680 5.356895 -0.734389 0
M  V30 15 C 4.206987 4.322468 -0.921429 0
M  V30 16 C 3.901524 3.018300 -0.585676 0
M  V30 17 C 1.040342 0.703297 -0.059216 0
M  V30 18 C 0.174359 1.138064 -1.143472 0
M  V30 19 C -1.158449 1.319600 -0.794342 0
M  V30 20 C -2.083478 1.734654 -1.748018 0
M  V30 21 N -1.673121 1.958740 -3.013730 0
M  V30 22 C -0.380380 1.789851 -3.382126 0
M  V30 23 C 0.571153 1.377767 -2.462765 0
M  V30 24 N 1.010190 -0.407811 0.702235 0
M  V30 25 N 0.174891 -1.433715 0.681841 0
M  V30 26 C -1.739345 -3.469374 0.399026 0
M  V30 27 C -3.096452 -3.790267 0.892419 0
M  V30 28 N -3.199467 -4.627673 2.040577 0
M  V30 29 H -1.273882 -5.796732 4.518201 0
M  V30 30 H -2.450677 -6.695086 3.444138 0
M  V30 31 H -3.005402 -5.438939 4.694138 0
M  V30 32 H -2.073501 -3.655357 3.563556 0
M  V30 33 H -0.866905 -5.591676 1.519798 0
M  V30 34 H 0.022679 -4.829763 2.941642 0
M  V30 35 H 1.394153 -3.345646 3.132419 0
M  V30 36 H 2.973412 -1.462875 3.210898 0
M  V30 37 H 0.743618 3.684212 0.564562 0
M  V30 38 H 1.386775 5.913807 -0.057524 0
M  V30 39 H 3.637409 6.359281 -1.028406 0
M  V30 40 H 5.192324 4.480450 -1.340447 0
M  V30 41 H 4.527477 2.153397 -0.693542 0
M  V30 42 H -1.604690 1.173392 0.179038 0
M  V30 43 H -3.127932 1.916633 -1.638903 0
M  V30 44 H -0.018517 1.959522 -4.382161 0
M  V30 45 H 1.614574 1.207998 -2.622656 0
M  V30 46 H -1.728201 -2.441787 -0.039554 0
M  V30 47 H -1.440563 -4.135682 -0.460004 0
M  V30 48 H -3.697323 -2.845770 0.976066 0
M  V30 49 H -3.622523 -4.346943 0.060528 0
M  V30 50 H -4.044229 -4.321657 2.581517 0
M  V30 END ATOM
M  V30 BEGIN BOND
M  V30 1 1 1 2
M  V30 2 1 2 3
M  V30 3 1 3 4
M  V30 4 1 4 5
M  V30 5 1 5 6
M  V30 6 2 6 7
M  V30 7 1 7 8
M  V30 8 2 8 9
M  V30 9 1 9 10
M  V30 10 1 10 11
M  V30 11 2 11 12
M  V30 12 1 12 13
M  V30 13 2 13 14
M  V30 14 1 14 15
M  V30 15 2 15 16
M  V30 16 2 10 17
M  V30 17 1 17 18
M  V30 18 2 18 19
M  V30 19 1 19 20
M  V30 20 2 20 21
M  V30 21 1 21 22
M  V30 22 2 22 23
M  V30 23 1 17 24
M  V30 24 1 24 25
M  V30 25 1 4 26
M  V30 26 1 26 27
M  V30 27 1 27 28
M  V30 28 1 28 2
M  V30 29 2 25 5
M  V30 30 1 24 8
M  V30 31 1 16 11
M  V30 32 1 23 18
M  V30 33 1 1 29
M  V30 34 1 1 30
M  V30 35 1 1 31
M  V30 36 1 2 32 CFG=1
M  V30 37 1 3 33
M  V30 38 1 3 34
M  V30 39 1 6 35
M  V30 40 1 7 36
M  V30 41 1 12 37
M  V30 42 1 13 38
M  V30 43 1 14 39
M  V30 44 1 15 40
M  V30 45 1 16 41
M  V30 46 1 19 42
M  V30 47 1 20 43
M  V30 48 1 22 44
M  V30 49 1 23 45
M  V30 50 1 26 46
M  V30 51 1 26 47
M  V30 52 1 27 48
M  V30 53 1 27 49
M  V30 54 1 28 50
M  V30 END BOND
M  V30 END CTAB
M  END
>  <Dataset>  (988) 
ChEMBL_Kinases

>  <Ligand_Instance>  (988) 
nan

>  <PDB_ID>  (988) 
nan

>  <Standardized_SMILES>  (988) 
C[C@H]1CN(c2ccc3nc(-c4ccccc4)c(-c4ccncc4)n3n2)CCN1

>  <Name>  (988) 
nan

>  <Pocket>  (988) 
nan

>  <ATP_Site>  (988) 
nan

>  <Peripheral>  (988) 
nan

>  <Num_H_Atoms_ProtBoundConf>  (988) 
nan

>  <Num_Resolved_Atoms>  (988) 
nan

>  <Num_Not_Resolved_Atoms>  (988) 
nan

$$$$
CHEMBL4476081
     RDKit          3D

  0  0  0  0  0  0  0  0  0  0999 V3000
M  V30 BEGIN CTAB
M  V30 COUNTS 60 63 0 0 0
M  V30 BEGIN ATOM
M  V30 1 C 7.649858 -0.024643 4.655310 0
M  V30 2 N 6.994616 -0.635839 3.522278 0
M  V30 3 C 7.459916 -1.900516 2.988657 0
M  V30 4 C 5.877481 0.014634 2.924475 0
M  V30 5 C 5.442532 1.231740 3.454213 0
M  V30 6 C 4.363234 1.892275 2.902419 0
M  V30 7 C 3.732519 1.314921 1.817784 0
M  V30 8 C 2.562160 1.856889 1.083325 0
M  V30 9 O 1.991222 1.321892 0.085112 0
M  V30 10 N 1.909052 3.096996 1.423830 0
M  V30 11 C 0.842308 3.219670 0.457404 0
M  V30 12 C 1.147919 3.881644 -0.709587 0
M  V30 13 C 0.195045 4.047548 -1.696864 0
M  V30 14 C -1.056196 3.517799 -1.442485 0
M  V30 15 C -1.346349 2.857713 -0.268891 0
M  V30 16 N -2.655247 2.305302 -0.013020 0
M  V30 17 C -2.649887 0.971015 -0.500370 0
M  V30 18 O -2.302162 -0.132422 -1.023095 0
M  V30 19 C -3.852787 0.077110 -0.406014 0
M  V30 20 O -3.573785 -1.189587 -0.964547 0
M  V30 21 C -4.450099 -2.244354 -1.040151 0
M  V30 22 C -5.744727 -2.224663 -0.576935 0
M  V30 23 C -6.553947 -3.357519 -0.704408 0
M  V30 24 C -5.988163 -4.466857 -1.307718 0
M  V30 25 C -4.697595 -4.519233 -1.781502 0
M  V30 26 C -3.903977 -3.379084 -1.645832 0
M  V30 27 C -4.104409 -5.717058 -2.429523 0
M  V30 28 C -4.797011 -6.931578 -1.878182 0
M  V30 29 C -6.274652 -6.772687 -2.037799 0
M  V30 30 O -6.986404 -7.595122 -2.669095 0
M  V30 31 N -6.844118 -5.602876 -1.415604 0
M  V30 32 C -0.406546 2.688376 0.716758 0
M  V30 33 C 4.167195 0.112001 1.298893 0
M  V30 34 C 5.242751 -0.571675 1.828775 0
M  V30 35 H 8.326780 -0.786448 5.113003 0
M  V30 36 H 6.930103 0.274882 5.436191 0
M  V30 37 H 8.192314 0.907731 4.384883 0
M  V30 38 H 6.621750 -2.619238 2.843789 0
M  V30 39 H 8.220918 -2.312329 3.675002 0
M  V30 40 H 7.985318 -1.741151 2.011453 0
M  V30 41 H 5.914894 1.704343 4.298595 0
M  V30 42 H 3.942690 2.832837 3.227544 0
M  V30 43 H 2.305258 3.636956 2.251082 0
M  V30 44 H 2.119815 4.310280 -0.943138 0
M  V30 45 H 0.376803 4.554905 -2.627033 0
M  V30 46 H -1.887287 3.583656 -2.139634 0
M  V30 47 H -3.552196 2.586196 0.401624 0
M  V30 48 H -4.225981 -0.034608 0.621603 0
M  V30 49 H -4.708229 0.488895 -0.999037 0
M  V30 50 H -6.121395 -1.312291 -0.111762 0
M  V30 51 H -7.581849 -3.352564 -0.340152 0
M  V30 52 H -2.884093 -3.429731 -2.024124 0
M  V30 53 H -4.300525 -5.706539 -3.532154 0
M  V30 54 H -3.015041 -5.771103 -2.233788 0
M  V30 55 H -4.502725 -7.026294 -0.800078 0
M  V30 56 H -4.516264 -7.870769 -2.374867 0
M  V30 57 H -7.851977 -5.666753 -1.083783 0
M  V30 58 H -0.564581 2.183152 1.658150 0
M  V30 59 H 3.725602 -0.410103 0.446339 0
M  V30 60 H 5.616826 -1.510686 1.457555 0
M  V30 END ATOM
M  V30 BEGIN BOND
M  V30 1 1 1 2
M  V30 2 1 2 3
M  V30 3 1 2 4
M  V30 4 2 4 5
M  V30 5 1 5 6
M  V30 6 2 6 7
M  V30 7 1 7 8
M  V30 8 2 8 9
M  V30 9 1 8 10
M  V30 10 1 10 11
M  V30 11 2 11 12
M  V30 12 1 12 13
M  V30 13 2 13 14
M  V30 14 1 14 15
M  V30 15 1 15 16
M  V30 16 1 16 17
M  V30 17 2 17 18
M  V30 18 1 17 19
M  V30 19 1 19 20
M  V30 20 1 20 21
M  V30 21 2 21 22
M  V30 22 1 22 23
M  V30 23 2 23 24
M  V30 24 1 24 25
M  V30 25 2 25 26
M  V30 26 1 25 27
M  V30 27 1 27 28
M  V30 28 1 28 29
M  V30 29 2 29 30
M  V30 30 1 29 31
M  V30 31 2 15 32
M  V30 32 1 7 33
M  V30 33 2 33 34
M  V30 34 1 34 4
M  V30 35 1 32 11
M  V30 36 1 26 21
M  V30 37 1 31 24
M  V30 38 1 1 35
M  V30 39 1 1 36
M  V30 40 1 1 37
M  V30 41 1 3 38
M  V30 42 1 3 39
M  V30 43 1 3 40
M  V30 44 1 5 41
M  V30 45 1 6 42
M  V30 46 1 10 43
M  V30 47 1 12 44
M  V30 48 1 13 45
M  V30 49 1 14 46
M  V30 50 1 16 47
M  V30 51 1 19 48
M  V30 52 1 19 49
M  V30 53 1 22 50
M  V30 54 1 23 51
M  V30 55 1 26 52
M  V30 56 1 27 53
M  V30 57 1 27 54
M  V30 58 1 28 55
M  V30 59 1 28 56
M  V30 60 1 31 57
M  V30 61 1 32 58
M  V30 62 1 33 59
M  V30 63 1 34 60
M  V30 END BOND
M  V30 END CTAB
M  END
>  <Dataset>  (989) 
ChEMBL_Kinases

>  <Ligand_Instance>  (989) 
nan

>  <PDB_ID>  (989) 
nan

>  <Standardized_SMILES>  (989) 
CN(C)c1ccc(C(=O)Nc2cccc(NC(=O)COc3ccc4c(c3)CCC(=O)N4)c2)cc1

>  <Name>  (989) 
nan

>  <Pocket>  (989) 
nan

>  <ATP_Site>  (989) 
nan

>  <Peripheral>  (989) 
nan

>  <Num_H_Atoms_ProtBoundConf>  (989) 
nan

>  <Num_Resolved_Atoms>  (989) 
nan

>  <Num_Not_Resolved_Atoms>  (989) 
nan

$$$$
CHEMBL4476076
     RDKit          3D

  0  0  0  0  0  0  0  0  0  0999 V3000
M  V30 BEGIN CTAB
M  V30 COUNTS 63 67 0 0 0
M  V30 BEGIN ATOM
M  V30 1 C 0.845968 -3.520387 3.349715 0
M  V30 2 C 0.875962 -3.526152 1.846561 0
M  V30 3 C 1.848893 -2.673114 1.376755 0
M  V30 4 C 2.071678 -2.511473 0.039288 0
M  V30 5 N 2.974530 -1.753754 -0.730656 0
M  V30 6 C 2.637704 -0.461226 -0.966409 0
M  V30 7 O 1.561537 0.077611 -0.503034 0
M  V30 8 C 2.700411 0.846527 -1.447334 0
M  V30 9 C 3.884315 0.393934 -2.252106 0
M  V30 10 C 4.718092 1.126425 -3.166714 0
M  V30 11 C 4.423911 2.485937 -3.378955 0
M  V30 12 N 3.363015 2.960379 -2.679021 0
M  V30 13 C 2.715850 4.235035 -2.578234 0
M  V30 14 C 3.200180 5.270915 -1.789057 0
M  V30 15 C 2.431832 6.438445 -1.810847 0
M  V30 16 C 1.273098 6.602660 -2.542354 0
M  V30 17 F 0.675831 7.817093 -2.425510 0
M  V30 18 C 0.831996 5.542280 -3.312236 0
M  V30 19 C 1.562327 4.362166 -3.322392 0
M  V30 20 C 2.760471 2.098138 -1.907640 0
M  V30 21 O 1.725387 2.344844 -1.150766 0
M  V30 22 C 1.271647 -3.248969 -0.848994 0
M  V30 23 C 0.280155 -4.119522 -0.376573 0
M  V30 24 C -0.576704 -4.938679 -1.277711 0
M  V30 25 C 0.069680 -4.268368 0.976284 0
M  V30 26 O -0.861484 -5.075861 1.607299 0
M  V30 27 C -2.183218 -4.744526 1.839731 0
M  V30 28 C -3.158699 -5.215626 0.954221 0
M  V30 29 C -4.517275 -4.989465 1.020839 0
M  V30 30 N -4.960897 -4.222176 2.063723 0
M  V30 31 C -4.052738 -3.734601 2.960080 0
M  V30 32 N -4.587441 -2.933443 4.010520 0
M  V30 33 C -4.558535 -1.651446 3.412669 0
M  V30 34 O -4.137051 -1.415459 2.231227 0
M  V30 35 C -4.940718 -0.258178 3.827134 0
M  V30 36 C -4.561506 0.106991 5.207665 0
M  V30 37 C -6.009779 -0.004826 4.790631 0
M  V30 38 C -2.702969 -3.982368 2.861045 0
M  V30 39 H 0.298176 -2.665376 3.765639 0
M  V30 40 H 0.239963 -4.423328 3.619155 0
M  V30 41 H 1.860161 -3.609106 3.746261 0
M  V30 42 H 2.529852 -2.051703 1.941298 0
M  V30 43 H 3.882069 -1.839172 -1.218830 0
M  V30 44 H 4.532495 -0.524866 -2.474900 0
M  V30 45 H 5.591974 1.014026 -3.835521 0
M  V30 46 H 4.802075 3.299428 -3.953192 0
M  V30 47 H 4.093921 5.133345 -1.228925 0
M  V30 48 H 2.826156 7.241206 -1.185760 0
M  V30 49 H -0.075528 5.733595 -3.857782 0
M  V30 50 H 1.185648 3.566756 -3.931174 0
M  V30 51 H 1.295008 -3.258282 -1.952294 0
M  V30 52 H -0.778670 -5.939933 -0.837946 0
M  V30 53 H 0.093137 -5.156532 -2.166711 0
M  V30 54 H -1.448580 -4.356509 -1.559712 0
M  V30 55 H -2.953701 -5.841055 0.082093 0
M  V30 56 H -5.268026 -5.352869 0.338239 0
M  V30 57 H -4.977450 -2.803841 4.961665 0
M  V30 58 H -4.767280 0.492892 3.029286 0
M  V30 59 H -4.111602 1.095542 5.340051 0
M  V30 60 H -4.233252 -0.678888 5.910133 0
M  V30 61 H -6.542119 0.951644 4.754563 0
M  V30 62 H -6.618486 -0.832051 5.243042 0
M  V30 63 H -2.006857 -3.587254 3.582768 0
M  V30 END ATOM
M  V30 BEGIN BOND
M  V30 1 1 1 2
M  V30 2 2 2 3
M  V30 3 1 3 4
M  V30 4 1 4 5
M  V30 5 1 5 6
M  V30 6 2 6 7
M  V30 7 1 6 8
M  V30 8 2 8 9
M  V30 9 1 9 10
M  V30 10 2 10 11
M  V30 11 1 11 12
M  V30 12 1 12 13
M  V30 13 2 13 14
M  V30 14 1 14 15
M  V30 15 2 15 16
M  V30 16 1 16 17
M  V30 17 1 16 18
M  V30 18 2 18 19
M  V30 19 1 12 20
M  V30 20 2 20 21
M  V30 21 2 4 22
M  V30 22 1 22 23
M  V30 23 1 23 24
M  V30 24 2 23 25
M  V30 25 1 25 26
M  V30 26 1 26 27
M  V30 27 2 27 28
M  V30 28 1 28 29
M  V30 29 2 29 30
M  V30 30 1 30 31
M  V30 31 1 31 32
M  V30 32 1 32 33
M  V30 33 2 33 34
M  V30 34 1 33 35
M  V30 35 1 35 36
M  V30 36 1 36 37
M  V30 37 2 31 38
M  V30 38 1 25 2
M  V30 39 1 38 27
M  V30 40 1 20 8
M  V30 41 1 37 35
M  V30 42 1 19 13
M  V30 43 1 1 39
M  V30 44 1 1 40
M  V30 45 1 1 41
M  V30 46 1 3 42
M  V30 47 1 5 43
M  V30 48 1 9 44
M  V30 49 1 10 45
M  V30 50 1 11 46
M  V30 51 1 14 47
M  V30 52 1 15 48
M  V30 53 1 18 49
M  V30 54 1 19 50
M  V30 55 1 22 51
M  V30 56 1 24 52
M  V30 57 1 24 53
M  V30 58 1 24 54
M  V30 59 1 28 55
M  V30 60 1 29 56
M  V30 61 1 32 57
M  V30 62 1 35 58
M  V30 63 1 36 59
M  V30 64 1 36 60
M  V30 65 1 37 61
M  V30 66 1 37 62
M  V30 67 1 38 63
M  V30 END BOND
M  V30 END CTAB
M  END
>  <Dataset>  (990) 
ChEMBL_Kinases

>  <Ligand_Instance>  (990) 
nan

>  <PDB_ID>  (990) 
nan

>  <Standardized_SMILES>  (990) 
Cc1cc(NC(=O)c2cccn(-c3ccc(F)cc3)c2=O)cc(C)c1Oc1ccnc(NC(=O)C2CC2)c1

>  <Name>  (990) 
nan

>  <Pocket>  (990) 
nan

>  <ATP_Site>  (990) 
nan

>  <Peripheral>  (990) 
nan

>  <Num_H_Atoms_ProtBoundConf>  (990) 
nan

>  <Num_Resolved_Atoms>  (990) 
nan

>  <Num_Not_Resolved_Atoms>  (990) 
nan

$$$$
CHEMBL4475590
     RDKit          3D

  0  0  0  0  0  0  0  0  0  0999 V3000
M  V30 BEGIN CTAB
M  V30 COUNTS 60 63 0 0 0
M  V30 BEGIN ATOM
M  V30 1 C 6.188844 -1.505702 7.085018 0
M  V30 2 N 6.471318 -1.137214 5.698542 0
M  V30 3 C 7.826652 -1.146994 5.139814 0
M  V30 4 C 5.424484 -0.753823 4.824838 0
M  V30 5 C 5.615527 -0.394392 3.511205 0
M  V30 6 C 4.568569 -0.022413 2.661757 0
M  V30 7 C 3.246262 -0.000293 3.129694 0
M  V30 8 C 2.207536 0.391833 2.193723 0
M  V30 9 O 2.556541 0.663557 1.033627 0
M  V30 10 N 0.834018 0.490613 2.494437 0
M  V30 11 C -0.005692 0.897676 1.419941 0
M  V30 12 C -0.472347 -0.115736 0.617248 0
M  V30 13 C -1.288127 0.140990 -0.460571 0
M  V30 14 C -1.655658 1.424321 -0.760926 0
M  V30 15 N -2.453140 1.910373 -1.817124 0
M  V30 16 C -3.038332 1.218430 -2.869470 0
M  V30 17 O -2.878049 -0.050037 -2.972789 0
M  V30 18 C -3.818257 1.067706 -4.069539 0
M  V30 19 O -3.924661 -0.226623 -4.560983 0
M  V30 20 C -4.450820 -1.363314 -4.068418 0
M  V30 21 C -5.117796 -1.735837 -2.901216 0
M  V30 22 C -5.557984 -3.012983 -2.645306 0
M  V30 23 C -5.329161 -3.984250 -3.597933 0
M  V30 24 C -5.792209 -5.256388 -3.291202 0
M  V30 25 O -6.394236 -5.556285 -2.215858 0
M  V30 26 C -5.581752 -6.251326 -4.220149 0
M  V30 27 C -4.924975 -5.914749 -5.389530 0
M  V30 28 O -4.511812 -4.693153 -5.619429 0
M  V30 29 C -4.679061 -3.720929 -4.789140 0
M  V30 30 C -4.247031 -2.398125 -5.003270 0
M  V30 31 C -1.210830 2.472055 0.016872 0
M  V30 32 C -0.385098 2.187714 1.104753 0
M  V30 33 C 0.135528 3.252354 1.996784 0
M  V30 34 F -0.307607 3.017113 3.273944 0
M  V30 35 F -0.365662 4.486642 1.550551 0
M  V30 36 F 1.515068 3.389218 1.902178 0
M  V30 37 C 3.053281 -0.362804 4.454993 0
M  V30 38 C 4.114032 -0.722010 5.249360 0
M  V30 39 H 5.723089 -2.512790 7.122855 0
M  V30 40 H 5.520582 -0.773511 7.549363 0
M  V30 41 H 7.105502 -1.568675 7.685226 0
M  V30 42 H 7.821113 -1.893735 4.295929 0
M  V30 43 H 8.008590 -0.126187 4.756113 0
M  V30 44 H 8.577541 -1.405454 5.914414 0
M  V30 45 H 6.608477 -0.394838 3.110509 0
M  V30 46 H 4.807098 0.245090 1.637154 0
M  V30 47 H 0.548006 0.252821 3.481413 0
M  V30 48 H -0.229225 -1.147727 0.786812 0
M  V30 49 H -1.674430 -0.616720 -1.107218 0
M  V30 50 H -2.781910 2.865878 -2.054590 0
M  V30 51 H -3.278324 1.654190 -4.883329 0
M  V30 52 H -4.820297 1.556457 -4.052898 0
M  V30 53 H -5.259866 -0.908480 -2.223225 0
M  V30 54 H -6.059841 -3.147159 -1.689176 0
M  V30 55 H -5.911461 -7.277901 -4.055881 0
M  V30 56 H -4.783154 -6.724268 -6.084331 0
M  V30 57 H -3.759138 -2.325936 -5.969968 0
M  V30 58 H -1.414911 3.536450 -0.099351 0
M  V30 59 H 2.012403 -0.336198 4.786398 0
M  V30 60 H 3.829467 -0.981481 6.252225 0
M  V30 END ATOM
M  V30 BEGIN BOND
M  V30 1 1 1 2
M  V30 2 1 2 3
M  V30 3 1 2 4
M  V30 4 2 4 5
M  V30 5 1 5 6
M  V30 6 2 6 7
M  V30 7 1 7 8
M  V30 8 2 8 9
M  V30 9 1 8 10
M  V30 10 1 10 11
M  V30 11 2 11 12
M  V30 12 1 12 13
M  V30 13 2 13 14
M  V30 14 1 14 15
M  V30 15 1 15 16
M  V30 16 2 16 17
M  V30 17 1 16 18
M  V30 18 1 18 19
M  V30 19 1 19 20
M  V30 20 2 20 21
M  V30 21 1 21 22
M  V30 22 2 22 23
M  V30 23 1 23 24
M  V30 24 2 24 25
M  V30 25 1 24 26
M  V30 26 2 26 27
M  V30 27 1 27 28
M  V30 28 1 28 29
M  V30 29 2 29 30
M  V30 30 1 14 31
M  V30 31 2 31 32
M  V30 32 1 32 33
M  V30 33 1 33 34
M  V30 34 1 33 35
M  V30 35 1 33 36
M  V30 36 1 7 37
M  V30 37 2 37 38
M  V30 38 1 38 4
M  V30 39 1 32 11
M  V30 40 1 30 20
M  V30 41 1 29 23
M  V30 42 1 1 39
M  V30 43 1 1 40
M  V30 44 1 1 41
M  V30 45 1 3 42
M  V30 46 1 3 43
M  V30 47 1 3 44
M  V30 48 1 5 45
M  V30 49 1 6 46
M  V30 50 1 10 47
M  V30 51 1 12 48
M  V30 52 1 13 49
M  V30 53 1 15 50
M  V30 54 1 18 51
M  V30 55 1 18 52
M  V30 56 1 21 53
M  V30 57 1 22 54
M  V30 58 1 26 55
M  V30 59 1 27 56
M  V30 60 1 30 57
M  V30 61 1 31 58
M  V30 62 1 37 59
M  V30 63 1 38 60
M  V30 END BOND
M  V30 END CTAB
M  END
>  <Dataset>  (991) 
ChEMBL_Kinases

>  <Ligand_Instance>  (991) 
nan

>  <PDB_ID>  (991) 
nan

>  <Standardized_SMILES>  (991) 
CN(C)c1ccc(C(=O)Nc2ccc(NC(=O)COc3ccc4c(=O)ccoc4c3)cc2C(F)(F)F)cc1

>  <Name>  (991) 
nan

>  <Pocket>  (991) 
nan

>  <ATP_Site>  (991) 
nan

>  <Peripheral>  (991) 
nan

>  <Num_H_Atoms_ProtBoundConf>  (991) 
nan

>  <Num_Resolved_Atoms>  (991) 
nan

>  <Num_Not_Resolved_Atoms>  (991) 
nan

$$$$
CHEMBL4476003
     RDKit          3D

  0  0  0  0  0  0  0  0  0  0999 V3000
M  V30 BEGIN CTAB
M  V30 COUNTS 47 49 0 0 0
M  V30 BEGIN ATOM
M  V30 1 C 2.610770 -5.403476 3.506864 0
M  V30 2 O 2.340425 -3.999376 3.553130 0
M  V30 3 C 2.164691 -3.348732 2.341697 0
M  V30 4 C 2.251936 -4.048664 1.157372 0
M  V30 5 C 2.076233 -3.394079 -0.034850 0
M  V30 6 C 1.815121 -2.045838 -0.027618 0
M  V30 7 C 1.613804 -1.228809 -1.090771 0
M  V30 8 C 1.598293 -1.396499 -2.458364 0
M  V30 9 C 1.361232 -0.293766 -3.253040 0
M  V30 10 N 1.154641 0.900765 -2.677593 0
M  V30 11 C 1.159201 1.122316 -1.338685 0
M  V30 12 C 0.948511 2.471119 -0.777494 0
M  V30 13 C 1.396641 0.012742 -0.537922 0
M  V30 14 N 1.445696 0.036268 0.819412 0
M  V30 15 C 1.267212 0.938216 1.868185 0
M  V30 16 C -0.011030 1.015053 2.619492 0
M  V30 17 C -1.288819 1.350900 2.007345 0
M  V30 18 C -1.848762 0.469677 0.942731 0
M  V30 19 N -3.146524 1.036062 0.522500 0
M  V30 20 C -4.300475 1.241711 1.320333 0
M  V30 21 C -5.543425 1.818074 0.794902 0
M  V30 22 O -4.310319 0.933659 2.536153 0
M  V30 23 C 1.713445 -1.285330 1.091659 0
M  V30 24 C 1.900552 -1.998888 2.282843 0
M  V30 25 H 2.674396 -5.824867 4.530668 0
M  V30 26 H 1.819117 -5.960390 2.971864 0
M  V30 27 H 3.571212 -5.593270 2.960367 0
M  V30 28 H 2.457308 -5.101138 1.189497 0
M  V30 29 H 2.148371 -3.957106 -0.939646 0
M  V30 30 H 1.775990 -2.403270 -2.851296 0
M  V30 31 H 1.345725 -0.411241 -4.334563 0
M  V30 32 H 0.695540 3.129688 -1.667565 0
M  V30 33 H 1.893807 2.953713 -0.452815 0
M  V30 34 H 0.075435 2.609956 -0.156957 0
M  V30 35 H 1.585384 1.984065 1.691921 0
M  V30 36 H 2.026114 0.668615 2.690037 0
M  V30 37 H -0.179156 0.072246 3.235305 0
M  V30 38 H 0.206904 1.766551 3.466676 0
M  V30 39 H -2.058968 1.301928 2.857698 0
M  V30 40 H -1.395435 2.416753 1.681247 0
M  V30 41 H -2.096986 -0.556425 1.350558 0
M  V30 42 H -1.256803 0.304528 0.057884 0
M  V30 43 H -3.279152 1.338499 -0.481161 0
M  V30 44 H -5.525961 2.922697 0.862261 0
M  V30 45 H -6.429622 1.437583 1.331223 0
M  V30 46 H -5.672341 1.540279 -0.273398 0
M  V30 47 H 1.840158 -1.486770 3.233509 0
M  V30 END ATOM
M  V30 BEGIN BOND
M  V30 1 1 1 2
M  V30 2 1 2 3
M  V30 3 2 3 4
M  V30 4 1 4 5
M  V30 5 2 5 6
M  V30 6 1 6 7
M  V30 7 2 7 8
M  V30 8 1 8 9
M  V30 9 2 9 10
M  V30 10 1 10 11
M  V30 11 1 11 12
M  V30 12 2 11 13
M  V30 13 1 13 14
M  V30 14 1 14 15
M  V30 15 1 15 16
M  V30 16 1 16 17
M  V30 17 1 17 18
M  V30 18 1 18 19
M  V30 19 1 19 20
M  V30 20 1 20 21
M  V30 21 2 20 22
M  V30 22 1 14 23
M  V30 23 2 23 24
M  V30 24 1 24 3
M  V30 25 1 23 6
M  V30 26 1 13 7
M  V30 27 1 1 25
M  V30 28 1 1 26
M  V30 29 1 1 27
M  V30 30 1 4 28
M  V30 31 1 5 29
M  V30 32 1 8 30
M  V30 33 1 9 31
M  V30 34 1 12 32
M  V30 35 1 12 33
M  V30 36 1 12 34
M  V30 37 1 15 35
M  V30 38 1 15 36
M  V30 39 1 16 37
M  V30 40 1 16 38
M  V30 41 1 17 39
M  V30 42 1 17 40
M  V30 43 1 18 41
M  V30 44 1 18 42
M  V30 45 1 19 43
M  V30 46 1 21 44
M  V30 47 1 21 45
M  V30 48 1 21 46
M  V30 49 1 24 47
M  V30 END BOND
M  V30 END CTAB
M  END
>  <Dataset>  (992) 
ChEMBL_Kinases

>  <Ligand_Instance>  (992) 
nan

>  <PDB_ID>  (992) 
nan

>  <Standardized_SMILES>  (992) 
COc1ccc2c3ccnc(C)c3n(CCCCNC(C)=O)c2c1

>  <Name>  (992) 
nan

>  <Pocket>  (992) 
nan

>  <ATP_Site>  (992) 
nan

>  <Peripheral>  (992) 
nan

>  <Num_H_Atoms_ProtBoundConf>  (992) 
nan

>  <Num_Resolved_Atoms>  (992) 
nan

>  <Num_Not_Resolved_Atoms>  (992) 
nan

$$$$
CHEMBL4475979
     RDKit          3D

  0  0  0  0  0  0  0  0  0  0999 V3000
M  V30 BEGIN CTAB
M  V30 COUNTS 48 50 0 0 0
M  V30 BEGIN ATOM
M  V30 1 C 2.301852 -3.381870 2.698415 0
M  V30 2 C 1.168895 -2.403733 2.593474 0
M  V30 3 C 0.710564 -2.153092 4.040221 0
M  V30 4 O 0.072597 -2.986405 1.953762 0
M  V30 5 C 1.498772 -1.072204 2.033851 0
M  V30 6 C 2.032329 -1.002968 0.650500 0
M  V30 7 C 3.328576 -1.733891 0.419519 0
M  V30 8 C 2.371359 0.484265 0.415824 0
M  V30 9 N 1.067824 -1.440954 -0.353553 0
M  V30 10 C -0.169687 -0.749620 -0.547246 0
M  V30 11 N -0.527347 0.318068 0.147765 0
M  V30 12 C -1.672691 1.004719 0.004522 0
M  V30 13 C -1.984554 2.173154 0.819457 0
M  V30 14 C -1.136789 2.652808 1.794774 0
M  V30 15 C -1.514395 3.782082 2.531061 0
M  V30 16 N -2.684189 4.415428 2.314418 0
M  V30 17 C -3.504179 3.952112 1.371653 0
M  V30 18 C -3.169124 2.854445 0.634932 0
M  V30 19 Cl -4.272278 2.254912 -0.612893 0
M  V30 20 N -2.555906 0.593279 -0.921783 0
M  V30 21 C -2.302857 -0.496426 -1.703327 0
M  V30 22 C -3.200383 -0.928442 -2.656480 0
M  V30 23 N -2.925832 -2.021799 -3.427083 0
M  V30 24 C -1.762579 -2.678871 -3.246534 0
M  V30 25 C -0.881205 -2.226385 -2.286064 0
M  V30 26 C -1.102332 -1.139049 -1.486235 0
M  V30 27 H 1.970062 -4.255337 3.348753 0
M  V30 28 H 2.610404 -3.859807 1.766358 0
M  V30 29 H 3.120835 -2.921005 3.292961 0
M  V30 30 H -0.373417 -1.984018 4.096265 0
M  V30 31 H 1.261726 -1.301084 4.492537 0
M  V30 32 H 0.934918 -3.021822 4.692632 0
M  V30 33 H 0.347294 -3.437827 1.099819 0
M  V30 34 H 0.625086 -0.362231 2.074644 0
M  V30 35 H 2.253059 -0.563963 2.699757 0
M  V30 36 H 4.015452 -1.131346 -0.258037 0
M  V30 37 H 3.158919 -2.665130 -0.198608 0
M  V30 38 H 3.923874 -1.917098 1.308492 0
M  V30 39 H 3.270196 0.647448 1.076175 0
M  V30 40 H 1.604257 1.159724 0.783057 0
M  V30 41 H 2.730741 0.638407 -0.602560 0
M  V30 42 H 1.332345 -2.276471 -0.910662 0
M  V30 43 H -0.199801 2.168501 1.989316 0
M  V30 44 H -0.804306 4.112023 3.285291 0
M  V30 45 H -4.473753 4.420152 1.142525 0
M  V30 46 H -4.123220 -0.342819 -2.743831 0
M  V30 47 H -1.635554 -3.518416 -3.892247 0
M  V30 48 H 0.008466 -2.824657 -2.230859 0
M  V30 END ATOM
M  V30 BEGIN BOND
M  V30 1 1 1 2
M  V30 2 1 2 3
M  V30 3 1 2 4
M  V30 4 1 2 5
M  V30 5 1 5 6
M  V30 6 1 6 7
M  V30 7 1 6 8
M  V30 8 1 6 9
M  V30 9 1 9 10
M  V30 10 2 10 11
M  V30 11 1 11 12
M  V30 12 1 12 13
M  V30 13 2 13 14
M  V30 14 1 14 15
M  V30 15 2 15 16
M  V30 16 1 16 17
M  V30 17 2 17 18
M  V30 18 1 18 19
M  V30 19 2 12 20
M  V30 20 1 20 21
M  V30 21 2 21 22
M  V30 22 1 22 23
M  V30 23 2 23 24
M  V30 24 1 24 25
M  V30 25 2 25 26
M  V30 26 1 26 10
M  V30 27 1 18 13
M  V30 28 1 26 21
M  V30 29 1 1 27
M  V30 30 1 1 28
M  V30 31 1 1 29
M  V30 32 1 3 30
M  V30 33 1 3 31
M  V30 34 1 3 32
M  V30 35 1 4 33
M  V30 36 1 5 34
M  V30 37 1 5 35
M  V30 38 1 7 36
M  V30 39 1 7 37
M  V30 40 1 7 38
M  V30 41 1 8 39
M  V30 42 1 8 40
M  V30 43 1 8 41
M  V30 44 1 9 42
M  V30 45 1 14 43
M  V30 46 1 15 44
M  V30 47 1 17 45
M  V30 48 1 22 46
M  V30 49 1 24 47
M  V30 50 1 25 48
M  V30 END BOND
M  V30 END CTAB
M  END
>  <Dataset>  (993) 
ChEMBL_Kinases

>  <Ligand_Instance>  (993) 
nan

>  <PDB_ID>  (993) 
nan

>  <Standardized_SMILES>  (993) 
CC(C)(O)CC(C)(C)Nc1nc(-c2ccncc2Cl)nc2cnccc12

>  <Name>  (993) 
nan

>  <Pocket>  (993) 
nan

>  <ATP_Site>  (993) 
nan

>  <Peripheral>  (993) 
nan

>  <Num_H_Atoms_ProtBoundConf>  (993) 
nan

>  <Num_Resolved_Atoms>  (993) 
nan

>  <Num_Not_Resolved_Atoms>  (993) 
nan

$$$$
CHEMBL4475923
     RDKit          3D

  0  0  0  0  0  0  0  0  0  0999 V3000
M  V30 BEGIN CTAB
M  V30 COUNTS 58 61 0 0 0
M  V30 BEGIN ATOM
M  V30 1 C 5.729795 -1.280688 5.195787 0
M  V30 2 N 5.425407 -1.345888 3.770096 0
M  V30 3 C 4.485750 -0.393170 3.231782 0
M  V30 4 O 4.004678 0.423744 4.058142 0
M  V30 5 C 4.268643 -0.571867 1.772481 0
M  V30 6 C 3.264855 0.451909 1.224554 0 CFG=2
M  V30 7 C 1.954853 0.325117 1.884757 0
M  V30 8 C 0.733311 0.366162 1.020710 0 CFG=1
M  V30 9 C -0.082509 1.611038 1.271314 0
M  V30 10 C 0.552969 2.778529 0.864045 0
M  V30 11 C -0.056976 3.990379 1.023511 0
M  V30 12 C -1.311859 4.051222 1.592943 0
M  V30 13 Cl -2.105573 5.600675 1.803188 0
M  V30 14 C -1.930673 2.885601 1.992381 0
M  V30 15 Cl -3.535135 2.905746 2.726102 0
M  V30 16 C -1.340609 1.648966 1.844491 0
M  V30 17 C 0.946059 0.137060 -0.441759 0 CFG=2
M  V30 18 N -0.242874 -0.511787 -0.954158 0
M  V30 19 C -1.108625 -0.064888 -1.985036 0
M  V30 20 O -0.886177 1.020324 -2.578723 0
M  V30 21 C -2.256770 -0.898581 -2.331674 0
M  V30 22 C -2.733341 -2.110170 -1.854345 0
M  V30 23 C -3.873702 -2.544248 -2.481462 0
M  V30 24 C -4.603862 -3.752912 -2.210392 0
M  V30 25 C -5.729232 -4.244617 -2.788718 0
M  V30 26 Cl -6.740939 -3.664872 -4.056542 0
M  V30 27 C -6.119445 -5.442690 -2.238375 0
M  V30 28 N -5.215901 -5.696153 -1.300232 0
M  V30 29 N -4.341526 -4.697687 -1.301253 0
M  V30 30 C -3.239617 -4.766671 -0.328096 0
M  V30 31 C -4.045392 -1.513909 -3.362341 0
M  V30 32 Cl -5.294619 -1.300171 -4.543696 0
M  V30 33 O -3.139897 -0.584243 -3.284329 0
M  V30 34 C 2.208366 -0.628370 -0.650462 0
M  V30 35 N 3.279860 0.276864 -0.200090 0
M  V30 36 H 5.981966 -2.302057 5.562788 0
M  V30 37 H 4.835841 -0.957257 5.746729 0
M  V30 38 H 6.632658 -0.668174 5.380480 0
M  V30 39 H 5.905518 -2.081002 3.215340 0
M  V30 40 H 3.943713 -1.615084 1.554674 0
M  V30 41 H 5.258473 -0.447022 1.292675 0
M  V30 42 H 3.715447 1.449042 1.412207 0
M  V30 43 H 1.846086 1.164087 2.635350 0
M  V30 44 H 1.984330 -0.582140 2.558515 0
M  V30 45 H 0.061453 -0.437024 1.409194 0
M  V30 46 H 1.548475 2.804975 0.404825 0
M  V30 47 H 0.392770 4.928795 0.724098 0
M  V30 48 H -1.757404 0.693019 2.130489 0
M  V30 49 H 1.047460 1.075196 -1.024427 0
M  V30 50 H -0.400678 -1.416721 -0.436300 0
M  V30 51 H -2.113581 -2.499465 -1.066564 0
M  V30 52 H -6.927214 -6.153742 -2.391845 0
M  V30 53 H -2.249892 -4.790105 -0.822515 0
M  V30 54 H -3.364790 -5.639180 0.354329 0
M  V30 55 H -3.261025 -3.892138 0.349995 0
M  V30 56 H 2.471605 -0.768506 -1.721079 0
M  V30 57 H 2.164312 -1.538204 -0.053365 0
M  V30 58 H 3.109790 1.175105 -0.712928 0
M  V30 END ATOM
M  V30 BEGIN BOND
M  V30 1 1 1 2
M  V30 2 1 2 3
M  V30 3 2 3 4
M  V30 4 1 3 5
M  V30 5 1 5 6
M  V30 6 1 6 7
M  V30 7 1 7 8
M  V30 8 1 8 9
M  V30 9 2 9 10
M  V30 10 1 10 11
M  V30 11 2 11 12
M  V30 12 1 12 13
M  V30 13 1 12 14
M  V30 14 1 14 15
M  V30 15 2 14 16
M  V30 16 1 8 17
M  V30 17 1 17 18
M  V30 18 1 18 19
M  V30 19 2 19 20
M  V30 20 1 19 21
M  V30 21 2 21 22
M  V30 22 1 22 23
M  V30 23 1 23 24
M  V30 24 2 24 25
M  V30 25 1 25 26
M  V30 26 1 25 27
M  V30 27 2 27 28
M  V30 28 1 28 29
M  V30 29 1 29 30
M  V30 30 2 23 31
M  V30 31 1 31 32
M  V30 32 1 31 33
M  V30 33 1 17 34
M  V30 34 1 34 35
M  V30 35 1 35 6
M  V30 36 1 16 9
M  V30 37 1 33 21
M  V30 38 1 29 24
M  V30 39 1 1 36
M  V30 40 1 1 37
M  V30 41 1 1 38
M  V30 42 1 2 39
M  V30 43 1 5 40
M  V30 44 1 5 41
M  V30 45 1 6 42 CFG=3
M  V30 46 1 7 43
M  V30 47 1 7 44
M  V30 48 1 8 45 CFG=1
M  V30 49 1 10 46
M  V30 50 1 11 47
M  V30 51 1 16 48
M  V30 52 1 17 49 CFG=3
M  V30 53 1 18 50
M  V30 54 1 22 51
M  V30 55 1 27 52
M  V30 56 1 30 53
M  V30 57 1 30 54
M  V30 58 1 30 55
M  V30 59 1 34 56
M  V30 60 1 34 57
M  V30 61 1 35 58
M  V30 END BOND
M  V30 END CTAB
M  END
>  <Dataset>  (994) 
ChEMBL_Kinases

>  <Ligand_Instance>  (994) 
nan

>  <PDB_ID>  (994) 
nan

>  <Standardized_SMILES>  (994) 
CNC(=O)C[C@@H]1C[C@@H](c2ccc(Cl)c(Cl)c2)[C@H](NC(=O)c2cc(-c3c(Cl)cnn3C)c(Cl)o2)CN1

>  <Name>  (994) 
nan

>  <Pocket>  (994) 
nan

>  <ATP_Site>  (994) 
nan

>  <Peripheral>  (994) 
nan

>  <Num_H_Atoms_ProtBoundConf>  (994) 
nan

>  <Num_Resolved_Atoms>  (994) 
nan

>  <Num_Not_Resolved_Atoms>  (994) 
nan

$$$$
CHEMBL4649876
     RDKit          3D

  0  0  0  0  0  0  0  0  0  0999 V3000
M  V30 BEGIN CTAB
M  V30 COUNTS 46 49 0 0 0
M  V30 BEGIN ATOM
M  V30 1 C 1.369871 -6.812967 2.985828 0
M  V30 2 O 1.941518 -5.787315 2.211089 0
M  V30 3 C 1.212792 -4.993815 1.340323 0
M  V30 4 C 1.808341 -3.996618 0.596343 0
M  V30 5 C 1.139479 -3.173054 -0.287127 0
M  V30 6 C 1.944927 -2.170233 -0.988281 0
M  V30 7 N 2.032555 -0.920223 -0.260883 0
M  V30 8 C 3.067470 -0.855092 0.589590 0
M  V30 9 N 3.194597 0.286422 1.291600 0
M  V30 10 C 2.286625 1.295690 1.107608 0
M  V30 11 S 2.092940 2.996840 1.851437 0
M  V30 12 C 0.667699 3.384563 0.931740 0
M  V30 13 C -0.051335 4.701712 1.058803 0
M  V30 14 C 0.491977 5.594893 1.958214 0
M  V30 15 C -0.190885 6.802410 2.056010 0
M  V30 16 N -1.292800 7.053874 1.319269 0
M  V30 17 C -1.774693 6.138972 0.456856 0
M  V30 18 N -2.948578 6.450323 -0.305050 0
M  V30 19 C -1.152048 4.904928 0.297587 0
M  V30 20 C 0.400766 2.333701 0.167386 0
M  V30 21 C 1.200776 1.224694 0.213839 0
M  V30 22 C 1.120245 0.033109 -0.477832 0
M  V30 23 O 0.203521 -0.177063 -1.311710 0
M  V30 24 C -0.215783 -3.383785 -0.414872 0
M  V30 25 C -0.879360 -4.369541 0.303227 0
M  V30 26 O -2.242626 -4.477093 0.082374 0
M  V30 27 C -2.980301 -5.469422 0.789187 0
M  V30 28 C -0.147146 -5.152434 1.165421 0
M  V30 29 H 2.126536 -7.613777 3.215607 0
M  V30 30 H 1.068100 -6.430732 4.001221 0
M  V30 31 H 0.531237 -7.334702 2.485868 0
M  V30 32 H 2.886206 -3.894682 0.756031 0
M  V30 33 H 1.490625 -1.954538 -1.980255 0
M  V30 34 H 2.938037 -2.607522 -1.216272 0
M  V30 35 H 3.838247 -1.557038 0.827390 0
M  V30 36 H 1.354171 5.451545 2.562866 0
M  V30 37 H 0.160095 7.564186 2.734395 0
M  V30 38 H -3.783157 6.321972 0.309584 0
M  V30 39 H -3.049615 6.762652 -1.314704 0
M  V30 40 H -1.545682 4.168923 -0.400933 0
M  V30 41 H -0.465448 2.403733 -0.478821 0
M  V30 42 H -0.741239 -2.747159 -1.100123 0
M  V30 43 H -2.457985 -6.436883 0.785088 0
M  V30 44 H -3.052259 -5.167816 1.863702 0
M  V30 45 H -4.014875 -5.533592 0.405764 0
M  V30 46 H -0.695244 -5.904515 1.703519 0
M  V30 END ATOM
M  V30 BEGIN BOND
M  V30 1 1 1 2
M  V30 2 1 2 3
M  V30 3 2 3 4
M  V30 4 1 4 5
M  V30 5 1 5 6
M  V30 6 1 6 7
M  V30 7 1 7 8
M  V30 8 2 8 9
M  V30 9 1 9 10
M  V30 10 1 10 11
M  V30 11 1 11 12
M  V30 12 1 12 13
M  V30 13 2 13 14
M  V30 14 1 14 15
M  V30 15 2 15 16
M  V30 16 1 16 17
M  V30 17 1 17 18
M  V30 18 2 17 19
M  V30 19 2 12 20
M  V30 20 1 20 21
M  V30 21 1 21 22
M  V30 22 2 22 23
M  V30 23 2 5 24
M  V30 24 1 24 25
M  V30 25 1 25 26
M  V30 26 1 26 27
M  V30 27 2 25 28
M  V30 28 1 28 3
M  V30 29 1 22 7
M  V30 30 2 21 10
M  V30 31 1 19 13
M  V30 32 1 1 29
M  V30 33 1 1 30
M  V30 34 1 1 31
M  V30 35 1 4 32
M  V30 36 1 6 33
M  V30 37 1 6 34
M  V30 38 1 8 35
M  V30 39 1 14 36
M  V30 40 1 15 37
M  V30 41 1 18 38
M  V30 42 1 18 39
M  V30 43 1 19 40
M  V30 44 1 20 41
M  V30 45 1 24 42
M  V30 46 1 27 43
M  V30 47 1 27 44
M  V30 48 1 27 45
M  V30 49 1 28 46
M  V30 END BOND
M  V30 END CTAB
M  END
>  <Dataset>  (995) 
ChEMBL_Kinases

>  <Ligand_Instance>  (995) 
nan

>  <PDB_ID>  (995) 
nan

>  <Standardized_SMILES>  (995) 
COc1cc(Cn2cnc3sc(-c4ccnc(N)c4)cc3c2=O)cc(OC)c1

>  <Name>  (995) 
nan

>  <Pocket>  (995) 
nan

>  <ATP_Site>  (995) 
nan

>  <Peripheral>  (995) 
nan

>  <Num_H_Atoms_ProtBoundConf>  (995) 
nan

>  <Num_Resolved_Atoms>  (995) 
nan

>  <Num_Not_Resolved_Atoms>  (995) 
nan

$$$$
CHEMBL4475855
     RDKit          3D

  0  0  0  0  0  0  0  0  0  0999 V3000
M  V30 BEGIN CTAB
M  V30 COUNTS 72 76 0 0 0
M  V30 BEGIN ATOM
M  V30 1 C 5.407246 2.375669 3.231736 0
M  V30 2 O 4.622737 1.810488 4.204457 0
M  V30 3 C 4.193460 0.533479 3.856449 0 CFG=1
M  V30 4 C 4.755247 -0.428693 4.868298 0
M  V30 5 O 3.843733 -1.470636 5.005232 0
M  V30 6 C 2.807602 -0.955620 5.787210 0
M  V30 7 C 2.041773 0.115314 5.060355 0
M  V30 8 C 2.678122 0.475896 3.735534 0 CFG=2
M  V30 9 O 2.273724 -0.351071 2.709438 0
M  V30 10 C 1.482230 -0.115705 1.661752 0
M  V30 11 N 1.474985 -1.223990 0.895833 0
M  V30 12 C 0.776126 -1.332305 -0.251316 0
M  V30 13 C -0.008769 -0.284954 -0.743268 0
M  V30 14 C -0.780431 -0.369078 -1.977214 0
M  V30 15 C -1.498133 -1.544866 -2.080787 0
M  V30 16 C -2.288909 -1.790318 -3.185270 0
M  V30 17 N -3.054773 -2.978392 -3.352465 0
M  V30 18 C -2.698652 -4.194808 -3.950315 0
M  V30 19 O -1.562660 -4.393544 -4.451262 0
M  V30 20 C -3.649896 -5.303633 -4.017792 0
M  V30 21 C -3.229573 -6.473316 -4.619547 0
M  V30 22 C -4.051329 -7.601269 -4.742866 0
M  V30 23 C -5.328118 -7.508071 -4.232246 0
M  V30 24 C -5.793738 -6.360956 -3.622385 0
M  V30 25 C -7.155077 -6.172353 -3.045848 0
M  V30 26 F -7.828812 -5.225505 -3.817491 0
M  V30 27 F -7.883343 -7.344476 -3.100535 0
M  V30 28 F -7.085035 -5.797865 -1.726724 0
M  V30 29 C -4.934629 -5.261591 -3.523520 0
M  V30 30 C -2.320926 -0.797886 -4.175519 0
M  V30 31 N -1.603945 0.358761 -4.055240 0
M  V30 32 C -0.835528 0.585125 -2.970413 0
M  V30 33 C -0.032115 1.813412 -2.775759 0
M  V30 34 C -0.025633 0.874790 0.022916 0
M  V30 35 C 0.715770 0.904172 1.183260 0
M  V30 36 N 0.575151 2.105833 1.917779 0
M  V30 37 C -0.247269 2.419170 3.101899 0
M  V30 38 C -0.347358 3.932715 3.148799 0
M  V30 39 O -0.742439 4.329674 1.849840 0
M  V30 40 C 0.409076 4.367308 1.048279 0
M  V30 41 C 1.357821 3.268270 1.467581 0
M  V30 42 H 6.311843 1.761925 3.046274 0
M  V30 43 H 5.818169 3.338209 3.658777 0
M  V30 44 H 4.859512 2.639565 2.290876 0
M  V30 45 H 4.582439 0.245461 2.861575 0
M  V30 46 H 4.965928 0.066631 5.845198 0
M  V30 47 H 5.732717 -0.818744 4.455125 0
M  V30 48 H 3.271395 -0.558254 6.712091 0
M  V30 49 H 2.174223 -1.812344 6.087384 0
M  V30 50 H 1.030776 -0.276746 4.843899 0
M  V30 51 H 1.922272 0.992302 5.721245 0
M  V30 52 H 2.373259 1.509270 3.515723 0
M  V30 53 H 0.734213 -2.198915 -0.908289 0
M  V30 54 H -1.498525 -2.344676 -1.325063 0
M  V30 55 H -3.986393 -2.785034 -2.930195 0
M  V30 56 H -2.235179 -6.639087 -5.053241 0
M  V30 57 H -3.727964 -8.521714 -5.212546 0
M  V30 58 H -6.032577 -8.331712 -4.284954 0
M  V30 59 H -5.272633 -4.352591 -3.050533 0
M  V30 60 H -2.914558 -0.896731 -5.085110 0
M  V30 61 H -0.632228 2.695853 -2.491315 0
M  V30 62 H 0.880770 1.652392 -2.185273 0
M  V30 63 H 0.348461 2.070376 -3.810131 0
M  V30 64 H -0.606667 1.696808 -0.308298 0
M  V30 65 H 0.107478 1.961314 4.017098 0
M  V30 66 H -1.291043 2.067047 2.941848 0
M  V30 67 H -1.097116 4.248005 3.907055 0
M  V30 68 H 0.595902 4.441065 3.365361 0
M  V30 69 H 0.110304 4.264904 -0.034518 0
M  V30 70 H 0.899429 5.361244 1.130732 0
M  V30 71 H 1.956627 3.008354 0.576634 0
M  V30 72 H 2.073725 3.608518 2.234343 0
M  V30 END ATOM
M  V30 BEGIN BOND
M  V30 1 1 1 2
M  V30 2 1 2 3
M  V30 3 1 3 4
M  V30 4 1 4 5
M  V30 5 1 5 6
M  V30 6 1 6 7
M  V30 7 1 7 8
M  V30 8 1 8 9
M  V30 9 1 9 10
M  V30 10 2 10 11
M  V30 11 1 11 12
M  V30 12 2 12 13
M  V30 13 1 13 14
M  V30 14 2 14 15
M  V30 15 1 15 16
M  V30 16 1 16 17
M  V30 17 1 17 18
M  V30 18 2 18 19
M  V30 19 1 18 20
M  V30 20 2 20 21
M  V30 21 1 21 22
M  V30 22 2 22 23
M  V30 23 1 23 24
M  V30 24 1 24 25
M  V30 25 1 25 26
M  V30 26 1 25 27
M  V30 27 1 25 28
M  V30 28 2 24 29
M  V30 29 2 16 30
M  V30 30 1 30 31
M  V30 31 2 31 32
M  V30 32 1 32 33
M  V30 33 1 13 34
M  V30 34 2 34 35
M  V30 35 1 35 36
M  V30 36 1 36 37
M  V30 37 1 37 38
M  V30 38 1 38 39
M  V30 39 1 39 40
M  V30 40 1 40 41
M  V30 41 1 8 3
M  V30 42 1 35 10
M  V30 43 1 41 36
M  V30 44 1 32 14
M  V30 45 1 29 20
M  V30 46 1 1 42
M  V30 47 1 1 43
M  V30 48 1 1 44
M  V30 49 1 3 45 CFG=3
M  V30 50 1 4 46
M  V30 51 1 4 47
M  V30 52 1 6 48
M  V30 53 1 6 49
M  V30 54 1 7 50
M  V30 55 1 7 51
M  V30 56 1 8 52 CFG=3
M  V30 57 1 12 53
M  V30 58 1 15 54
M  V30 59 1 17 55
M  V30 60 1 21 56
M  V30 61 1 22 57
M  V30 62 1 23 58
M  V30 63 1 29 59
M  V30 64 1 30 60
M  V30 65 1 33 61
M  V30 66 1 33 62
M  V30 67 1 33 63
M  V30 68 1 34 64
M  V30 69 1 37 65
M  V30 70 1 37 66
M  V30 71 1 38 67
M  V30 72 1 38 68
M  V30 73 1 40 69
M  V30 74 1 40 70
M  V30 75 1 41 71
M  V30 76 1 41 72
M  V30 END BOND
M  V30 END CTAB
M  END
>  <Dataset>  (996) 
ChEMBL_Kinases

>  <Ligand_Instance>  (996) 
nan

>  <PDB_ID>  (996) 
nan

>  <Standardized_SMILES>  (996) 
CO[C@H]1COCC[C@@H]1Oc1ncc(-c2cc(NC(=O)c3cccc(C(F)(F)F)c3)cnc2C)cc1N1CCOCC1

>  <Name>  (996) 
nan

>  <Pocket>  (996) 
nan

>  <ATP_Site>  (996) 
nan

>  <Peripheral>  (996) 
nan

>  <Num_H_Atoms_ProtBoundConf>  (996) 
nan

>  <Num_Resolved_Atoms>  (996) 
nan

>  <Num_Not_Resolved_Atoms>  (996) 
nan

$$$$
CHEMBL4475847
     RDKit          3D

  0  0  0  0  0  0  0  0  0  0999 V3000
M  V30 BEGIN CTAB
M  V30 COUNTS 58 61 0 0 0
M  V30 BEGIN ATOM
M  V30 1 C -0.985280 -0.134510 7.074386 0
M  V30 2 C -0.184793 0.528514 6.009259 0
M  V30 3 C 0.702222 -0.079616 5.142159 0
M  V30 4 C 1.226104 0.920231 4.312607 0
M  V30 5 N 2.156177 0.833546 3.252466 0
M  V30 6 C 2.227755 0.654674 1.866364 0
M  V30 7 N 3.465235 0.646147 1.325124 0
M  V30 8 N 3.676942 0.487670 0.037904 0
M  V30 9 C 5.026878 0.487413 -0.492393 0
M  V30 10 C 5.380799 -0.890953 -1.009520 0
M  V30 11 C 5.189675 1.471630 -1.620136 0
M  V30 12 C 2.650605 0.324203 -0.811118 0
M  V30 13 O 2.856045 0.172664 -2.042918 0
M  V30 14 C 1.340688 0.314023 -0.384723 0
M  V30 15 C 0.232469 0.151135 -1.201772 0
M  V30 16 C -1.074885 0.153088 -0.690339 0
M  V30 17 O -1.942406 -0.024880 -1.721123 0
M  V30 18 C -3.324692 -0.109954 -1.752976 0
M  V30 19 C -3.862043 -1.282669 -0.972503 0
M  V30 20 N -3.297167 -2.472151 -1.569873 0
M  V30 21 C -3.723150 -3.695956 -0.924704 0
M  V30 22 C -2.755514 -4.755985 -1.436257 0
M  V30 23 O -2.703885 -4.848006 -2.796598 0
M  V30 24 C -3.448702 -3.958500 -3.516674 0
M  V30 25 C -3.453543 -2.542636 -3.000621 0
M  V30 26 C -1.166897 0.327768 0.669580 0
M  V30 27 C -0.075014 0.489548 1.486761 0
M  V30 28 C 1.196410 0.485285 0.973944 0
M  V30 29 N 0.640545 2.089568 4.706694 0
M  V30 30 N -0.201929 1.850472 5.720699 0
M  V30 31 H -1.771042 0.552941 7.423588 0
M  V30 32 H -1.510195 -1.052546 6.700500 0
M  V30 33 H -0.341138 -0.504805 7.906203 0
M  V30 34 H 0.974781 -1.112226 5.073133 0
M  V30 35 H 3.041038 0.956246 3.802880 0
M  V30 36 H 5.732217 0.713868 0.343590 0
M  V30 37 H 4.441813 -1.482607 -1.086689 0
M  V30 38 H 6.056191 -1.445586 -0.325281 0
M  V30 39 H 5.846402 -0.821303 -2.024602 0
M  V30 40 H 4.354723 2.215175 -1.647927 0
M  V30 41 H 6.164970 1.983666 -1.487805 0
M  V30 42 H 5.244962 0.925896 -2.581316 0
M  V30 43 H 0.556291 0.030692 -2.239550 0
M  V30 44 H -3.834839 0.841672 -1.471031 0
M  V30 45 H -3.607455 -0.304605 -2.822695 0
M  V30 46 H -3.592141 -1.267709 0.072220 0
M  V30 47 H -4.986591 -1.290988 -1.069491 0
M  V30 48 H -3.528416 -3.595958 0.170010 0
M  V30 49 H -4.755256 -3.980505 -1.166888 0
M  V30 50 H -2.959924 -5.748865 -0.976174 0
M  V30 51 H -1.733222 -4.430418 -1.082838 0
M  V30 52 H -4.484486 -4.359750 -3.676730 0
M  V30 53 H -3.017829 -3.917242 -4.551608 0
M  V30 54 H -4.431837 -2.107943 -3.291813 0
M  V30 55 H -2.629979 -1.974336 -3.463952 0
M  V30 56 H -2.191518 0.330925 1.002394 0
M  V30 57 H -0.289529 0.616720 2.530927 0
M  V30 58 H -0.772036 2.599975 6.194511 0
M  V30 END ATOM
M  V30 BEGIN BOND
M  V30 1 1 1 2
M  V30 2 2 2 3
M  V30 3 1 3 4
M  V30 4 1 4 5
M  V30 5 1 5 6
M  V30 6 2 6 7
M  V30 7 1 7 8
M  V30 8 1 8 9
M  V30 9 1 9 10
M  V30 10 1 9 11
M  V30 11 1 8 12
M  V30 12 2 12 13
M  V30 13 1 12 14
M  V30 14 2 14 15
M  V30 15 1 15 16
M  V30 16 1 16 17
M  V30 17 1 17 18
M  V30 18 1 18 19
M  V30 19 1 19 20
M  V30 20 1 20 21
M  V30 21 1 21 22
M  V30 22 1 22 23
M  V30 23 1 23 24
M  V30 24 1 24 25
M  V30 25 2 16 26
M  V30 26 1 26 27
M  V30 27 2 27 28
M  V30 28 2 4 29
M  V30 29 1 29 30
M  V30 30 1 30 2
M  V30 31 1 28 6
M  V30 32 1 28 14
M  V30 33 1 25 20
M  V30 34 1 1 31
M  V30 35 1 1 32
M  V30 36 1 1 33
M  V30 37 1 3 34
M  V30 38 1 5 35
M  V30 39 1 9 36
M  V30 40 1 10 37
M  V30 41 1 10 38
M  V30 42 1 10 39
M  V30 43 1 11 40
M  V30 44 1 11 41
M  V30 45 1 11 42
M  V30 46 1 15 43
M  V30 47 1 18 44
M  V30 48 1 18 45
M  V30 49 1 19 46
M  V30 50 1 19 47
M  V30 51 1 21 48
M  V30 52 1 21 49
M  V30 53 1 22 50
M  V30 54 1 22 51
M  V30 55 1 24 52
M  V30 56 1 24 53
M  V30 57 1 25 54
M  V30 58 1 25 55
M  V30 59 1 26 56
M  V30 60 1 27 57
M  V30 61 1 30 58
M  V30 END BOND
M  V30 END CTAB
M  END
>  <Dataset>  (997) 
ChEMBL_Kinases

>  <Ligand_Instance>  (997) 
nan

>  <PDB_ID>  (997) 
nan

>  <Standardized_SMILES>  (997) 
Cc1cc(Nc2nn(C(C)C)c(=O)c3cc(OCCN4CCOCC4)ccc23)n[nH]1

>  <Name>  (997) 
nan

>  <Pocket>  (997) 
nan

>  <ATP_Site>  (997) 
nan

>  <Peripheral>  (997) 
nan

>  <Num_H_Atoms_ProtBoundConf>  (997) 
nan

>  <Num_Resolved_Atoms>  (997) 
nan

>  <Num_Not_Resolved_Atoms>  (997) 
nan

$$$$
CHEMBL4475820
     RDKit          3D

  0  0  0  0  0  0  0  0  0  0999 V3000
M  V30 BEGIN CTAB
M  V30 COUNTS 43 46 0 0 0
M  V30 BEGIN ATOM
M  V30 1 C 4.318145 -6.496732 0.892362 0
M  V30 2 C 3.620091 -5.366497 0.195431 0
M  V30 3 O 2.363293 -5.364451 0.289796 0
M  V30 4 N 4.211472 -4.309110 -0.551206 0
M  V30 5 C 3.119319 -3.486640 -1.014209 0
M  V30 6 C 2.618911 -3.866204 -2.240713 0
M  V30 7 C 1.556280 -3.152505 -2.805638 0
M  V30 8 C 1.073734 -2.086695 -2.066539 0
M  V30 9 C 1.569413 -1.703294 -0.841896 0
M  V30 10 C 1.037692 -0.573923 -0.084770 0
M  V30 11 C -0.333449 -0.354865 -0.265661 0
M  V30 12 C -0.926367 0.691482 0.410813 0
M  V30 13 C -0.147185 1.475343 1.234038 0
M  V30 14 C -0.440993 2.572126 2.029225 0
M  V30 15 N -1.746205 3.179823 2.175882 0
M  V30 16 C -2.426373 2.548280 3.253097 0
M  V30 17 O -2.203776 1.632629 4.085107 0
M  V30 18 C -3.795069 2.958068 3.646531 0
M  V30 19 C -4.329324 4.302446 3.301723 0
M  V30 20 C -4.723221 3.161301 2.424164 0
M  V30 21 N 0.692076 2.970912 2.638929 0
M  V30 22 N 1.703902 2.200652 2.288827 0
M  V30 23 C 1.222906 1.271187 1.426392 0
M  V30 24 C 1.811582 0.219291 0.744471 0
M  V30 25 C 2.620830 -2.418965 -0.295923 0
M  V30 26 H 4.082032 -7.474744 0.407673 0
M  V30 27 H 5.403610 -6.369956 0.875426 0
M  V30 28 H 4.005229 -6.546221 1.964996 0
M  V30 29 H 5.257108 -4.353851 -0.600820 0
M  V30 30 H 2.990076 -4.696478 -2.823385 0
M  V30 31 H 1.117449 -3.402262 -3.770061 0
M  V30 32 H 0.253108 -1.527008 -2.490815 0
M  V30 33 H -0.935220 -0.965519 -0.905715 0
M  V30 34 H -1.978433 0.856854 0.269836 0
M  V30 35 H -2.274947 3.937211 1.696092 0
M  V30 36 H -4.286692 2.438511 4.491885 0
M  V30 37 H -5.166850 4.690795 3.920668 0
M  V30 38 H -3.591645 5.036598 2.943452 0
M  V30 39 H -5.742339 2.725588 2.492450 0
M  V30 40 H -4.285819 3.185840 1.425600 0
M  V30 41 H 2.696799 2.283089 2.610583 0
M  V30 42 H 2.876130 -0.000215 0.845815 0
M  V30 43 H 3.087686 -2.201275 0.664878 0
M  V30 END ATOM
M  V30 BEGIN BOND
M  V30 1 1 1 2
M  V30 2 2 2 3
M  V30 3 1 2 4
M  V30 4 1 4 5
M  V30 5 2 5 6
M  V30 6 1 6 7
M  V30 7 2 7 8
M  V30 8 1 8 9
M  V30 9 1 9 10
M  V30 10 2 10 11
M  V30 11 1 11 12
M  V30 12 2 12 13
M  V30 13 1 13 14
M  V30 14 1 14 15
M  V30 15 1 15 16
M  V30 16 2 16 17
M  V30 17 1 16 18
M  V30 18 1 18 19
M  V30 19 1 19 20
M  V30 20 2 14 21
M  V30 21 1 21 22
M  V30 22 1 22 23
M  V30 23 2 23 24
M  V30 24 2 9 25
M  V30 25 1 25 5
M  V30 26 1 24 10
M  V30 27 1 23 13
M  V30 28 1 20 18
M  V30 29 1 1 26
M  V30 30 1 1 27
M  V30 31 1 1 28
M  V30 32 1 4 29
M  V30 33 1 6 30
M  V30 34 1 7 31
M  V30 35 1 8 32
M  V30 36 1 11 33
M  V30 37 1 12 34
M  V30 38 1 15 35
M  V30 39 1 18 36
M  V30 40 1 19 37
M  V30 41 1 19 38
M  V30 42 1 20 39
M  V30 43 1 20 40
M  V30 44 1 22 41
M  V30 45 1 24 42
M  V30 46 1 25 43
M  V30 END BOND
M  V30 END CTAB
M  END
>  <Dataset>  (998) 
ChEMBL_Kinases

>  <Ligand_Instance>  (998) 
nan

>  <PDB_ID>  (998) 
nan

>  <Standardized_SMILES>  (998) 
CC(=O)Nc1cccc(-c2ccc3c(NC(=O)C4CC4)n[nH]c3c2)c1

>  <Name>  (998) 
nan

>  <Pocket>  (998) 
nan

>  <ATP_Site>  (998) 
nan

>  <Peripheral>  (998) 
nan

>  <Num_H_Atoms_ProtBoundConf>  (998) 
nan

>  <Num_Resolved_Atoms>  (998) 
nan

>  <Num_Not_Resolved_Atoms>  (998) 
nan

$$$$
CHEMBL4475766
     RDKit          3D

  0  0  0  0  0  0  0  0  0  0999 V3000
M  V30 BEGIN CTAB
M  V30 COUNTS 40 43 0 0 0
M  V30 BEGIN ATOM
M  V30 1 N 1.356450 -3.569759 0.556345 0
M  V30 2 C 0.316547 -2.724938 1.016268 0
M  V30 3 O -0.288256 -3.772810 1.346959 0
M  V30 4 C 0.104914 -1.307044 1.060332 0
M  V30 5 C 1.021665 -0.421133 0.556888 0
M  V30 6 C 2.319623 -0.470212 -0.098268 0
M  V30 7 C 2.437813 -1.322992 -1.175460 0
M  V30 8 C 3.678190 -1.367198 -1.775117 0
M  V30 9 C 4.701472 -0.600998 -1.305702 0
M  V30 10 S 6.427705 -0.378135 -1.798797 0
M  V30 11 C 6.756037 0.903669 -0.403875 0
M  V30 12 N 5.646136 0.976913 0.173246 0
M  V30 13 C 4.616968 0.251349 -0.244673 0
M  V30 14 C 3.360075 0.303729 0.372524 0
M  V30 15 N 0.463350 0.789976 0.799480 0
M  V30 16 N -0.698615 0.652043 1.400476 0
M  V30 17 C -0.980288 -0.658932 1.592884 0
M  V30 18 N -2.027471 -1.437227 2.159695 0
M  V30 19 C -3.455780 -1.227109 2.298358 0
M  V30 20 C -4.093159 -0.533866 1.140031 0
M  V30 21 C -3.422610 0.741614 0.734505 0
M  V30 22 C -2.912972 1.571161 1.865517 0
M  V30 23 C -1.421957 1.872287 1.726115 0
M  V30 24 H 1.621551 -4.049499 -0.331252 0
M  V30 25 H 2.235812 -4.015252 0.944794 0
M  V30 26 H 1.694608 -1.958837 -1.628632 0
M  V30 27 H 3.979293 -1.971253 -2.633369 0
M  V30 28 H 7.673380 1.399808 -0.212248 0
M  V30 29 H 3.117798 0.934516 1.236963 0
M  V30 30 H -1.607561 -2.318320 2.529104 0
M  V30 31 H -3.952693 -2.236750 2.363709 0
M  V30 32 H -3.701188 -0.750293 3.275962 0
M  V30 33 H -4.011052 -1.226169 0.253267 0
M  V30 34 H -5.156067 -0.441203 1.347799 0
M  V30 35 H -4.203053 1.343627 0.184350 0
M  V30 36 H -2.650679 0.546508 -0.051445 0
M  V30 37 H -3.069382 1.146534 2.871852 0
M  V30 38 H -3.405655 2.583024 1.894028 0
M  V30 39 H -1.040516 2.257010 2.696608 0
M  V30 40 H -1.226956 2.637715 0.966604 0
M  V30 END ATOM
M  V30 BEGIN BOND
M  V30 1 1 1 2
M  V30 2 2 2 3
M  V30 3 1 2 4
M  V30 4 1 4 5
M  V30 5 1 5 6
M  V30 6 2 6 7
M  V30 7 1 7 8
M  V30 8 2 8 9
M  V30 9 1 9 10
M  V30 10 1 10 11
M  V30 11 2 11 12
M  V30 12 1 12 13
M  V30 13 2 13 14
M  V30 14 2 5 15
M  V30 15 1 15 16
M  V30 16 1 16 17
M  V30 17 1 17 18
M  V30 18 1 18 19
M  V30 19 1 19 20
M  V30 20 1 20 21
M  V30 21 1 21 22
M  V30 22 1 22 23
M  V30 23 2 17 4
M  V30 24 1 14 6
M  V30 25 1 23 16
M  V30 26 1 13 9
M  V30 27 1 1 24
M  V30 28 1 1 25
M  V30 29 1 7 26
M  V30 30 1 8 27
M  V30 31 1 11 28
M  V30 32 1 14 29
M  V30 33 1 18 30
M  V30 34 1 19 31
M  V30 35 1 19 32
M  V30 36 1 20 33
M  V30 37 1 20 34
M  V30 38 1 21 35
M  V30 39 1 21 36
M  V30 40 1 22 37
M  V30 41 1 22 38
M  V30 42 1 23 39
M  V30 43 1 23 40
M  V30 END BOND
M  V30 END CTAB
M  END
>  <Dataset>  (999) 
ChEMBL_Kinases

>  <Ligand_Instance>  (999) 
nan

>  <PDB_ID>  (999) 
nan

>  <Standardized_SMILES>  (999) 
NC(=O)c1c(-c2ccc3scnc3c2)nn2c1NCCCCC2

>  <Name>  (999) 
nan

>  <Pocket>  (999) 
nan

>  <ATP_Site>  (999) 
nan

>  <Peripheral>  (999) 
nan

>  <Num_H_Atoms_ProtBoundConf>  (999) 
nan

>  <Num_Resolved_Atoms>  (999) 
nan

>  <Num_Not_Resolved_Atoms>  (999) 
nan

$$$$
