0RW
     RDKit          3D

  0  0  0  0  0  0  0  0  0  0999 V3000
M  V30 BEGIN CTAB
M  V30 COUNTS 18 19 0 0 0
M  V30 BEGIN ATOM
M  V30 1 C 1.075823 -1.007620 2.920641 0
M  V30 2 C 0.970896 -2.105744 2.091199 0
M  V30 3 C 0.892756 -2.069282 0.711243 0
M  V30 4 C 0.927051 -0.785313 0.156807 0
M  V30 5 C 1.031397 0.348021 0.944884 0
M  V30 6 C 1.105506 0.236401 2.322434 0
M  V30 7 C 1.034510 1.415433 0.045536 0
M  V30 8 C 1.135115 2.823658 0.523185 0
M  V30 9 N 0.935639 0.899488 -1.199250 0
M  V30 10 N 0.870899 -0.419488 -1.138363 0
M  V30 11 H 1.133013 -1.103769 3.992291 0
M  V30 12 H 0.946806 -3.098597 2.561281 0
M  V30 13 H 0.811957 -2.974635 0.125902 0
M  V30 14 H 1.186207 1.144805 2.903544 0
M  V30 15 H 1.146848 3.500178 -0.352468 0
M  V30 16 H 1.985219 2.951770 1.211902 0
M  V30 17 H 0.207171 3.117098 1.090184 0
M  V30 18 H 0.791164 -1.049012 -1.951496 0
M  V30 END ATOM
M  V30 BEGIN BOND
M  V30 1 2 1 2
M  V30 2 1 2 3
M  V30 3 2 3 4
M  V30 4 1 4 5
M  V30 5 2 5 6
M  V30 6 1 5 7
M  V30 7 1 7 8
M  V30 8 2 7 9
M  V30 9 1 9 10
M  V30 10 1 6 1
M  V30 11 1 10 4
M  V30 12 1 1 11
M  V30 13 1 2 12
M  V30 14 1 3 13
M  V30 15 1 6 14
M  V30 16 1 8 15
M  V30 17 1 8 16
M  V30 18 1 8 17
M  V30 19 1 10 18
M  V30 END BOND
M  V30 END CTAB
M  END
>  <Dataset>  (1) 
PDB

>  <Ligand_Instance>  (1) 
4YXR_0RW_A_401

>  <PDB_ID>  (1) 
4YXR

>  <Standardized_SMILES>  (1) 
[H]C1=C([H])C([H])=C2C(=C1[H])C(C([H])([H])[H])=NN2[H]

>  <Name>  (1) 
3-methyl-2H-indazole

>  <Pocket>  (1) 
A

>  <ATP_Site>  (1) 
1.0

>  <Peripheral>  (1) 
0.0

>  <Num_H_Atoms_ProtBoundConf>  (1) 
8.0

>  <Num_Resolved_Atoms>  (1) 
10.0

>  <Num_Not_Resolved_Atoms>  (1) 
0.0

$$$$
152
     RDKit          3D

  0  0  0  0  0  0  0  0  0  0999 V3000
M  V30 BEGIN CTAB
M  V30 COUNTS 26 25 0 0 0
M  V30 BEGIN ATOM
M  V30 1 O -0.718207 0.940316 2.149785 0
M  V30 2 C 0.350763 0.086084 1.922783 0 CFG=2
M  V30 3 C 1.576273 0.860298 2.428646 0
M  V30 4 C 2.785112 0.028885 2.235089 0
M  V30 5 O 3.839032 0.625096 1.860474 0
M  V30 6 O 2.968325 -1.322062 2.396606 0 CHG=-1 VAL=1
M  V30 7 C 0.589095 -0.220282 0.480636 0
M  V30 8 N -0.519756 -0.847353 -0.189728 0 CHG=1 VAL=4
M  V30 9 C -0.083012 -1.096566 -1.550318 0
M  V30 10 C -1.672064 0.024840 -0.302772 0
M  V30 11 C -0.848156 -2.101933 0.425606 0
M  V30 12 H -1.411893 0.556411 2.726684 0
M  V30 13 H 0.245491 -0.805297 2.552402 0
M  V30 14 H 1.420049 1.114447 3.482198 0
M  V30 15 H 1.626920 1.805681 1.819054 0
M  V30 16 H 0.942682 0.661623 -0.081874 0
M  V30 17 H 1.428777 -0.969645 0.435880 0
M  V30 18 H 0.592594 -1.984377 -1.610514 0
M  V30 19 H -0.982372 -1.329853 -2.152095 0
M  V30 20 H 0.418045 -0.186549 -1.958940 0
M  V30 21 H -1.388243 1.101059 -0.212776 0
M  V30 22 H -2.482440 -0.251933 0.426474 0
M  V30 23 H -2.156991 -0.084355 -1.292822 0
M  V30 24 H 0.075042 -2.684201 0.568045 0
M  V30 25 H -1.321152 -1.959631 1.415551 0
M  V30 26 H -1.497955 -2.697632 -0.255930 0
M  V30 END ATOM
M  V30 BEGIN BOND
M  V30 1 1 1 2
M  V30 2 1 2 3
M  V30 3 1 3 4
M  V30 4 2 4 5
M  V30 5 1 4 6
M  V30 6 1 2 7
M  V30 7 1 7 8
M  V30 8 1 8 9
M  V30 9 1 8 10
M  V30 10 1 8 11
M  V30 11 1 1 12
M  V30 12 1 2 13 CFG=1
M  V30 13 1 3 14
M  V30 14 1 3 15
M  V30 15 1 7 16
M  V30 16 1 7 17
M  V30 17 1 9 18
M  V30 18 1 9 19
M  V30 19 1 9 20
M  V30 20 1 10 21
M  V30 21 1 10 22
M  V30 22 1 10 23
M  V30 23 1 11 24
M  V30 24 1 11 25
M  V30 25 1 11 26
M  V30 END BOND
M  V30 END CTAB
M  END
>  <Dataset>  (2) 
PDB

>  <Ligand_Instance>  (2) 
5N3N_152_A_403

>  <PDB_ID>  (2) 
5N3N

>  <Standardized_SMILES>  (2) 
[H]O[C@]([H])(C([H])([H])C(=O)[O-])C([H])([H])[N+](C([H])([H])[H])(C([H])([H])[H])C([H])([H])[H]

>  <Name>  (2) 
CARNITINE

>  <Pocket>  (2) 
X

>  <ATP_Site>  (2) 
0.0

>  <Peripheral>  (2) 
1.0

>  <Num_H_Atoms_ProtBoundConf>  (2) 
15.0

>  <Num_Resolved_Atoms>  (2) 
11.0

>  <Num_Not_Resolved_Atoms>  (2) 
0.0

$$$$
15I
     RDKit          3D

  0  0  0  0  0  0  0  0  0  0999 V3000
M  V30 BEGIN CTAB
M  V30 COUNTS 41 44 0 0 0
M  V30 BEGIN ATOM
M  V30 1 C -2.030887 -4.810432 1.935560 0
M  V30 2 N -0.879710 -5.293398 2.460765 0
M  V30 3 C 0.229266 -4.563549 2.308118 0
M  V30 4 C 0.213957 -3.344938 1.633122 0
M  V30 5 N 1.458463 -2.895218 1.665334 0
M  V30 6 C 2.279316 -3.750670 2.321466 0
M  V30 7 N 1.504671 -4.784121 2.716668 0
M  V30 8 C -0.971520 -2.857508 1.097740 0
M  V30 9 N -1.006289 -1.636675 0.417149 0
M  V30 10 C -0.190205 -1.522659 -0.736626 0
M  V30 11 C 0.202065 -0.122205 -1.067305 0
M  V30 12 C 0.267224 0.828451 0.077699 0
M  V30 13 C -0.730083 0.557074 1.179308 0
M  V30 14 C -1.797022 -0.435770 0.754318 0
M  V30 15 C 0.002334 2.235348 -0.398747 0
M  V30 16 C 1.218092 3.116578 -0.351955 0
M  V30 17 C 1.951312 3.072601 0.960951 0
M  V30 18 N 1.669818 1.843272 1.695433 0 CHG=1 VAL=4
M  V30 19 C 1.645352 0.793048 0.693794 0
M  V30 20 N -2.065337 -3.623298 1.273604 0
M  V30 21 H -2.898630 -5.439978 2.087212 0
M  V30 22 H 3.329671 -3.492817 2.415710 0
M  V30 23 H 1.918533 -5.570222 3.243013 0
M  V30 24 H 0.702500 -2.162623 -0.761233 0
M  V30 25 H -0.815626 -1.891250 -1.601821 0
M  V30 26 H -0.465920 0.330254 -1.847492 0
M  V30 27 H 1.220708 -0.109197 -1.544556 0
M  V30 28 H -0.234256 0.043664 2.055313 0
M  V30 29 H -1.263658 1.461116 1.527819 0
M  V30 30 H -2.310205 -0.019792 -0.138885 0
M  V30 31 H -2.443690 -0.612791 1.621124 0
M  V30 32 H -0.325346 2.210567 -1.459647 0
M  V30 33 H -0.817262 2.745682 0.150098 0
M  V30 34 H 0.850822 4.162950 -0.478937 0
M  V30 35 H 1.867280 2.904485 -1.217554 0
M  V30 36 H 1.784707 3.943169 1.598286 0
M  V30 37 H 3.048169 3.040376 0.729460 0
M  V30 38 H 2.382811 1.670436 2.411797 0
M  V30 39 H 0.749449 2.013674 2.153954 0
M  V30 40 H 2.368546 1.048154 -0.118273 0
M  V30 41 H 1.933412 -0.177838 1.093297 0
M  V30 END ATOM
M  V30 BEGIN BOND
M  V30 1 2 1 2
M  V30 2 1 2 3
M  V30 3 2 3 4
M  V30 4 1 4 5
M  V30 5 2 5 6
M  V30 6 1 6 7
M  V30 7 1 4 8
M  V30 8 1 8 9
M  V30 9 1 9 10
M  V30 10 1 10 11
M  V30 11 1 11 12
M  V30 12 1 12 13
M  V30 13 1 13 14
M  V30 14 1 12 15
M  V30 15 1 15 16
M  V30 16 1 16 17
M  V30 17 1 17 18
M  V30 18 1 18 19
M  V30 19 2 8 20
M  V30 20 1 20 1
M  V30 21 1 7 3
M  V30 22 1 14 9
M  V30 23 1 19 12
M  V30 24 1 1 21
M  V30 25 1 6 22
M  V30 26 1 7 23
M  V30 27 1 10 24
M  V30 28 1 10 25
M  V30 29 1 11 26
M  V30 30 1 11 27
M  V30 31 1 13 28
M  V30 32 1 13 29
M  V30 33 1 14 30
M  V30 34 1 14 31
M  V30 35 1 15 32
M  V30 36 1 15 33
M  V30 37 1 16 34
M  V30 38 1 16 35
M  V30 39 1 17 36
M  V30 40 1 17 37
M  V30 41 1 18 38
M  V30 42 1 18 39
M  V30 43 1 19 40
M  V30 44 1 19 41
M  V30 END BOND
M  V30 END CTAB
M  END
>  <Dataset>  (3) 
PDB

>  <Ligand_Instance>  (3) 
3ZO2_15I_A_1351

>  <PDB_ID>  (3) 
3ZO2

>  <Standardized_SMILES>  (3) 
[H]C1=NC2=C(N=C([H])N2[H])C(N2C([H])([H])C([H])([H])C3(C([H])([H])C2([H])[H])C([H])([H])C([H])([H])C([H])([H])[N+]([H])([H])C3([H])[H])=N1

>  <Name>  (3) 
6-(2,9-Diazaspiro[5.5]undecan-9-yl)-9H-purine

>  <Pocket>  (3) 
A

>  <ATP_Site>  (3) 
1.0

>  <Peripheral>  (3) 
0.0

>  <Num_H_Atoms_ProtBoundConf>  (3) 
21.0

>  <Num_Resolved_Atoms>  (3) 
20.0

>  <Num_Not_Resolved_Atoms>  (3) 
0.0

$$$$
1LQ
     RDKit          3D

  0  0  0  0  0  0  0  0  0  0999 V3000
M  V30 BEGIN CTAB
M  V30 COUNTS 18 19 0 0 0
M  V30 BEGIN ATOM
M  V30 1 C -1.631220 0.410676 1.366502 0
M  V30 2 N -0.680711 1.085686 2.018471 0
M  V30 3 C 0.607300 0.818511 1.704982 0
M  V30 4 C 1.566578 1.531283 2.394896 0
M  V30 5 C 2.908886 1.312935 2.129048 0
M  V30 6 C 3.269947 0.381528 1.173725 0
M  V30 7 C 2.324701 -0.345892 0.468512 0
M  V30 8 C 1.006871 -0.095560 0.765934 0
M  V30 9 C -0.019099 -0.770627 0.116421 0
M  V30 10 N 0.285845 -1.728943 -0.864284 0
M  V30 11 N -1.308179 -0.507627 0.425708 0
M  V30 12 H -2.696173 0.580799 1.574281 0
M  V30 13 H 1.374231 2.286114 3.165796 0
M  V30 14 H 3.705124 1.854538 2.651061 0
M  V30 15 H 4.303727 0.150936 0.905732 0
M  V30 16 H 2.540994 -1.082786 -0.284972 0
M  V30 17 H -0.182592 -1.460348 -1.763584 0
M  V30 18 H 0.811746 -2.597833 -0.988773 0
M  V30 END ATOM
M  V30 BEGIN BOND
M  V30 1 2 1 2
M  V30 2 1 2 3
M  V30 3 2 3 4
M  V30 4 1 4 5
M  V30 5 2 5 6
M  V30 6 1 6 7
M  V30 7 2 7 8
M  V30 8 1 8 9
M  V30 9 1 9 10
M  V30 10 2 9 11
M  V30 11 1 11 1
M  V30 12 1 8 3
M  V30 13 1 1 12
M  V30 14 1 4 13
M  V30 15 1 5 14
M  V30 16 1 6 15
M  V30 17 1 7 16
M  V30 18 1 10 17
M  V30 19 1 10 18
M  V30 END BOND
M  V30 END CTAB
M  END
>  <Dataset>  (4) 
PDB

>  <Ligand_Instance>  (4) 
6Y0B_1LQ_A_401

>  <PDB_ID>  (4) 
6Y0B

>  <Standardized_SMILES>  (4) 
[H]C1=NC2=C([H])C([H])=C([H])C([H])=C2C(N([H])[H])=N1

>  <Name>  (4) 
quinazolin-4-amine

>  <Pocket>  (4) 
A

>  <ATP_Site>  (4) 
1.0

>  <Peripheral>  (4) 
0.0

>  <Num_H_Atoms_ProtBoundConf>  (4) 
7.0

>  <Num_Resolved_Atoms>  (4) 
11.0

>  <Num_Not_Resolved_Atoms>  (4) 
0.0

$$$$
1SB
     RDKit          3D

  0  0  0  0  0  0  0  0  0  0999 V3000
M  V30 BEGIN CTAB
M  V30 COUNTS 37 38 0 0 0
M  V30 BEGIN ATOM
M  V30 1 O -2.782083 -7.609292 -1.394142 0
M  V30 2 C -2.040239 -6.473337 -1.120834 0
M  V30 3 C -2.192924 -5.355422 -1.945434 0
M  V30 4 C -1.440328 -4.236697 -1.649006 0
M  V30 5 C -0.574096 -4.184438 -0.605600 0
M  V30 6 C 0.203916 -2.980242 -0.326267 0
M  V30 7 N 0.117397 -1.923650 -1.034071 0
M  V30 8 N 0.852252 -0.752088 -0.789655 0
M  V30 9 C 0.514906 0.451002 -0.110938 0
M  V30 10 O -0.628520 0.585324 0.397969 0
M  V30 11 C 1.685953 1.376455 -0.149188 0
M  V30 12 C 1.268674 2.608073 0.573912 0
M  V30 13 C 0.666181 3.719107 0.021518 0
M  V30 14 C 0.314353 4.811884 0.761102 0
M  V30 15 C 0.591171 4.762057 2.116903 0
M  V30 16 C 1.189314 3.674958 2.703387 0
M  V30 17 O 1.435866 3.697458 4.070939 0
M  V30 18 C 2.048331 2.588459 4.681337 0
M  V30 19 C 1.542557 2.569440 1.940863 0
M  V30 20 C -0.418627 -5.285669 0.212960 0
M  V30 21 C -1.152959 -6.424565 -0.049375 0
M  V30 22 H -2.801060 -8.361541 -0.708068 0
M  V30 23 H -2.902037 -5.440328 -2.775639 0
M  V30 24 H -1.597004 -3.411482 -2.312175 0
M  V30 25 H 0.893590 -2.943543 0.507304 0
M  V30 26 H 1.738630 -1.032861 -1.264372 0
M  V30 27 H 1.926286 1.691976 -1.202259 0
M  V30 28 H 2.611586 0.949881 0.240277 0
M  V30 29 H 0.488396 3.668376 -1.047146 0
M  V30 30 H -0.159170 5.662040 0.271803 0
M  V30 31 H 0.322316 5.619026 2.734494 0
M  V30 32 H 1.491136 1.669729 4.403904 0
M  V30 33 H 3.112377 2.452430 4.413223 0
M  V30 34 H 1.987630 2.656667 5.790290 0
M  V30 35 H 2.010351 1.732832 2.432084 0
M  V30 36 H 0.292930 -5.200642 1.046114 0
M  V30 37 H -1.019405 -7.287804 0.606756 0
M  V30 END ATOM
M  V30 BEGIN BOND
M  V30 1 1 1 2
M  V30 2 2 2 3
M  V30 3 1 3 4
M  V30 4 2 4 5
M  V30 5 1 5 6
M  V30 6 2 6 7
M  V30 7 1 7 8
M  V30 8 1 8 9
M  V30 9 2 9 10
M  V30 10 1 9 11
M  V30 11 1 11 12
M  V30 12 2 12 13
M  V30 13 1 13 14
M  V30 14 2 14 15
M  V30 15 1 15 16
M  V30 16 1 16 17
M  V30 17 1 17 18
M  V30 18 2 16 19
M  V30 19 1 5 20
M  V30 20 2 20 21
M  V30 21 1 21 2
M  V30 22 1 19 12
M  V30 23 1 1 22
M  V30 24 1 3 23
M  V30 25 1 4 24
M  V30 26 1 6 25
M  V30 27 1 8 26
M  V30 28 1 11 27
M  V30 29 1 11 28
M  V30 30 1 13 29
M  V30 31 1 14 30
M  V30 32 1 15 31
M  V30 33 1 18 32
M  V30 34 1 18 33
M  V30 35 1 18 34
M  V30 36 1 19 35
M  V30 37 1 20 36
M  V30 38 1 21 37
M  V30 END BOND
M  V30 END CTAB
M  END
>  <Dataset>  (5) 
PDB

>  <Ligand_Instance>  (5) 
3OVV_1SB_A_2001

>  <PDB_ID>  (5) 
3OVV

>  <Standardized_SMILES>  (5) 
[H]OC1=C([H])C([H])=C(/C([H])=N/N([H])C(=O)C([H])([H])C2=C([H])C([H])=C([H])C(OC([H])([H])[H])=C2[H])C([H])=C1[H]

>  <Name>  (5) 
N'-[(1E)-(4-hydroxyphenyl)methylidene]-2-(3-methoxyphenyl)acetohydrazide

>  <Pocket>  (5) 
A

>  <ATP_Site>  (5) 
1.0

>  <Peripheral>  (5) 
0.0

>  <Num_H_Atoms_ProtBoundConf>  (5) 
16.0

>  <Num_Resolved_Atoms>  (5) 
21.0

>  <Num_Not_Resolved_Atoms>  (5) 
0.0

$$$$
1SQ
     RDKit          3D

  0  0  0  0  0  0  0  0  0  0999 V3000
M  V30 BEGIN CTAB
M  V30 COUNTS 19 20 0 0 0
M  V30 BEGIN ATOM
M  V30 1 C -1.664685 0.409345 0.468914 0
M  V30 2 C -0.904566 1.000140 1.459286 0
M  V30 3 C 0.422864 0.630549 1.501313 0
M  V30 4 C 1.260559 1.154297 2.439395 0
M  V30 5 C 2.602438 0.788150 2.490857 0
M  V30 6 C 3.112849 -0.116629 1.588602 0
M  V30 7 C 2.241999 -0.645877 0.631729 0
M  V30 8 C 0.919417 -0.277152 0.590448 0
M  V30 9 C 0.103376 -0.838223 -0.384651 0
M  V30 10 N 0.560665 -1.766162 -1.334303 0
M  V30 11 N -1.193997 -0.471770 -0.419429 0
M  V30 12 H -2.727771 0.656633 0.376578 0
M  V30 13 H -1.318448 1.713916 2.166977 0
M  V30 14 H 0.886355 1.874508 3.169374 0
M  V30 15 H 3.212512 1.247530 3.267900 0
M  V30 16 H 4.156018 -0.373943 1.661511 0
M  V30 17 H 2.660783 -1.346617 -0.058452 0
M  V30 18 H 1.536609 -1.867423 -1.730918 0
M  V30 19 H -0.068478 -2.479645 -1.754204 0
M  V30 END ATOM
M  V30 BEGIN BOND
M  V30 1 2 1 2
M  V30 2 1 2 3
M  V30 3 2 3 4
M  V30 4 1 4 5
M  V30 5 2 5 6
M  V30 6 1 6 7
M  V30 7 2 7 8
M  V30 8 1 8 9
M  V30 9 1 9 10
M  V30 10 2 9 11
M  V30 11 1 11 1
M  V30 12 1 8 3
M  V30 13 1 1 12
M  V30 14 1 2 13
M  V30 15 1 4 14
M  V30 16 1 5 15
M  V30 17 1 6 16
M  V30 18 1 7 17
M  V30 19 1 10 18
M  V30 20 1 10 19
M  V30 END BOND
M  V30 END CTAB
M  END
>  <Dataset>  (6) 
PDB

>  <Ligand_Instance>  (6) 
7AXW_1SQ_A_401

>  <PDB_ID>  (6) 
7AXW

>  <Standardized_SMILES>  (6) 
[H]C1=C([H])C2=C([H])C([H])=C([H])C([H])=C2C(N([H])[H])=N1

>  <Name>  (6) 
ISOQUINOLIN-1-AMINE

>  <Pocket>  (6) 
A

>  <ATP_Site>  (6) 
1.0

>  <Peripheral>  (6) 
0.0

>  <Num_H_Atoms_ProtBoundConf>  (6) 
8.0

>  <Num_Resolved_Atoms>  (6) 
11.0

>  <Num_Not_Resolved_Atoms>  (6) 
0.0

$$$$
2PY
     RDKit          3D

  0  0  0  0  0  0  0  0  0  0999 V3000
M  V30 BEGIN CTAB
M  V30 COUNTS 51 55 0 0 0
M  V30 BEGIN ATOM
M  V30 1 C 0.560158 -1.798735 2.801627 0
M  V30 2 N 1.731005 -2.380324 3.225152 0
M  V30 3 C 2.910562 -1.917005 2.722938 0
M  V30 4 C 2.895852 -0.885502 1.811976 0
M  V30 5 C 4.099973 -0.326915 1.220042 0
M  V30 6 C 5.178997 -1.203967 1.021965 0
M  V30 7 C 6.350705 -0.742403 0.468918 0
M  V30 8 C 6.563322 0.557889 0.077365 0
M  V30 9 C 5.487922 1.432870 0.274295 0
M  V30 10 C 4.311592 0.976106 0.827933 0
M  V30 11 C 5.893450 2.672923 -0.175091 0
M  V30 12 N 7.181467 2.569893 -0.636639 0
M  V30 13 N 7.545920 1.288037 -0.467957 0
M  V30 14 C 1.706957 -0.327990 1.411591 0
M  V30 15 C 0.480078 -0.736516 1.867817 0
M  V30 16 O -0.834437 -0.519629 1.778296 0
M  V30 17 C -1.642982 0.311155 1.086113 0
M  V30 18 C -1.700990 0.258683 -0.393119 0 CFG=2
M  V30 19 C -2.297961 -0.972575 -0.999066 0
M  V30 20 C -3.701347 -1.231501 -0.619491 0
M  V30 21 C -4.764115 -0.807231 -1.435079 0
M  V30 22 N -5.948574 -1.135291 -0.841500 0
M  V30 23 C -5.668293 -1.743498 0.302427 0
M  V30 24 C -6.453698 -2.301756 1.316460 0
M  V30 25 C -5.931009 -2.906100 2.438979 0
M  V30 26 C -4.566735 -2.949908 2.544590 0
M  V30 27 C -3.747018 -2.425154 1.594230 0
M  V30 28 C -4.304774 -1.831160 0.491979 0
M  V30 29 N -0.448431 0.530768 -1.073510 0 CHG=1 VAL=4
M  V30 30 H -0.185512 -2.372894 3.368485 0
M  V30 31 H 3.901614 -2.261905 2.949150 0
M  V30 32 H 5.099338 -2.233587 1.298227 0
M  V30 33 H 7.187329 -1.441284 0.320473 0
M  V30 34 H 3.459104 1.627339 0.994997 0
M  V30 35 H 5.293142 3.583191 -0.166758 0
M  V30 36 H 8.435129 0.785762 -0.682471 0
M  V30 37 H 1.569431 0.479394 0.729214 0
M  V30 38 H -1.430527 1.423564 1.323042 0
M  V30 39 H -2.702842 0.227335 1.455240 0
M  V30 40 H -2.352452 1.153339 -0.691443 0
M  V30 41 H -1.638015 -1.847186 -0.726519 0
M  V30 42 H -2.226889 -0.923436 -2.102614 0
M  V30 43 H -4.690801 -0.301158 -2.384927 0
M  V30 44 H -6.887022 -0.921040 -1.258181 0
M  V30 45 H -7.518663 -2.260990 1.222642 0
M  V30 46 H -6.570318 -3.334834 3.215342 0
M  V30 47 H -4.136096 -3.421826 3.421839 0
M  V30 48 H -2.676334 -2.460367 1.657509 0
M  V30 49 H -0.693655 0.749692 -2.078302 0
M  V30 50 H 0.201411 -0.263750 -1.075162 0
M  V30 51 H -0.077268 1.432768 -0.708362 0
M  V30 END ATOM
M  V30 BEGIN BOND
M  V30 1 2 1 2
M  V30 2 1 2 3
M  V30 3 2 3 4
M  V30 4 1 4 5
M  V30 5 2 5 6
M  V30 6 1 6 7
M  V30 7 2 7 8
M  V30 8 1 8 9
M  V30 9 2 9 10
M  V30 10 1 9 11
M  V30 11 2 11 12
M  V30 12 1 12 13
M  V30 13 1 4 14
M  V30 14 2 14 15
M  V30 15 1 15 16
M  V30 16 1 16 17
M  V30 17 1 17 18
M  V30 18 1 18 19
M  V30 19 1 19 20
M  V30 20 2 20 21
M  V30 21 1 21 22
M  V30 22 1 22 23
M  V30 23 2 23 24
M  V30 24 1 24 25
M  V30 25 2 25 26
M  V30 26 1 26 27
M  V30 27 2 27 28
M  V30 28 1 18 29
M  V30 29 1 15 1
M  V30 30 1 28 20
M  V30 31 1 10 5
M  V30 32 1 28 23
M  V30 33 1 13 8
M  V30 34 1 1 30
M  V30 35 1 3 31
M  V30 36 1 6 32
M  V30 37 1 7 33
M  V30 38 1 10 34
M  V30 39 1 11 35
M  V30 40 1 13 36
M  V30 41 1 14 37
M  V30 42 1 17 38
M  V30 43 1 17 39
M  V30 44 1 18 40 CFG=3
M  V30 45 1 19 41
M  V30 46 1 19 42
M  V30 47 1 21 43
M  V30 48 1 22 44
M  V30 49 1 24 45
M  V30 50 1 25 46
M  V30 51 1 26 47
M  V30 52 1 27 48
M  V30 53 1 29 49
M  V30 54 1 29 50
M  V30 55 1 29 51
M  V30 END BOND
M  V30 END CTAB
M  END
>  <Dataset>  (7) 
PDB

>  <Ligand_Instance>  (7) 
2OH0_2PY_E_351

>  <PDB_ID>  (7) 
2OH0

>  <Standardized_SMILES>  (7) 
[H]C1=NC([H])=C(C2=C([H])C([H])=C3C(=C2[H])C([H])=NN3[H])C([H])=C1OC([H])([H])[C@]([H])(C([H])([H])C1=C([H])N([H])C2=C([H])C([H])=C([H])C([H])=C21)[N+]([H])([H])[H]

>  <Name>  (7) 
(2S)-1-{[5-(1H-INDAZOL-5-YL)PYRIDIN-3-YL]OXY}-3-[(7AS)-7AH-INDOL-3-YL]PROPAN-2-AMINE

>  <Pocket>  (7) 
A

>  <ATP_Site>  (7) 
1.0

>  <Peripheral>  (7) 
0.0

>  <Num_H_Atoms_ProtBoundConf>  (7) 
22.0

>  <Num_Resolved_Atoms>  (7) 
29.0

>  <Num_Not_Resolved_Atoms>  (7) 
0.0

$$$$
2SB
     RDKit          3D

  0  0  0  0  0  0  0  0  0  0999 V3000
M  V30 BEGIN CTAB
M  V30 COUNTS 36 37 0 0 0
M  V30 BEGIN ATOM
M  V30 1 O 1.895591 -5.228970 5.508794 0
M  V30 2 C 1.528115 -4.626070 4.299629 0
M  V30 3 C 0.291677 -4.909336 3.719434 0
M  V30 4 C -0.059247 -4.308460 2.526813 0
M  V30 5 C 0.768763 -3.424799 1.868251 0
M  V30 6 C 0.430389 -2.772764 0.608635 0
M  V30 7 N 1.259441 -1.962564 0.061789 0
M  V30 8 N 1.006135 -1.299083 -1.145770 0
M  V30 9 C 0.958160 0.105430 -0.826980 0
M  V30 10 O 1.128442 0.533032 0.358825 0
M  V30 11 C 0.727433 1.318527 -1.666321 0 CFG=2
M  V30 12 C -0.369855 2.148739 -1.154338 0
M  V30 13 C -0.109402 3.277155 -0.373555 0
M  V30 14 C -1.019427 4.151786 0.177750 0
M  V30 15 C -2.343322 3.859146 -0.085612 0
M  V30 16 C -2.684642 2.753583 -0.854759 0
M  V30 17 C -1.718974 1.914674 -1.379050 0
M  V30 18 N 0.514723 0.988738 -3.059906 0 CHG=1 VAL=4
M  V30 19 C 1.978675 -3.174961 2.477269 0
M  V30 20 C 2.373875 -3.749549 3.666307 0
M  V30 21 Br 4.072820 -3.317869 4.399456 0
M  V30 22 H 1.536922 -4.740248 6.336025 0
M  V30 23 H -0.324975 -5.596305 4.253453 0
M  V30 24 H -1.025483 -4.537401 2.084843 0
M  V30 25 H -0.521261 -2.974249 0.137082 0
M  V30 26 H 0.833153 -1.365880 -2.193048 0
M  V30 27 H 1.662213 1.935984 -1.625136 0
M  V30 28 H 0.952352 3.476584 -0.186348 0
M  V30 29 H -0.664314 4.979382 0.758343 0
M  V30 30 H -3.088208 4.531492 0.335993 0
M  V30 31 H -3.736640 2.539773 -1.051288 0
M  V30 32 H -1.983748 1.042856 -1.985363 0
M  V30 33 H 1.333836 0.501232 -3.463175 0
M  V30 34 H -0.351374 0.399927 -3.160031 0
M  V30 35 H 0.312761 1.881727 -3.545193 0
M  V30 36 H 2.649063 -2.478128 1.972164 0
M  V30 END ATOM
M  V30 BEGIN BOND
M  V30 1 1 1 2
M  V30 2 2 2 3
M  V30 3 1 3 4
M  V30 4 2 4 5
M  V30 5 1 5 6
M  V30 6 2 6 7
M  V30 7 1 7 8
M  V30 8 1 8 9
M  V30 9 2 9 10
M  V30 10 1 9 11
M  V30 11 1 11 12
M  V30 12 2 12 13
M  V30 13 1 13 14
M  V30 14 2 14 15
M  V30 15 1 15 16
M  V30 16 2 16 17
M  V30 17 1 11 18
M  V30 18 1 5 19
M  V30 19 2 19 20
M  V30 20 1 20 21
M  V30 21 1 20 2
M  V30 22 1 17 12
M  V30 23 1 1 22
M  V30 24 1 3 23
M  V30 25 1 4 24
M  V30 26 1 6 25
M  V30 27 1 8 26
M  V30 28 1 11 27 CFG=3
M  V30 29 1 13 28
M  V30 30 1 14 29
M  V30 31 1 15 30
M  V30 32 1 16 31
M  V30 33 1 17 32
M  V30 34 1 18 33
M  V30 35 1 18 34
M  V30 36 1 18 35
M  V30 37 1 19 36
M  V30 END BOND
M  V30 END CTAB
M  END
>  <Dataset>  (8) 
PDB

>  <Ligand_Instance>  (8) 
3OWP_2SB_A_2001

>  <PDB_ID>  (8) 
3OWP

>  <Standardized_SMILES>  (8) 
[H]OC1=C([H])C([H])=C(/C([H])=N/N([H])C(=O)[C@]([H])(C2=C([H])C([H])=C([H])C([H])=C2[H])[N+]([H])([H])[H])C([H])=C1Br

>  <Name>  (8) 
(2S)-2-amino-N'-[(1E)-(3-bromo-4-hydroxyphenyl)methylidene]-2-phenylethanehydrazide

>  <Pocket>  (8) 
A

>  <ATP_Site>  (8) 
1.0

>  <Peripheral>  (8) 
0.0

>  <Num_H_Atoms_ProtBoundConf>  (8) 
15.0

>  <Num_Resolved_Atoms>  (8) 
21.0

>  <Num_Not_Resolved_Atoms>  (8) 
0.0

$$$$
35R
     RDKit          3D

  0  0  0  0  0  0  0  0  0  0999 V3000
M  V30 BEGIN CTAB
M  V30 COUNTS 52 56 0 0 0
M  V30 BEGIN ATOM
M  V30 1 C -0.968068 -1.346351 0.881927 0
M  V30 2 C 0.384439 -1.512123 1.101112 0
M  V30 3 N 1.499623 -0.752164 1.155435 0
M  V30 4 C 2.567596 -1.526811 1.419251 0
M  V30 5 C 3.952843 -1.093802 1.558757 0
M  V30 6 N 4.999385 -1.884249 1.821707 0
M  V30 7 N 6.116342 -1.153214 1.880360 0
M  V30 8 C 5.815181 0.151156 1.652880 0
M  V30 9 C 4.434092 0.178160 1.449121 0
M  V30 10 N 3.723074 1.374606 1.177515 0
M  V30 11 C 3.120892 2.274627 2.112567 0
M  V30 12 O 3.182043 2.055326 3.333066 0
M  V30 13 N 2.480718 3.385687 1.520151 0
M  V30 14 C 1.824599 4.385552 2.341018 0
M  V30 15 C 2.151274 5.808514 1.877699 0
M  V30 16 C 0.773666 5.259321 1.802165 0
M  V30 17 N 2.113670 -2.792722 1.531989 0
M  V30 18 C 0.781752 -2.831785 1.344665 0
M  V30 19 C -0.081275 -3.905395 1.371060 0
M  V30 20 C -1.429815 -3.700756 1.146972 0
M  V30 21 C -1.862106 -2.398077 0.900748 0
M  V30 22 C -3.298514 -2.236145 0.669968 0
M  V30 23 N -3.715548 -2.348307 -0.704018 0 CHG=1 VAL=4
M  V30 24 C -4.995262 -3.044999 -0.686483 0
M  V30 25 C -5.404186 -3.594502 -2.011048 0
M  V30 26 O -4.372354 -4.131503 -2.747229 0
M  V30 27 C -3.368647 -3.151476 -2.924823 0
M  V30 28 C -2.751001 -2.976931 -1.551932 0
M  V30 29 H -1.314523 -0.355878 0.692150 0
M  V30 30 H 7.048468 -1.585354 2.076222 0
M  V30 31 H 6.571021 0.915836 1.654514 0
M  V30 32 H 3.701905 1.510935 0.133788 0
M  V30 33 H 2.445068 3.545949 0.475299 0
M  V30 34 H 1.858892 4.221930 3.442711 0
M  V30 35 H 2.675076 5.967509 0.929467 0
M  V30 36 H 2.432832 6.520777 2.687529 0
M  V30 37 H 0.030450 5.682286 2.500650 0
M  V30 38 H 0.327516 5.096820 0.791043 0
M  V30 39 H 2.761611 -3.609074 1.740876 0
M  V30 40 H 0.281985 -4.893511 1.562948 0
M  V30 41 H -2.079635 -4.546950 1.172181 0
M  V30 42 H -3.874660 -2.916575 1.359112 0
M  V30 43 H -3.591510 -1.211919 1.018892 0
M  V30 44 H -3.912864 -1.397739 -1.129602 0
M  V30 45 H -5.764601 -2.269247 -0.405246 0
M  V30 46 H -4.970468 -3.780362 0.132272 0
M  V30 47 H -5.928434 -2.803501 -2.607890 0
M  V30 48 H -6.135965 -4.420273 -1.824492 0
M  V30 49 H -2.636369 -3.558181 -3.648410 0
M  V30 50 H -3.875695 -2.242747 -3.281491 0
M  V30 51 H -1.912039 -2.277585 -1.683213 0
M  V30 52 H -2.448134 -3.981325 -1.230224 0
M  V30 END ATOM
M  V30 BEGIN BOND
M  V30 1 2 1 2
M  V30 2 1 2 3
M  V30 3 2 3 4
M  V30 4 1 4 5
M  V30 5 2 5 6
M  V30 6 1 6 7
M  V30 7 1 7 8
M  V30 8 2 8 9
M  V30 9 1 9 10
M  V30 10 1 10 11
M  V30 11 2 11 12
M  V30 12 1 11 13
M  V30 13 1 13 14
M  V30 14 1 14 15
M  V30 15 1 15 16
M  V30 16 1 4 17
M  V30 17 1 17 18
M  V30 18 2 18 19
M  V30 19 1 19 20
M  V30 20 2 20 21
M  V30 21 1 21 22
M  V30 22 1 22 23
M  V30 23 1 23 24
M  V30 24 1 24 25
M  V30 25 1 25 26
M  V30 26 1 26 27
M  V30 27 1 27 28
M  V30 28 1 21 1
M  V30 29 1 28 23
M  V30 30 1 18 2
M  V30 31 1 9 5
M  V30 32 1 16 14
M  V30 33 1 1 29
M  V30 34 1 7 30
M  V30 35 1 8 31
M  V30 36 1 10 32
M  V30 37 1 13 33
M  V30 38 1 14 34
M  V30 39 1 15 35
M  V30 40 1 15 36
M  V30 41 1 16 37
M  V30 42 1 16 38
M  V30 43 1 17 39
M  V30 44 1 19 40
M  V30 45 1 20 41
M  V30 46 1 22 42
M  V30 47 1 22 43
M  V30 48 1 23 44
M  V30 49 1 24 45
M  V30 50 1 24 46
M  V30 51 1 25 47
M  V30 52 1 25 48
M  V30 53 1 27 49
M  V30 54 1 27 50
M  V30 55 1 28 51
M  V30 56 1 28 52
M  V30 END BOND
M  V30 END CTAB
M  END
>  <Dataset>  (9) 
PDB

>  <Ligand_Instance>  (9) 
5N23_35R_A_401

>  <PDB_ID>  (9) 
5N23

>  <Standardized_SMILES>  (9) 
[H]C1=C2N=C(C3=NN([H])C([H])=C3N([H])C(=O)N([H])C3([H])C([H])([H])C3([H])[H])N([H])C2=C([H])C([H])=C1C([H])([H])[N+]1([H])C([H])([H])C([H])([H])OC([H])([H])C1([H])[H]

>  <Name>  (9) 
1-cyclopropyl-3-{3-[5-(morpholin-4-ylmethyl)-1H-benzimidazol-2-yl]-1H-pyrazol-4-yl}urea

>  <Pocket>  (9) 
A

>  <ATP_Site>  (9) 
1.0

>  <Peripheral>  (9) 
0.0

>  <Num_H_Atoms_ProtBoundConf>  (9) 
24.0

>  <Num_Resolved_Atoms>  (9) 
28.0

>  <Num_Not_Resolved_Atoms>  (9) 
0.0

$$$$
3AB
     RDKit          3D

  0  0  0  0  0  0  0  0  0  0999 V3000
M  V30 BEGIN CTAB
M  V30 COUNTS 18 18 0 0 0
M  V30 BEGIN ATOM
M  V30 1 C -0.091686 -1.812765 0.890995 0
M  V30 2 C -0.964457 -0.752301 1.044431 0
M  V30 3 C -0.404349 0.507393 1.086227 0
M  V30 4 N -1.288601 1.626694 1.244911 0
M  V30 5 C 0.925260 0.812230 0.991303 0
M  V30 6 C 1.774677 -0.277503 0.837805 0
M  V30 7 C 3.224258 -0.164221 0.718469 0
M  V30 8 O 4.132840 -1.001145 0.578114 0
M  V30 9 N 3.753490 1.164324 0.767835 0
M  V30 10 C 1.281223 -1.580625 0.787010 0
M  V30 11 H -0.517115 -2.815462 0.855940 0
M  V30 12 H -2.037758 -0.849383 1.131830 0
M  V30 13 H -1.799568 1.534508 2.150998 0
M  V30 14 H -1.398129 2.405471 0.559137 0
M  V30 15 H 1.340719 1.786515 1.025194 0
M  V30 16 H 4.721679 1.489404 0.902665 0
M  V30 17 H 3.582038 2.192310 0.721011 0
M  V30 18 H 1.953453 -2.442051 0.665581 0
M  V30 END ATOM
M  V30 BEGIN BOND
M  V30 1 2 1 2
M  V30 2 1 2 3
M  V30 3 1 3 4
M  V30 4 2 3 5
M  V30 5 1 5 6
M  V30 6 1 6 7
M  V30 7 2 7 8
M  V30 8 1 7 9
M  V30 9 2 6 10
M  V30 10 1 10 1
M  V30 11 1 1 11
M  V30 12 1 2 12
M  V30 13 1 4 13
M  V30 14 1 4 14
M  V30 15 1 5 15
M  V30 16 1 9 16
M  V30 17 1 9 17
M  V30 18 1 10 18
M  V30 END BOND
M  V30 END CTAB
M  END
>  <Dataset>  (10) 
PDB

>  <Ligand_Instance>  (10) 
5N3Q_3AB_A_402

>  <PDB_ID>  (10) 
5N3Q

>  <Standardized_SMILES>  (10) 
[H]C1=C([H])C(N([H])[H])=C([H])C(C(=O)N([H])[H])=C1[H]

>  <Name>  (10) 
3-aminobenzamide

>  <Pocket>  (10) 
A

>  <ATP_Site>  (10) 
1.0

>  <Peripheral>  (10) 
1.0

>  <Num_H_Atoms_ProtBoundConf>  (10) 
8.0

>  <Num_Resolved_Atoms>  (10) 
10.0

>  <Num_Not_Resolved_Atoms>  (10) 
0.0

$$$$
3AB
     RDKit          3D

  0  0  0  0  0  0  0  0  0  0999 V3000
M  V30 BEGIN CTAB
M  V30 COUNTS 18 18 0 0 0
M  V30 BEGIN ATOM
M  V30 1 C -0.091686 -1.812765 0.890995 0
M  V30 2 C -0.964457 -0.752301 1.044431 0
M  V30 3 C -0.404349 0.507393 1.086227 0
M  V30 4 N -1.288601 1.626694 1.244911 0
M  V30 5 C 0.925260 0.812230 0.991303 0
M  V30 6 C 1.774677 -0.277503 0.837805 0
M  V30 7 C 3.224258 -0.164221 0.718469 0
M  V30 8 O 4.132840 -1.001145 0.578114 0
M  V30 9 N 3.753490 1.164324 0.767835 0
M  V30 10 C 1.281223 -1.580625 0.787010 0
M  V30 11 H -0.517115 -2.815462 0.855940 0
M  V30 12 H -2.037758 -0.849383 1.131830 0
M  V30 13 H -1.799568 1.534508 2.150998 0
M  V30 14 H -1.398129 2.405471 0.559137 0
M  V30 15 H 1.340719 1.786515 1.025194 0
M  V30 16 H 4.721679 1.489404 0.902665 0
M  V30 17 H 3.582038 2.192310 0.721011 0
M  V30 18 H 1.953453 -2.442051 0.665581 0
M  V30 END ATOM
M  V30 BEGIN BOND
M  V30 1 2 1 2
M  V30 2 1 2 3
M  V30 3 1 3 4
M  V30 4 2 3 5
M  V30 5 1 5 6
M  V30 6 1 6 7
M  V30 7 2 7 8
M  V30 8 1 7 9
M  V30 9 2 6 10
M  V30 10 1 10 1
M  V30 11 1 1 11
M  V30 12 1 2 12
M  V30 13 1 4 13
M  V30 14 1 4 14
M  V30 15 1 5 15
M  V30 16 1 9 16
M  V30 17 1 9 17
M  V30 18 1 10 18
M  V30 END BOND
M  V30 END CTAB
M  END
>  <Dataset>  (11) 
PDB

>  <Ligand_Instance>  (11) 
5N3Q_3AB_A_403

>  <PDB_ID>  (11) 
5N3Q

>  <Standardized_SMILES>  (11) 
[H]C1=C([H])C(N([H])[H])=C([H])C(C(=O)N([H])[H])=C1[H]

>  <Name>  (11) 
3-aminobenzamide

>  <Pocket>  (11) 
F

>  <ATP_Site>  (11) 
1.0

>  <Peripheral>  (11) 
1.0

>  <Num_H_Atoms_ProtBoundConf>  (11) 
8.0

>  <Num_Resolved_Atoms>  (11) 
10.0

>  <Num_Not_Resolved_Atoms>  (11) 
0.0

$$$$
3AE
     RDKit          3D

  0  0  0  0  0  0  0  0  0  0999 V3000
M  V30 BEGIN CTAB
M  V30 COUNTS 18 18 0 0 0
M  V30 BEGIN ATOM
M  V30 1 O 1.535806 -1.058464 4.450925 0
M  V30 2 C 0.591866 -0.984400 3.437810 0
M  V30 3 O -0.535692 -1.473342 3.780530 0
M  V30 4 C 0.850867 -0.409229 2.114275 0
M  V30 5 C 2.053158 0.128228 1.705355 0
M  V30 6 C 2.218105 0.651436 0.440581 0
M  V30 7 C 1.127327 0.623085 -0.423432 0
M  V30 8 C 1.324928 1.193231 -1.786264 0
M  V30 9 F 1.896231 2.434294 -1.738017 0
M  V30 10 F 0.104081 1.253365 -2.424278 0
M  V30 11 F 2.143287 0.366685 -2.558686 0
M  V30 12 C -0.097225 0.089010 -0.042827 0
M  V30 13 C -0.207591 -0.419871 1.230486 0
M  V30 14 H 1.249018 -1.003740 5.425261 0
M  V30 15 H 2.874463 0.119164 2.437613 0
M  V30 16 H 3.155948 1.062186 0.144513 0
M  V30 17 H -0.926215 0.087317 -0.752835 0
M  V30 18 H -1.170385 -0.835564 1.518444 0
M  V30 END ATOM
M  V30 BEGIN BOND
M  V30 1 1 1 2
M  V30 2 2 2 3
M  V30 3 1 2 4
M  V30 4 2 4 5
M  V30 5 1 5 6
M  V30 6 2 6 7
M  V30 7 1 7 8
M  V30 8 1 8 9
M  V30 9 1 8 10
M  V30 10 1 8 11
M  V30 11 1 7 12
M  V30 12 2 12 13
M  V30 13 1 13 4
M  V30 14 1 1 14
M  V30 15 1 5 15
M  V30 16 1 6 16
M  V30 17 1 12 17
M  V30 18 1 13 18
M  V30 END BOND
M  V30 END CTAB
M  END
>  <Dataset>  (12) 
PDB

>  <Ligand_Instance>  (12) 
6SPM_3AE_A_401

>  <PDB_ID>  (12) 
6SPM

>  <Standardized_SMILES>  (12) 
[H]OC(=O)C1=C([H])C([H])=C(C(F)(F)F)C([H])=C1[H]

>  <Name>  (12) 
4-(trifluoromethyl)benzoic acid

>  <Pocket>  (12) 
A

>  <ATP_Site>  (12) 
1.0

>  <Peripheral>  (12) 
0.0

>  <Num_H_Atoms_ProtBoundConf>  (12) 
5.0

>  <Num_Resolved_Atoms>  (12) 
13.0

>  <Num_Not_Resolved_Atoms>  (12) 
0.0

$$$$
3SB
     RDKit          3D

  0  0  0  0  0  0  0  0  0  0999 V3000
M  V30 BEGIN CTAB
M  V30 COUNTS 40 41 0 0 0
M  V30 BEGIN ATOM
M  V30 1 O -1.022635 -7.300406 1.981001 0
M  V30 2 C -0.809756 -5.969289 1.602842 0
M  V30 3 C 0.034246 -5.659935 0.554852 0
M  V30 4 C 0.199834 -4.315830 0.232611 0
M  V30 5 O 1.037241 -3.999511 -0.807913 0
M  V30 6 C -0.490021 -3.384936 0.981510 0
M  V30 7 C -0.300315 -1.968656 0.622229 0
M  V30 8 N 0.489612 -1.658139 -0.360992 0
M  V30 9 N 0.690059 -0.302036 -0.727796 0
M  V30 10 C 1.706825 0.631527 -0.310531 0
M  V30 11 O 2.439438 -0.020891 0.498373 0
M  V30 12 C 1.601161 1.964308 -0.902174 0 CFG=2
M  V30 13 C 1.474072 2.989421 0.166301 0
M  V30 14 C 1.200229 4.310317 -0.203014 0
M  V30 15 C 1.065481 5.324704 0.728836 0
M  V30 16 C 1.197496 5.068728 2.070637 0
M  V30 17 C 1.465230 3.781453 2.442742 0
M  V30 18 C 1.596696 2.783576 1.508023 0
M  V30 19 N 0.512356 2.139478 -1.829929 0 CHG=1 VAL=4
M  V30 20 C -1.336605 -3.673689 2.030785 0
M  V30 21 C -2.029474 -2.595481 2.770323 0
M  V30 22 C -1.486575 -5.020681 2.334407 0
M  V30 23 H -1.637921 -7.848054 1.370322 0
M  V30 24 H 0.520362 -6.465424 0.040590 0
M  V30 25 H 2.039142 -3.937829 -0.616407 0
M  V30 26 H -0.795480 -1.164540 1.146775 0
M  V30 27 H -0.121781 -0.159256 -1.400478 0
M  V30 28 H 2.540421 2.241011 -1.461784 0
M  V30 29 H 1.073777 4.645329 -1.222436 0
M  V30 30 H 0.852891 6.352632 0.449981 0
M  V30 31 H 1.101619 5.818761 2.818154 0
M  V30 32 H 1.582179 3.513088 3.504438 0
M  V30 33 H 1.807491 1.780218 1.836264 0
M  V30 34 H 0.715189 3.008135 -2.373420 0
M  V30 35 H 0.570499 1.363926 -2.557167 0
M  V30 36 H -0.418566 2.235871 -1.416379 0
M  V30 37 H -2.592357 -3.100072 3.601230 0
M  V30 38 H -2.781135 -2.069316 2.167635 0
M  V30 39 H -1.348978 -1.893836 3.288393 0
M  V30 40 H -2.138467 -5.293121 3.146994 0
M  V30 END ATOM
M  V30 BEGIN BOND
M  V30 1 1 1 2
M  V30 2 2 2 3
M  V30 3 1 3 4
M  V30 4 1 4 5
M  V30 5 2 4 6
M  V30 6 1 6 7
M  V30 7 2 7 8
M  V30 8 1 8 9
M  V30 9 1 9 10
M  V30 10 2 10 11
M  V30 11 1 10 12
M  V30 12 1 12 13
M  V30 13 2 13 14
M  V30 14 1 14 15
M  V30 15 2 15 16
M  V30 16 1 16 17
M  V30 17 2 17 18
M  V30 18 1 12 19
M  V30 19 1 6 20
M  V30 20 1 20 21
M  V30 21 2 20 22
M  V30 22 1 22 2
M  V30 23 1 18 13
M  V30 24 1 1 23
M  V30 25 1 3 24
M  V30 26 1 5 25
M  V30 27 1 7 26
M  V30 28 1 9 27
M  V30 29 1 12 28 CFG=3
M  V30 30 1 14 29
M  V30 31 1 15 30
M  V30 32 1 16 31
M  V30 33 1 17 32
M  V30 34 1 18 33
M  V30 35 1 19 34
M  V30 36 1 19 35
M  V30 37 1 19 36
M  V30 38 1 21 37
M  V30 39 1 21 38
M  V30 40 1 21 39
M  V30 41 1 22 40
M  V30 END BOND
M  V30 END CTAB
M  END
>  <Dataset>  (13) 
PDB

>  <Ligand_Instance>  (13) 
3OXT_3SB_A_2001

>  <PDB_ID>  (13) 
3OXT

>  <Standardized_SMILES>  (13) 
[H]OC1=C([H])C(O[H])=C(/C([H])=N/N([H])C(=O)[C@]([H])(C2=C([H])C([H])=C([H])C([H])=C2[H])[N+]([H])([H])[H])C(C([H])([H])[H])=C1[H]

>  <Name>  (13) 
(2S)-2-amino-N'-[(1E)-(2,4-dihydroxy-6-methylphenyl)methylidene]-2-phenylethanehydrazide

>  <Pocket>  (13) 
A

>  <ATP_Site>  (13) 
1.0

>  <Peripheral>  (13) 
0.0

>  <Num_H_Atoms_ProtBoundConf>  (13) 
18.0

>  <Num_Resolved_Atoms>  (13) 
22.0

>  <Num_Not_Resolved_Atoms>  (13) 
0.0

$$$$
463
     RDKit          3D

  0  0  0  0  0  0  0  0  0  0999 V3000
M  V30 BEGIN CTAB
M  V30 COUNTS 25 25 0 0 0
M  V30 BEGIN ATOM
M  V30 1 C -0.976045 0.970419 2.703778 0
M  V30 2 C 0.004463 0.173700 3.250547 0
M  V30 3 C 0.698050 -0.637106 2.394742 0
M  V30 4 C 1.767592 -1.516254 2.940463 0
M  V30 5 N 3.022981 -0.787799 2.910381 0 CHG=1 VAL=4
M  V30 6 C 0.403776 -0.632228 1.053364 0
M  V30 7 C -0.566159 0.149355 0.479638 0
M  V30 8 N -0.919948 0.203656 -0.889551 0
M  V30 9 C -0.371709 -0.517869 -1.971597 0
M  V30 10 O 0.544341 -1.326625 -1.784841 0
M  V30 11 C -0.815861 -0.388308 -3.382028 0
M  V30 12 C -1.254199 0.958664 1.353663 0
M  V30 13 H -1.566049 1.637388 3.317416 0
M  V30 14 H 0.182999 0.220875 4.316301 0
M  V30 15 H 1.870085 -2.443024 2.363886 0
M  V30 16 H 1.560154 -1.742054 4.001168 0
M  V30 17 H 2.964956 0.075228 3.491461 0
M  V30 18 H 3.767456 -1.381577 3.351810 0
M  V30 19 H 3.283890 -0.592161 1.922307 0
M  V30 20 H 0.976972 -1.282564 0.445282 0
M  V30 21 H -1.680208 0.842129 -1.209150 0
M  V30 22 H -1.558226 0.444275 -3.467873 0
M  V30 23 H -1.296321 -1.325326 -3.746721 0
M  V30 24 H 0.091255 -0.123669 -3.984982 0
M  V30 25 H -2.048795 1.616242 0.970501 0
M  V30 END ATOM
M  V30 BEGIN BOND
M  V30 1 2 1 2
M  V30 2 1 2 3
M  V30 3 1 3 4
M  V30 4 1 4 5
M  V30 5 2 3 6
M  V30 6 1 6 7
M  V30 7 1 7 8
M  V30 8 1 8 9
M  V30 9 2 9 10
M  V30 10 1 9 11
M  V30 11 2 7 12
M  V30 12 1 12 1
M  V30 13 1 1 13
M  V30 14 1 2 14
M  V30 15 1 4 15
M  V30 16 1 4 16
M  V30 17 1 5 17
M  V30 18 1 5 18
M  V30 19 1 5 19
M  V30 20 1 6 20
M  V30 21 1 8 21
M  V30 22 1 11 22
M  V30 23 1 11 23
M  V30 24 1 11 24
M  V30 25 1 12 25
M  V30 END BOND
M  V30 END CTAB
M  END
>  <Dataset>  (14) 
PDB

>  <Ligand_Instance>  (14) 
5N3F_463_A_403

>  <PDB_ID>  (14) 
5N3F

>  <Standardized_SMILES>  (14) 
[H]C1=C([H])C(C([H])([H])[N+]([H])([H])[H])=C([H])C(N([H])C(=O)C([H])([H])[H])=C1[H]

>  <Name>  (14) 
N-[3-(aminomethyl)phenyl]acetamide

>  <Pocket>  (14) 
A

>  <ATP_Site>  (14) 
1.0

>  <Peripheral>  (14) 
1.0

>  <Num_H_Atoms_ProtBoundConf>  (14) 
13.0

>  <Num_Resolved_Atoms>  (14) 
12.0

>  <Num_Not_Resolved_Atoms>  (14) 
0.0

$$$$
463
     RDKit          3D

  0  0  0  0  0  0  0  0  0  0999 V3000
M  V30 BEGIN CTAB
M  V30 COUNTS 25 25 0 0 0
M  V30 BEGIN ATOM
M  V30 1 C -0.976045 0.970419 2.703778 0
M  V30 2 C 0.004463 0.173700 3.250547 0
M  V30 3 C 0.698050 -0.637106 2.394742 0
M  V30 4 C 1.767592 -1.516254 2.940463 0
M  V30 5 N 3.022981 -0.787799 2.910381 0 CHG=1 VAL=4
M  V30 6 C 0.403776 -0.632228 1.053364 0
M  V30 7 C -0.566159 0.149355 0.479638 0
M  V30 8 N -0.919948 0.203656 -0.889551 0
M  V30 9 C -0.371709 -0.517869 -1.971597 0
M  V30 10 O 0.544341 -1.326625 -1.784841 0
M  V30 11 C -0.815861 -0.388308 -3.382028 0
M  V30 12 C -1.254199 0.958664 1.353663 0
M  V30 13 H -1.566049 1.637388 3.317416 0
M  V30 14 H 0.182999 0.220875 4.316301 0
M  V30 15 H 1.870085 -2.443024 2.363886 0
M  V30 16 H 1.560154 -1.742054 4.001168 0
M  V30 17 H 2.964956 0.075228 3.491461 0
M  V30 18 H 3.767456 -1.381577 3.351810 0
M  V30 19 H 3.283890 -0.592161 1.922307 0
M  V30 20 H 0.976972 -1.282564 0.445282 0
M  V30 21 H -1.680208 0.842129 -1.209150 0
M  V30 22 H -1.558226 0.444275 -3.467873 0
M  V30 23 H -1.296321 -1.325326 -3.746721 0
M  V30 24 H 0.091255 -0.123669 -3.984982 0
M  V30 25 H -2.048795 1.616242 0.970501 0
M  V30 END ATOM
M  V30 BEGIN BOND
M  V30 1 2 1 2
M  V30 2 1 2 3
M  V30 3 1 3 4
M  V30 4 1 4 5
M  V30 5 2 3 6
M  V30 6 1 6 7
M  V30 7 1 7 8
M  V30 8 1 8 9
M  V30 9 2 9 10
M  V30 10 1 9 11
M  V30 11 2 7 12
M  V30 12 1 12 1
M  V30 13 1 1 13
M  V30 14 1 2 14
M  V30 15 1 4 15
M  V30 16 1 4 16
M  V30 17 1 5 17
M  V30 18 1 5 18
M  V30 19 1 5 19
M  V30 20 1 6 20
M  V30 21 1 8 21
M  V30 22 1 11 22
M  V30 23 1 11 23
M  V30 24 1 11 24
M  V30 25 1 12 25
M  V30 END BOND
M  V30 END CTAB
M  END
>  <Dataset>  (15) 
PDB

>  <Ligand_Instance>  (15) 
5N3F_463_A_404

>  <PDB_ID>  (15) 
5N3F

>  <Standardized_SMILES>  (15) 
[H]C1=C([H])C(C([H])([H])[N+]([H])([H])[H])=C([H])C(N([H])C(=O)C([H])([H])[H])=C1[H]

>  <Name>  (15) 
N-[3-(aminomethyl)phenyl]acetamide

>  <Pocket>  (15) 
X

>  <ATP_Site>  (15) 
1.0

>  <Peripheral>  (15) 
1.0

>  <Num_H_Atoms_ProtBoundConf>  (15) 
13.0

>  <Num_Resolved_Atoms>  (15) 
12.0

>  <Num_Not_Resolved_Atoms>  (15) 
0.0

$$$$
46L
     RDKit          3D

  0  0  0  0  0  0  0  0  0  0999 V3000
M  V30 BEGIN CTAB
M  V30 COUNTS 22 22 0 0 0
M  V30 BEGIN ATOM
M  V30 1 O -0.152124 -0.793472 5.351558 0
M  V30 2 C 0.662456 -0.842655 4.252304 0
M  V30 3 O 1.253307 -1.311007 5.249921 0
M  V30 4 C 0.523304 -0.458589 2.868114 0
M  V30 5 C 1.671870 -0.714165 2.159239 0
M  V30 6 N 1.733402 -0.420282 0.823180 0
M  V30 7 C 0.601933 0.130432 0.252803 0
M  V30 8 N 0.566436 0.504794 -1.113665 0
M  V30 9 C 0.619917 1.975967 -1.138329 0
M  V30 10 C 0.494694 -0.426073 -2.232194 0
M  V30 11 C -0.529948 0.371551 0.994603 0
M  V30 12 C -0.608817 0.086889 2.330964 0
M  V30 13 H -0.975357 -1.240566 5.639949 0
M  V30 14 H 2.616561 -1.147568 2.529042 0
M  V30 15 H 1.483192 2.347141 -0.600424 0
M  V30 16 H -0.353301 2.322689 -0.752522 0
M  V30 17 H 0.681892 2.235824 -2.211622 0
M  V30 18 H 1.500084 -0.899178 -2.404675 0
M  V30 19 H -0.161526 -1.263228 -1.916923 0
M  V30 20 H 0.097560 0.006940 -3.148177 0
M  V30 21 H -1.427386 0.804083 0.555338 0
M  V30 22 H -1.411624 0.222890 3.027775 0
M  V30 END ATOM
M  V30 BEGIN BOND
M  V30 1 1 1 2
M  V30 2 2 2 3
M  V30 3 1 2 4
M  V30 4 2 4 5
M  V30 5 1 5 6
M  V30 6 2 6 7
M  V30 7 1 7 8
M  V30 8 1 8 9
M  V30 9 1 8 10
M  V30 10 1 7 11
M  V30 11 2 11 12
M  V30 12 1 12 4
M  V30 13 1 1 13
M  V30 14 1 5 14
M  V30 15 1 9 15
M  V30 16 1 9 16
M  V30 17 1 9 17
M  V30 18 1 10 18
M  V30 19 1 10 19
M  V30 20 1 10 20
M  V30 21 1 11 21
M  V30 22 1 12 22
M  V30 END BOND
M  V30 END CTAB
M  END
>  <Dataset>  (16) 
PDB

>  <Ligand_Instance>  (16) 
5N3E_46L_A_401

>  <PDB_ID>  (16) 
5N3E

>  <Standardized_SMILES>  (16) 
[H]OC(=O)C1=C([H])N=C(N(C([H])([H])[H])C([H])([H])[H])C([H])=C1[H]

>  <Name>  (16) 
6-(dimethylamino)pyridine-3-carboxylic acid

>  <Pocket>  (16) 
A

>  <ATP_Site>  (16) 
1.0

>  <Peripheral>  (16) 
0.0

>  <Num_H_Atoms_ProtBoundConf>  (16) 
10.0

>  <Num_Resolved_Atoms>  (16) 
12.0

>  <Num_Not_Resolved_Atoms>  (16) 
0.0

$$$$
46P
     RDKit          3D

  0  0  0  0  0  0  0  0  0  0999 V3000
M  V30 BEGIN CTAB
M  V30 COUNTS 19 19 0 0 0
M  V30 BEGIN ATOM
M  V30 1 C 1.868013 -0.987006 -0.291810 0
M  V30 2 C 0.949955 -0.411412 0.639301 0
M  V30 3 C 1.187712 0.391907 1.833833 0
M  V30 4 N 0.229530 1.374205 2.193434 0
M  V30 5 C 0.626007 2.442285 3.069938 0
M  V30 6 N 2.259660 0.166749 2.501688 0 CHG=1 VAL=4
M  V30 7 S -0.665376 -0.938449 -0.036010 0
M  V30 8 C 0.185586 -1.859988 -1.482069 0
M  V30 9 N -0.499026 -2.579850 -2.514012 0
M  V30 10 N 1.334572 -1.680854 -1.295884 0
M  V30 11 H 2.939082 -0.815488 -0.111343 0
M  V30 12 H -0.759279 1.376213 1.861032 0
M  V30 13 H 0.388618 3.409034 2.535688 0
M  V30 14 H 1.687762 2.472533 3.317090 0
M  V30 15 H -0.042696 2.440435 3.980081 0
M  V30 16 H 2.583526 0.641256 3.368774 0
M  V30 17 H 2.949123 -0.553077 2.226362 0
M  V30 18 H -0.158998 -3.533975 -2.657128 0
M  V30 19 H -1.265273 -2.062890 -3.008037 0
M  V30 END ATOM
M  V30 BEGIN BOND
M  V30 1 2 1 2
M  V30 2 1 2 3
M  V30 3 1 3 4
M  V30 4 1 4 5
M  V30 5 2 3 6
M  V30 6 1 2 7
M  V30 7 1 7 8
M  V30 8 1 8 9
M  V30 9 2 8 10
M  V30 10 1 10 1
M  V30 11 1 1 11
M  V30 12 1 4 12
M  V30 13 1 5 13
M  V30 14 1 5 14
M  V30 15 1 5 15
M  V30 16 1 6 16
M  V30 17 1 6 17
M  V30 18 1 9 18
M  V30 19 1 9 19
M  V30 END BOND
M  V30 END CTAB
M  END
>  <Dataset>  (17) 
PDB

>  <Ligand_Instance>  (17) 
5N3A_46P_A_404

>  <PDB_ID>  (17) 
5N3A

>  <Standardized_SMILES>  (17) 
[H]C1=C(C(N([H])C([H])([H])[H])=[N+]([H])[H])SC(N([H])[H])=N1

>  <Name>  (17) 
4-methyl-5-(1-methyl-1H-imidazol-2-yl)-1,3-thiazol-2-amine

>  <Pocket>  (17) 
A

>  <ATP_Site>  (17) 
1.0

>  <Peripheral>  (17) 
0.0

>  <Num_H_Atoms_ProtBoundConf>  (17) 
9.0

>  <Num_Resolved_Atoms>  (17) 
10.0

>  <Num_Not_Resolved_Atoms>  (17) 
3.0

$$$$
47V
     RDKit          3D

  0  0  0  0  0  0  0  0  0  0999 V3000
M  V30 BEGIN CTAB
M  V30 COUNTS 28 29 0 0 0
M  V30 BEGIN ATOM
M  V30 1 C 3.628541 -2.275806 3.314006 0
M  V30 2 N 3.165952 -3.522331 3.507422 0
M  V30 3 C 2.210223 -4.006995 2.670253 0
M  V30 4 C 1.742765 -3.205480 1.645512 0
M  V30 5 C 2.243715 -1.928556 1.480419 0
M  V30 6 N 1.622703 -1.279061 0.367474 0
M  V30 7 C 0.489313 -0.619768 0.910144 0
M  V30 8 O 0.355191 -0.785630 2.173849 0
M  V30 9 C -0.514824 0.205653 0.198983 0
M  V30 10 C -0.526864 1.234069 -0.722784 0
M  V30 11 C 0.789829 1.725010 -1.198146 0
M  V30 12 O -1.759836 1.537320 -0.960547 0
M  V30 13 C -2.611762 0.821054 -0.294615 0
M  V30 14 C -4.100508 0.904071 -0.326402 0
M  V30 15 C -1.860828 -0.062210 0.476365 0
M  V30 16 C 3.210692 -1.422502 2.317456 0
M  V30 17 H 4.404570 -1.866131 3.984756 0
M  V30 18 H 1.873231 -5.005899 2.867905 0
M  V30 19 H 0.983806 -3.699353 1.040664 0
M  V30 20 H 1.742629 -1.152086 -0.661634 0
M  V30 21 H 1.549741 1.792133 -0.400665 0
M  V30 22 H 0.648672 2.774938 -1.569927 0
M  V30 23 H 1.116788 1.145326 -2.085451 0
M  V30 24 H -4.460508 1.902345 -0.602997 0
M  V30 25 H -4.492187 0.670118 0.704135 0
M  V30 26 H -4.443073 0.086061 -0.981977 0
M  V30 27 H -2.332690 -0.786844 1.139523 0
M  V30 28 H 3.530322 -0.432431 2.108890 0
M  V30 END ATOM
M  V30 BEGIN BOND
M  V30 1 2 1 2
M  V30 2 1 2 3
M  V30 3 2 3 4
M  V30 4 1 4 5
M  V30 5 1 5 6
M  V30 6 1 6 7
M  V30 7 2 7 8
M  V30 8 1 7 9
M  V30 9 2 9 10
M  V30 10 1 10 11
M  V30 11 1 10 12
M  V30 12 1 12 13
M  V30 13 1 13 14
M  V30 14 2 13 15
M  V30 15 2 5 16
M  V30 16 1 16 1
M  V30 17 1 15 9
M  V30 18 1 1 17
M  V30 19 1 3 18
M  V30 20 1 4 19
M  V30 21 1 6 20
M  V30 22 1 11 21
M  V30 23 1 11 22
M  V30 24 1 11 23
M  V30 25 1 14 24
M  V30 26 1 14 25
M  V30 27 1 14 26
M  V30 28 1 15 27
M  V30 29 1 16 28
M  V30 END BOND
M  V30 END CTAB
M  END
>  <Dataset>  (18) 
PDB

>  <Ligand_Instance>  (18) 
5N1L_47V_A_401

>  <PDB_ID>  (18) 
5N1L

>  <Standardized_SMILES>  (18) 
[H]C1=NC([H])=C([H])C(N([H])C(=O)C2=C(C([H])([H])[H])OC(C([H])([H])[H])=C2[H])=C1[H]

>  <Name>  (18) 
2,5-dimethyl-N-(pyridin-4-yl)furan-3-carboxamide

>  <Pocket>  (18) 
A

>  <ATP_Site>  (18) 
1.0

>  <Peripheral>  (18) 
0.0

>  <Num_H_Atoms_ProtBoundConf>  (18) 
12.0

>  <Num_Resolved_Atoms>  (18) 
16.0

>  <Num_Not_Resolved_Atoms>  (18) 
0.0

$$$$
489
     RDKit          3D

  0  0  0  0  0  0  0  0  0  0999 V3000
M  V30 BEGIN CTAB
M  V30 COUNTS 22 22 0 0 0
M  V30 BEGIN ATOM
M  V30 1 O 0.125199 1.885742 1.948935 0
M  V30 2 C 0.670896 0.584415 1.874922 0 CFG=1
M  V30 3 C -0.153878 -0.177626 0.929540 0
M  V30 4 C 0.426746 -0.976791 -0.038188 0
M  V30 5 C -0.429913 -1.642299 -0.866038 0
M  V30 6 C -1.813641 -1.602950 -0.840603 0
M  V30 7 F -2.524364 -2.323030 -1.732799 0
M  V30 8 C -2.356353 -0.794872 0.138645 0
M  V30 9 C -1.534147 -0.085233 1.019896 0
M  V30 10 C 2.118256 0.650980 1.443178 0
M  V30 11 N 2.876931 1.422478 2.392555 0 CHG=1 VAL=4
M  V30 12 H 0.685451 2.509731 1.464688 0
M  V30 13 H 0.632646 0.097132 2.871144 0
M  V30 14 H 1.497543 -1.079688 -0.146432 0
M  V30 15 H 0.021847 -2.274262 -1.631419 0
M  V30 16 H -3.435733 -0.742258 0.185285 0
M  V30 17 H -2.034971 0.531974 1.766437 0
M  V30 18 H 2.251269 1.048526 0.435569 0
M  V30 19 H 2.522718 -0.375978 1.473639 0
M  V30 20 H 2.581788 1.252591 3.366926 0
M  V30 21 H 3.889000 1.130778 2.264107 0
M  V30 22 H 2.869236 2.453057 2.196271 0
M  V30 END ATOM
M  V30 BEGIN BOND
M  V30 1 1 1 2
M  V30 2 1 2 3
M  V30 3 2 3 4
M  V30 4 1 4 5
M  V30 5 2 5 6
M  V30 6 1 6 7
M  V30 7 1 6 8
M  V30 8 2 8 9
M  V30 9 1 2 10
M  V30 10 1 10 11
M  V30 11 1 9 3
M  V30 12 1 1 12
M  V30 13 1 2 13 CFG=1
M  V30 14 1 4 14
M  V30 15 1 5 15
M  V30 16 1 8 16
M  V30 17 1 9 17
M  V30 18 1 10 18
M  V30 19 1 10 19
M  V30 20 1 11 20
M  V30 21 1 11 21
M  V30 22 1 11 22
M  V30 END BOND
M  V30 END CTAB
M  END
>  <Dataset>  (19) 
PDB

>  <Ligand_Instance>  (19) 
5N1K_489_A_401

>  <PDB_ID>  (19) 
5N1K

>  <Standardized_SMILES>  (19) 
[H]O[C@@]([H])(C1=C([H])C([H])=C(F)C([H])=C1[H])C([H])([H])[N+]([H])([H])[H]

>  <Name>  (19) 
(1S)-2-amino-1-(4-fluorophenyl)ethanol

>  <Pocket>  (19) 
A

>  <ATP_Site>  (19) 
1.0

>  <Peripheral>  (19) 
1.0

>  <Num_H_Atoms_ProtBoundConf>  (19) 
11.0

>  <Num_Resolved_Atoms>  (19) 
11.0

>  <Num_Not_Resolved_Atoms>  (19) 
0.0

$$$$
495
     RDKit          3D

  0  0  0  0  0  0  0  0  0  0999 V3000
M  V30 BEGIN CTAB
M  V30 COUNTS 17 18 0 0 0
M  V30 BEGIN ATOM
M  V30 1 C -0.758264 1.390665 1.985467 0
M  V30 2 C -0.176654 0.668081 3.002063 0
M  V30 3 C 0.944475 -0.107223 2.760084 0
M  V30 4 C 1.517121 -0.184285 1.499464 0
M  V30 5 C 2.629873 -0.947027 1.235151 0
M  V30 6 Cl 3.362647 -1.868887 2.556969 0
M  V30 7 N 3.112751 -0.956850 -0.024473 0
M  V30 8 N 2.507270 -0.237570 -0.965267 0
M  V30 9 C 1.424554 0.528920 -0.794855 0
M  V30 10 O 0.941075 1.164550 -1.764541 0
M  V30 11 C 0.928694 0.542059 0.487749 0
M  V30 12 C -0.203289 1.325402 0.730155 0
M  V30 13 H -1.629140 1.981052 2.215715 0
M  V30 14 H -0.615909 0.720975 3.991182 0
M  V30 15 H 1.421212 -0.684830 3.541009 0
M  V30 16 H 2.952853 -0.308860 -1.905771 0
M  V30 17 H -0.642319 1.880883 -0.073075 0
M  V30 END ATOM
M  V30 BEGIN BOND
M  V30 1 2 1 2
M  V30 2 1 2 3
M  V30 3 2 3 4
M  V30 4 1 4 5
M  V30 5 1 5 6
M  V30 6 2 5 7
M  V30 7 1 7 8
M  V30 8 1 8 9
M  V30 9 2 9 10
M  V30 10 1 9 11
M  V30 11 2 11 12
M  V30 12 1 12 1
M  V30 13 1 11 4
M  V30 14 1 1 13
M  V30 15 1 2 14
M  V30 16 1 3 15
M  V30 17 1 8 16
M  V30 18 1 12 17
M  V30 END BOND
M  V30 END CTAB
M  END
>  <Dataset>  (20) 
PDB

>  <Ligand_Instance>  (20) 
5BX6_495_A_401

>  <PDB_ID>  (20) 
5BX6

>  <Standardized_SMILES>  (20) 
[H]C1=C([H])C([H])=C2C(Cl)=NN([H])C(=O)C2=C1[H]

>  <Name>  (20) 
4-chlorophthalazin-1(2H)-one

>  <Pocket>  (20) 
A

>  <ATP_Site>  (20) 
1.0

>  <Peripheral>  (20) 
0.0

>  <Num_H_Atoms_ProtBoundConf>  (20) 
5.0

>  <Num_Resolved_Atoms>  (20) 
12.0

>  <Num_Not_Resolved_Atoms>  (20) 
0.0

$$$$
4L7
     RDKit          3D

  0  0  0  0  0  0  0  0  0  0999 V3000
M  V30 BEGIN CTAB
M  V30 COUNTS 39 42 0 0 0
M  V30 BEGIN ATOM
M  V30 1 C -0.049822 -3.042551 4.946702 0
M  V30 2 N 0.544246 -2.601732 3.818525 0
M  V30 3 C -0.161138 -2.097000 2.791337 0
M  V30 4 C 0.443082 -1.636732 1.616132 0
M  V30 5 C -0.297952 -1.115687 0.558007 0
M  V30 6 C 0.515439 -0.679304 -0.585490 0 CFG=1
M  V30 7 C 0.363317 -1.697755 -1.691518 0
M  V30 8 N -0.589680 -1.145062 -2.606419 0 CHG=1 VAL=4
M  V30 9 C -0.344854 0.261554 -2.621996 0
M  V30 10 C 0.126932 0.591955 -1.230149 0 CFG=2
M  V30 11 C 1.329947 1.482686 -1.310824 0
M  V30 12 O 1.740337 1.855945 -2.458600 0
M  V30 13 C 2.089905 1.969772 -0.138310 0
M  V30 14 C 1.970912 1.804675 1.179306 0
M  V30 15 C 2.848130 2.398241 2.039073 0
M  V30 16 C 3.884621 3.197835 1.390192 0
M  V30 17 Br 5.253336 4.139647 2.466256 0
M  V30 18 S 3.456613 2.990882 -0.430088 0
M  V30 19 C -1.659450 -1.077536 0.730739 0
M  V30 20 C -2.267061 -1.528136 1.884050 0
M  V30 21 C -1.532594 -2.044233 2.931741 0
M  V30 22 C -2.182303 -2.483723 4.067478 0
M  V30 23 O -3.436550 -2.413357 4.144961 0
M  V30 24 N -1.391790 -2.981927 5.063387 0
M  V30 25 H 0.534043 -3.451547 5.776777 0
M  V30 26 H 1.533285 -1.728806 1.619816 0
M  V30 27 H 1.603015 -0.694328 -0.320150 0
M  V30 28 H 0.046480 -2.687764 -1.291662 0
M  V30 29 H 1.341724 -1.887926 -2.185174 0
M  V30 30 H -0.482329 -1.528534 -3.582248 0
M  V30 31 H -1.564380 -1.340751 -2.274977 0
M  V30 32 H -1.314729 0.773557 -2.861781 0
M  V30 33 H 0.399378 0.567576 -3.391512 0
M  V30 34 H -0.680022 1.154019 -0.725930 0
M  V30 35 H 1.154537 1.186656 1.513789 0
M  V30 36 H 2.812032 2.308353 3.112940 0
M  V30 37 H -2.211677 -0.665936 -0.100648 0
M  V30 38 H -3.322533 -1.484855 1.986104 0
M  V30 39 H -1.915486 -3.308975 5.916275 0
M  V30 END ATOM
M  V30 BEGIN BOND
M  V30 1 2 1 2
M  V30 2 1 2 3
M  V30 3 2 3 4
M  V30 4 1 4 5
M  V30 5 1 5 6
M  V30 6 1 6 7
M  V30 7 1 7 8
M  V30 8 1 8 9
M  V30 9 1 9 10
M  V30 10 1 10 11
M  V30 11 2 11 12
M  V30 12 1 11 13
M  V30 13 2 13 14
M  V30 14 1 14 15
M  V30 15 2 15 16
M  V30 16 1 16 17
M  V30 17 1 16 18
M  V30 18 2 5 19
M  V30 19 1 19 20
M  V30 20 2 20 21
M  V30 21 1 21 22
M  V30 22 2 22 23
M  V30 23 1 22 24
M  V30 24 1 24 1
M  V30 25 1 21 3
M  V30 26 1 10 6
M  V30 27 1 18 13
M  V30 28 1 1 25
M  V30 29 1 4 26
M  V30 30 1 6 27 CFG=1
M  V30 31 1 7 28
M  V30 32 1 7 29
M  V30 33 1 8 30
M  V30 34 1 8 31
M  V30 35 1 9 32
M  V30 36 1 9 33
M  V30 37 1 10 34 CFG=1
M  V30 38 1 14 35
M  V30 39 1 15 36
M  V30 40 1 19 37
M  V30 41 1 20 38
M  V30 42 1 24 39
M  V30 END BOND
M  V30 END CTAB
M  END
>  <Dataset>  (21) 
PDB

>  <Ligand_Instance>  (21) 
4UJA_4L7_A_1351

>  <PDB_ID>  (21) 
4UJA

>  <Standardized_SMILES>  (21) 
[H]C1=NC2=C([H])C([C@@]3([H])C([H])([H])[N+]([H])([H])C([H])([H])[C@]3([H])C(=O)C3=C([H])C([H])=C(Br)S3)=C([H])C([H])=C2C(=O)N1[H]

>  <Name>  (21) 
7-{(3S,4R)-4-[(5-bromothiophen-2-yl)carbonyl]pyrrolidin-3-yl}quinazolin-4(3H)-one

>  <Pocket>  (21) 
A

>  <ATP_Site>  (21) 
1.0

>  <Peripheral>  (21) 
0.0

>  <Num_H_Atoms_ProtBoundConf>  (21) 
15.0

>  <Num_Resolved_Atoms>  (21) 
24.0

>  <Num_Not_Resolved_Atoms>  (21) 
0.0

$$$$
4L7
     RDKit          3D

  0  0  0  0  0  0  0  0  0  0999 V3000
M  V30 BEGIN CTAB
M  V30 COUNTS 39 42 0 0 0
M  V30 BEGIN ATOM
M  V30 1 C -0.049822 -3.042551 4.946702 0
M  V30 2 N 0.544246 -2.601732 3.818525 0
M  V30 3 C -0.161138 -2.097000 2.791337 0
M  V30 4 C 0.443082 -1.636732 1.616132 0
M  V30 5 C -0.297952 -1.115687 0.558007 0
M  V30 6 C 0.515439 -0.679304 -0.585490 0 CFG=1
M  V30 7 C 0.363317 -1.697755 -1.691518 0
M  V30 8 N -0.589680 -1.145062 -2.606419 0 CHG=1 VAL=4
M  V30 9 C -0.344854 0.261554 -2.621996 0
M  V30 10 C 0.126932 0.591955 -1.230149 0 CFG=2
M  V30 11 C 1.329947 1.482686 -1.310824 0
M  V30 12 O 1.740337 1.855945 -2.458600 0
M  V30 13 C 2.089905 1.969772 -0.138310 0
M  V30 14 C 1.970912 1.804675 1.179306 0
M  V30 15 C 2.848130 2.398241 2.039073 0
M  V30 16 C 3.884621 3.197835 1.390192 0
M  V30 17 Br 5.253336 4.139647 2.466256 0
M  V30 18 S 3.456613 2.990882 -0.430088 0
M  V30 19 C -1.659450 -1.077536 0.730739 0
M  V30 20 C -2.267061 -1.528136 1.884050 0
M  V30 21 C -1.532594 -2.044233 2.931741 0
M  V30 22 C -2.182303 -2.483723 4.067478 0
M  V30 23 O -3.436550 -2.413357 4.144961 0
M  V30 24 N -1.391790 -2.981927 5.063387 0
M  V30 25 H 0.534043 -3.451547 5.776777 0
M  V30 26 H 1.533285 -1.728806 1.619816 0
M  V30 27 H 1.603015 -0.694328 -0.320150 0
M  V30 28 H 0.046480 -2.687764 -1.291662 0
M  V30 29 H 1.341724 -1.887926 -2.185174 0
M  V30 30 H -0.482329 -1.528534 -3.582248 0
M  V30 31 H -1.564380 -1.340751 -2.274977 0
M  V30 32 H -1.314729 0.773557 -2.861781 0
M  V30 33 H 0.399378 0.567576 -3.391512 0
M  V30 34 H -0.680022 1.154019 -0.725930 0
M  V30 35 H 1.154537 1.186656 1.513789 0
M  V30 36 H 2.812032 2.308353 3.112940 0
M  V30 37 H -2.211677 -0.665936 -0.100648 0
M  V30 38 H -3.322533 -1.484855 1.986104 0
M  V30 39 H -1.915486 -3.308975 5.916275 0
M  V30 END ATOM
M  V30 BEGIN BOND
M  V30 1 2 1 2
M  V30 2 1 2 3
M  V30 3 2 3 4
M  V30 4 1 4 5
M  V30 5 1 5 6
M  V30 6 1 6 7
M  V30 7 1 7 8
M  V30 8 1 8 9
M  V30 9 1 9 10
M  V30 10 1 10 11
M  V30 11 2 11 12
M  V30 12 1 11 13
M  V30 13 2 13 14
M  V30 14 1 14 15
M  V30 15 2 15 16
M  V30 16 1 16 17
M  V30 17 1 16 18
M  V30 18 2 5 19
M  V30 19 1 19 20
M  V30 20 2 20 21
M  V30 21 1 21 22
M  V30 22 2 22 23
M  V30 23 1 22 24
M  V30 24 1 24 1
M  V30 25 1 21 3
M  V30 26 1 10 6
M  V30 27 1 18 13
M  V30 28 1 1 25
M  V30 29 1 4 26
M  V30 30 1 6 27 CFG=1
M  V30 31 1 7 28
M  V30 32 1 7 29
M  V30 33 1 8 30
M  V30 34 1 8 31
M  V30 35 1 9 32
M  V30 36 1 9 33
M  V30 37 1 10 34 CFG=1
M  V30 38 1 14 35
M  V30 39 1 15 36
M  V30 40 1 19 37
M  V30 41 1 20 38
M  V30 42 1 24 39
M  V30 END BOND
M  V30 END CTAB
M  END
>  <Dataset>  (22) 
PDB

>  <Ligand_Instance>  (22) 
4Z83_4L7_E_401

>  <PDB_ID>  (22) 
4Z83

>  <Standardized_SMILES>  (22) 
[H]C1=NC2=C([H])C([C@@]3([H])C([H])([H])[N+]([H])([H])C([H])([H])[C@]3([H])C(=O)C3=C([H])C([H])=C(Br)S3)=C([H])C([H])=C2C(=O)N1[H]

>  <Name>  (22) 
7-{(3S,4R)-4-[(5-bromothiophen-2-yl)carbonyl]pyrrolidin-3-yl}quinazolin-4(3H)-one

>  <Pocket>  (22) 
A

>  <ATP_Site>  (22) 
1.0

>  <Peripheral>  (22) 
1.0

>  <Num_H_Atoms_ProtBoundConf>  (22) 
15.0

>  <Num_Resolved_Atoms>  (22) 
24.0

>  <Num_Not_Resolved_Atoms>  (22) 
0.0

$$$$
4NB
     RDKit          3D

  0  0  0  0  0  0  0  0  0  0999 V3000
M  V30 BEGIN CTAB
M  V30 COUNTS 16 16 0 0 0
M  V30 BEGIN ATOM
M  V30 1 C 1.180608 1.469635 0.929593 0
M  V30 2 C 1.733782 0.792299 2.012040 0
M  V30 3 C 1.846539 -0.582372 1.934692 0
M  V30 4 N 2.414969 -1.255092 3.052600 0 CHG=1 VAL=4
M  V30 5 O 2.561040 -2.493216 3.083201 0
M  V30 6 O 2.851360 -0.590156 4.195490 0 CHG=-1 VAL=1
M  V30 7 C 1.427183 -1.266682 0.825472 0
M  V30 8 C 0.869691 -0.594960 -0.268047 0
M  V30 9 C 0.762276 0.776722 -0.179401 0
M  V30 10 C 0.177412 1.407627 -1.344407 0
M  V30 11 O -0.225563 0.820833 -2.393280 0
M  V30 12 O -0.100478 2.714677 -1.655177 0 CHG=-1 VAL=1
M  V30 13 H 1.074429 2.541602 0.948800 0
M  V30 14 H 2.056411 1.358896 2.875068 0
M  V30 15 H 1.516816 -2.363493 0.763014 0
M  V30 16 H 0.561436 -1.200540 -1.108108 0
M  V30 END ATOM
M  V30 BEGIN BOND
M  V30 1 2 1 2
M  V30 2 1 2 3
M  V30 3 1 3 4
M  V30 4 2 4 5
M  V30 5 1 4 6
M  V30 6 2 3 7
M  V30 7 1 7 8
M  V30 8 2 8 9
M  V30 9 1 9 10
M  V30 10 2 10 11
M  V30 11 1 10 12
M  V30 12 1 9 1
M  V30 13 1 1 13
M  V30 14 1 2 14
M  V30 15 1 7 15
M  V30 16 1 8 16
M  V30 END BOND
M  V30 END CTAB
M  END
>  <Dataset>  (23) 
PDB

>  <Ligand_Instance>  (23) 
5N3J_4NB_A_402

>  <PDB_ID>  (23) 
5N3J

>  <Standardized_SMILES>  (23) 
[H]C1=C([H])C([N+](=O)[O-])=C([H])C([H])=C1C(=O)[O-]

>  <Name>  (23) 
4-NITROBENZOIC ACID

>  <Pocket>  (23) 
A

>  <ATP_Site>  (23) 
1.0

>  <Peripheral>  (23) 
0.0

>  <Num_H_Atoms_ProtBoundConf>  (23) 
4.0

>  <Num_Resolved_Atoms>  (23) 
12.0

>  <Num_Not_Resolved_Atoms>  (23) 
0.0

$$$$
4PY
     RDKit          3D

  0  0  0  0  0  0  0  0  0  0999 V3000
M  V30 BEGIN CTAB
M  V30 COUNTS 50 54 0 0 0
M  V30 BEGIN ATOM
M  V30 1 C 3.007705 -2.316410 2.604684 0
M  V30 2 N 4.079328 -2.583866 1.789372 0
M  V30 3 C 4.287723 -1.735043 0.738495 0
M  V30 4 C 3.451605 -0.668174 0.525248 0
M  V30 5 C 3.656807 0.243945 -0.583892 0
M  V30 6 N 4.691705 0.028013 -1.413798 0
M  V30 7 C 4.927550 0.851320 -2.465675 0
M  V30 8 C 4.139594 1.957295 -2.764545 0
M  V30 9 C 3.076106 2.200029 -1.932346 0
M  V30 10 C 2.876162 1.336399 -0.877049 0
M  V30 11 C 2.434437 3.327936 -2.400252 0
M  V30 12 N 3.113948 3.730537 -3.483107 0
M  V30 13 N 4.141531 2.905907 -3.704052 0
M  V30 14 C 2.390735 -0.430371 1.359688 0
M  V30 15 C 2.110485 -1.234348 2.437241 0
M  V30 16 O 1.249352 -1.380308 3.452242 0
M  V30 17 C 0.140889 -0.748297 3.914893 0
M  V30 18 C -1.095070 -0.704021 3.081818 0 CFG=2
M  V30 19 C -1.830675 -2.025702 3.056785 0
M  V30 20 C -3.051513 -1.966052 2.226660 0
M  V30 21 C -4.269032 -1.738692 2.853831 0
M  V30 22 N -5.273123 -1.682749 1.933587 0
M  V30 23 C -4.728359 -1.872231 0.700997 0
M  V30 24 C -5.228622 -1.926346 -0.579475 0
M  V30 25 C -4.352399 -2.152665 -1.625313 0
M  V30 26 C -2.990113 -2.325827 -1.418653 0
M  V30 27 C -2.492176 -2.270572 -0.132931 0
M  V30 28 C -3.381902 -2.042904 0.895678 0
M  V30 29 N -0.986846 -0.073667 1.806433 0 CHG=1 VAL=4
M  V30 30 H 3.067103 -3.130065 3.350859 0
M  V30 31 H 5.097203 -1.837967 0.023528 0
M  V30 32 H 5.762193 0.689654 -3.148098 0
M  V30 33 H 2.029344 1.561829 -0.246718 0
M  V30 34 H 1.551402 3.734600 -1.911642 0
M  V30 35 H 4.839397 2.988244 -4.488543 0
M  V30 36 H 1.683596 0.351544 1.322415 0
M  V30 37 H -0.114785 -1.169298 4.946152 0
M  V30 38 H 0.334984 0.350279 4.187011 0
M  V30 39 H -1.816198 -0.023688 3.667736 0
M  V30 40 H -1.115721 -2.754083 2.571571 0
M  V30 41 H -2.006395 -2.417726 4.058761 0
M  V30 42 H -4.510993 -1.607038 3.918646 0
M  V30 43 H -6.292141 -1.525137 2.095368 0
M  V30 44 H -6.287865 -1.793268 -0.759827 0
M  V30 45 H -4.671975 -2.206940 -2.650121 0
M  V30 46 H -2.296677 -2.504456 -2.239902 0
M  V30 47 H -1.444715 -2.414900 0.014928 0
M  V30 48 H -0.558529 0.876608 1.906368 0
M  V30 49 H -1.982158 0.079311 1.465776 0
M  V30 50 H -0.461381 -0.592075 1.088434 0
M  V30 END ATOM
M  V30 BEGIN BOND
M  V30 1 2 1 2
M  V30 2 1 2 3
M  V30 3 2 3 4
M  V30 4 1 4 5
M  V30 5 2 5 6
M  V30 6 1 6 7
M  V30 7 2 7 8
M  V30 8 1 8 9
M  V30 9 2 9 10
M  V30 10 1 9 11
M  V30 11 2 11 12
M  V30 12 1 12 13
M  V30 13 1 4 14
M  V30 14 2 14 15
M  V30 15 1 15 16
M  V30 16 1 16 17
M  V30 17 1 17 18
M  V30 18 1 18 19
M  V30 19 1 19 20
M  V30 20 2 20 21
M  V30 21 1 21 22
M  V30 22 1 22 23
M  V30 23 2 23 24
M  V30 24 1 24 25
M  V30 25 2 25 26
M  V30 26 1 26 27
M  V30 27 2 27 28
M  V30 28 1 18 29
M  V30 29 1 15 1
M  V30 30 1 28 20
M  V30 31 1 10 5
M  V30 32 1 28 23
M  V30 33 1 13 8
M  V30 34 1 1 30
M  V30 35 1 3 31
M  V30 36 1 7 32
M  V30 37 1 10 33
M  V30 38 1 11 34
M  V30 39 1 13 35
M  V30 40 1 14 36
M  V30 41 1 17 37
M  V30 42 1 17 38
M  V30 43 1 18 39 CFG=1
M  V30 44 1 19 40
M  V30 45 1 19 41
M  V30 46 1 21 42
M  V30 47 1 22 43
M  V30 48 1 24 44
M  V30 49 1 25 45
M  V30 50 1 26 46
M  V30 51 1 27 47
M  V30 52 1 29 48
M  V30 53 1 29 49
M  V30 54 1 29 50
M  V30 END BOND
M  V30 END CTAB
M  END
>  <Dataset>  (24) 
PDB

>  <Ligand_Instance>  (24) 
2OJF_4PY_E_1000

>  <PDB_ID>  (24) 
2OJF

>  <Standardized_SMILES>  (24) 
[H]C1=NC([H])=C(C2=NC([H])=C3C(=C2[H])C([H])=NN3[H])C([H])=C1OC([H])([H])[C@]([H])(C([H])([H])C1=C([H])N([H])C2=C([H])C([H])=C([H])C([H])=C21)[N+]([H])([H])[H]

>  <Name>  (24) 
(2S)-1-(6H-INDOL-3-YL)-3-{[5-(7H-PYRAZOLO[3,4-C]PYRIDIN-5-YL)PYRIDIN-3-YL]OXY}PROPAN-2-AMINE

>  <Pocket>  (24) 
A

>  <ATP_Site>  (24) 
1.0

>  <Peripheral>  (24) 
0.0

>  <Num_H_Atoms_ProtBoundConf>  (24) 
21.0

>  <Num_Resolved_Atoms>  (24) 
29.0

>  <Num_Not_Resolved_Atoms>  (24) 
0.0

$$$$
4SB
     RDKit          3D

  0  0  0  0  0  0  0  0  0  0999 V3000
M  V30 BEGIN CTAB
M  V30 COUNTS 42 43 0 0 0
M  V30 BEGIN ATOM
M  V30 1 O 2.880856 -5.852916 5.825884 0
M  V30 2 C 2.639080 -4.929204 4.799866 0
M  V30 3 C 1.349244 -4.509363 4.541497 0
M  V30 4 C 1.219309 -3.599712 3.512033 0
M  V30 5 C 2.278161 -3.119190 2.769493 0
M  V30 6 C 2.058110 -2.155619 1.693709 0
M  V30 7 N 0.849205 -1.775088 1.466543 0
M  V30 8 N 0.550289 -0.840248 0.437911 0
M  V30 9 C -0.506462 0.063226 0.690726 0
M  V30 10 O -1.037132 -0.119106 1.843218 0
M  V30 11 C -1.059229 1.145548 -0.161781 0 CFG=1
M  V30 12 C -0.095131 2.215937 -0.480361 0
M  V30 13 C 0.998335 2.146078 -1.316333 0
M  V30 14 C 1.857438 3.184723 -1.558387 0
M  V30 15 C 1.655840 4.393426 -0.951109 0
M  V30 16 C 0.594485 4.567902 -0.099625 0
M  V30 17 C -0.225446 3.484539 0.096679 0
M  V30 18 C -1.607232 0.519490 -1.425149 0
M  V30 19 C -2.691677 -0.471320 -1.156130 0
M  V30 20 N -3.152553 -1.016504 -2.425818 0 CHG=1 VAL=4
M  V30 21 C 3.534894 -3.589635 3.092241 0
M  V30 22 C 3.759690 -4.510649 4.118132 0
M  V30 23 Br 5.505936 -5.144982 4.544287 0
M  V30 24 H 2.486504 -6.778697 5.727081 0
M  V30 25 H 0.515398 -4.884760 5.122769 0
M  V30 26 H 0.229941 -3.241753 3.272295 0
M  V30 27 H 2.880922 -1.784632 1.119748 0
M  V30 28 H 1.010018 -0.731919 -0.491112 0
M  V30 29 H -1.930927 1.636878 0.352087 0
M  V30 30 H 1.180645 1.207912 -1.814969 0
M  V30 31 H 2.692069 3.033633 -2.233280 0
M  V30 32 H 2.338044 5.208221 -1.147104 0
M  V30 33 H 0.386086 5.499531 0.407518 0
M  V30 34 H -1.073535 3.634083 0.780893 0
M  V30 35 H -0.819131 -0.003246 -2.004722 0
M  V30 36 H -2.030353 1.300768 -2.089548 0
M  V30 37 H -3.592693 -0.006265 -0.689405 0
M  V30 38 H -2.319323 -1.329985 -0.540877 0
M  V30 39 H -3.726299 -1.875608 -2.249824 0
M  V30 40 H -3.757963 -0.283812 -2.848830 0
M  V30 41 H -2.333130 -1.243481 -3.034791 0
M  V30 42 H 4.372610 -3.236747 2.536257 0
M  V30 END ATOM
M  V30 BEGIN BOND
M  V30 1 1 1 2
M  V30 2 2 2 3
M  V30 3 1 3 4
M  V30 4 2 4 5
M  V30 5 1 5 6
M  V30 6 2 6 7
M  V30 7 1 7 8
M  V30 8 1 8 9
M  V30 9 2 9 10
M  V30 10 1 9 11
M  V30 11 1 11 12
M  V30 12 2 12 13
M  V30 13 1 13 14
M  V30 14 2 14 15
M  V30 15 1 15 16
M  V30 16 2 16 17
M  V30 17 1 11 18
M  V30 18 1 18 19
M  V30 19 1 19 20
M  V30 20 1 5 21
M  V30 21 2 21 22
M  V30 22 1 22 23
M  V30 23 1 22 2
M  V30 24 1 17 12
M  V30 25 1 1 24
M  V30 26 1 3 25
M  V30 27 1 4 26
M  V30 28 1 6 27
M  V30 29 1 8 28
M  V30 30 1 11 29 CFG=1
M  V30 31 1 13 30
M  V30 32 1 14 31
M  V30 33 1 15 32
M  V30 34 1 16 33
M  V30 35 1 17 34
M  V30 36 1 18 35
M  V30 37 1 18 36
M  V30 38 1 19 37
M  V30 39 1 19 38
M  V30 40 1 20 39
M  V30 41 1 20 40
M  V30 42 1 20 41
M  V30 43 1 21 42
M  V30 END BOND
M  V30 END CTAB
M  END
>  <Dataset>  (25) 
PDB

>  <Ligand_Instance>  (25) 
3P0M_4SB_A_351

>  <PDB_ID>  (25) 
3P0M

>  <Standardized_SMILES>  (25) 
[H]OC1=C([H])C([H])=C(/C([H])=N/N([H])C(=O)[C@@]([H])(C2=C([H])C([H])=C([H])C([H])=C2[H])C([H])([H])C([H])([H])[N+]([H])([H])[H])C([H])=C1Br

>  <Name>  (25) 
(2R)-4-amino-N'-[(1E)-(3-bromo-4-hydroxyphenyl)methylidene]-2-phenylbutanehydrazide

>  <Pocket>  (25) 
A

>  <ATP_Site>  (25) 
1.0

>  <Peripheral>  (25) 
0.0

>  <Num_H_Atoms_ProtBoundConf>  (25) 
19.0

>  <Num_Resolved_Atoms>  (25) 
23.0

>  <Num_Not_Resolved_Atoms>  (25) 
0.0

$$$$
4W1
     RDKit          3D

  0  0  0  0  0  0  0  0  0  0999 V3000
M  V30 BEGIN CTAB
M  V30 COUNTS 19 20 0 0 0
M  V30 BEGIN ATOM
M  V30 1 O -1.096058 -0.958943 2.960121 0
M  V30 2 C -0.325313 0.184613 2.948586 0
M  V30 3 C 0.948177 0.003243 2.161172 0
M  V30 4 C 2.111086 -0.174193 2.904977 0
M  V30 5 S 3.423510 -0.359760 1.578510 0
M  V30 6 C 2.291946 -0.182730 0.263528 0
M  V30 7 C 2.566608 -0.213787 -1.096254 0
M  V30 8 C 1.554472 -0.056899 -2.020872 0
M  V30 9 C 0.315472 0.122804 -1.445191 0
M  V30 10 C 0.030812 0.155388 -0.100036 0
M  V30 11 C 1.058236 -0.003375 0.805360 0
M  V30 12 H -1.993053 -0.680025 3.293855 0
M  V30 13 H -0.147069 0.572450 3.943192 0
M  V30 14 H -0.966929 0.963454 2.435877 0
M  V30 15 H 2.272290 -0.205330 3.980730 0
M  V30 16 H 3.585353 -0.364335 -1.419252 0
M  V30 17 H 1.714055 -0.073203 -3.074370 0
M  V30 18 H -0.518262 0.251256 -2.157515 0
M  V30 19 H -1.026834 0.310999 0.168511 0
M  V30 END ATOM
M  V30 BEGIN BOND
M  V30 1 1 1 2
M  V30 2 1 2 3
M  V30 3 2 3 4
M  V30 4 1 4 5
M  V30 5 1 5 6
M  V30 6 2 6 7
M  V30 7 1 7 8
M  V30 8 2 8 9
M  V30 9 1 9 10
M  V30 10 2 10 11
M  V30 11 1 11 3
M  V30 12 1 11 6
M  V30 13 1 1 12
M  V30 14 1 2 13
M  V30 15 1 2 14
M  V30 16 1 4 15
M  V30 17 1 7 16
M  V30 18 1 8 17
M  V30 19 1 9 18
M  V30 20 1 10 19
M  V30 END BOND
M  V30 END CTAB
M  END
>  <Dataset>  (26) 
PDB

>  <Ligand_Instance>  (26) 
5BX7_4W1_A_401

>  <PDB_ID>  (26) 
5BX7

>  <Standardized_SMILES>  (26) 
[H]OC([H])([H])C1=C([H])SC2=C([H])C([H])=C([H])C([H])=C21

>  <Name>  (26) 
1-benzothiophen-3-ylmethanol

>  <Pocket>  (26) 
A

>  <ATP_Site>  (26) 
1.0

>  <Peripheral>  (26) 
0.0

>  <Num_H_Atoms_ProtBoundConf>  (26) 
8.0

>  <Num_Resolved_Atoms>  (26) 
11.0

>  <Num_Not_Resolved_Atoms>  (26) 
0.0

$$$$
504
     RDKit          3D

  0  0  0  0  0  0  0  0  0  0999 V3000
M  V30 BEGIN CTAB
M  V30 COUNTS 64 68 0 0 0
M  V30 BEGIN ATOM
M  V30 1 C 8.086698 -0.181558 -1.196346 0
M  V30 2 C 7.713674 1.166520 -1.195896 0
M  V30 3 C 6.570398 1.520222 -0.520493 0
M  V30 4 C 5.792449 0.608730 0.145241 0
M  V30 5 C 6.226327 -0.693524 0.096779 0
M  V30 6 N 7.334830 -1.083968 -0.549759 0
M  V30 7 N 5.312338 -1.379544 0.802167 0
M  V30 8 C 4.380335 -0.521468 1.247506 0
M  V30 9 C 4.637355 0.803758 0.850896 0
M  V30 10 C 3.814889 1.963814 1.157141 0
M  V30 11 C 4.158202 3.274530 0.871627 0
M  V30 12 S 2.663921 4.211374 1.555688 0
M  V30 13 C 1.888708 2.662127 2.082855 0
M  V30 14 N 0.589465 2.449410 2.760857 0
M  V30 15 C -0.533477 2.252777 1.908485 0
M  V30 16 O -0.353093 2.271638 0.643634 0
M  V30 17 C -1.766522 2.052503 2.703149 0
M  V30 18 C -2.878075 1.847476 1.732190 0
M  V30 19 C -3.668738 2.851594 1.198274 0
M  V30 20 C -4.680672 2.615186 0.308255 0
M  V30 21 C -4.947472 1.325140 -0.092942 0
M  V30 22 C -4.193223 0.275562 0.404222 0
M  V30 23 O -4.328165 -1.071014 0.107571 0
M  V30 24 C -5.253001 -1.645219 -0.751223 0
M  V30 25 C -5.167609 -3.144208 -0.888361 0
M  V30 26 C -3.862307 -3.644239 -1.407328 0
M  V30 27 C -2.660744 -3.325143 -0.590105 0
M  V30 28 C -2.740525 -3.900391 0.805152 0
M  V30 29 C -1.368088 -4.187605 1.370132 0
M  V30 30 N -0.322905 -3.369762 0.792236 0 CHG=1 VAL=4
M  V30 31 C -0.202009 -3.553675 -0.635439 0
M  V30 32 C -1.487251 -4.069441 -1.248466 0
M  V30 33 C -3.173307 0.546694 1.305473 0
M  V30 34 N 2.638873 1.795699 1.772587 0
M  V30 35 H 8.999876 -0.478435 -1.733415 0
M  V30 36 H 8.345971 1.860413 -1.728889 0
M  V30 37 H 6.356298 2.550251 -0.573673 0
M  V30 38 H 5.347391 -2.404112 0.959312 0
M  V30 39 H 3.541842 -0.887666 1.848472 0
M  V30 40 H 4.929728 3.810504 0.438759 0
M  V30 41 H 0.650628 2.469641 3.791935 0
M  V30 42 H -1.983745 2.867645 3.402488 0
M  V30 43 H -1.726695 1.116443 3.329109 0
M  V30 44 H -3.448822 3.863506 1.521693 0
M  V30 45 H -5.280555 3.416684 -0.091154 0
M  V30 46 H -5.725412 1.040245 -0.789690 0
M  V30 47 H -5.217646 -1.237870 -1.786082 0
M  V30 48 H -6.280923 -1.426559 -0.365512 0
M  V30 49 H -5.932127 -3.430803 -1.659685 0
M  V30 50 H -5.516173 -3.665447 0.031596 0
M  V30 51 H -3.774920 -3.277224 -2.457590 0
M  V30 52 H -3.918725 -4.763881 -1.525933 0
M  V30 53 H -2.437307 -2.229388 -0.587757 0
M  V30 54 H -3.336595 -3.243575 1.435841 0
M  V30 55 H -3.214486 -4.919186 0.689116 0
M  V30 56 H -1.403690 -3.948630 2.452789 0
M  V30 57 H -1.068922 -5.255041 1.294760 0
M  V30 58 H 0.567725 -3.717658 1.212999 0
M  V30 59 H -0.412830 -2.366173 1.067928 0
M  V30 60 H 0.648980 -4.173160 -0.937296 0
M  V30 61 H -0.049559 -2.529005 -1.073395 0
M  V30 62 H -1.508188 -3.973149 -2.331877 0
M  V30 63 H -1.621145 -5.131640 -0.981060 0
M  V30 64 H -2.540787 -0.246105 1.734163 0
M  V30 END ATOM
M  V30 BEGIN BOND
M  V30 1 2 1 2
M  V30 2 1 2 3
M  V30 3 2 3 4
M  V30 4 1 4 5
M  V30 5 2 5 6
M  V30 6 1 5 7
M  V30 7 1 7 8
M  V30 8 2 8 9
M  V30 9 1 9 10
M  V30 10 2 10 11
M  V30 11 1 11 12
M  V30 12 1 12 13
M  V30 13 1 13 14
M  V30 14 1 14 15
M  V30 15 2 15 16
M  V30 16 1 15 17
M  V30 17 1 17 18
M  V30 18 2 18 19
M  V30 19 1 19 20
M  V30 20 2 20 21
M  V30 21 1 21 22
M  V30 22 1 22 23
M  V30 23 1 23 24
M  V30 24 1 24 25
M  V30 25 1 25 26
M  V30 26 1 26 27
M  V30 27 1 27 28
M  V30 28 1 28 29
M  V30 29 1 29 30
M  V30 30 1 30 31
M  V30 31 1 31 32
M  V30 32 2 22 33
M  V30 33 2 13 34
M  V30 34 1 6 1
M  V30 35 1 34 10
M  V30 36 1 9 4
M  V30 37 1 33 18
M  V30 38 1 32 27
M  V30 39 1 1 35
M  V30 40 1 2 36
M  V30 41 1 3 37
M  V30 42 1 7 38
M  V30 43 1 8 39
M  V30 44 1 11 40
M  V30 45 1 14 41
M  V30 46 1 17 42
M  V30 47 1 17 43
M  V30 48 1 19 44
M  V30 49 1 20 45
M  V30 50 1 21 46
M  V30 51 1 24 47
M  V30 52 1 24 48
M  V30 53 1 25 49
M  V30 54 1 25 50
M  V30 55 1 26 51
M  V30 56 1 26 52
M  V30 57 1 27 53
M  V30 58 1 28 54
M  V30 59 1 28 55
M  V30 60 1 29 56
M  V30 61 1 29 57
M  V30 62 1 30 58
M  V30 63 1 30 59
M  V30 64 1 31 60
M  V30 65 1 31 61
M  V30 66 1 32 62
M  V30 67 1 32 63
M  V30 68 1 33 64
M  V30 END BOND
M  V30 END CTAB
M  END
>  <Dataset>  (27) 
PDB

>  <Ligand_Instance>  (27) 
5UZK_504_A_401

>  <PDB_ID>  (27) 
5UZK

>  <Standardized_SMILES>  (27) 
[H]C1=C([H])C([H])=C2C(=N1)N([H])C([H])=C2C1=C([H])SC(N([H])C(=O)C([H])([H])C2=C([H])C([H])=C([H])C(OC([H])([H])C([H])([H])C([H])([H])C3([H])C([H])([H])C([H])([H])[N+]([H])([H])C([H])([H])C3([H])[H])=C2[H])=N1

>  <Name>  (27) 
2-{3-[3-(piperidin-4-yl)propoxy]phenyl}-N-[4-(1H-pyrrolo[2,3-b]pyridin-3-yl)-1,3-thiazol-2-yl]acetamide

>  <Pocket>  (27) 
A

>  <ATP_Site>  (27) 
1.0

>  <Peripheral>  (27) 
0.0

>  <Num_H_Atoms_ProtBoundConf>  (27) 
30.0

>  <Num_Resolved_Atoms>  (27) 
34.0

>  <Num_Not_Resolved_Atoms>  (27) 
0.0

$$$$
5AO
     RDKit          3D

  0  0  0  0  0  0  0  0  0  0999 V3000
M  V30 BEGIN CTAB
M  V30 COUNTS 20 21 0 0 0
M  V30 BEGIN ATOM
M  V30 1 C -2.317342 -0.942189 3.046908 0
M  V30 2 N -1.455244 -0.313158 3.855054 0
M  V30 3 C -0.410009 0.004379 3.091404 0
M  V30 4 C -0.660989 -0.442491 1.823107 0
M  V30 5 C 0.203411 -0.316687 0.655770 0
M  V30 6 C 1.447697 0.313012 0.732606 0
M  V30 7 C 2.244498 0.419092 -0.382237 0
M  V30 8 N 3.530458 1.061470 -0.335769 0
M  V30 9 C 1.820890 -0.097719 -1.593107 0
M  V30 10 C 0.581296 -0.731906 -1.696540 0
M  V30 11 C -0.172900 -0.812690 -0.564435 0
M  V30 12 O -1.843680 -1.022326 1.823361 0
M  V30 13 H -3.276308 -1.330596 3.367271 0
M  V30 14 H 0.489629 0.521228 3.388053 0
M  V30 15 H 1.795125 0.726379 1.684575 0
M  V30 16 H 4.373722 0.974127 0.283242 0
M  V30 17 H 3.704991 1.791008 -1.072803 0
M  V30 18 H 2.441067 -0.017756 -2.471048 0
M  V30 19 H 0.202028 -1.152276 -2.614813 0
M  V30 20 H -1.138246 -1.302020 -0.627165 0
M  V30 END ATOM
M  V30 BEGIN BOND
M  V30 1 2 1 2
M  V30 2 1 2 3
M  V30 3 2 3 4
M  V30 4 1 4 5
M  V30 5 2 5 6
M  V30 6 1 6 7
M  V30 7 1 7 8
M  V30 8 2 7 9
M  V30 9 1 9 10
M  V30 10 2 10 11
M  V30 11 1 4 12
M  V30 12 1 12 1
M  V30 13 1 11 5
M  V30 14 1 1 13
M  V30 15 1 3 14
M  V30 16 1 6 15
M  V30 17 1 8 16
M  V30 18 1 8 17
M  V30 19 1 9 18
M  V30 20 1 10 19
M  V30 21 1 11 20
M  V30 END BOND
M  V30 END CTAB
M  END
>  <Dataset>  (28) 
PDB

>  <Ligand_Instance>  (28) 
5N3O_5AO_A_403

>  <PDB_ID>  (28) 
5N3O

>  <Standardized_SMILES>  (28) 
[H]C1=NC([H])=C(C2=C([H])C(N([H])[H])=C([H])C([H])=C2[H])O1

>  <Name>  (28) 
3-(1,3-oxazol-5-yl)aniline

>  <Pocket>  (28) 
X

>  <ATP_Site>  (28) 
1.0

>  <Peripheral>  (28) 
1.0

>  <Num_H_Atoms_ProtBoundConf>  (28) 
8.0

>  <Num_Resolved_Atoms>  (28) 
12.0

>  <Num_Not_Resolved_Atoms>  (28) 
0.0

$$$$
5AO
     RDKit          3D

  0  0  0  0  0  0  0  0  0  0999 V3000
M  V30 BEGIN CTAB
M  V30 COUNTS 20 21 0 0 0
M  V30 BEGIN ATOM
M  V30 1 C -2.317342 -0.942189 3.046908 0
M  V30 2 N -1.455244 -0.313158 3.855054 0
M  V30 3 C -0.410009 0.004379 3.091404 0
M  V30 4 C -0.660989 -0.442491 1.823107 0
M  V30 5 C 0.203411 -0.316687 0.655770 0
M  V30 6 C 1.447697 0.313012 0.732606 0
M  V30 7 C 2.244498 0.419092 -0.382237 0
M  V30 8 N 3.530458 1.061470 -0.335769 0
M  V30 9 C 1.820890 -0.097719 -1.593107 0
M  V30 10 C 0.581296 -0.731906 -1.696540 0
M  V30 11 C -0.172900 -0.812690 -0.564435 0
M  V30 12 O -1.843680 -1.022326 1.823361 0
M  V30 13 H -3.276308 -1.330596 3.367271 0
M  V30 14 H 0.489629 0.521228 3.388053 0
M  V30 15 H 1.795125 0.726379 1.684575 0
M  V30 16 H 4.373722 0.974127 0.283242 0
M  V30 17 H 3.704991 1.791008 -1.072803 0
M  V30 18 H 2.441067 -0.017756 -2.471048 0
M  V30 19 H 0.202028 -1.152276 -2.614813 0
M  V30 20 H -1.138246 -1.302020 -0.627165 0
M  V30 END ATOM
M  V30 BEGIN BOND
M  V30 1 2 1 2
M  V30 2 1 2 3
M  V30 3 2 3 4
M  V30 4 1 4 5
M  V30 5 2 5 6
M  V30 6 1 6 7
M  V30 7 1 7 8
M  V30 8 2 7 9
M  V30 9 1 9 10
M  V30 10 2 10 11
M  V30 11 1 4 12
M  V30 12 1 12 1
M  V30 13 1 11 5
M  V30 14 1 1 13
M  V30 15 1 3 14
M  V30 16 1 6 15
M  V30 17 1 8 16
M  V30 18 1 8 17
M  V30 19 1 9 18
M  V30 20 1 10 19
M  V30 21 1 11 20
M  V30 END BOND
M  V30 END CTAB
M  END
>  <Dataset>  (29) 
PDB

>  <Ligand_Instance>  (29) 
5N3O_5AO_A_404

>  <PDB_ID>  (29) 
5N3O

>  <Standardized_SMILES>  (29) 
[H]C1=NC([H])=C(C2=C([H])C(N([H])[H])=C([H])C([H])=C2[H])O1

>  <Name>  (29) 
3-(1,3-oxazol-5-yl)aniline

>  <Pocket>  (29) 
A

>  <ATP_Site>  (29) 
1.0

>  <Peripheral>  (29) 
1.0

>  <Num_H_Atoms_ProtBoundConf>  (29) 
8.0

>  <Num_Resolved_Atoms>  (29) 
12.0

>  <Num_Not_Resolved_Atoms>  (29) 
0.0

$$$$
5AO
     RDKit          3D

  0  0  0  0  0  0  0  0  0  0999 V3000
M  V30 BEGIN CTAB
M  V30 COUNTS 20 21 0 0 0
M  V30 BEGIN ATOM
M  V30 1 C -2.317342 -0.942189 3.046908 0
M  V30 2 N -1.455244 -0.313158 3.855054 0
M  V30 3 C -0.410009 0.004379 3.091404 0
M  V30 4 C -0.660989 -0.442491 1.823107 0
M  V30 5 C 0.203411 -0.316687 0.655770 0
M  V30 6 C 1.447697 0.313012 0.732606 0
M  V30 7 C 2.244498 0.419092 -0.382237 0
M  V30 8 N 3.530458 1.061470 -0.335769 0
M  V30 9 C 1.820890 -0.097719 -1.593107 0
M  V30 10 C 0.581296 -0.731906 -1.696540 0
M  V30 11 C -0.172900 -0.812690 -0.564435 0
M  V30 12 O -1.843680 -1.022326 1.823361 0
M  V30 13 H -3.276308 -1.330596 3.367271 0
M  V30 14 H 0.489629 0.521228 3.388053 0
M  V30 15 H 1.795125 0.726379 1.684575 0
M  V30 16 H 4.373722 0.974127 0.283242 0
M  V30 17 H 3.704991 1.791008 -1.072803 0
M  V30 18 H 2.441067 -0.017756 -2.471048 0
M  V30 19 H 0.202028 -1.152276 -2.614813 0
M  V30 20 H -1.138246 -1.302020 -0.627165 0
M  V30 END ATOM
M  V30 BEGIN BOND
M  V30 1 2 1 2
M  V30 2 1 2 3
M  V30 3 2 3 4
M  V30 4 1 4 5
M  V30 5 2 5 6
M  V30 6 1 6 7
M  V30 7 1 7 8
M  V30 8 2 7 9
M  V30 9 1 9 10
M  V30 10 2 10 11
M  V30 11 1 4 12
M  V30 12 1 12 1
M  V30 13 1 11 5
M  V30 14 1 1 13
M  V30 15 1 3 14
M  V30 16 1 6 15
M  V30 17 1 8 16
M  V30 18 1 8 17
M  V30 19 1 9 18
M  V30 20 1 10 19
M  V30 21 1 11 20
M  V30 END BOND
M  V30 END CTAB
M  END
>  <Dataset>  (30) 
PDB

>  <Ligand_Instance>  (30) 
5N3O_5AO_A_405

>  <PDB_ID>  (30) 
5N3O

>  <Standardized_SMILES>  (30) 
[H]C1=NC([H])=C(C2=C([H])C(N([H])[H])=C([H])C([H])=C2[H])O1

>  <Name>  (30) 
3-(1,3-oxazol-5-yl)aniline

>  <Pocket>  (30) 
K

>  <ATP_Site>  (30) 
1.0

>  <Peripheral>  (30) 
1.0

>  <Num_H_Atoms_ProtBoundConf>  (30) 
8.0

>  <Num_Resolved_Atoms>  (30) 
12.0

>  <Num_Not_Resolved_Atoms>  (30) 
0.0

$$$$
5H1
     RDKit          3D

  0  0  0  0  0  0  0  0  0  0999 V3000
M  V30 BEGIN CTAB
M  V30 COUNTS 17 18 0 0 0
M  V30 BEGIN ATOM
M  V30 1 O 1.708551 -2.883078 1.543745 0
M  V30 2 C 1.242637 -1.606030 1.262668 0
M  V30 3 C 0.083483 -1.376371 0.554417 0
M  V30 4 C -0.321839 -0.088518 0.310431 0
M  V30 5 C 0.458716 0.921423 0.790893 0
M  V30 6 C 1.630089 0.714238 1.506688 0
M  V30 7 C 2.020027 -0.571868 1.741271 0
M  V30 8 C 2.080937 1.995001 1.786323 0
M  V30 9 C 1.221956 2.917660 1.263766 0
M  V30 10 N 0.230150 2.250945 0.655142 0
M  V30 11 H 2.219523 -3.394314 0.852791 0
M  V30 12 H -0.448603 -2.262272 0.226296 0
M  V30 13 H -1.234858 0.085011 -0.247458 0
M  V30 14 H 2.940793 -0.729619 2.303941 0
M  V30 15 H 2.995241 2.146726 2.345982 0
M  V30 16 H 1.413247 3.988075 1.384016 0
M  V30 17 H -0.523100 2.800047 0.196114 0
M  V30 END ATOM
M  V30 BEGIN BOND
M  V30 1 1 1 2
M  V30 2 2 2 3
M  V30 3 1 3 4
M  V30 4 2 4 5
M  V30 5 1 5 6
M  V30 6 2 6 7
M  V30 7 1 6 8
M  V30 8 2 8 9
M  V30 9 1 9 10
M  V30 10 1 7 2
M  V30 11 1 10 5
M  V30 12 1 1 11
M  V30 13 1 3 12
M  V30 14 1 4 13
M  V30 15 1 7 14
M  V30 16 1 8 15
M  V30 17 1 9 16
M  V30 18 1 10 17
M  V30 END BOND
M  V30 END CTAB
M  END
>  <Dataset>  (31) 
PDB

>  <Ligand_Instance>  (31) 
5N3P_5H1_A_403

>  <PDB_ID>  (31) 
5N3P

>  <Standardized_SMILES>  (31) 
[H]OC1=C([H])C([H])=C2C(=C1[H])C([H])=C([H])N2[H]

>  <Name>  (31) 
1H-indol-5-ol

>  <Pocket>  (31) 
A

>  <ATP_Site>  (31) 
1.0

>  <Peripheral>  (31) 
0.0

>  <Num_H_Atoms_ProtBoundConf>  (31) 
7.0

>  <Num_Resolved_Atoms>  (31) 
10.0

>  <Num_Not_Resolved_Atoms>  (31) 
0.0

$$$$
6J9
     RDKit          3D

  0  0  0  0  0  0  0  0  0  0999 V3000
M  V30 BEGIN CTAB
M  V30 COUNTS 29 31 0 0 0
M  V30 BEGIN ATOM
M  V30 1 C 2.154136 -1.792352 3.321145 0
M  V30 2 N 2.306351 -0.570011 3.859044 0
M  V30 3 C 1.639096 0.491846 3.381460 0
M  V30 4 C 0.805801 0.236369 2.322725 0
M  V30 5 C 0.604645 -0.982343 1.729658 0
M  V30 6 N -0.260181 -1.357147 0.666323 0
M  V30 7 C -0.017375 -2.616561 -0.023910 0
M  V30 8 C 0.198781 -2.365990 -1.461371 0
M  V30 9 N -0.081802 -1.085296 -1.993158 0 CHG=1 VAL=4
M  V30 10 C -1.144628 -0.353924 -1.366500 0
M  V30 11 C -1.423172 -0.791101 0.045309 0
M  V30 12 N 1.326939 -1.990484 2.286461 0
M  V30 13 C 0.235496 1.435166 1.979661 0
M  V30 14 C 0.720558 2.391811 2.823162 0
M  V30 15 N 1.572183 1.788946 3.665384 0
M  V30 16 H 2.688744 -2.678627 3.692619 0
M  V30 17 H 0.850718 -3.099717 0.452025 0
M  V30 18 H -0.917979 -3.258783 0.130521 0
M  V30 19 H 1.280392 -2.601529 -1.696713 0
M  V30 20 H -0.344388 -3.172165 -2.038130 0
M  V30 21 H 0.782359 -0.498863 -2.030328 0
M  V30 22 H -0.367059 -1.207759 -3.004692 0
M  V30 23 H -2.087134 -0.389365 -1.950847 0
M  V30 24 H -0.849797 0.714756 -1.320994 0
M  V30 25 H -2.216752 -1.604719 0.013026 0
M  V30 26 H -1.884447 -0.023594 0.680897 0
M  V30 27 H -0.452493 1.660982 1.211531 0
M  V30 28 H 0.482548 3.445277 2.835451 0
M  V30 29 H 2.121357 2.222778 4.438933 0
M  V30 END ATOM
M  V30 BEGIN BOND
M  V30 1 2 1 2
M  V30 2 1 2 3
M  V30 3 2 3 4
M  V30 4 1 4 5
M  V30 5 1 5 6
M  V30 6 1 6 7
M  V30 7 1 7 8
M  V30 8 1 8 9
M  V30 9 1 9 10
M  V30 10 1 10 11
M  V30 11 2 5 12
M  V30 12 1 4 13
M  V30 13 2 13 14
M  V30 14 1 14 15
M  V30 15 1 12 1
M  V30 16 1 15 3
M  V30 17 1 11 6
M  V30 18 1 1 16
M  V30 19 1 7 17
M  V30 20 1 7 18
M  V30 21 1 8 19
M  V30 22 1 8 20
M  V30 23 1 9 21
M  V30 24 1 9 22
M  V30 25 1 10 23
M  V30 26 1 10 24
M  V30 27 1 11 25
M  V30 28 1 11 26
M  V30 29 1 13 27
M  V30 30 1 14 28
M  V30 31 1 15 29
M  V30 END BOND
M  V30 END CTAB
M  END
>  <Dataset>  (32) 
PDB

>  <Ligand_Instance>  (32) 
5IZJ_6J9_A_414

>  <PDB_ID>  (32) 
5IZJ

>  <Standardized_SMILES>  (32) 
[H]C1=NC2=C(C(N3C([H])([H])C([H])([H])[N+]([H])([H])C([H])([H])C3([H])[H])=N1)C([H])=C([H])N2[H]

>  <Name>  (32) 
4-(piperazin-1-yl)-7H-pyrrolo[2,3-d]pyrimidine

>  <Pocket>  (32) 
X

>  <ATP_Site>  (32) 
0.0

>  <Peripheral>  (32) 
1.0

>  <Num_H_Atoms_ProtBoundConf>  (32) 
14.0

>  <Num_Resolved_Atoms>  (32) 
15.0

>  <Num_Not_Resolved_Atoms>  (32) 
0.0

$$$$
6J9
     RDKit          3D

  0  0  0  0  0  0  0  0  0  0999 V3000
M  V30 BEGIN CTAB
M  V30 COUNTS 29 31 0 0 0
M  V30 BEGIN ATOM
M  V30 1 C 2.154136 -1.792352 3.321145 0
M  V30 2 N 2.306351 -0.570011 3.859044 0
M  V30 3 C 1.639096 0.491846 3.381460 0
M  V30 4 C 0.805801 0.236369 2.322725 0
M  V30 5 C 0.604645 -0.982343 1.729658 0
M  V30 6 N -0.260181 -1.357147 0.666323 0
M  V30 7 C -0.017375 -2.616561 -0.023910 0
M  V30 8 C 0.198781 -2.365990 -1.461371 0
M  V30 9 N -0.081802 -1.085296 -1.993158 0 CHG=1 VAL=4
M  V30 10 C -1.144628 -0.353924 -1.366500 0
M  V30 11 C -1.423172 -0.791101 0.045309 0
M  V30 12 N 1.326939 -1.990484 2.286461 0
M  V30 13 C 0.235496 1.435166 1.979661 0
M  V30 14 C 0.720558 2.391811 2.823162 0
M  V30 15 N 1.572183 1.788946 3.665384 0
M  V30 16 H 2.688744 -2.678627 3.692619 0
M  V30 17 H 0.850718 -3.099717 0.452025 0
M  V30 18 H -0.917979 -3.258783 0.130521 0
M  V30 19 H 1.280392 -2.601529 -1.696713 0
M  V30 20 H -0.344388 -3.172165 -2.038130 0
M  V30 21 H 0.782359 -0.498863 -2.030328 0
M  V30 22 H -0.367059 -1.207759 -3.004692 0
M  V30 23 H -2.087134 -0.389365 -1.950847 0
M  V30 24 H -0.849797 0.714756 -1.320994 0
M  V30 25 H -2.216752 -1.604719 0.013026 0
M  V30 26 H -1.884447 -0.023594 0.680897 0
M  V30 27 H -0.452493 1.660982 1.211531 0
M  V30 28 H 0.482548 3.445277 2.835451 0
M  V30 29 H 2.121357 2.222778 4.438933 0
M  V30 END ATOM
M  V30 BEGIN BOND
M  V30 1 2 1 2
M  V30 2 1 2 3
M  V30 3 2 3 4
M  V30 4 1 4 5
M  V30 5 1 5 6
M  V30 6 1 6 7
M  V30 7 1 7 8
M  V30 8 1 8 9
M  V30 9 1 9 10
M  V30 10 1 10 11
M  V30 11 2 5 12
M  V30 12 1 4 13
M  V30 13 2 13 14
M  V30 14 1 14 15
M  V30 15 1 12 1
M  V30 16 1 15 3
M  V30 17 1 11 6
M  V30 18 1 1 16
M  V30 19 1 7 17
M  V30 20 1 7 18
M  V30 21 1 8 19
M  V30 22 1 8 20
M  V30 23 1 9 21
M  V30 24 1 9 22
M  V30 25 1 10 23
M  V30 26 1 10 24
M  V30 27 1 11 25
M  V30 28 1 11 26
M  V30 29 1 13 27
M  V30 30 1 14 28
M  V30 31 1 15 29
M  V30 END BOND
M  V30 END CTAB
M  END
>  <Dataset>  (33) 
PDB

>  <Ligand_Instance>  (33) 
5IZJ_6J9_B_413

>  <PDB_ID>  (33) 
5IZJ

>  <Standardized_SMILES>  (33) 
[H]C1=NC2=C(C(N3C([H])([H])C([H])([H])[N+]([H])([H])C([H])([H])C3([H])[H])=N1)C([H])=C([H])N2[H]

>  <Name>  (33) 
4-(piperazin-1-yl)-7H-pyrrolo[2,3-d]pyrimidine

>  <Pocket>  (33) 
X

>  <ATP_Site>  (33) 
0.0

>  <Peripheral>  (33) 
1.0

>  <Num_H_Atoms_ProtBoundConf>  (33) 
14.0

>  <Num_Resolved_Atoms>  (33) 
15.0

>  <Num_Not_Resolved_Atoms>  (33) 
0.0

$$$$
6J9
     RDKit          3D

  0  0  0  0  0  0  0  0  0  0999 V3000
M  V30 BEGIN CTAB
M  V30 COUNTS 29 31 0 0 0
M  V30 BEGIN ATOM
M  V30 1 C 2.154136 -1.792352 3.321145 0
M  V30 2 N 2.306351 -0.570011 3.859044 0
M  V30 3 C 1.639096 0.491846 3.381460 0
M  V30 4 C 0.805801 0.236369 2.322725 0
M  V30 5 C 0.604645 -0.982343 1.729658 0
M  V30 6 N -0.260181 -1.357147 0.666323 0
M  V30 7 C -0.017375 -2.616561 -0.023910 0
M  V30 8 C 0.198781 -2.365990 -1.461371 0
M  V30 9 N -0.081802 -1.085296 -1.993158 0 CHG=1 VAL=4
M  V30 10 C -1.144628 -0.353924 -1.366500 0
M  V30 11 C -1.423172 -0.791101 0.045309 0
M  V30 12 N 1.326939 -1.990484 2.286461 0
M  V30 13 C 0.235496 1.435166 1.979661 0
M  V30 14 C 0.720558 2.391811 2.823162 0
M  V30 15 N 1.572183 1.788946 3.665384 0
M  V30 16 H 2.688744 -2.678627 3.692619 0
M  V30 17 H 0.850718 -3.099717 0.452025 0
M  V30 18 H -0.917979 -3.258783 0.130521 0
M  V30 19 H 1.280392 -2.601529 -1.696713 0
M  V30 20 H -0.344388 -3.172165 -2.038130 0
M  V30 21 H 0.782359 -0.498863 -2.030328 0
M  V30 22 H -0.367059 -1.207759 -3.004692 0
M  V30 23 H -2.087134 -0.389365 -1.950847 0
M  V30 24 H -0.849797 0.714756 -1.320994 0
M  V30 25 H -2.216752 -1.604719 0.013026 0
M  V30 26 H -1.884447 -0.023594 0.680897 0
M  V30 27 H -0.452493 1.660982 1.211531 0
M  V30 28 H 0.482548 3.445277 2.835451 0
M  V30 29 H 2.121357 2.222778 4.438933 0
M  V30 END ATOM
M  V30 BEGIN BOND
M  V30 1 2 1 2
M  V30 2 1 2 3
M  V30 3 2 3 4
M  V30 4 1 4 5
M  V30 5 1 5 6
M  V30 6 1 6 7
M  V30 7 1 7 8
M  V30 8 1 8 9
M  V30 9 1 9 10
M  V30 10 1 10 11
M  V30 11 2 5 12
M  V30 12 1 4 13
M  V30 13 2 13 14
M  V30 14 1 14 15
M  V30 15 1 12 1
M  V30 16 1 15 3
M  V30 17 1 11 6
M  V30 18 1 1 16
M  V30 19 1 7 17
M  V30 20 1 7 18
M  V30 21 1 8 19
M  V30 22 1 8 20
M  V30 23 1 9 21
M  V30 24 1 9 22
M  V30 25 1 10 23
M  V30 26 1 10 24
M  V30 27 1 11 25
M  V30 28 1 11 26
M  V30 29 1 13 27
M  V30 30 1 14 28
M  V30 31 1 15 29
M  V30 END BOND
M  V30 END CTAB
M  END
>  <Dataset>  (34) 
PDB

>  <Ligand_Instance>  (34) 
5J5X_6J9_A_404

>  <PDB_ID>  (34) 
5J5X

>  <Standardized_SMILES>  (34) 
[H]C1=NC2=C(C(N3C([H])([H])C([H])([H])[N+]([H])([H])C([H])([H])C3([H])[H])=N1)C([H])=C([H])N2[H]

>  <Name>  (34) 
4-(piperazin-1-yl)-7H-pyrrolo[2,3-d]pyrimidine

>  <Pocket>  (34) 
X

>  <ATP_Site>  (34) 
0.0

>  <Peripheral>  (34) 
1.0

>  <Num_H_Atoms_ProtBoundConf>  (34) 
14.0

>  <Num_Resolved_Atoms>  (34) 
15.0

>  <Num_Not_Resolved_Atoms>  (34) 
0.0

$$$$
6TV
     RDKit          3D

  0  0  0  0  0  0  0  0  0  0999 V3000
M  V30 BEGIN CTAB
M  V30 COUNTS 40 41 0 0 0
M  V30 BEGIN ATOM
M  V30 1 C -0.867645 -3.368883 2.881635 0
M  V30 2 N -0.029772 -4.355828 3.189101 0
M  V30 3 C 0.781785 -4.936852 2.275015 0
M  V30 4 C 0.703214 -4.450873 0.974364 0
M  V30 5 C 1.526805 -5.038994 0.042021 0
M  V30 6 C 1.477815 -4.583748 -1.260804 0
M  V30 7 C 0.632803 -3.560265 -1.661890 0
M  V30 8 C -0.193527 -2.977674 -0.702202 0
M  V30 9 S -1.281069 -1.681955 -1.148486 0
M  V30 10 O -1.157512 -1.423397 -2.621509 0
M  V30 11 O -2.695767 -2.099559 -0.876763 0
M  V30 12 N -0.892706 -0.251360 -0.222846 0
M  V30 13 C 0.439257 0.194950 -0.496089 0
M  V30 14 C 0.798795 1.434346 0.295281 0
M  V30 15 N -0.035051 2.563251 0.043684 0 CHG=1 VAL=4
M  V30 16 C -0.209079 3.292367 1.294508 0
M  V30 17 C 1.111804 3.692234 1.884290 0
M  V30 18 C 0.981119 4.444816 3.172235 0
M  V30 19 C -0.144505 -3.433536 0.602500 0
M  V30 20 C -0.936402 -2.894693 1.585363 0
M  V30 21 H -1.474934 -2.966007 3.668843 0
M  V30 22 H 1.458741 -5.740751 2.544532 0
M  V30 23 H 2.189361 -5.828686 0.315241 0
M  V30 24 H 2.141162 -5.072617 -1.962671 0
M  V30 25 H 0.632197 -3.239274 -2.697233 0
M  V30 26 H -1.619572 0.447045 -0.425755 0
M  V30 27 H 1.134413 -0.598354 -0.093562 0
M  V30 28 H 0.668748 0.304569 -1.571829 0
M  V30 29 H 0.653536 1.131672 1.365960 0
M  V30 30 H 1.846491 1.708240 0.095216 0
M  V30 31 H 0.469739 3.252048 -0.590736 0
M  V30 32 H -0.926243 2.364561 -0.421044 0
M  V30 33 H -0.814451 4.209459 1.078650 0
M  V30 34 H -0.812248 2.666719 1.979451 0
M  V30 35 H 1.624159 4.361156 1.167596 0
M  V30 36 H 1.691402 2.765239 2.085746 0
M  V30 37 H 0.015610 4.250132 3.687066 0
M  V30 38 H 1.159707 5.538273 3.033331 0
M  V30 39 H 1.770483 4.121773 3.884512 0
M  V30 40 H -1.615184 -2.087988 1.313108 0
M  V30 END ATOM
M  V30 BEGIN BOND
M  V30 1 2 1 2
M  V30 2 1 2 3
M  V30 3 2 3 4
M  V30 4 1 4 5
M  V30 5 2 5 6
M  V30 6 1 6 7
M  V30 7 2 7 8
M  V30 8 1 8 9
M  V30 9 2 9 10
M  V30 10 2 9 11
M  V30 11 1 9 12
M  V30 12 1 12 13
M  V30 13 1 13 14
M  V30 14 1 14 15
M  V30 15 1 15 16
M  V30 16 1 16 17
M  V30 17 1 17 18
M  V30 18 1 8 19
M  V30 19 2 19 20
M  V30 20 1 20 1
M  V30 21 1 19 4
M  V30 22 1 1 21
M  V30 23 1 3 22
M  V30 24 1 5 23
M  V30 25 1 6 24
M  V30 26 1 7 25
M  V30 27 1 12 26
M  V30 28 1 13 27
M  V30 29 1 13 28
M  V30 30 1 14 29
M  V30 31 1 14 30
M  V30 32 1 15 31
M  V30 33 1 15 32
M  V30 34 1 16 33
M  V30 35 1 16 34
M  V30 36 1 17 35
M  V30 37 1 17 36
M  V30 38 1 18 37
M  V30 39 1 18 38
M  V30 40 1 18 39
M  V30 41 1 20 40
M  V30 END BOND
M  V30 END CTAB
M  END
>  <Dataset>  (35) 
PDB

>  <Ligand_Instance>  (35) 
5LCQ_6TV_A_401

>  <PDB_ID>  (35) 
5LCQ

>  <Standardized_SMILES>  (35) 
[H]C1=NC([H])=C2C([H])=C([H])C([H])=C(S(=O)(=O)N([H])C([H])([H])C([H])([H])[N+]([H])([H])C([H])([H])C([H])([H])C([H])([H])[H])C2=C1[H]

>  <Name>  (35) 
~{N}-[2-(propylamino)ethyl]isoquinoline-5-sulfonamide

>  <Pocket>  (35) 
A

>  <ATP_Site>  (35) 
1.0

>  <Peripheral>  (35) 
0.0

>  <Num_H_Atoms_ProtBoundConf>  (35) 
20.0

>  <Num_Resolved_Atoms>  (35) 
20.0

>  <Num_Not_Resolved_Atoms>  (35) 
0.0

$$$$
6TV
     RDKit          3D

  0  0  0  0  0  0  0  0  0  0999 V3000
M  V30 BEGIN CTAB
M  V30 COUNTS 40 41 0 0 0
M  V30 BEGIN ATOM
M  V30 1 C -0.867645 -3.368883 2.881635 0
M  V30 2 N -0.029772 -4.355828 3.189101 0
M  V30 3 C 0.781785 -4.936852 2.275015 0
M  V30 4 C 0.703214 -4.450873 0.974364 0
M  V30 5 C 1.526805 -5.038994 0.042021 0
M  V30 6 C 1.477815 -4.583748 -1.260804 0
M  V30 7 C 0.632803 -3.560265 -1.661890 0
M  V30 8 C -0.193527 -2.977674 -0.702202 0
M  V30 9 S -1.281069 -1.681955 -1.148486 0
M  V30 10 O -1.157512 -1.423397 -2.621509 0
M  V30 11 O -2.695767 -2.099559 -0.876763 0
M  V30 12 N -0.892706 -0.251360 -0.222846 0
M  V30 13 C 0.439257 0.194950 -0.496089 0
M  V30 14 C 0.798795 1.434346 0.295281 0
M  V30 15 N -0.035051 2.563251 0.043684 0 CHG=1 VAL=4
M  V30 16 C -0.209079 3.292367 1.294508 0
M  V30 17 C 1.111804 3.692234 1.884290 0
M  V30 18 C 0.981119 4.444816 3.172235 0
M  V30 19 C -0.144505 -3.433536 0.602500 0
M  V30 20 C -0.936402 -2.894693 1.585363 0
M  V30 21 H -1.474934 -2.966007 3.668843 0
M  V30 22 H 1.458741 -5.740751 2.544532 0
M  V30 23 H 2.189361 -5.828686 0.315241 0
M  V30 24 H 2.141162 -5.072617 -1.962671 0
M  V30 25 H 0.632197 -3.239274 -2.697233 0
M  V30 26 H -1.619572 0.447045 -0.425755 0
M  V30 27 H 1.134413 -0.598354 -0.093562 0
M  V30 28 H 0.668748 0.304569 -1.571829 0
M  V30 29 H 0.653536 1.131672 1.365960 0
M  V30 30 H 1.846491 1.708240 0.095216 0
M  V30 31 H 0.469739 3.252048 -0.590736 0
M  V30 32 H -0.926243 2.364561 -0.421044 0
M  V30 33 H -0.814451 4.209459 1.078650 0
M  V30 34 H -0.812248 2.666719 1.979451 0
M  V30 35 H 1.624159 4.361156 1.167596 0
M  V30 36 H 1.691402 2.765239 2.085746 0
M  V30 37 H 0.015610 4.250132 3.687066 0
M  V30 38 H 1.159707 5.538273 3.033331 0
M  V30 39 H 1.770483 4.121773 3.884512 0
M  V30 40 H -1.615184 -2.087988 1.313108 0
M  V30 END ATOM
M  V30 BEGIN BOND
M  V30 1 2 1 2
M  V30 2 1 2 3
M  V30 3 2 3 4
M  V30 4 1 4 5
M  V30 5 2 5 6
M  V30 6 1 6 7
M  V30 7 2 7 8
M  V30 8 1 8 9
M  V30 9 2 9 10
M  V30 10 2 9 11
M  V30 11 1 9 12
M  V30 12 1 12 13
M  V30 13 1 13 14
M  V30 14 1 14 15
M  V30 15 1 15 16
M  V30 16 1 16 17
M  V30 17 1 17 18
M  V30 18 1 8 19
M  V30 19 2 19 20
M  V30 20 1 20 1
M  V30 21 1 19 4
M  V30 22 1 1 21
M  V30 23 1 3 22
M  V30 24 1 5 23
M  V30 25 1 6 24
M  V30 26 1 7 25
M  V30 27 1 12 26
M  V30 28 1 13 27
M  V30 29 1 13 28
M  V30 30 1 14 29
M  V30 31 1 14 30
M  V30 32 1 15 31
M  V30 33 1 15 32
M  V30 34 1 16 33
M  V30 35 1 16 34
M  V30 36 1 17 35
M  V30 37 1 17 36
M  V30 38 1 18 37
M  V30 39 1 18 38
M  V30 40 1 18 39
M  V30 41 1 20 40
M  V30 END BOND
M  V30 END CTAB
M  END
>  <Dataset>  (36) 
PDB

>  <Ligand_Instance>  (36) 
6YQI_6TV_A_401

>  <PDB_ID>  (36) 
6YQI

>  <Standardized_SMILES>  (36) 
[H]C1=NC([H])=C2C([H])=C([H])C([H])=C(S(=O)(=O)N([H])C([H])([H])C([H])([H])[N+]([H])([H])C([H])([H])C([H])([H])C([H])([H])[H])C2=C1[H]

>  <Name>  (36) 
~{N}-[2-(propylamino)ethyl]isoquinoline-5-sulfonamide

>  <Pocket>  (36) 
A

>  <ATP_Site>  (36) 
1.0

>  <Peripheral>  (36) 
0.0

>  <Num_H_Atoms_ProtBoundConf>  (36) 
20.0

>  <Num_Resolved_Atoms>  (36) 
20.0

>  <Num_Not_Resolved_Atoms>  (36) 
0.0

$$$$
6TX
     RDKit          3D

  0  0  0  0  0  0  0  0  0  0999 V3000
M  V30 BEGIN CTAB
M  V30 COUNTS 40 41 0 0 0
M  V30 BEGIN ATOM
M  V30 1 C -2.695976 -2.806502 0.414595 0
M  V30 2 N -2.624594 -4.069619 0.928674 0
M  V30 3 C -1.415098 -4.666742 1.112438 0
M  V30 4 C -0.210741 -4.030274 0.791252 0
M  V30 5 C 1.008854 -4.637353 0.949753 0
M  V30 6 C 2.159876 -3.975924 0.593738 0
M  V30 7 C 2.032533 -2.703454 0.083343 0
M  V30 8 C 0.829254 -2.001933 -0.113439 0
M  V30 9 S 0.848000 -0.381445 -0.689151 0
M  V30 10 O 2.250748 -0.155708 -1.276853 0
M  V30 11 O -0.013387 -0.221330 -1.942579 0
M  V30 12 N 0.570341 0.867503 0.347739 0
M  V30 13 C -0.581663 1.079490 1.073239 0
M  V30 14 C -1.666534 1.774384 0.273629 0
M  V30 15 C -2.853926 1.930886 1.207096 0
M  V30 16 C 1.629549 1.827309 0.510071 0
M  V30 17 C 2.594132 1.478364 1.622945 0
M  V30 18 N 3.615619 2.525462 1.683739 0 CHG=1 VAL=4
M  V30 19 C -0.246452 -2.765881 0.276357 0
M  V30 20 C -1.487447 -2.215240 0.111964 0
M  V30 21 H -3.642661 -2.307598 0.257395 0
M  V30 22 H -1.368050 -5.663159 1.518152 0
M  V30 23 H 1.058838 -5.636070 1.355125 0
M  V30 24 H 3.130723 -4.430069 0.706927 0
M  V30 25 H 2.964190 -2.215117 -0.185743 0
M  V30 26 H -1.007532 0.164456 1.503262 0
M  V30 27 H -0.442960 1.795469 1.958430 0
M  V30 28 H -1.322946 2.831941 0.082437 0
M  V30 29 H -1.920368 1.275958 -0.660906 0
M  V30 30 H -2.791867 2.831552 1.838483 0
M  V30 31 H -3.750053 1.942354 0.542663 0
M  V30 32 H -2.923953 0.983341 1.788688 0
M  V30 33 H 2.211897 1.847180 -0.433825 0
M  V30 34 H 1.209037 2.838657 0.664252 0
M  V30 35 H 3.065971 0.495543 1.419251 0
M  V30 36 H 2.022992 1.475984 2.564936 0
M  V30 37 H 3.202285 3.400929 1.304842 0
M  V30 38 H 4.459515 2.215208 1.145827 0
M  V30 39 H 3.880429 2.678966 2.684144 0
M  V30 40 H -1.575095 -1.225964 -0.307061 0
M  V30 END ATOM
M  V30 BEGIN BOND
M  V30 1 2 1 2
M  V30 2 1 2 3
M  V30 3 2 3 4
M  V30 4 1 4 5
M  V30 5 2 5 6
M  V30 6 1 6 7
M  V30 7 2 7 8
M  V30 8 1 8 9
M  V30 9 2 9 10
M  V30 10 2 9 11
M  V30 11 1 9 12
M  V30 12 1 12 13
M  V30 13 1 13 14
M  V30 14 1 14 15
M  V30 15 1 12 16
M  V30 16 1 16 17
M  V30 17 1 17 18
M  V30 18 1 8 19
M  V30 19 2 19 20
M  V30 20 1 20 1
M  V30 21 1 19 4
M  V30 22 1 1 21
M  V30 23 1 3 22
M  V30 24 1 5 23
M  V30 25 1 6 24
M  V30 26 1 7 25
M  V30 27 1 13 26
M  V30 28 1 13 27
M  V30 29 1 14 28
M  V30 30 1 14 29
M  V30 31 1 15 30
M  V30 32 1 15 31
M  V30 33 1 15 32
M  V30 34 1 16 33
M  V30 35 1 16 34
M  V30 36 1 17 35
M  V30 37 1 17 36
M  V30 38 1 18 37
M  V30 39 1 18 38
M  V30 40 1 18 39
M  V30 41 1 20 40
M  V30 END BOND
M  V30 END CTAB
M  END
>  <Dataset>  (37) 
PDB

>  <Ligand_Instance>  (37) 
5LCR_6TX_A_401

>  <PDB_ID>  (37) 
5LCR

>  <Standardized_SMILES>  (37) 
[H]C1=NC([H])=C2C([H])=C([H])C([H])=C(S(=O)(=O)N(C([H])([H])C([H])([H])C([H])([H])[H])C([H])([H])C([H])([H])[N+]([H])([H])[H])C2=C1[H]

>  <Name>  (37) 
2-[isoquinolin-5-ylsulfonyl(propyl)amino]ethylazanium

>  <Pocket>  (37) 
A

>  <ATP_Site>  (37) 
1.0

>  <Peripheral>  (37) 
0.0

>  <Num_H_Atoms_ProtBoundConf>  (37) 
20.0

>  <Num_Resolved_Atoms>  (37) 
20.0

>  <Num_Not_Resolved_Atoms>  (37) 
0.0

$$$$
6TX
     RDKit          3D

  0  0  0  0  0  0  0  0  0  0999 V3000
M  V30 BEGIN CTAB
M  V30 COUNTS 40 41 0 0 0
M  V30 BEGIN ATOM
M  V30 1 C -2.695976 -2.806502 0.414595 0
M  V30 2 N -2.624594 -4.069619 0.928674 0
M  V30 3 C -1.415098 -4.666742 1.112438 0
M  V30 4 C -0.210741 -4.030274 0.791252 0
M  V30 5 C 1.008854 -4.637353 0.949753 0
M  V30 6 C 2.159876 -3.975924 0.593738 0
M  V30 7 C 2.032533 -2.703454 0.083343 0
M  V30 8 C 0.829254 -2.001933 -0.113439 0
M  V30 9 S 0.848000 -0.381445 -0.689151 0
M  V30 10 O 2.250748 -0.155708 -1.276853 0
M  V30 11 O -0.013387 -0.221330 -1.942579 0
M  V30 12 N 0.570341 0.867503 0.347739 0
M  V30 13 C -0.581663 1.079490 1.073239 0
M  V30 14 C -1.666534 1.774384 0.273629 0
M  V30 15 C -2.853926 1.930886 1.207096 0
M  V30 16 C 1.629549 1.827309 0.510071 0
M  V30 17 C 2.594132 1.478364 1.622945 0
M  V30 18 N 3.615619 2.525462 1.683739 0 CHG=1 VAL=4
M  V30 19 C -0.246452 -2.765881 0.276357 0
M  V30 20 C -1.487447 -2.215240 0.111964 0
M  V30 21 H -3.642661 -2.307598 0.257395 0
M  V30 22 H -1.368050 -5.663159 1.518152 0
M  V30 23 H 1.058838 -5.636070 1.355125 0
M  V30 24 H 3.130723 -4.430069 0.706927 0
M  V30 25 H 2.964190 -2.215117 -0.185743 0
M  V30 26 H -1.007532 0.164456 1.503262 0
M  V30 27 H -0.442960 1.795469 1.958430 0
M  V30 28 H -1.322946 2.831941 0.082437 0
M  V30 29 H -1.920368 1.275958 -0.660906 0
M  V30 30 H -2.791867 2.831552 1.838483 0
M  V30 31 H -3.750053 1.942354 0.542663 0
M  V30 32 H -2.923953 0.983341 1.788688 0
M  V30 33 H 2.211897 1.847180 -0.433825 0
M  V30 34 H 1.209037 2.838657 0.664252 0
M  V30 35 H 3.065971 0.495543 1.419251 0
M  V30 36 H 2.022992 1.475984 2.564936 0
M  V30 37 H 3.202285 3.400929 1.304842 0
M  V30 38 H 4.459515 2.215208 1.145827 0
M  V30 39 H 3.880429 2.678966 2.684144 0
M  V30 40 H -1.575095 -1.225964 -0.307061 0
M  V30 END ATOM
M  V30 BEGIN BOND
M  V30 1 2 1 2
M  V30 2 1 2 3
M  V30 3 2 3 4
M  V30 4 1 4 5
M  V30 5 2 5 6
M  V30 6 1 6 7
M  V30 7 2 7 8
M  V30 8 1 8 9
M  V30 9 2 9 10
M  V30 10 2 9 11
M  V30 11 1 9 12
M  V30 12 1 12 13
M  V30 13 1 13 14
M  V30 14 1 14 15
M  V30 15 1 12 16
M  V30 16 1 16 17
M  V30 17 1 17 18
M  V30 18 1 8 19
M  V30 19 2 19 20
M  V30 20 1 20 1
M  V30 21 1 19 4
M  V30 22 1 1 21
M  V30 23 1 3 22
M  V30 24 1 5 23
M  V30 25 1 6 24
M  V30 26 1 7 25
M  V30 27 1 13 26
M  V30 28 1 13 27
M  V30 29 1 14 28
M  V30 30 1 14 29
M  V30 31 1 15 30
M  V30 32 1 15 31
M  V30 33 1 15 32
M  V30 34 1 16 33
M  V30 35 1 16 34
M  V30 36 1 17 35
M  V30 37 1 17 36
M  V30 38 1 18 37
M  V30 39 1 18 38
M  V30 40 1 18 39
M  V30 41 1 20 40
M  V30 END BOND
M  V30 END CTAB
M  END
>  <Dataset>  (38) 
PDB

>  <Ligand_Instance>  (38) 
6YQJ_6TX_A_401

>  <PDB_ID>  (38) 
6YQJ

>  <Standardized_SMILES>  (38) 
[H]C1=NC([H])=C2C([H])=C([H])C([H])=C(S(=O)(=O)N(C([H])([H])C([H])([H])C([H])([H])[H])C([H])([H])C([H])([H])[N+]([H])([H])[H])C2=C1[H]

>  <Name>  (38) 
2-[isoquinolin-5-ylsulfonyl(propyl)amino]ethylazanium

>  <Pocket>  (38) 
A

>  <ATP_Site>  (38) 
1.0

>  <Peripheral>  (38) 
0.0

>  <Num_H_Atoms_ProtBoundConf>  (38) 
20.0

>  <Num_Resolved_Atoms>  (38) 
20.0

>  <Num_Not_Resolved_Atoms>  (38) 
0.0

$$$$
6TY
     RDKit          3D

  0  0  0  0  0  0  0  0  0  0999 V3000
M  V30 BEGIN CTAB
M  V30 COUNTS 38 40 0 0 0
M  V30 BEGIN ATOM
M  V30 1 C -1.782988 -1.935741 3.472092 0
M  V30 2 N -1.442596 -3.082268 4.129297 0
M  V30 3 C -0.591075 -3.978937 3.566061 0
M  V30 4 C -0.034237 -3.765624 2.303163 0
M  V30 5 C 0.810838 -4.665269 1.690851 0
M  V30 6 C 1.307469 -4.410216 0.432019 0
M  V30 7 C 0.934714 -3.249250 -0.171248 0
M  V30 8 C 0.082422 -2.262482 0.358846 0
M  V30 9 S -0.205909 -0.824134 -0.526449 0
M  V30 10 O -1.711075 -0.597165 -0.752801 0
M  V30 11 O 0.262901 -1.065501 -1.965517 0
M  V30 12 N 0.587600 0.520036 0.003828 0
M  V30 13 C 0.449844 1.112870 1.249331 0
M  V30 14 C -0.717264 2.083513 1.193401 0
M  V30 15 N -0.872939 2.621423 -0.147800 0 CHG=1 VAL=4
M  V30 16 C 0.375322 2.705458 -0.876385 0
M  V30 17 C 1.096079 1.401541 -1.027272 0 CFG=1
M  V30 18 C 2.576060 1.651826 -0.834770 0
M  V30 19 C -0.356502 -2.617850 1.614500 0
M  V30 20 C -1.214613 -1.759081 2.229584 0
M  V30 21 H -2.467983 -1.200626 3.908724 0
M  V30 22 H -0.318155 -4.893210 4.086842 0
M  V30 23 H 1.069848 -5.568574 2.223017 0
M  V30 24 H 1.969768 -5.108749 -0.057779 0
M  V30 25 H 1.348668 -3.080246 -1.170879 0
M  V30 26 H 0.482283 0.454845 2.090606 0
M  V30 27 H 1.348978 1.805046 1.389554 0
M  V30 28 H -1.633937 1.504600 1.419030 0
M  V30 29 H -0.649600 2.893891 1.937874 0
M  V30 30 H -1.198035 3.609418 -0.036905 0
M  V30 31 H -1.606635 2.150272 -0.704925 0
M  V30 32 H 0.116909 3.055568 -1.891006 0
M  V30 33 H 1.007587 3.499871 -0.403210 0
M  V30 34 H 0.950877 0.894872 -1.994832 0
M  V30 35 H 2.802509 2.588084 -0.295090 0
M  V30 36 H 3.130891 1.716681 -1.807775 0
M  V30 37 H 3.075073 0.833821 -0.278772 0
M  V30 38 H -1.508376 -0.859844 1.726974 0
M  V30 END ATOM
M  V30 BEGIN BOND
M  V30 1 2 1 2
M  V30 2 1 2 3
M  V30 3 2 3 4
M  V30 4 1 4 5
M  V30 5 2 5 6
M  V30 6 1 6 7
M  V30 7 2 7 8
M  V30 8 1 8 9
M  V30 9 2 9 10
M  V30 10 2 9 11
M  V30 11 1 9 12
M  V30 12 1 12 13
M  V30 13 1 13 14
M  V30 14 1 14 15
M  V30 15 1 15 16
M  V30 16 1 16 17
M  V30 17 1 17 18
M  V30 18 1 8 19
M  V30 19 2 19 20
M  V30 20 1 20 1
M  V30 21 1 19 4
M  V30 22 1 17 12
M  V30 23 1 1 21
M  V30 24 1 3 22
M  V30 25 1 5 23
M  V30 26 1 6 24
M  V30 27 1 7 25
M  V30 28 1 13 26
M  V30 29 1 13 27
M  V30 30 1 14 28
M  V30 31 1 14 29
M  V30 32 1 15 30
M  V30 33 1 15 31
M  V30 34 1 16 32
M  V30 35 1 16 33
M  V30 36 1 17 34 CFG=3
M  V30 37 1 18 35
M  V30 38 1 18 36
M  V30 39 1 18 37
M  V30 40 1 20 38
M  V30 END BOND
M  V30 END CTAB
M  END
>  <Dataset>  (39) 
PDB

>  <Ligand_Instance>  (39) 
5LCT_6TY_A_401

>  <PDB_ID>  (39) 
5LCT

>  <Standardized_SMILES>  (39) 
[H]C1=NC([H])=C2C([H])=C([H])C([H])=C(S(=O)(=O)N3C([H])([H])C([H])([H])[N+]([H])([H])C([H])([H])[C@@]3([H])C([H])([H])[H])C2=C1[H]

>  <Name>  (39) 
5-[(2~{R})-2-methylpiperazin-1-yl]sulfonylisoquinoline

>  <Pocket>  (39) 
A

>  <ATP_Site>  (39) 
1.0

>  <Peripheral>  (39) 
0.0

>  <Num_H_Atoms_ProtBoundConf>  (39) 
18.0

>  <Num_Resolved_Atoms>  (39) 
20.0

>  <Num_Not_Resolved_Atoms>  (39) 
0.0

$$$$
7CB
     RDKit          3D

  0  0  0  0  0  0  0  0  0  0999 V3000
M  V30 BEGIN CTAB
M  V30 COUNTS 22 23 0 0 0
M  V30 BEGIN ATOM
M  V30 1 C 0.268569 1.181777 3.425664 0
M  V30 2 N 1.010130 0.262576 4.082914 0
M  V30 3 C 1.574330 -0.740679 3.397261 0
M  V30 4 C 1.377117 -0.801231 2.032477 0
M  V30 5 C 1.968661 -1.847798 1.334318 0
M  V30 6 C 1.792973 -1.939788 -0.029964 0
M  V30 7 C 1.030135 -0.986766 -0.677005 0
M  V30 8 C 0.417241 0.078692 -0.027313 0
M  V30 9 S -0.541747 1.276494 -0.841747 0
M  V30 10 O -0.619877 0.846956 -2.299836 0
M  V30 11 O 0.132864 2.618922 -0.838327 0
M  V30 12 N -2.167286 1.354823 -0.282550 0
M  V30 13 C 0.629960 0.115485 1.333524 0
M  V30 14 C 0.058341 1.141565 2.065758 0
M  V30 15 H -0.161081 1.963143 4.015531 0
M  V30 16 H 2.182867 -1.503559 3.903261 0
M  V30 17 H 2.565493 -2.589524 1.855769 0
M  V30 18 H 2.248230 -2.753629 -0.599999 0
M  V30 19 H 0.906541 -1.080919 -1.751630 0
M  V30 20 H -2.481235 2.355039 -0.436438 0
M  V30 21 H -2.769829 0.651049 -0.730087 0
M  V30 22 H -0.535871 1.889791 1.584678 0
M  V30 END ATOM
M  V30 BEGIN BOND
M  V30 1 2 1 2
M  V30 2 1 2 3
M  V30 3 2 3 4
M  V30 4 1 4 5
M  V30 5 2 5 6
M  V30 6 1 6 7
M  V30 7 2 7 8
M  V30 8 1 8 9
M  V30 9 2 9 10
M  V30 10 2 9 11
M  V30 11 1 9 12
M  V30 12 1 8 13
M  V30 13 2 13 14
M  V30 14 1 14 1
M  V30 15 1 13 4
M  V30 16 1 1 15
M  V30 17 1 3 16
M  V30 18 1 5 17
M  V30 19 1 6 18
M  V30 20 1 7 19
M  V30 21 1 12 20
M  V30 22 1 12 21
M  V30 23 1 14 22
M  V30 END BOND
M  V30 END CTAB
M  END
>  <Dataset>  (40) 
PDB

>  <Ligand_Instance>  (40) 
5M0C_7CB_A_401

>  <PDB_ID>  (40) 
5M0C

>  <Standardized_SMILES>  (40) 
[H]C1=NC([H])=C2C([H])=C([H])C([H])=C(S(=O)(=O)N([H])[H])C2=C1[H]

>  <Name>  (40) 
isoquinoline-5-sulfonamide

>  <Pocket>  (40) 
A

>  <ATP_Site>  (40) 
1.0

>  <Peripheral>  (40) 
0.0

>  <Num_H_Atoms_ProtBoundConf>  (40) 
8.0

>  <Num_Resolved_Atoms>  (40) 
14.0

>  <Num_Not_Resolved_Atoms>  (40) 
0.0

$$$$
7CT
     RDKit          3D

  0  0  0  0  0  0  0  0  0  0999 V3000
M  V30 BEGIN CTAB
M  V30 COUNTS 25 26 0 0 0
M  V30 BEGIN ATOM
M  V30 1 C 1.341536 0.295840 3.483237 0
M  V30 2 N 1.007461 -0.816208 4.195202 0
M  V30 3 C 0.544744 -1.909825 3.522389 0
M  V30 4 C 0.441967 -1.821023 2.140914 0
M  V30 5 C -0.018645 -2.899205 1.432319 0
M  V30 6 C -0.144658 -2.873882 0.048808 0
M  V30 7 C 0.206196 -1.725957 -0.624701 0
M  V30 8 C 0.677396 -0.610293 0.053024 0
M  V30 9 S 1.130404 0.862059 -0.780231 0
M  V30 10 O 2.583665 1.161578 -0.601913 0
M  V30 11 O 0.906884 0.624925 -2.260251 0
M  V30 12 N 0.133626 2.129607 -0.183245 0
M  V30 13 C -1.243064 1.831144 -0.471311 0
M  V30 14 C 0.787398 -0.681545 1.443251 0
M  V30 15 C 1.255907 0.428019 2.116131 0
M  V30 16 H 1.700023 1.109747 4.128043 0
M  V30 17 H 0.251333 -2.841338 3.979790 0
M  V30 18 H -0.306910 -3.824515 1.919611 0
M  V30 19 H -0.495346 -3.672490 -0.573424 0
M  V30 20 H 0.144348 -1.606746 -1.700363 0
M  V30 21 H 0.449492 3.067672 -0.438896 0
M  V30 22 H -1.472410 1.899048 -1.562294 0
M  V30 23 H -1.385285 0.739626 -0.238974 0
M  V30 24 H -1.954537 2.381842 0.153833 0
M  V30 25 H 1.543921 1.347284 1.649011 0
M  V30 END ATOM
M  V30 BEGIN BOND
M  V30 1 2 1 2
M  V30 2 1 2 3
M  V30 3 2 3 4
M  V30 4 1 4 5
M  V30 5 2 5 6
M  V30 6 1 6 7
M  V30 7 2 7 8
M  V30 8 1 8 9
M  V30 9 2 9 10
M  V30 10 2 9 11
M  V30 11 1 9 12
M  V30 12 1 12 13
M  V30 13 1 8 14
M  V30 14 2 14 15
M  V30 15 1 15 1
M  V30 16 1 14 4
M  V30 17 1 1 16
M  V30 18 1 3 17
M  V30 19 1 5 18
M  V30 20 1 6 19
M  V30 21 1 7 20
M  V30 22 1 12 21
M  V30 23 1 13 22
M  V30 24 1 13 23
M  V30 25 1 13 24
M  V30 26 1 15 25
M  V30 END BOND
M  V30 END CTAB
M  END
>  <Dataset>  (41) 
PDB

>  <Ligand_Instance>  (41) 
5M0L_7CT_A_401

>  <PDB_ID>  (41) 
5M0L

>  <Standardized_SMILES>  (41) 
[H]C1=NC([H])=C2C([H])=C([H])C([H])=C(S(=O)(=O)N([H])C([H])([H])[H])C2=C1[H]

>  <Name>  (41) 
~{N}-methylisoquinoline-5-sulfonamide

>  <Pocket>  (41) 
A

>  <ATP_Site>  (41) 
1.0

>  <Peripheral>  (41) 
1.0

>  <Num_H_Atoms_ProtBoundConf>  (41) 
10.0

>  <Num_Resolved_Atoms>  (41) 
15.0

>  <Num_Not_Resolved_Atoms>  (41) 
0.0

$$$$
7CT
     RDKit          3D

  0  0  0  0  0  0  0  0  0  0999 V3000
M  V30 BEGIN CTAB
M  V30 COUNTS 25 26 0 0 0
M  V30 BEGIN ATOM
M  V30 1 C 1.341536 0.295840 3.483237 0
M  V30 2 N 1.007461 -0.816208 4.195202 0
M  V30 3 C 0.544744 -1.909825 3.522389 0
M  V30 4 C 0.441967 -1.821023 2.140914 0
M  V30 5 C -0.018645 -2.899205 1.432319 0
M  V30 6 C -0.144658 -2.873882 0.048808 0
M  V30 7 C 0.206196 -1.725957 -0.624701 0
M  V30 8 C 0.677396 -0.610293 0.053024 0
M  V30 9 S 1.130404 0.862059 -0.780231 0
M  V30 10 O 2.583665 1.161578 -0.601913 0
M  V30 11 O 0.906884 0.624925 -2.260251 0
M  V30 12 N 0.133626 2.129607 -0.183245 0
M  V30 13 C -1.243064 1.831144 -0.471311 0
M  V30 14 C 0.787398 -0.681545 1.443251 0
M  V30 15 C 1.255907 0.428019 2.116131 0
M  V30 16 H 1.700023 1.109747 4.128043 0
M  V30 17 H 0.251333 -2.841338 3.979790 0
M  V30 18 H -0.306910 -3.824515 1.919611 0
M  V30 19 H -0.495346 -3.672490 -0.573424 0
M  V30 20 H 0.144348 -1.606746 -1.700363 0
M  V30 21 H 0.449492 3.067672 -0.438896 0
M  V30 22 H -1.472410 1.899048 -1.562294 0
M  V30 23 H -1.385285 0.739626 -0.238974 0
M  V30 24 H -1.954537 2.381842 0.153833 0
M  V30 25 H 1.543921 1.347284 1.649011 0
M  V30 END ATOM
M  V30 BEGIN BOND
M  V30 1 2 1 2
M  V30 2 1 2 3
M  V30 3 2 3 4
M  V30 4 1 4 5
M  V30 5 2 5 6
M  V30 6 1 6 7
M  V30 7 2 7 8
M  V30 8 1 8 9
M  V30 9 2 9 10
M  V30 10 2 9 11
M  V30 11 1 9 12
M  V30 12 1 12 13
M  V30 13 1 8 14
M  V30 14 2 14 15
M  V30 15 1 15 1
M  V30 16 1 14 4
M  V30 17 1 1 16
M  V30 18 1 3 17
M  V30 19 1 5 18
M  V30 20 1 6 19
M  V30 21 1 7 20
M  V30 22 1 12 21
M  V30 23 1 13 22
M  V30 24 1 13 23
M  V30 25 1 13 24
M  V30 26 1 15 25
M  V30 END BOND
M  V30 END CTAB
M  END
>  <Dataset>  (42) 
PDB

>  <Ligand_Instance>  (42) 
5M0L_7CT_A_402

>  <PDB_ID>  (42) 
5M0L

>  <Standardized_SMILES>  (42) 
[H]C1=NC([H])=C2C([H])=C([H])C([H])=C(S(=O)(=O)N([H])C([H])([H])[H])C2=C1[H]

>  <Name>  (42) 
~{N}-methylisoquinoline-5-sulfonamide

>  <Pocket>  (42) 
X

>  <ATP_Site>  (42) 
1.0

>  <Peripheral>  (42) 
1.0

>  <Num_H_Atoms_ProtBoundConf>  (42) 
10.0

>  <Num_Resolved_Atoms>  (42) 
15.0

>  <Num_Not_Resolved_Atoms>  (42) 
0.0

$$$$
7CT
     RDKit          3D

  0  0  0  0  0  0  0  0  0  0999 V3000
M  V30 BEGIN CTAB
M  V30 COUNTS 25 26 0 0 0
M  V30 BEGIN ATOM
M  V30 1 C 1.341536 0.295840 3.483237 0
M  V30 2 N 1.007461 -0.816208 4.195202 0
M  V30 3 C 0.544744 -1.909825 3.522389 0
M  V30 4 C 0.441967 -1.821023 2.140914 0
M  V30 5 C -0.018645 -2.899205 1.432319 0
M  V30 6 C -0.144658 -2.873882 0.048808 0
M  V30 7 C 0.206196 -1.725957 -0.624701 0
M  V30 8 C 0.677396 -0.610293 0.053024 0
M  V30 9 S 1.130404 0.862059 -0.780231 0
M  V30 10 O 2.583665 1.161578 -0.601913 0
M  V30 11 O 0.906884 0.624925 -2.260251 0
M  V30 12 N 0.133626 2.129607 -0.183245 0
M  V30 13 C -1.243064 1.831144 -0.471311 0
M  V30 14 C 0.787398 -0.681545 1.443251 0
M  V30 15 C 1.255907 0.428019 2.116131 0
M  V30 16 H 1.700023 1.109747 4.128043 0
M  V30 17 H 0.251333 -2.841338 3.979790 0
M  V30 18 H -0.306910 -3.824515 1.919611 0
M  V30 19 H -0.495346 -3.672490 -0.573424 0
M  V30 20 H 0.144348 -1.606746 -1.700363 0
M  V30 21 H 0.449492 3.067672 -0.438896 0
M  V30 22 H -1.472410 1.899048 -1.562294 0
M  V30 23 H -1.385285 0.739626 -0.238974 0
M  V30 24 H -1.954537 2.381842 0.153833 0
M  V30 25 H 1.543921 1.347284 1.649011 0
M  V30 END ATOM
M  V30 BEGIN BOND
M  V30 1 2 1 2
M  V30 2 1 2 3
M  V30 3 2 3 4
M  V30 4 1 4 5
M  V30 5 2 5 6
M  V30 6 1 6 7
M  V30 7 2 7 8
M  V30 8 1 8 9
M  V30 9 2 9 10
M  V30 10 2 9 11
M  V30 11 1 9 12
M  V30 12 1 12 13
M  V30 13 1 8 14
M  V30 14 2 14 15
M  V30 15 1 15 1
M  V30 16 1 14 4
M  V30 17 1 1 16
M  V30 18 1 3 17
M  V30 19 1 5 18
M  V30 20 1 6 19
M  V30 21 1 7 20
M  V30 22 1 12 21
M  V30 23 1 13 22
M  V30 24 1 13 23
M  V30 25 1 13 24
M  V30 26 1 15 25
M  V30 END BOND
M  V30 END CTAB
M  END
>  <Dataset>  (43) 
PDB

>  <Ligand_Instance>  (43) 
6YNC_7CT_A_401

>  <PDB_ID>  (43) 
6YNC

>  <Standardized_SMILES>  (43) 
[H]C1=NC([H])=C2C([H])=C([H])C([H])=C(S(=O)(=O)N([H])C([H])([H])[H])C2=C1[H]

>  <Name>  (43) 
~{N}-methylisoquinoline-5-sulfonamide

>  <Pocket>  (43) 
A

>  <ATP_Site>  (43) 
1.0

>  <Peripheral>  (43) 
0.0

>  <Num_H_Atoms_ProtBoundConf>  (43) 
10.0

>  <Num_Resolved_Atoms>  (43) 
15.0

>  <Num_Not_Resolved_Atoms>  (43) 
0.0

$$$$
7K7
     RDKit          3D

  0  0  0  0  0  0  0  0  0  0999 V3000
M  V30 BEGIN CTAB
M  V30 COUNTS 41 43 0 0 0
M  V30 BEGIN ATOM
M  V30 1 C 0.091300 -2.570194 3.773058 0
M  V30 2 N -0.468949 -3.803666 3.861648 0
M  V30 3 C -0.501552 -4.618889 2.786867 0
M  V30 4 C 0.031540 -4.237741 1.551332 0
M  V30 5 C -0.044115 -5.124624 0.517013 0
M  V30 6 C 0.492481 -4.701875 -0.669800 0
M  V30 7 C 1.075881 -3.457894 -0.820826 0
M  V30 8 C 1.139461 -2.566603 0.260424 0
M  V30 9 S 1.838072 -0.996153 0.196731 0
M  V30 10 O 3.156717 -0.813129 0.831052 0
M  V30 11 O 2.151494 -0.750745 -1.282591 0
M  V30 12 N 0.719232 0.261446 0.573223 0
M  V30 13 C -0.378179 0.330468 -0.330069 0
M  V30 14 C -1.470538 1.154187 0.263702 0
M  V30 15 C -1.228202 2.623462 0.227050 0
M  V30 16 N -0.057799 3.047887 -0.464826 0 CHG=1 VAL=4
M  V30 17 C 1.196662 2.589934 -0.089276 0
M  V30 18 C 1.323429 1.492654 0.911611 0 CFG=1
M  V30 19 C 1.077434 1.916367 2.346267 0
M  V30 20 C 0.604121 -2.992450 1.438522 0
M  V30 21 C 0.622842 -2.182588 2.552098 0
M  V30 22 H 0.109052 -1.922808 4.653861 0
M  V30 23 H -0.966903 -5.579141 2.953897 0
M  V30 24 H -0.491434 -6.103336 0.596668 0
M  V30 25 H 0.460355 -5.370259 -1.532794 0
M  V30 26 H 1.504662 -3.107457 -1.750812 0
M  V30 27 H -0.788510 -0.718276 -0.411799 0
M  V30 28 H -0.130979 0.600283 -1.374159 0
M  V30 29 H -1.623188 0.775662 1.309005 0
M  V30 30 H -2.420531 0.839936 -0.259711 0
M  V30 31 H -2.095305 3.073968 -0.346425 0
M  V30 32 H -1.352794 3.117610 1.232186 0
M  V30 33 H -0.264196 2.909348 -1.500970 0
M  V30 34 H -0.075658 4.112418 -0.395861 0
M  V30 35 H 1.868816 3.404622 0.260519 0
M  V30 36 H 1.734384 2.215865 -1.013362 0
M  V30 37 H 2.431356 1.287563 0.919708 0
M  V30 38 H 0.045167 1.816130 2.686392 0
M  V30 39 H 1.660021 1.239662 3.038911 0
M  V30 40 H 1.533061 2.914679 2.494608 0
M  V30 41 H 1.044130 -1.202374 2.562011 0
M  V30 END ATOM
M  V30 BEGIN BOND
M  V30 1 2 1 2
M  V30 2 1 2 3
M  V30 3 2 3 4
M  V30 4 1 4 5
M  V30 5 2 5 6
M  V30 6 1 6 7
M  V30 7 2 7 8
M  V30 8 1 8 9
M  V30 9 2 9 10
M  V30 10 2 9 11
M  V30 11 1 9 12
M  V30 12 1 12 13
M  V30 13 1 13 14
M  V30 14 1 14 15
M  V30 15 1 15 16
M  V30 16 1 16 17
M  V30 17 1 17 18
M  V30 18 1 18 19
M  V30 19 1 8 20
M  V30 20 2 20 21
M  V30 21 1 21 1
M  V30 22 1 20 4
M  V30 23 1 18 12
M  V30 24 1 1 22
M  V30 25 1 3 23
M  V30 26 1 5 24
M  V30 27 1 6 25
M  V30 28 1 7 26
M  V30 29 1 13 27
M  V30 30 1 13 28
M  V30 31 1 14 29
M  V30 32 1 14 30
M  V30 33 1 15 31
M  V30 34 1 15 32
M  V30 35 1 16 33
M  V30 36 1 16 34
M  V30 37 1 17 35
M  V30 38 1 17 36
M  V30 39 1 18 37 CFG=1
M  V30 40 1 19 38
M  V30 41 1 19 39
M  V30 42 1 19 40
M  V30 43 1 21 41
M  V30 END BOND
M  V30 END CTAB
M  END
>  <Dataset>  (44) 
PDB

>  <Ligand_Instance>  (44) 
5M71_7K7_A_401

>  <PDB_ID>  (44) 
5M71

>  <Standardized_SMILES>  (44) 
[H]C1=NC([H])=C2C([H])=C([H])C([H])=C(S(=O)(=O)N3C([H])([H])C([H])([H])C([H])([H])[N+]([H])([H])C([H])([H])[C@@]3([H])C([H])([H])[H])C2=C1[H]

>  <Name>  (44) 
5-[[(2~{R})-2-methyl-1,4-diazepan-4-ium-1-yl]sulfonyl]isoquinoline

>  <Pocket>  (44) 
A

>  <ATP_Site>  (44) 
1.0

>  <Peripheral>  (44) 
0.0

>  <Num_H_Atoms_ProtBoundConf>  (44) 
20.0

>  <Num_Resolved_Atoms>  (44) 
21.0

>  <Num_Not_Resolved_Atoms>  (44) 
0.0

$$$$
7KB
     RDKit          3D

  0  0  0  0  0  0  0  0  0  0999 V3000
M  V30 BEGIN CTAB
M  V30 COUNTS 41 43 0 0 0
M  V30 BEGIN ATOM
M  V30 1 C 0.105180 -2.870682 3.826447 0
M  V30 2 N -0.275965 -4.186185 3.847813 0
M  V30 3 C -0.141363 -4.880067 2.688343 0
M  V30 4 C 0.363264 -4.204446 1.597577 0
M  V30 5 C 0.465635 -4.999754 0.475749 0
M  V30 6 C 0.955515 -4.469951 -0.685102 0
M  V30 7 C 1.318495 -3.125776 -0.624884 0
M  V30 8 C 1.253304 -2.228581 0.466569 0
M  V30 9 S 1.719740 -0.594873 0.347757 0
M  V30 10 O 3.139082 -0.192403 0.478597 0
M  V30 11 O 1.722594 -0.395841 -1.191496 0
M  V30 12 N 0.515975 0.603097 0.598697 0
M  V30 13 C -0.568985 0.564880 -0.323265 0
M  V30 14 C -1.698489 1.418338 0.198278 0
M  V30 15 C -1.351664 2.888042 0.182207 0
M  V30 16 N -0.313336 3.202114 -0.759796 0 CHG=1 VAL=4
M  V30 17 C 1.001364 2.838810 -0.336195 0
M  V30 18 C 1.076280 1.898487 0.817120 0
M  V30 19 C 0.744106 -2.888477 1.574535 0
M  V30 20 C 0.626847 -2.132080 2.740546 0
M  V30 21 C 0.988311 -0.728617 2.933967 0
M  V30 22 H -0.035398 -2.387423 4.797729 0
M  V30 23 H -0.432788 -5.905282 2.687262 0
M  V30 24 H 0.180348 -6.040636 0.441038 0
M  V30 25 H 1.064788 -5.029956 -1.599955 0
M  V30 26 H 1.709755 -2.744820 -1.585907 0
M  V30 27 H -0.273096 0.791219 -1.360908 0
M  V30 28 H -0.935538 -0.484298 -0.342963 0
M  V30 29 H -2.618510 1.228468 -0.399277 0
M  V30 30 H -1.899459 1.109480 1.227483 0
M  V30 31 H -2.258744 3.473535 -0.126766 0
M  V30 32 H -1.074676 3.254030 1.175609 0
M  V30 33 H -0.531472 2.797618 -1.710264 0
M  V30 34 H -0.368254 4.237461 -0.915587 0
M  V30 35 H 1.595030 2.425436 -1.180158 0
M  V30 36 H 1.556664 3.758643 -0.033622 0
M  V30 37 H 2.158426 1.749963 1.033296 0
M  V30 38 H 0.651195 2.327795 1.745431 0
M  V30 39 H 0.174758 -0.015150 3.083895 0
M  V30 40 H 1.989632 -0.399399 2.688201 0
M  V30 41 H 1.254283 -0.758768 4.077082 0
M  V30 END ATOM
M  V30 BEGIN BOND
M  V30 1 2 1 2
M  V30 2 1 2 3
M  V30 3 2 3 4
M  V30 4 1 4 5
M  V30 5 2 5 6
M  V30 6 1 6 7
M  V30 7 2 7 8
M  V30 8 1 8 9
M  V30 9 2 9 10
M  V30 10 2 9 11
M  V30 11 1 9 12
M  V30 12 1 12 13
M  V30 13 1 13 14
M  V30 14 1 14 15
M  V30 15 1 15 16
M  V30 16 1 16 17
M  V30 17 1 17 18
M  V30 18 1 8 19
M  V30 19 2 19 20
M  V30 20 1 20 21
M  V30 21 1 20 1
M  V30 22 1 19 4
M  V30 23 1 18 12
M  V30 24 1 1 22
M  V30 25 1 3 23
M  V30 26 1 5 24
M  V30 27 1 6 25
M  V30 28 1 7 26
M  V30 29 1 13 27
M  V30 30 1 13 28
M  V30 31 1 14 29
M  V30 32 1 14 30
M  V30 33 1 15 31
M  V30 34 1 15 32
M  V30 35 1 16 33
M  V30 36 1 16 34
M  V30 37 1 17 35
M  V30 38 1 17 36
M  V30 39 1 18 37
M  V30 40 1 18 38
M  V30 41 1 21 39
M  V30 42 1 21 40
M  V30 43 1 21 41
M  V30 END BOND
M  V30 END CTAB
M  END
>  <Dataset>  (45) 
PDB

>  <Ligand_Instance>  (45) 
5M6Y_7KB_A_401

>  <PDB_ID>  (45) 
5M6Y

>  <Standardized_SMILES>  (45) 
[H]C1=NC([H])=C2C([H])=C([H])C([H])=C(S(=O)(=O)N3C([H])([H])C([H])([H])C([H])([H])[N+]([H])([H])C([H])([H])C3([H])[H])C2=C1C([H])([H])[H]

>  <Name>  (45) 
5-(1,4-diazepan-1-ylsulfonyl)-4-methyl-isoquinoline

>  <Pocket>  (45) 
A

>  <ATP_Site>  (45) 
1.0

>  <Peripheral>  (45) 
0.0

>  <Num_H_Atoms_ProtBoundConf>  (45) 
20.0

>  <Num_Resolved_Atoms>  (45) 
21.0

>  <Num_Not_Resolved_Atoms>  (45) 
0.0

$$$$
7KB
     RDKit          3D

  0  0  0  0  0  0  0  0  0  0999 V3000
M  V30 BEGIN CTAB
M  V30 COUNTS 41 43 0 0 0
M  V30 BEGIN ATOM
M  V30 1 C 0.105180 -2.870682 3.826447 0
M  V30 2 N -0.275965 -4.186185 3.847813 0
M  V30 3 C -0.141363 -4.880067 2.688343 0
M  V30 4 C 0.363264 -4.204446 1.597577 0
M  V30 5 C 0.465635 -4.999754 0.475749 0
M  V30 6 C 0.955515 -4.469951 -0.685102 0
M  V30 7 C 1.318495 -3.125776 -0.624884 0
M  V30 8 C 1.253304 -2.228581 0.466569 0
M  V30 9 S 1.719740 -0.594873 0.347757 0
M  V30 10 O 3.139082 -0.192403 0.478597 0
M  V30 11 O 1.722594 -0.395841 -1.191496 0
M  V30 12 N 0.515975 0.603097 0.598697 0
M  V30 13 C -0.568985 0.564880 -0.323265 0
M  V30 14 C -1.698489 1.418338 0.198278 0
M  V30 15 C -1.351664 2.888042 0.182207 0
M  V30 16 N -0.313336 3.202114 -0.759796 0 CHG=1 VAL=4
M  V30 17 C 1.001364 2.838810 -0.336195 0
M  V30 18 C 1.076280 1.898487 0.817120 0
M  V30 19 C 0.744106 -2.888477 1.574535 0
M  V30 20 C 0.626847 -2.132080 2.740546 0
M  V30 21 C 0.988311 -0.728617 2.933967 0
M  V30 22 H -0.035398 -2.387423 4.797729 0
M  V30 23 H -0.432788 -5.905282 2.687262 0
M  V30 24 H 0.180348 -6.040636 0.441038 0
M  V30 25 H 1.064788 -5.029956 -1.599955 0
M  V30 26 H 1.709755 -2.744820 -1.585907 0
M  V30 27 H -0.273096 0.791219 -1.360908 0
M  V30 28 H -0.935538 -0.484298 -0.342963 0
M  V30 29 H -2.618510 1.228468 -0.399277 0
M  V30 30 H -1.899459 1.109480 1.227483 0
M  V30 31 H -2.258744 3.473535 -0.126766 0
M  V30 32 H -1.074676 3.254030 1.175609 0
M  V30 33 H -0.531472 2.797618 -1.710264 0
M  V30 34 H -0.368254 4.237461 -0.915587 0
M  V30 35 H 1.595030 2.425436 -1.180158 0
M  V30 36 H 1.556664 3.758643 -0.033622 0
M  V30 37 H 2.158426 1.749963 1.033296 0
M  V30 38 H 0.651195 2.327795 1.745431 0
M  V30 39 H 0.174758 -0.015150 3.083895 0
M  V30 40 H 1.989632 -0.399399 2.688201 0
M  V30 41 H 1.254283 -0.758768 4.077082 0
M  V30 END ATOM
M  V30 BEGIN BOND
M  V30 1 2 1 2
M  V30 2 1 2 3
M  V30 3 2 3 4
M  V30 4 1 4 5
M  V30 5 2 5 6
M  V30 6 1 6 7
M  V30 7 2 7 8
M  V30 8 1 8 9
M  V30 9 2 9 10
M  V30 10 2 9 11
M  V30 11 1 9 12
M  V30 12 1 12 13
M  V30 13 1 13 14
M  V30 14 1 14 15
M  V30 15 1 15 16
M  V30 16 1 16 17
M  V30 17 1 17 18
M  V30 18 1 8 19
M  V30 19 2 19 20
M  V30 20 1 20 21
M  V30 21 1 20 1
M  V30 22 1 19 4
M  V30 23 1 18 12
M  V30 24 1 1 22
M  V30 25 1 3 23
M  V30 26 1 5 24
M  V30 27 1 6 25
M  V30 28 1 7 26
M  V30 29 1 13 27
M  V30 30 1 13 28
M  V30 31 1 14 29
M  V30 32 1 14 30
M  V30 33 1 15 31
M  V30 34 1 15 32
M  V30 35 1 16 33
M  V30 36 1 16 34
M  V30 37 1 17 35
M  V30 38 1 17 36
M  V30 39 1 18 37
M  V30 40 1 18 38
M  V30 41 1 21 39
M  V30 42 1 21 40
M  V30 43 1 21 41
M  V30 END BOND
M  V30 END CTAB
M  END
>  <Dataset>  (46) 
PDB

>  <Ligand_Instance>  (46) 
6YQK_7KB_A_401

>  <PDB_ID>  (46) 
6YQK

>  <Standardized_SMILES>  (46) 
[H]C1=NC([H])=C2C([H])=C([H])C([H])=C(S(=O)(=O)N3C([H])([H])C([H])([H])C([H])([H])[N+]([H])([H])C([H])([H])C3([H])[H])C2=C1C([H])([H])[H]

>  <Name>  (46) 
5-(1,4-diazepan-1-ylsulfonyl)-4-methyl-isoquinoline

>  <Pocket>  (46) 
A

>  <ATP_Site>  (46) 
1.0

>  <Peripheral>  (46) 
0.0

>  <Num_H_Atoms_ProtBoundConf>  (46) 
20.0

>  <Num_Resolved_Atoms>  (46) 
21.0

>  <Num_Not_Resolved_Atoms>  (46) 
0.0

$$$$
7N9
     RDKit          3D

  0  0  0  0  0  0  0  0  0  0999 V3000
M  V30 BEGIN CTAB
M  V30 COUNTS 22 22 0 0 0
M  V30 BEGIN ATOM
M  V30 1 C 1.195761 2.379215 0.581691 0
M  V30 2 C 1.751849 1.352268 1.325131 0
M  V30 3 C 1.132161 0.121239 1.377424 0
M  V30 4 O 1.623355 -0.959441 2.098448 0
M  V30 5 C 2.834296 -0.751703 2.811186 0
M  V30 6 C -0.051538 -0.075328 0.678327 0
M  V30 7 C -0.728461 -1.392304 0.725159 0
M  V30 8 N -1.952150 -1.393264 -0.072223 0 CHG=1 VAL=4
M  V30 9 C -0.620851 0.931842 -0.066403 0
M  V30 10 C 0.003915 2.169487 -0.117844 0
M  V30 11 Cl -0.661983 3.487012 -1.040604 0
M  V30 12 H 1.706522 3.345629 0.556462 0
M  V30 13 H 2.683960 1.497111 1.879301 0
M  V30 14 H 3.209437 -1.666509 3.282356 0
M  V30 15 H 2.559695 -0.046188 3.637164 0
M  V30 16 H 3.584174 -0.316841 2.132926 0
M  V30 17 H -1.042358 -1.611197 1.766287 0
M  V30 18 H -0.052241 -2.156421 0.286507 0
M  V30 19 H -2.424844 -2.312073 0.127747 0
M  V30 20 H -2.612309 -0.651439 0.266459 0
M  V30 21 H -1.708567 -1.294308 -1.086910 0
M  V30 22 H -1.543297 0.835631 -0.632334 0
M  V30 END ATOM
M  V30 BEGIN BOND
M  V30 1 2 1 2
M  V30 2 1 2 3
M  V30 3 1 3 4
M  V30 4 1 4 5
M  V30 5 2 3 6
M  V30 6 1 6 7
M  V30 7 1 7 8
M  V30 8 1 6 9
M  V30 9 2 9 10
M  V30 10 1 10 11
M  V30 11 1 10 1
M  V30 12 1 1 12
M  V30 13 1 2 13
M  V30 14 1 5 14
M  V30 15 1 5 15
M  V30 16 1 5 16
M  V30 17 1 7 17
M  V30 18 1 7 18
M  V30 19 1 8 19
M  V30 20 1 8 20
M  V30 21 1 8 21
M  V30 22 1 9 22
M  V30 END BOND
M  V30 END CTAB
M  END
>  <Dataset>  (47) 
PDB

>  <Ligand_Instance>  (47) 
5MHI_7N9_A_402

>  <PDB_ID>  (47) 
5MHI

>  <Standardized_SMILES>  (47) 
[H]C1=C([H])C(OC([H])([H])[H])=C(C([H])([H])[N+]([H])([H])[H])C([H])=C1Cl

>  <Name>  (47) 
(5-chloranyl-2-methoxy-phenyl)methylazanium

>  <Pocket>  (47) 
A

>  <ATP_Site>  (47) 
1.0

>  <Peripheral>  (47) 
1.0

>  <Num_H_Atoms_ProtBoundConf>  (47) 
11.0

>  <Num_Resolved_Atoms>  (47) 
11.0

>  <Num_Not_Resolved_Atoms>  (47) 
0.0

$$$$
7QF
     RDKit          3D

  0  0  0  0  0  0  0  0  0  0999 V3000
M  V30 BEGIN CTAB
M  V30 COUNTS 39 41 0 0 0
M  V30 BEGIN ATOM
M  V30 1 C -2.518991 -0.142486 1.922430 0
M  V30 2 C -2.310087 -1.288452 1.189096 0
M  V30 3 C -1.181516 -1.391119 0.395567 0
M  V30 4 C -0.887051 -2.595760 -0.423942 0 CFG=1
M  V30 5 O 0.453312 -2.876779 -0.227150 0
M  V30 6 C 0.737684 -4.223210 -0.076610 0
M  V30 7 C 0.045847 -4.841911 1.106644 0
M  V30 8 N -1.272178 -4.228018 1.320043 0 CHG=1 VAL=4
M  V30 9 C -1.712226 -3.785209 0.009490 0
M  V30 10 C -0.280749 -0.345253 0.349048 0
M  V30 11 C -0.451488 0.827543 1.071274 0
M  V30 12 C 0.510912 1.923082 1.009962 0
M  V30 13 C 0.243872 3.258465 1.141804 0
M  V30 14 C 1.256917 4.190794 1.062458 0
M  V30 15 C 2.569033 3.825299 0.849286 0
M  V30 16 N 3.631861 4.752085 0.762198 0
M  V30 17 C 2.866017 2.484258 0.712725 0
M  V30 18 C 4.236154 2.060072 0.487294 0
M  V30 19 N 5.340433 1.727191 0.323639 0
M  V30 20 C 1.834706 1.571090 0.796094 0
M  V30 21 C -1.604052 0.881837 1.855457 0
M  V30 22 H -3.414272 -0.091960 2.535953 0
M  V30 23 H -3.022187 -2.103971 1.231786 0
M  V30 24 H -1.111281 -2.415028 -1.495796 0
M  V30 25 H 1.834257 -4.262296 0.149116 0
M  V30 26 H 0.606328 -4.815708 -1.013280 0
M  V30 27 H -0.149099 -5.907971 0.869264 0
M  V30 28 H 0.652380 -4.807003 2.032571 0
M  V30 29 H -1.940635 -4.953965 1.656812 0
M  V30 30 H -1.161791 -3.416966 1.991188 0
M  V30 31 H -2.785184 -3.648669 -0.095066 0
M  V30 32 H -1.422776 -4.615798 -0.694817 0
M  V30 33 H 0.608408 -0.433296 -0.279814 0
M  V30 34 H -0.790739 3.516310 1.307635 0
M  V30 35 H 1.026959 5.256922 1.170026 0
M  V30 36 H 3.947055 5.112389 -0.163529 0
M  V30 37 H 3.863216 4.854810 1.785195 0
M  V30 38 H 2.124875 0.534621 0.682293 0
M  V30 39 H -1.786959 1.773258 2.439768 0
M  V30 END ATOM
M  V30 BEGIN BOND
M  V30 1 2 1 2
M  V30 2 1 2 3
M  V30 3 1 3 4
M  V30 4 1 4 5
M  V30 5 1 5 6
M  V30 6 1 6 7
M  V30 7 1 7 8
M  V30 8 1 8 9
M  V30 9 2 3 10
M  V30 10 1 10 11
M  V30 11 1 11 12
M  V30 12 2 12 13
M  V30 13 1 13 14
M  V30 14 2 14 15
M  V30 15 1 15 16
M  V30 16 1 15 17
M  V30 17 1 17 18
M  V30 18 3 18 19
M  V30 19 2 17 20
M  V30 20 2 11 21
M  V30 21 1 21 1
M  V30 22 1 9 4
M  V30 23 1 20 12
M  V30 24 1 1 22
M  V30 25 1 2 23
M  V30 26 1 4 24 CFG=3
M  V30 27 1 6 25
M  V30 28 1 6 26
M  V30 29 1 7 27
M  V30 30 1 7 28
M  V30 31 1 8 29
M  V30 32 1 8 30
M  V30 33 1 9 31
M  V30 34 1 9 32
M  V30 35 1 10 33
M  V30 36 1 13 34
M  V30 37 1 14 35
M  V30 38 1 16 36
M  V30 39 1 16 37
M  V30 40 1 20 38
M  V30 41 1 21 39
M  V30 END BOND
M  V30 END CTAB
M  END
>  <Dataset>  (48) 
PDB

>  <Ligand_Instance>  (48) 
7PIE_7QF_A_401

>  <PDB_ID>  (48) 
7PIE

>  <Standardized_SMILES>  (48) 
[H]C1=C([H])C([C@@]2([H])OC([H])([H])C([H])([H])[N+]([H])([H])C2([H])[H])=C([H])C(C2=C([H])C([H])=C(N([H])[H])C(C#N)=C2[H])=C1[H]

>  <Name>  (48) 
2-azanyl-5-[3-[(2R)-morpholin-2-yl]phenyl]benzenecarbonitrile

>  <Pocket>  (48) 
A

>  <ATP_Site>  (48) 
1.0

>  <Peripheral>  (48) 
0.0

>  <Num_H_Atoms_ProtBoundConf>  (48) 
18.0

>  <Num_Resolved_Atoms>  (48) 
21.0

>  <Num_Not_Resolved_Atoms>  (48) 
0.0

$$$$
7QI
     RDKit          3D

  0  0  0  0  0  0  0  0  0  0999 V3000
M  V30 BEGIN CTAB
M  V30 COUNTS 39 41 0 0 0
M  V30 BEGIN ATOM
M  V30 1 C -2.517256 0.258525 1.247014 0
M  V30 2 C -2.340518 -1.074139 0.940731 0
M  V30 3 C -1.179332 -1.623803 0.438022 0
M  V30 4 C -0.953590 -3.030618 0.101782 0 CFG=2
M  V30 5 C -2.043814 -3.903214 0.681260 0
M  V30 6 O -2.095893 -3.806516 2.060095 0
M  V30 7 C -0.864753 -4.024926 2.643817 0
M  V30 8 C 0.140017 -4.529766 1.632519 0
M  V30 9 N 0.299907 -3.567849 0.551276 0 CHG=1 VAL=4
M  V30 10 C -0.135642 -0.731458 0.241291 0
M  V30 11 C -0.267542 0.622505 0.536021 0
M  V30 12 C 0.845455 1.545019 0.321525 0
M  V30 13 C 1.703556 1.265984 -0.721754 0
M  V30 14 C 2.752713 2.138802 -0.920279 0
M  V30 15 C 2.837282 3.216741 -0.042429 0
M  V30 16 N 3.916986 4.103665 -0.259401 0
M  V30 17 C 1.973121 3.486632 0.998418 0
M  V30 18 C 2.189945 4.642722 1.823203 0
M  V30 19 N 2.380275 5.576946 2.483661 0
M  V30 20 C 0.943400 2.618442 1.183022 0
M  V30 21 C -1.457845 1.120658 1.039252 0
M  V30 22 H -3.453821 0.635710 1.639759 0
M  V30 23 H -3.169093 -1.750317 1.102861 0
M  V30 24 H -1.080767 -3.108921 -1.017258 0
M  V30 25 H -3.017875 -3.594513 0.249633 0
M  V30 26 H -1.920585 -4.965418 0.339403 0
M  V30 27 H -0.501413 -3.050238 3.059484 0
M  V30 28 H -0.891583 -4.720859 3.499180 0
M  V30 29 H -0.186845 -5.512477 1.266233 0
M  V30 30 H 1.119905 -4.664461 2.127910 0
M  V30 31 H 1.021503 -2.884531 0.801544 0
M  V30 32 H 0.700082 -4.140260 -0.250804 0
M  V30 33 H 0.824380 -1.043901 -0.147896 0
M  V30 34 H 1.577389 0.409085 -1.364691 0
M  V30 35 H 3.479563 2.008685 -1.709559 0
M  V30 36 H 4.682227 3.708452 0.355736 0
M  V30 37 H 4.665250 4.781903 -0.457515 0
M  V30 38 H 0.239275 2.786254 1.984302 0
M  V30 39 H -1.627101 2.160652 1.288747 0
M  V30 END ATOM
M  V30 BEGIN BOND
M  V30 1 2 1 2
M  V30 2 1 2 3
M  V30 3 1 3 4
M  V30 4 1 4 5
M  V30 5 1 5 6
M  V30 6 1 6 7
M  V30 7 1 7 8
M  V30 8 1 8 9
M  V30 9 2 3 10
M  V30 10 1 10 11
M  V30 11 1 11 12
M  V30 12 2 12 13
M  V30 13 1 13 14
M  V30 14 2 14 15
M  V30 15 1 15 16
M  V30 16 1 15 17
M  V30 17 1 17 18
M  V30 18 3 18 19
M  V30 19 2 17 20
M  V30 20 2 11 21
M  V30 21 1 21 1
M  V30 22 1 9 4
M  V30 23 1 20 12
M  V30 24 1 1 22
M  V30 25 1 2 23
M  V30 26 1 4 24 CFG=3
M  V30 27 1 5 25
M  V30 28 1 5 26
M  V30 29 1 7 27
M  V30 30 1 7 28
M  V30 31 1 8 29
M  V30 32 1 8 30
M  V30 33 1 9 31
M  V30 34 1 9 32
M  V30 35 1 10 33
M  V30 36 1 13 34
M  V30 37 1 14 35
M  V30 38 1 16 36
M  V30 39 1 16 37
M  V30 40 1 20 38
M  V30 41 1 21 39
M  V30 END BOND
M  V30 END CTAB
M  END
>  <Dataset>  (49) 
PDB

>  <Ligand_Instance>  (49) 
7PID_7QI_A_401

>  <PDB_ID>  (49) 
7PID

>  <Standardized_SMILES>  (49) 
[H]C1=C([H])C([C@]2([H])C([H])([H])OC([H])([H])C([H])([H])[N+]2([H])[H])=C([H])C(C2=C([H])C([H])=C(N([H])[H])C(C#N)=C2[H])=C1[H]

>  <Name>  (49) 
2-azanyl-5-[3-[(3R)-morpholin-3-yl]phenyl]benzenecarbonitrile

>  <Pocket>  (49) 
A

>  <ATP_Site>  (49) 
1.0

>  <Peripheral>  (49) 
0.0

>  <Num_H_Atoms_ProtBoundConf>  (49) 
18.0

>  <Num_Resolved_Atoms>  (49) 
21.0

>  <Num_Not_Resolved_Atoms>  (49) 
0.0

$$$$
7QL
     RDKit          3D

  0  0  0  0  0  0  0  0  0  0999 V3000
M  V30 BEGIN CTAB
M  V30 COUNTS 45 47 0 0 0
M  V30 BEGIN ATOM
M  V30 1 C -1.651907 -1.952075 2.569616 0
M  V30 2 C -0.582817 -2.548629 1.935754 0
M  V30 3 C 0.274319 -1.925788 1.053732 0
M  V30 4 C 1.433678 -2.541014 0.370544 0
M  V30 5 C 1.744360 -3.940942 0.816424 0
M  V30 6 N 2.062552 -3.956372 2.226436 0 CHG=1 VAL=4
M  V30 7 C 1.149101 -2.483478 -1.128941 0
M  V30 8 C 2.442210 -2.214786 -1.905669 0
M  V30 9 O 3.510780 -2.864675 -1.293994 0
M  V30 10 C 3.857853 -2.169491 -0.161508 0
M  V30 11 C 2.649143 -1.624639 0.556308 0
M  V30 12 C -0.001465 -0.605176 0.820596 0
M  V30 13 C -1.061882 0.036635 1.432476 0
M  V30 14 C -1.408210 1.444018 1.230147 0
M  V30 15 C -0.328234 2.291279 0.980328 0
M  V30 16 C -0.571891 3.639531 0.778876 0
M  V30 17 C -1.882536 4.055721 0.840166 0
M  V30 18 N -2.088258 5.450907 0.627701 0
M  V30 19 C -2.975476 3.254607 1.083379 0
M  V30 20 C -4.317101 3.769066 1.130563 0
M  V30 21 N -5.412298 4.172802 1.176022 0
M  V30 22 C -2.711106 1.894975 1.284724 0
M  V30 23 C -1.906271 -0.618486 2.315842 0
M  V30 24 H -2.278873 -2.509813 3.248940 0
M  V30 25 H -0.429945 -3.592987 2.158842 0
M  V30 26 H 0.858345 -4.587316 0.641623 0
M  V30 27 H 2.598617 -4.331839 0.257678 0
M  V30 28 H 1.823388 -3.027707 2.629622 0
M  V30 29 H 3.106107 -4.077030 2.305441 0
M  V30 30 H 1.566466 -4.703335 2.767759 0
M  V30 31 H 0.533559 -1.575683 -1.296117 0
M  V30 32 H 0.657885 -3.400347 -1.466648 0
M  V30 33 H 2.686029 -1.132951 -1.927894 0
M  V30 34 H 2.308380 -2.602639 -2.948869 0
M  V30 35 H 4.440466 -2.737918 0.578511 0
M  V30 36 H 4.530678 -1.322384 -0.492199 0
M  V30 37 H 2.396158 -0.677040 0.037693 0
M  V30 38 H 2.843232 -1.393516 1.616771 0
M  V30 39 H 0.524738 0.057105 0.181499 0
M  V30 40 H 0.690768 1.950058 0.935686 0
M  V30 41 H 0.243078 4.324047 0.582946 0
M  V30 42 H -1.624022 6.082398 -0.063968 0
M  V30 43 H -2.620439 6.279967 0.939826 0
M  V30 44 H -3.509720 1.203102 1.480425 0
M  V30 45 H -2.740604 -0.161169 2.813058 0
M  V30 END ATOM
M  V30 BEGIN BOND
M  V30 1 2 1 2
M  V30 2 1 2 3
M  V30 3 1 3 4
M  V30 4 1 4 5
M  V30 5 1 5 6
M  V30 6 1 4 7
M  V30 7 1 7 8
M  V30 8 1 8 9
M  V30 9 1 9 10
M  V30 10 1 10 11
M  V30 11 2 3 12
M  V30 12 1 12 13
M  V30 13 1 13 14
M  V30 14 2 14 15
M  V30 15 1 15 16
M  V30 16 2 16 17
M  V30 17 1 17 18
M  V30 18 1 17 19
M  V30 19 1 19 20
M  V30 20 3 20 21
M  V30 21 2 19 22
M  V30 22 2 13 23
M  V30 23 1 23 1
M  V30 24 1 11 4
M  V30 25 1 22 14
M  V30 26 1 1 24
M  V30 27 1 2 25
M  V30 28 1 5 26
M  V30 29 1 5 27
M  V30 30 1 6 28
M  V30 31 1 6 29
M  V30 32 1 6 30
M  V30 33 1 7 31
M  V30 34 1 7 32
M  V30 35 1 8 33
M  V30 36 1 8 34
M  V30 37 1 10 35
M  V30 38 1 10 36
M  V30 39 1 11 37
M  V30 40 1 11 38
M  V30 41 1 12 39
M  V30 42 1 15 40
M  V30 43 1 16 41
M  V30 44 1 18 42
M  V30 45 1 18 43
M  V30 46 1 22 44
M  V30 47 1 23 45
M  V30 END BOND
M  V30 END CTAB
M  END
>  <Dataset>  (50) 
PDB

>  <Ligand_Instance>  (50) 
7PIF_7QL_A_401

>  <PDB_ID>  (50) 
7PIF

>  <Standardized_SMILES>  (50) 
[H]C1=C([H])C(C2(C([H])([H])[N+]([H])([H])[H])C([H])([H])C([H])([H])OC([H])([H])C2([H])[H])=C([H])C(C2=C([H])C([H])=C(N([H])[H])C(C#N)=C2[H])=C1[H]

>  <Name>  (50) 
5-[3-[4-(aminomethyl)oxan-4-yl]phenyl]-2-azanyl-benzenecarbonitrile

>  <Pocket>  (50) 
A

>  <ATP_Site>  (50) 
1.0

>  <Peripheral>  (50) 
0.0

>  <Num_H_Atoms_ProtBoundConf>  (50) 
22.0

>  <Num_Resolved_Atoms>  (50) 
23.0

>  <Num_Not_Resolved_Atoms>  (50) 
0.0

$$$$
7QR
     RDKit          3D

  0  0  0  0  0  0  0  0  0  0999 V3000
M  V30 BEGIN CTAB
M  V30 COUNTS 32 33 0 0 0
M  V30 BEGIN ATOM
M  V30 1 C 0.805519 -1.770029 1.242584 0
M  V30 2 C 1.829502 -2.432735 1.926316 0
M  V30 3 C 3.096854 -2.070917 1.524121 0
M  V30 4 N 4.156398 -2.727434 2.200624 0
M  V30 5 C 3.462235 -1.158305 0.555019 0
M  V30 6 C 4.847262 -0.906713 0.268737 0
M  V30 7 N 5.966597 -0.706220 0.053235 0
M  V30 8 C 2.418744 -0.535786 -0.085000 0
M  V30 9 Cl 2.834323 0.636964 -1.330573 0
M  V30 10 C 1.121320 -0.852132 0.269726 0
M  V30 11 C 0.129006 -0.097316 -0.482225 0
M  V30 12 C -0.895236 0.472797 0.074193 0
M  V30 13 C -1.900203 1.242112 -0.743787 0
M  V30 14 C -3.229225 0.533777 -0.530091 0
M  V30 15 C -3.043821 -0.623839 0.423331 0
M  V30 16 N -2.445541 -0.234393 1.685223 0 CHG=1 VAL=4
M  V30 17 C -1.202653 0.470833 1.510309 0
M  V30 18 H -0.214800 -2.008594 1.491444 0
M  V30 19 H 1.659465 -3.160490 2.697597 0
M  V30 20 H 4.958641 -3.129256 2.692869 0
M  V30 21 H 4.174135 -3.764902 2.428288 0
M  V30 22 H 0.205241 0.025035 -1.570517 0
M  V30 23 H -1.597845 1.301183 -1.800949 0
M  V30 24 H -1.992063 2.234115 -0.259199 0
M  V30 25 H -3.500596 0.090080 -1.521107 0
M  V30 26 H -4.048733 1.217023 -0.254180 0
M  V30 27 H -2.507184 -1.424756 -0.088872 0
M  V30 28 H -4.066113 -0.999235 0.673053 0
M  V30 29 H -2.283420 -1.078508 2.237554 0
M  V30 30 H -3.193109 0.348876 2.164610 0
M  V30 31 H -0.398391 0.211494 2.188239 0
M  V30 32 H -1.448426 1.552971 1.766804 0
M  V30 END ATOM
M  V30 BEGIN BOND
M  V30 1 2 1 2
M  V30 2 1 2 3
M  V30 3 1 3 4
M  V30 4 2 3 5
M  V30 5 1 5 6
M  V30 6 3 6 7
M  V30 7 1 5 8
M  V30 8 1 8 9
M  V30 9 2 8 10
M  V30 10 1 10 11
M  V30 11 2 11 12
M  V30 12 1 12 13
M  V30 13 1 13 14
M  V30 14 1 14 15
M  V30 15 1 15 16
M  V30 16 1 16 17
M  V30 17 1 10 1
M  V30 18 1 17 12
M  V30 19 1 1 18
M  V30 20 1 2 19
M  V30 21 1 4 20
M  V30 22 1 4 21
M  V30 23 1 11 22
M  V30 24 1 13 23
M  V30 25 1 13 24
M  V30 26 1 14 25
M  V30 27 1 14 26
M  V30 28 1 15 27
M  V30 29 1 15 28
M  V30 30 1 16 29
M  V30 31 1 16 30
M  V30 32 1 17 31
M  V30 33 1 17 32
M  V30 END BOND
M  V30 END CTAB
M  END
>  <Dataset>  (51) 
PDB

>  <Ligand_Instance>  (51) 
7PIG_7QR_A_401

>  <PDB_ID>  (51) 
7PIG

>  <Standardized_SMILES>  (51) 
[H]C1=C([H])C(N([H])[H])=C(C#N)C(Cl)=C1/C([H])=C1/C([H])([H])C([H])([H])C([H])([H])[N+]([H])([H])C1([H])[H]

>  <Name>  (51) 
6-azanyl-2-chloranyl-3-[(Z)-piperidin-3-ylidenemethyl]benzenecarbonitrile

>  <Pocket>  (51) 
A

>  <ATP_Site>  (51) 
1.0

>  <Peripheral>  (51) 
0.0

>  <Num_H_Atoms_ProtBoundConf>  (51) 
15.0

>  <Num_Resolved_Atoms>  (51) 
17.0

>  <Num_Not_Resolved_Atoms>  (51) 
0.0

$$$$
7QW
     RDKit          3D

  0  0  0  0  0  0  0  0  0  0999 V3000
M  V30 BEGIN CTAB
M  V30 COUNTS 47 50 0 0 0
M  V30 BEGIN ATOM
M  V30 1 C -1.745654 -2.478944 2.871661 0
M  V30 2 C -0.381953 -2.678053 2.767702 0
M  V30 3 C 0.472232 -1.719855 2.261268 0
M  V30 4 C 1.949474 -1.933128 2.147655 0
M  V30 5 N 2.325644 -2.509188 0.884751 0 CFG=2 CHG=1 VAL=4
M  V30 6 C 2.627821 -3.932226 0.963092 0
M  V30 7 C 3.580204 -4.128812 -0.206581 0
M  V30 8 C 4.477345 -2.917254 -0.066820 0 CFG=1
M  V30 9 N 5.036145 -2.573800 -1.367232 0 CHG=1 VAL=4
M  V30 10 C 3.546764 -1.867049 0.442828 0
M  V30 11 C -0.049058 -0.493237 1.832215 0
M  V30 12 C -1.430267 -0.308565 1.944446 0
M  V30 13 C -1.872308 1.004405 1.469637 0
M  V30 14 C -1.041807 2.099610 1.598031 0
M  V30 15 C -1.502123 3.323996 1.134147 0
M  V30 16 C -2.760726 3.385813 0.570416 0
M  V30 17 C -3.186951 4.637864 0.115421 0
M  V30 18 O -2.423223 5.636374 0.235367 0
M  V30 19 N -4.411155 4.741035 -0.442234 0
M  V30 20 C -5.240750 3.681745 -0.577977 0
M  V30 21 C -4.846170 2.420724 -0.134897 0
M  V30 22 C -3.591375 2.290577 0.441947 0
M  V30 23 C -3.133609 1.053191 0.907521 0
M  V30 24 C -2.284641 -1.276410 2.454780 0
M  V30 25 H -2.389765 -3.255964 3.275870 0
M  V30 26 H 0.076235 -3.621950 3.090345 0
M  V30 27 H 2.222590 -2.699295 2.918942 0
M  V30 28 H 2.440902 -0.976853 2.349036 0
M  V30 29 H 1.609231 -2.406297 0.147785 0
M  V30 30 H 3.148583 -4.189882 1.905309 0
M  V30 31 H 1.740799 -4.571716 0.776296 0
M  V30 32 H 3.054060 -4.103723 -1.165300 0
M  V30 33 H 4.162458 -5.078409 -0.110501 0
M  V30 34 H 5.310802 -3.143138 0.636661 0
M  V30 35 H 4.395102 -1.874029 -1.816160 0
M  V30 36 H 5.080143 -3.475359 -1.890807 0
M  V30 37 H 5.976637 -2.169279 -1.204165 0
M  V30 38 H 4.055209 -1.343838 1.295233 0
M  V30 39 H 3.365792 -1.117836 -0.352219 0
M  V30 40 H 0.628272 0.228225 1.446356 0
M  V30 41 H -0.066065 2.053555 2.034724 0
M  V30 42 H -0.879102 4.209670 1.216901 0
M  V30 43 H -4.695289 5.692644 -0.770657 0
M  V30 44 H -6.208169 3.796229 -1.025739 0
M  V30 45 H -5.458034 1.533481 -0.212082 0
M  V30 46 H -3.763154 0.162956 0.823078 0
M  V30 47 H -3.331010 -1.052276 2.505547 0
M  V30 END ATOM
M  V30 BEGIN BOND
M  V30 1 2 1 2
M  V30 2 1 2 3
M  V30 3 1 3 4
M  V30 4 1 4 5
M  V30 5 1 5 6
M  V30 6 1 6 7
M  V30 7 1 7 8
M  V30 8 1 8 9
M  V30 9 1 8 10
M  V30 10 2 3 11
M  V30 11 1 11 12
M  V30 12 1 12 13
M  V30 13 2 13 14
M  V30 14 1 14 15
M  V30 15 2 15 16
M  V30 16 1 16 17
M  V30 17 2 17 18
M  V30 18 1 17 19
M  V30 19 1 19 20
M  V30 20 2 20 21
M  V30 21 1 21 22
M  V30 22 2 22 23
M  V30 23 2 12 24
M  V30 24 1 24 1
M  V30 25 1 10 5
M  V30 26 1 23 13
M  V30 27 1 22 16
M  V30 28 1 1 25
M  V30 29 1 2 26
M  V30 30 1 4 27
M  V30 31 1 4 28
M  V30 32 1 5 29 CFG=3
M  V30 33 1 6 30
M  V30 34 1 6 31
M  V30 35 1 7 32
M  V30 36 1 7 33
M  V30 37 1 8 34 CFG=1
M  V30 38 1 9 35
M  V30 39 1 9 36
M  V30 40 1 9 37
M  V30 41 1 10 38
M  V30 42 1 10 39
M  V30 43 1 11 40
M  V30 44 1 14 41
M  V30 45 1 15 42
M  V30 46 1 19 43
M  V30 47 1 20 44
M  V30 48 1 21 45
M  V30 49 1 23 46
M  V30 50 1 24 47
M  V30 END BOND
M  V30 END CTAB
M  END
>  <Dataset>  (52) 
PDB

>  <Ligand_Instance>  (52) 
7PIH_7QW_A_401

>  <PDB_ID>  (52) 
7PIH

>  <Standardized_SMILES>  (52) 
[H]C1=C([H])C(C([H])([H])[N@+]2([H])C([H])([H])C([H])([H])[C@@]([H])([N+]([H])([H])[H])C2([H])[H])=C([H])C(C2=C([H])C([H])=C3C(=O)N([H])C([H])=C([H])C3=C2[H])=C1[H]

>  <Name>  (52) 
6-[3-[[(3~{R})-3-azanylpyrrolidin-1-yl]methyl]phenyl]-4~{H}-isoquinolin-1-one

>  <Pocket>  (52) 
A

>  <ATP_Site>  (52) 
1.0

>  <Peripheral>  (52) 
0.0

>  <Num_H_Atoms_ProtBoundConf>  (52) 
23.0

>  <Num_Resolved_Atoms>  (52) 
24.0

>  <Num_Not_Resolved_Atoms>  (52) 
0.0

$$$$
7W8
     RDKit          3D

  0  0  0  0  0  0  0  0  0  0999 V3000
M  V30 BEGIN CTAB
M  V30 COUNTS 32 34 0 0 0
M  V30 BEGIN ATOM
M  V30 1 C -1.577596 -3.222950 3.070545 0
M  V30 2 C -0.732523 -2.201207 2.679058 0
M  V30 3 F 0.005680 -1.519636 3.590125 0
M  V30 4 C -0.694846 -1.928629 1.313156 0
M  V30 5 C 0.182299 -0.855623 0.832639 0
M  V30 6 C 0.915995 -1.198931 -0.290032 0
M  V30 7 C 1.769647 -0.229115 -0.800928 0
M  V30 8 C 1.847327 1.011743 -0.177925 0
M  V30 9 C 2.615502 2.121344 -0.500061 0
M  V30 10 C 3.524811 2.198291 -1.599611 0
M  V30 11 N 4.263989 2.248198 -2.486470 0
M  V30 12 C 2.302734 3.090801 0.456628 0
M  V30 13 N 2.938384 4.363681 0.396104 0
M  V30 14 N 1.391521 2.608258 1.322986 0
M  V30 15 C 1.111506 1.345613 0.941940 0
M  V30 16 C 0.263539 0.378785 1.447416 0
M  V30 17 C -1.480825 -2.672466 0.450984 0
M  V30 18 C -2.312441 -3.685992 0.884064 0
M  V30 19 C -3.101011 -4.403540 -0.151712 0
M  V30 20 C -2.370326 -3.978231 2.230987 0
M  V30 21 H -1.645874 -3.479142 4.133536 0
M  V30 22 H 0.875691 -2.145518 -0.789141 0
M  V30 23 H 2.374290 -0.442295 -1.685625 0
M  V30 24 H 2.321303 5.224472 0.483783 0
M  V30 25 H 2.399231 5.263937 0.474755 0
M  V30 26 H 1.002570 3.141755 2.122316 0
M  V30 27 H -0.333353 0.583017 2.317159 0
M  V30 28 H -1.379956 -2.381417 -0.600061 0
M  V30 29 H -3.222104 -5.450418 0.204898 0
M  V30 30 H -4.058557 -3.887145 -0.353906 0
M  V30 31 H -2.486865 -4.481121 -1.079630 0
M  V30 32 H -3.011856 -4.760818 2.569398 0
M  V30 END ATOM
M  V30 BEGIN BOND
M  V30 1 2 1 2
M  V30 2 1 2 3
M  V30 3 1 2 4
M  V30 4 1 4 5
M  V30 5 2 5 6
M  V30 6 1 6 7
M  V30 7 2 7 8
M  V30 8 1 8 9
M  V30 9 1 9 10
M  V30 10 3 10 11
M  V30 11 2 9 12
M  V30 12 1 12 13
M  V30 13 1 12 14
M  V30 14 1 14 15
M  V30 15 2 15 16
M  V30 16 2 4 17
M  V30 17 1 17 18
M  V30 18 1 18 19
M  V30 19 2 18 20
M  V30 20 1 20 1
M  V30 21 1 16 5
M  V30 22 1 15 8
M  V30 23 1 1 21
M  V30 24 1 6 22
M  V30 25 1 7 23
M  V30 26 1 13 24
M  V30 27 1 13 25
M  V30 28 1 14 26
M  V30 29 1 16 27
M  V30 30 1 17 28
M  V30 31 1 19 29
M  V30 32 1 19 30
M  V30 33 1 19 31
M  V30 34 1 20 32
M  V30 END BOND
M  V30 END CTAB
M  END
>  <Dataset>  (53) 
PDB

>  <Ligand_Instance>  (53) 
7PNS_7W8_A_402

>  <PDB_ID>  (53) 
7PNS

>  <Standardized_SMILES>  (53) 
[H]C1=C(F)C(C2=C([H])C([H])=C3C(C#N)=C(N([H])[H])N([H])C3=C2[H])=C([H])C(C([H])([H])[H])=C1[H]

>  <Name>  (53) 
2-azanyl-6-[5-[(dimethylamino)methyl]-2-fluoranyl-phenyl]-1H-indole-3-carbonitrile

>  <Pocket>  (53) 
A

>  <ATP_Site>  (53) 
1.0

>  <Peripheral>  (53) 
0.0

>  <Num_H_Atoms_ProtBoundConf>  (53) 
12.0

>  <Num_Resolved_Atoms>  (53) 
20.0

>  <Num_Not_Resolved_Atoms>  (53) 
3.0

$$$$
8BQ
     RDKit          3D

  0  0  0  0  0  0  0  0  0  0999 V3000
M  V30 BEGIN CTAB
M  V30 COUNTS 39 42 0 0 0
M  V30 BEGIN ATOM
M  V30 1 C -2.215880 -5.031591 2.720604 0
M  V30 2 N -1.647720 -4.198419 1.801860 0
M  V30 3 C -0.612235 -3.412780 2.195216 0
M  V30 4 C -0.062483 -2.583465 1.240953 0
M  V30 5 C 0.992952 -1.756216 1.567443 0
M  V30 6 C 1.715315 -0.793650 0.680725 0 CFG=1
M  V30 7 C 2.122802 -1.445294 -0.595926 0
M  V30 8 N 0.933901 -1.407697 -1.385101 0
M  V30 9 C 0.142613 -0.487586 -0.988354 0
M  V30 10 C 0.729825 0.237277 0.167597 0 CFG=2
M  V30 11 C 1.437396 1.454882 -0.301716 0
M  V30 12 O 2.670684 1.598212 -0.272870 0
M  V30 13 C 0.632903 2.550534 -0.829413 0
M  V30 14 C 1.317918 3.687695 -1.265938 0
M  V30 15 C 0.612268 4.777348 -1.783858 0
M  V30 16 C -0.750850 4.742798 -1.868784 0
M  V30 17 C -1.422331 3.602927 -1.430109 0
M  V30 18 F -2.771224 3.631591 -1.541052 0
M  V30 19 C -0.742307 2.524644 -0.918929 0
M  V30 20 C 1.424128 -1.842992 2.898984 0
M  V30 21 C 0.891201 -2.664759 3.874225 0
M  V30 22 C -0.162033 -3.472104 3.497417 0
M  V30 23 C -0.737821 -4.315380 4.425438 0
M  V30 24 O -0.295308 -4.337488 5.603241 0
M  V30 25 N -1.766752 -5.079214 3.987084 0
M  V30 26 H -3.039368 -5.674645 2.459303 0
M  V30 27 H -0.397941 -2.529739 0.238221 0
M  V30 28 H 2.559382 -0.310401 1.220749 0
M  V30 29 H 2.848223 -0.778843 -1.126069 0
M  V30 30 H 2.539638 -2.458802 -0.474032 0
M  V30 31 H -0.769607 -0.466219 -1.601860 0
M  V30 32 H -0.025288 0.488095 0.938728 0
M  V30 33 H 2.392765 3.770237 -1.222633 0
M  V30 34 H 1.177143 5.639752 -2.111591 0
M  V30 35 H -1.253608 5.613991 -2.278377 0
M  V30 36 H -1.270103 1.648496 -0.582592 0
M  V30 37 H 2.263515 -1.204705 3.213796 0
M  V30 38 H 1.301045 -2.650869 4.867972 0
M  V30 39 H -2.175793 -5.706424 4.725763 0
M  V30 END ATOM
M  V30 BEGIN BOND
M  V30 1 2 1 2
M  V30 2 1 2 3
M  V30 3 2 3 4
M  V30 4 1 4 5
M  V30 5 1 5 6
M  V30 6 1 6 7
M  V30 7 1 7 8
M  V30 8 2 8 9
M  V30 9 1 9 10
M  V30 10 1 10 11
M  V30 11 2 11 12
M  V30 12 1 11 13
M  V30 13 2 13 14
M  V30 14 1 14 15
M  V30 15 2 15 16
M  V30 16 1 16 17
M  V30 17 1 17 18
M  V30 18 2 17 19
M  V30 19 2 5 20
M  V30 20 1 20 21
M  V30 21 2 21 22
M  V30 22 1 22 23
M  V30 23 2 23 24
M  V30 24 1 23 25
M  V30 25 1 25 1
M  V30 26 1 22 3
M  V30 27 1 10 6
M  V30 28 1 19 13
M  V30 29 1 1 26
M  V30 30 1 4 27
M  V30 31 1 6 28 CFG=1
M  V30 32 1 7 29
M  V30 33 1 7 30
M  V30 34 1 9 31
M  V30 35 1 10 32 CFG=1
M  V30 36 1 14 33
M  V30 37 1 15 34
M  V30 38 1 16 35
M  V30 39 1 19 36
M  V30 40 1 20 37
M  V30 41 1 21 38
M  V30 42 1 25 39
M  V30 END BOND
M  V30 END CTAB
M  END
>  <Dataset>  (54) 
PDB

>  <Ligand_Instance>  (54) 
4UJB_8BQ_A_1351

>  <PDB_ID>  (54) 
4UJB

>  <Standardized_SMILES>  (54) 
[H]C1=NC2=C([H])C([C@@]3([H])C([H])([H])N=C([H])[C@]3([H])C(=O)C3=C([H])C([H])=C([H])C(F)=C3[H])=C([H])C([H])=C2C(=O)N1[H]

>  <Name>  (54) 
7-[(3S,4R)-4-(3-fluorophenyl)carbonylpyrrolidin-3-yl]-3H-quinazolin-4-one

>  <Pocket>  (54) 
A

>  <ATP_Site>  (54) 
1.0

>  <Peripheral>  (54) 
0.0

>  <Num_H_Atoms_ProtBoundConf>  (54) 
14.0

>  <Num_Resolved_Atoms>  (54) 
25.0

>  <Num_Not_Resolved_Atoms>  (54) 
0.0

$$$$
8ET
     RDKit          3D

  0  0  0  0  0  0  0  0  0  0999 V3000
M  V30 BEGIN CTAB
M  V30 COUNTS 30 32 0 0 0
M  V30 BEGIN ATOM
M  V30 1 C -0.415282 -4.978954 3.626535 0
M  V30 2 N 0.378403 -3.942664 4.016758 0
M  V30 3 C 0.634662 -2.924156 3.143358 0
M  V30 4 C 0.070804 -2.989692 1.886086 0
M  V30 5 C 0.234721 -1.991759 0.821217 0
M  V30 6 O -0.268774 -2.032599 -0.327673 0
M  V30 7 N 1.034584 -0.828582 1.041372 0
M  V30 8 C 1.240182 0.190826 0.045157 0
M  V30 9 C 2.327717 0.000355 -0.783060 0
M  V30 10 C 2.523655 0.994214 -1.750322 0
M  V30 11 C 1.652160 2.065556 -1.817581 0
M  V30 12 C 0.577886 2.206127 -0.961609 0
M  V30 13 N -0.244433 3.272575 -1.069262 0
M  V30 14 C -1.278798 3.368729 -0.213884 0
M  V30 15 C -1.560331 2.432737 0.784452 0
M  V30 16 C -0.700325 1.356332 0.866070 0
M  V30 17 C 0.352609 1.246827 0.004588 0
M  V30 18 C -0.742629 -4.065464 1.506164 0
M  V30 19 C -1.013627 -5.115825 2.390749 0
M  V30 20 H -0.543009 -5.726208 4.411975 0
M  V30 21 H 1.242369 -2.071852 3.356158 0
M  V30 22 H 1.516782 -0.642527 1.926915 0
M  V30 23 H 2.969921 -0.861853 -0.675648 0
M  V30 24 H 3.360288 0.894914 -2.425072 0
M  V30 25 H 1.855516 2.809467 -2.592628 0
M  V30 26 H -1.894419 4.246130 -0.357338 0
M  V30 27 H -2.400895 2.576620 1.427268 0
M  V30 28 H -0.879023 0.593942 1.633628 0
M  V30 29 H -1.203895 -4.148404 0.520457 0
M  V30 30 H -1.623944 -5.951952 2.148073 0
M  V30 END ATOM
M  V30 BEGIN BOND
M  V30 1 2 1 2
M  V30 2 1 2 3
M  V30 3 2 3 4
M  V30 4 1 4 5
M  V30 5 2 5 6
M  V30 6 1 5 7
M  V30 7 1 7 8
M  V30 8 2 8 9
M  V30 9 1 9 10
M  V30 10 2 10 11
M  V30 11 1 11 12
M  V30 12 2 12 13
M  V30 13 1 13 14
M  V30 14 2 14 15
M  V30 15 1 15 16
M  V30 16 2 16 17
M  V30 17 1 4 18
M  V30 18 2 18 19
M  V30 19 1 19 1
M  V30 20 1 17 8
M  V30 21 1 17 12
M  V30 22 1 1 20
M  V30 23 1 3 21
M  V30 24 1 7 22
M  V30 25 1 9 23
M  V30 26 1 10 24
M  V30 27 1 11 25
M  V30 28 1 14 26
M  V30 29 1 15 27
M  V30 30 1 16 28
M  V30 31 1 18 29
M  V30 32 1 19 30
M  V30 END BOND
M  V30 END CTAB
M  END
>  <Dataset>  (55) 
PDB

>  <Ligand_Instance>  (55) 
5N1F_8ET_A_403

>  <PDB_ID>  (55) 
5N1F

>  <Standardized_SMILES>  (55) 
[H]C1=NC([H])=C(C(=O)N([H])C2=C([H])C([H])=C([H])C3=NC([H])=C([H])C([H])=C32)C([H])=C1[H]

>  <Name>  (55) 
~{N}-quinolin-5-ylpyridine-3-carboxamide

>  <Pocket>  (55) 
A

>  <ATP_Site>  (55) 
1.0

>  <Peripheral>  (55) 
0.0

>  <Num_H_Atoms_ProtBoundConf>  (55) 
11.0

>  <Num_Resolved_Atoms>  (55) 
19.0

>  <Num_Not_Resolved_Atoms>  (55) 
0.0

$$$$
8FZ
     RDKit          3D

  0  0  0  0  0  0  0  0  0  0999 V3000
M  V30 BEGIN CTAB
M  V30 COUNTS 25 26 0 0 0
M  V30 BEGIN ATOM
M  V30 1 C 1.811688 -0.989261 5.250398 0
M  V30 2 N 2.657440 -1.445926 4.309128 0
M  V30 3 C 2.673706 -0.992423 3.042324 0
M  V30 4 C 1.778395 -0.005815 2.679568 0
M  V30 5 O 1.697482 0.549612 1.387396 0
M  V30 6 C 0.852923 -0.026110 0.446152 0
M  V30 7 C 0.035144 -1.125990 0.602495 0
M  V30 8 C -0.653523 -1.388808 -0.571772 0
M  V30 9 C -0.186788 -0.377276 -1.416501 0
M  V30 10 C -0.599419 -0.169361 -2.839369 0
M  V30 11 N -1.747892 0.717799 -2.802826 0 CHG=1 VAL=4
M  V30 12 O 0.668535 0.367030 -0.780672 0
M  V30 13 C 0.852568 0.544255 3.574425 0
M  V30 14 C 0.927919 -0.003606 4.860531 0
M  V30 15 H 1.780286 -1.338224 6.273785 0
M  V30 16 H 3.345348 -1.352254 2.287208 0
M  V30 17 H -0.084459 -1.736838 1.511168 0
M  V30 18 H -1.372746 -2.157025 -0.826234 0
M  V30 19 H 0.204419 0.175202 -3.489091 0
M  V30 20 H -0.978018 -1.148338 -3.213728 0
M  V30 21 H -2.295336 0.595549 -3.671898 0
M  V30 22 H -1.374181 1.696843 -2.780685 0
M  V30 23 H -2.282137 0.510005 -1.931582 0
M  V30 24 H 0.145730 1.306098 3.334171 0
M  V30 25 H 0.228363 0.390226 5.595574 0
M  V30 END ATOM
M  V30 BEGIN BOND
M  V30 1 2 1 2
M  V30 2 1 2 3
M  V30 3 2 3 4
M  V30 4 1 4 5
M  V30 5 1 5 6
M  V30 6 2 6 7
M  V30 7 1 7 8
M  V30 8 2 8 9
M  V30 9 1 9 10
M  V30 10 1 10 11
M  V30 11 1 9 12
M  V30 12 1 4 13
M  V30 13 2 13 14
M  V30 14 1 14 1
M  V30 15 1 12 6
M  V30 16 1 1 15
M  V30 17 1 3 16
M  V30 18 1 7 17
M  V30 19 1 8 18
M  V30 20 1 10 19
M  V30 21 1 10 20
M  V30 22 1 11 21
M  V30 23 1 11 22
M  V30 24 1 11 23
M  V30 25 1 13 24
M  V30 26 1 14 25
M  V30 END BOND
M  V30 END CTAB
M  END
>  <Dataset>  (56) 
PDB

>  <Ligand_Instance>  (56) 
5N1D_8FZ_A_403

>  <PDB_ID>  (56) 
5N1D

>  <Standardized_SMILES>  (56) 
[H]C1=NC([H])=C(OC2=C([H])C([H])=C(C([H])([H])[N+]([H])([H])[H])O2)C([H])=C1[H]

>  <Name>  (56) 
(5-pyridin-3-yloxyfuran-2-yl)methanamine

>  <Pocket>  (56) 
A

>  <ATP_Site>  (56) 
1.0

>  <Peripheral>  (56) 
0.0

>  <Num_H_Atoms_ProtBoundConf>  (56) 
11.0

>  <Num_Resolved_Atoms>  (56) 
14.0

>  <Num_Not_Resolved_Atoms>  (56) 
0.0

$$$$
8G2
     RDKit          3D

  0  0  0  0  0  0  0  0  0  0999 V3000
M  V30 BEGIN CTAB
M  V30 COUNTS 24 24 0 0 0
M  V30 BEGIN ATOM
M  V30 1 C 0.020489 0.718979 0.559516 0
M  V30 2 C 0.218803 0.563251 1.915922 0
M  V30 3 C 1.083554 -0.349027 2.488669 0
M  V30 4 C 1.196805 -0.407210 3.966193 0
M  V30 5 N 0.198728 -1.373863 4.427235 0 CHG=1 VAL=4
M  V30 6 C 1.786761 -1.149521 1.611395 0
M  V30 7 C 1.647407 -1.058375 0.239333 0
M  V30 8 C 0.750944 -0.108961 -0.270151 0
M  V30 9 C 0.630405 -0.041789 -1.725183 0
M  V30 10 O 1.202330 -0.701257 -2.631916 0
M  V30 11 O -0.242964 0.881294 -2.265162 0
M  V30 12 C -0.497909 1.098633 -3.617527 0
M  V30 13 H -0.667988 1.447489 0.153607 0
M  V30 14 H -0.353709 1.211926 2.560359 0
M  V30 15 H 0.975089 0.569049 4.420905 0
M  V30 16 H 2.180409 -0.817368 4.215898 0
M  V30 17 H 0.312902 -2.260668 3.856161 0
M  V30 18 H 0.261184 -1.568982 5.436749 0
M  V30 19 H -0.742076 -1.006865 4.176044 0
M  V30 20 H 2.477685 -1.879068 2.054562 0
M  V30 21 H 2.222661 -1.709051 -0.383120 0
M  V30 22 H -1.613994 1.048760 -3.766507 0
M  V30 23 H -0.132191 2.111904 -3.954482 0
M  V30 24 H -0.063188 0.372468 -4.314489 0
M  V30 END ATOM
M  V30 BEGIN BOND
M  V30 1 2 1 2
M  V30 2 1 2 3
M  V30 3 1 3 4
M  V30 4 1 4 5
M  V30 5 2 3 6
M  V30 6 1 6 7
M  V30 7 2 7 8
M  V30 8 1 8 9
M  V30 9 2 9 10
M  V30 10 1 9 11
M  V30 11 1 11 12
M  V30 12 1 8 1
M  V30 13 1 1 13
M  V30 14 1 2 14
M  V30 15 1 4 15
M  V30 16 1 4 16
M  V30 17 1 5 17
M  V30 18 1 5 18
M  V30 19 1 5 19
M  V30 20 1 6 20
M  V30 21 1 7 21
M  V30 22 1 12 22
M  V30 23 1 12 23
M  V30 24 1 12 24
M  V30 END BOND
M  V30 END CTAB
M  END
>  <Dataset>  (57) 
PDB

>  <Ligand_Instance>  (57) 
5N1H_8G2_A_403

>  <PDB_ID>  (57) 
5N1H

>  <Standardized_SMILES>  (57) 
[H]C1=C([H])C(C([H])([H])[N+]([H])([H])[H])=C([H])C([H])=C1C(=O)OC([H])([H])[H]

>  <Name>  (57) 
(4-methoxycarbonylphenyl)methylazanium

>  <Pocket>  (57) 
A

>  <ATP_Site>  (57) 
1.0

>  <Peripheral>  (57) 
0.0

>  <Num_H_Atoms_ProtBoundConf>  (57) 
12.0

>  <Num_Resolved_Atoms>  (57) 
12.0

>  <Num_Not_Resolved_Atoms>  (57) 
0.0

$$$$
8G5
     RDKit          3D

  0  0  0  0  0  0  0  0  0  0999 V3000
M  V30 BEGIN CTAB
M  V30 COUNTS 33 35 0 0 0
M  V30 BEGIN ATOM
M  V30 1 C -1.617970 0.496220 2.173370 0
M  V30 2 C -0.539715 0.974335 1.429373 0
M  V30 3 C 0.672257 0.108142 1.373816 0 CFG=1
M  V30 4 C 1.091421 -0.386574 2.711341 0
M  V30 5 C 1.803969 -1.649028 2.383315 0
M  V30 6 O 2.919737 -2.115877 2.796603 0
M  V30 7 O 0.876132 -2.190359 1.469028 0
M  V30 8 C 0.492438 -1.139489 0.570590 0
M  V30 9 C -0.867147 -1.415949 0.065444 0
M  V30 10 C -0.940126 -2.361385 -1.066391 0
M  V30 11 C 0.226351 -3.265593 -1.263472 0
M  V30 12 C 1.555775 -2.667104 -0.919339 0
M  V30 13 C 1.416256 -1.159755 -0.650987 0
M  V30 14 N -0.726198 2.158614 0.848353 0
M  V30 15 C -1.655068 2.824951 0.885161 0
M  V30 16 N -1.834100 4.129913 0.233226 0
M  V30 17 S -2.872101 1.860908 1.962425 0
M  V30 18 H -1.893795 -0.362096 2.779622 0
M  V30 19 H 1.529365 0.685948 0.920311 0
M  V30 20 H 0.222719 -0.687847 3.334584 0
M  V30 21 H 1.768608 0.308823 3.253948 0
M  V30 22 H -1.495882 -1.793417 0.927490 0
M  V30 23 H -1.335117 -0.428753 -0.211915 0
M  V30 24 H -1.083453 -1.773925 -2.004892 0
M  V30 25 H -1.878709 -2.946909 -0.970053 0
M  V30 26 H 0.092452 -4.164233 -0.629197 0
M  V30 27 H 0.281110 -3.628647 -2.309792 0
M  V30 28 H 2.303737 -2.884501 -1.686541 0
M  V30 29 H 1.924730 -3.075785 0.043174 0
M  V30 30 H 2.403731 -0.749541 -0.435485 0
M  V30 31 H 0.907757 -0.722519 -1.533258 0
M  V30 32 H -2.106369 3.984494 -0.770933 0
M  V30 33 H -1.701816 5.054867 0.726190 0
M  V30 END ATOM
M  V30 BEGIN BOND
M  V30 1 2 1 2
M  V30 2 1 2 3
M  V30 3 1 3 4
M  V30 4 1 4 5
M  V30 5 2 5 6
M  V30 6 1 5 7
M  V30 7 1 7 8
M  V30 8 1 8 9
M  V30 9 1 9 10
M  V30 10 1 10 11
M  V30 11 1 11 12
M  V30 12 1 12 13
M  V30 13 1 2 14
M  V30 14 2 14 15
M  V30 15 1 15 16
M  V30 16 1 15 17
M  V30 17 1 17 1
M  V30 18 1 8 3
M  V30 19 1 13 8
M  V30 20 1 1 18
M  V30 21 1 3 19 CFG=3
M  V30 22 1 4 20
M  V30 23 1 4 21
M  V30 24 1 9 22
M  V30 25 1 9 23
M  V30 26 1 10 24
M  V30 27 1 10 25
M  V30 28 1 11 26
M  V30 29 1 11 27
M  V30 30 1 12 28
M  V30 31 1 12 29
M  V30 32 1 13 30
M  V30 33 1 13 31
M  V30 34 1 16 32
M  V30 35 1 16 33
M  V30 END BOND
M  V30 END CTAB
M  END
>  <Dataset>  (58) 
PDB

>  <Ligand_Instance>  (58) 
5N1G_8G5_A_403

>  <PDB_ID>  (58) 
5N1G

>  <Standardized_SMILES>  (58) 
[H]C1=C([C@@]2([H])C([H])([H])C(=O)OC23C([H])([H])C([H])([H])C([H])([H])C([H])([H])C3([H])[H])N=C(N([H])[H])S1

>  <Name>  (58) 
(4R)-4-(2-amino-1,3-thiazol-4-yl)-1-oxaspiro[4.5]decan-2-one

>  <Pocket>  (58) 
X

>  <ATP_Site>  (58) 
0.0

>  <Peripheral>  (58) 
1.0

>  <Num_H_Atoms_ProtBoundConf>  (58) 
16.0

>  <Num_Resolved_Atoms>  (58) 
17.0

>  <Num_Not_Resolved_Atoms>  (58) 
0.0

$$$$
8G8
     RDKit          3D

  0  0  0  0  0  0  0  0  0  0999 V3000
M  V30 BEGIN CTAB
M  V30 COUNTS 16 17 0 0 0
M  V30 BEGIN ATOM
M  V30 1 C -0.255087 -1.511541 1.810945 0
M  V30 2 N 0.688579 -2.419124 2.103504 0
M  V30 3 C 1.989405 -2.153649 1.800141 0
M  V30 4 Cl 3.103458 -3.416557 2.234725 0
M  V30 5 N 2.332733 -0.997143 1.213841 0
M  V30 6 C 1.374797 -0.072109 0.915121 0
M  V30 7 C 0.030429 -0.306750 1.210131 0
M  V30 8 N -0.623155 0.797574 0.785837 0
M  V30 9 C 0.294677 1.627780 0.272233 0
M  V30 10 N 1.533301 1.138027 0.329363 0
M  V30 11 C 2.689688 1.826250 -0.151033 0
M  V30 12 H -1.307762 -1.670834 2.030558 0
M  V30 13 H -0.121356 2.567840 -0.108336 0
M  V30 14 H 2.714003 2.835965 0.326517 0
M  V30 15 H 2.655208 1.966450 -1.268929 0
M  V30 16 H 3.608994 1.323600 0.166931 0
M  V30 END ATOM
M  V30 BEGIN BOND
M  V30 1 2 1 2
M  V30 2 1 2 3
M  V30 3 1 3 4
M  V30 4 2 3 5
M  V30 5 1 5 6
M  V30 6 2 6 7
M  V30 7 1 7 8
M  V30 8 2 8 9
M  V30 9 1 9 10
M  V30 10 1 10 11
M  V30 11 1 7 1
M  V30 12 1 10 6
M  V30 13 1 1 12
M  V30 14 1 9 13
M  V30 15 1 11 14
M  V30 16 1 11 15
M  V30 17 1 11 16
M  V30 END BOND
M  V30 END CTAB
M  END
>  <Dataset>  (59) 
PDB

>  <Ligand_Instance>  (59) 
5N1N_8G8_A_402

>  <PDB_ID>  (59) 
5N1N

>  <Standardized_SMILES>  (59) 
[H]C1=NC(Cl)=NC2=C1N=C([H])N2C([H])([H])[H]

>  <Name>  (59) 
2-chloranyl-9-methyl-purine

>  <Pocket>  (59) 
X

>  <ATP_Site>  (59) 
0.0

>  <Peripheral>  (59) 
1.0

>  <Num_H_Atoms_ProtBoundConf>  (59) 
5.0

>  <Num_Resolved_Atoms>  (59) 
11.0

>  <Num_Not_Resolved_Atoms>  (59) 
0.0

$$$$
8GB
     RDKit          3D

  0  0  0  0  0  0  0  0  0  0999 V3000
M  V30 BEGIN CTAB
M  V30 COUNTS 21 21 0 0 0
M  V30 BEGIN ATOM
M  V30 1 O 2.168098 1.540977 1.016917 0
M  V30 2 C 1.311865 0.440766 1.037991 0
M  V30 3 C 1.553185 -0.552625 1.950671 0
M  V30 4 C 2.700808 -0.455817 2.891641 0
M  V30 5 Cl 2.277117 0.708787 4.188416 0
M  V30 6 C 0.741305 -1.663503 2.017281 0
M  V30 7 C -0.323702 -1.749115 1.139305 0
M  V30 8 Cl -1.360564 -3.161103 1.227184 0
M  V30 9 C -0.572456 -0.744211 0.211671 0
M  V30 10 C 0.254064 0.349053 0.169951 0
M  V30 11 C -0.000516 1.398101 -0.785427 0
M  V30 12 O 0.746906 2.422726 -0.834851 0
M  V30 13 C -1.137257 1.320809 -1.738275 0
M  V30 14 H 1.996636 2.326447 1.642720 0
M  V30 15 H 2.919236 -1.459890 3.327931 0
M  V30 16 H 3.577766 -0.050508 2.333761 0
M  V30 17 H 0.926902 -2.455548 2.731409 0
M  V30 18 H -1.426538 -0.905109 -0.424445 0
M  V30 19 H -1.374380 0.298851 -2.073791 0
M  V30 20 H -0.889037 1.934957 -2.629213 0
M  V30 21 H -2.041599 1.741119 -1.232291 0
M  V30 END ATOM
M  V30 BEGIN BOND
M  V30 1 1 1 2
M  V30 2 2 2 3
M  V30 3 1 3 4
M  V30 4 1 4 5
M  V30 5 1 3 6
M  V30 6 2 6 7
M  V30 7 1 7 8
M  V30 8 1 7 9
M  V30 9 2 9 10
M  V30 10 1 10 11
M  V30 11 2 11 12
M  V30 12 1 11 13
M  V30 13 1 10 2
M  V30 14 1 1 14
M  V30 15 1 4 15
M  V30 16 1 4 16
M  V30 17 1 6 17
M  V30 18 1 9 18
M  V30 19 1 13 19
M  V30 20 1 13 20
M  V30 21 1 13 21
M  V30 END BOND
M  V30 END CTAB
M  END
>  <Dataset>  (60) 
PDB

>  <Ligand_Instance>  (60) 
5N1O_8GB_A_402

>  <PDB_ID>  (60) 
5N1O

>  <Standardized_SMILES>  (60) 
[H]OC1=C(C([H])([H])Cl)C([H])=C(Cl)C([H])=C1C(=O)C([H])([H])[H]

>  <Name>  (60) 
1-[5-chloranyl-3-(chloromethyl)-2-oxidanyl-phenyl]ethanone

>  <Pocket>  (60) 
A

>  <ATP_Site>  (60) 
1.0

>  <Peripheral>  (60) 
0.0

>  <Num_H_Atoms_ProtBoundConf>  (60) 
8.0

>  <Num_Resolved_Atoms>  (60) 
13.0

>  <Num_Not_Resolved_Atoms>  (60) 
0.0

$$$$
8JT
     RDKit          3D

  0  0  0  0  0  0  0  0  0  0999 V3000
M  V30 BEGIN CTAB
M  V30 COUNTS 34 36 0 0 0
M  V30 BEGIN ATOM
M  V30 1 C -0.838543 2.152951 2.786482 0
M  V30 2 C -0.966586 0.923257 2.181576 0
M  V30 3 C -0.512878 0.675064 0.883237 0
M  V30 4 C -0.655306 -0.666486 0.230104 0
M  V30 5 N 0.523410 -1.463256 0.522600 0 CHG=1 VAL=4
M  V30 6 C 0.801913 -2.433546 -0.494483 0
M  V30 7 C 1.497377 -3.638231 0.127808 0
M  V30 8 C 0.462079 -4.735273 0.227884 0
M  V30 9 C -0.853098 -4.026304 -0.047018 0
M  V30 10 C -0.412898 -3.050501 -1.119610 0
M  V30 11 C 0.088385 1.739584 0.203997 0
M  V30 12 C 0.226729 2.969268 0.783624 0
M  V30 13 C -0.237679 3.186054 2.084727 0
M  V30 14 O 0.058908 4.529256 2.361039 0
M  V30 15 C 0.147787 5.196835 1.098905 0
M  V30 16 O 0.783758 4.174902 0.318316 0
M  V30 17 H -1.192698 2.321314 3.781040 0
M  V30 18 H -1.442863 0.102452 2.736453 0
M  V30 19 H -1.592771 -1.148375 0.524431 0
M  V30 20 H -0.630403 -0.465396 -0.879580 0
M  V30 21 H 1.324892 -0.778016 0.533607 0
M  V30 22 H 0.496963 -1.856674 1.488801 0
M  V30 23 H 1.458252 -1.993250 -1.275084 0
M  V30 24 H 1.827154 -3.408544 1.163752 0
M  V30 25 H 2.328867 -3.947359 -0.515568 0
M  V30 26 H 0.635713 -5.524299 -0.538632 0
M  V30 27 H 0.402914 -5.190541 1.234644 0
M  V30 28 H -1.202047 -3.502893 0.858449 0
M  V30 29 H -1.621884 -4.720714 -0.438123 0
M  V30 30 H -0.046214 -3.657036 -1.987506 0
M  V30 31 H -1.206092 -2.350519 -1.406120 0
M  V30 32 H 0.448978 1.567670 -0.808959 0
M  V30 33 H 0.766980 6.100583 1.140277 0
M  V30 34 H -0.870706 5.374540 0.697174 0
M  V30 END ATOM
M  V30 BEGIN BOND
M  V30 1 2 1 2
M  V30 2 1 2 3
M  V30 3 1 3 4
M  V30 4 1 4 5
M  V30 5 1 5 6
M  V30 6 1 6 7
M  V30 7 1 7 8
M  V30 8 1 8 9
M  V30 9 1 9 10
M  V30 10 2 3 11
M  V30 11 1 11 12
M  V30 12 2 12 13
M  V30 13 1 13 14
M  V30 14 1 14 15
M  V30 15 1 15 16
M  V30 16 1 13 1
M  V30 17 1 10 6
M  V30 18 1 16 12
M  V30 19 1 1 17
M  V30 20 1 2 18
M  V30 21 1 4 19
M  V30 22 1 4 20
M  V30 23 1 5 21
M  V30 24 1 5 22
M  V30 25 1 6 23
M  V30 26 1 7 24
M  V30 27 1 7 25
M  V30 28 1 8 26
M  V30 29 1 8 27
M  V30 30 1 9 28
M  V30 31 1 9 29
M  V30 32 1 10 30
M  V30 33 1 10 31
M  V30 34 1 11 32
M  V30 35 1 15 33
M  V30 36 1 15 34
M  V30 END BOND
M  V30 END CTAB
M  END
>  <Dataset>  (61) 
PDB

>  <Ligand_Instance>  (61) 
5N37_8JT_A_402

>  <PDB_ID>  (61) 
5N37

>  <Standardized_SMILES>  (61) 
[H]C1=C([H])C(C([H])([H])[N+]([H])([H])C2([H])C([H])([H])C([H])([H])C([H])([H])C2([H])[H])=C([H])C2=C1OC([H])([H])O2

>  <Name>  (61) 
1,3-benzodioxol-5-ylmethyl(cyclopentyl)azanium

>  <Pocket>  (61) 
A

>  <ATP_Site>  (61) 
1.0

>  <Peripheral>  (61) 
1.0

>  <Num_H_Atoms_ProtBoundConf>  (61) 
18.0

>  <Num_Resolved_Atoms>  (61) 
16.0

>  <Num_Not_Resolved_Atoms>  (61) 
0.0

$$$$
8JW
     RDKit          3D

  0  0  0  0  0  0  0  0  0  0999 V3000
M  V30 BEGIN CTAB
M  V30 COUNTS 17 17 0 0 0
M  V30 BEGIN ATOM
M  V30 1 C 0.322552 -0.070256 1.534780 0
M  V30 2 C 1.368437 0.141380 2.401189 0
M  V30 3 N 1.279855 -0.164036 3.787368 0
M  V30 4 C 2.543404 0.667740 1.909234 0
M  V30 5 O 3.533601 0.881564 2.661198 0
M  V30 6 N 2.700742 0.977842 0.626788 0
M  V30 7 C 1.705128 0.787920 -0.256601 0
M  V30 8 C 0.526323 0.264254 0.214547 0
M  V30 9 C -0.587353 0.045627 -0.742173 0
M  V30 10 F -0.665134 -1.294037 -1.001364 0
M  V30 11 F -0.385555 0.740000 -1.923456 0
M  V30 12 F -1.763029 0.534290 -0.177465 0
M  V30 13 H -0.616426 -0.489228 1.919517 0
M  V30 14 H 2.039648 -0.463828 4.404240 0
M  V30 15 H 0.323868 -0.060679 4.184338 0
M  V30 16 H 3.598868 1.382769 0.237710 0
M  V30 17 H 1.792023 1.025733 -1.302824 0
M  V30 END ATOM
M  V30 BEGIN BOND
M  V30 1 2 1 2
M  V30 2 1 2 3
M  V30 3 1 2 4
M  V30 4 2 4 5
M  V30 5 1 4 6
M  V30 6 1 6 7
M  V30 7 2 7 8
M  V30 8 1 8 9
M  V30 9 1 9 10
M  V30 10 1 9 11
M  V30 11 1 9 12
M  V30 12 1 8 1
M  V30 13 1 1 13
M  V30 14 1 3 14
M  V30 15 1 3 15
M  V30 16 1 6 16
M  V30 17 1 7 17
M  V30 END BOND
M  V30 END CTAB
M  END
>  <Dataset>  (62) 
PDB

>  <Ligand_Instance>  (62) 
5N33_8JW_A_401

>  <PDB_ID>  (62) 
5N33

>  <Standardized_SMILES>  (62) 
[H]C1=C(N([H])[H])C(=O)N([H])C([H])=C1C(F)(F)F

>  <Name>  (62) 
3-azanyl-5-(trifluoromethyl)-1~{H}-pyridin-2-one

>  <Pocket>  (62) 
A

>  <ATP_Site>  (62) 
1.0

>  <Peripheral>  (62) 
0.0

>  <Num_H_Atoms_ProtBoundConf>  (62) 
5.0

>  <Num_Resolved_Atoms>  (62) 
12.0

>  <Num_Not_Resolved_Atoms>  (62) 
0.0

$$$$
8K2
     RDKit          3D

  0  0  0  0  0  0  0  0  0  0999 V3000
M  V30 BEGIN CTAB
M  V30 COUNTS 14 14 0 0 0
M  V30 BEGIN ATOM
M  V30 1 C 3.165862 -1.204465 1.713008 0
M  V30 2 C 3.838637 0.087850 1.739795 0
M  V30 3 Cl 5.615111 0.132221 2.189748 0
M  V30 4 S 2.427518 1.255203 1.246994 0
M  V30 5 C 1.213800 0.020297 1.075215 0
M  V30 6 S -0.371498 0.484208 0.617019 0
M  V30 7 O -1.188232 -0.774073 0.453777 0
M  V30 8 O -1.066976 1.327212 1.654557 0
M  V30 9 N -0.419029 1.279886 -0.921653 0
M  V30 10 C 1.844539 -1.162573 1.369916 0
M  V30 11 H 3.656787 -2.134194 1.943412 0
M  V30 12 H -1.385305 1.167432 -1.310870 0
M  V30 13 H 0.309775 0.933081 -1.560949 0
M  V30 14 H 1.186867 -2.012829 1.297223 0
M  V30 END ATOM
M  V30 BEGIN BOND
M  V30 1 2 1 2
M  V30 2 1 2 3
M  V30 3 1 2 4
M  V30 4 1 4 5
M  V30 5 1 5 6
M  V30 6 2 6 7
M  V30 7 2 6 8
M  V30 8 1 6 9
M  V30 9 2 5 10
M  V30 10 1 10 1
M  V30 11 1 1 11
M  V30 12 1 9 12
M  V30 13 1 9 13
M  V30 14 1 10 14
M  V30 END BOND
M  V30 END CTAB
M  END
>  <Dataset>  (63) 
PDB

>  <Ligand_Instance>  (63) 
5N3T_8K2_A_401

>  <PDB_ID>  (63) 
5N3T

>  <Standardized_SMILES>  (63) 
[H]C1=C(Cl)SC(S(=O)(=O)N([H])[H])=C1[H]

>  <Name>  (63) 
5-chloranylthiophene-2-sulfonamide

>  <Pocket>  (63) 
F

>  <ATP_Site>  (63) 
0.0

>  <Peripheral>  (63) 
1.0

>  <Num_H_Atoms_ProtBoundConf>  (63) 
4.0

>  <Num_Resolved_Atoms>  (63) 
10.0

>  <Num_Not_Resolved_Atoms>  (63) 
0.0

$$$$
8K2
     RDKit          3D

  0  0  0  0  0  0  0  0  0  0999 V3000
M  V30 BEGIN CTAB
M  V30 COUNTS 14 14 0 0 0
M  V30 BEGIN ATOM
M  V30 1 C 3.165862 -1.204465 1.713008 0
M  V30 2 C 3.838637 0.087850 1.739795 0
M  V30 3 Cl 5.615111 0.132221 2.189748 0
M  V30 4 S 2.427518 1.255203 1.246994 0
M  V30 5 C 1.213800 0.020297 1.075215 0
M  V30 6 S -0.371498 0.484208 0.617019 0
M  V30 7 O -1.188232 -0.774073 0.453777 0
M  V30 8 O -1.066976 1.327212 1.654557 0
M  V30 9 N -0.419029 1.279886 -0.921653 0
M  V30 10 C 1.844539 -1.162573 1.369916 0
M  V30 11 H 3.656787 -2.134194 1.943412 0
M  V30 12 H -1.385305 1.167432 -1.310870 0
M  V30 13 H 0.309775 0.933081 -1.560949 0
M  V30 14 H 1.186867 -2.012829 1.297223 0
M  V30 END ATOM
M  V30 BEGIN BOND
M  V30 1 2 1 2
M  V30 2 1 2 3
M  V30 3 1 2 4
M  V30 4 1 4 5
M  V30 5 1 5 6
M  V30 6 2 6 7
M  V30 7 2 6 8
M  V30 8 1 6 9
M  V30 9 2 5 10
M  V30 10 1 10 1
M  V30 11 1 1 11
M  V30 12 1 9 12
M  V30 13 1 9 13
M  V30 14 1 10 14
M  V30 END BOND
M  V30 END CTAB
M  END
>  <Dataset>  (64) 
PDB

>  <Ligand_Instance>  (64) 
5N3T_8K2_A_402

>  <PDB_ID>  (64) 
5N3T

>  <Standardized_SMILES>  (64) 
[H]C1=C(Cl)SC(S(=O)(=O)N([H])[H])=C1[H]

>  <Name>  (64) 
5-chloranylthiophene-2-sulfonamide

>  <Pocket>  (64) 
X

>  <ATP_Site>  (64) 
0.0

>  <Peripheral>  (64) 
1.0

>  <Num_H_Atoms_ProtBoundConf>  (64) 
4.0

>  <Num_Resolved_Atoms>  (64) 
10.0

>  <Num_Not_Resolved_Atoms>  (64) 
0.0

$$$$
8K5
     RDKit          3D

  0  0  0  0  0  0  0  0  0  0999 V3000
M  V30 BEGIN CTAB
M  V30 COUNTS 21 21 0 0 0
M  V30 BEGIN ATOM
M  V30 1 H -0.672662 -3.124465 3.819940 0
M  V30 2 N -0.067936 -2.271272 3.850968 0
M  V30 3 C -0.268313 -1.312740 2.992153 0
M  V30 4 S 0.827534 0.056725 3.168865 0
M  V30 5 C 0.575205 1.382076 1.996035 0
M  V30 6 C 0.896165 0.978302 0.606883 0
M  V30 7 C 2.222574 1.164632 0.264916 0
M  V30 8 C 2.761688 0.861311 -0.992507 0
M  V30 9 C 1.892570 0.346688 -1.926783 0
M  V30 10 Cl 2.424576 -0.079355 -3.542696 0
M  V30 11 C 0.589821 0.163697 -1.590665 0
M  V30 12 C 0.041199 0.462083 -0.341706 0
M  V30 13 N -1.309561 -1.476099 2.045469 0
M  V30 14 H 1.173937 2.250620 2.315209 0
M  V30 15 H -0.506732 1.685345 1.977457 0
M  V30 16 H 2.975927 1.567325 0.948886 0
M  V30 17 H 3.800874 1.015885 -1.235533 0
M  V30 18 H -0.137450 -0.242116 -2.300569 0
M  V30 19 H -0.968226 0.340021 -0.033165 0
M  V30 20 H -2.199747 -1.485877 1.508019 0
M  V30 21 H -2.003603 -0.997622 2.637383 0
M  V30 END ATOM
M  V30 BEGIN BOND
M  V30 1 1 1 2
M  V30 2 2 2 3
M  V30 3 1 3 4
M  V30 4 1 4 5
M  V30 5 1 5 6
M  V30 6 2 6 7
M  V30 7 1 7 8
M  V30 8 2 8 9
M  V30 9 1 9 10
M  V30 10 1 9 11
M  V30 11 2 11 12
M  V30 12 1 3 13
M  V30 13 1 12 6
M  V30 14 1 5 14
M  V30 15 1 5 15
M  V30 16 1 7 16
M  V30 17 1 8 17
M  V30 18 1 11 18
M  V30 19 1 12 19
M  V30 20 1 13 20
M  V30 21 1 13 21
M  V30 END BOND
M  V30 END CTAB
M  END
>  <Dataset>  (65) 
PDB

>  <Ligand_Instance>  (65) 
5N32_8K5_A_401

>  <PDB_ID>  (65) 
5N32

>  <Standardized_SMILES>  (65) 
[H]/N=C(/SC([H])([H])C1=C([H])C([H])=C(Cl)C([H])=C1[H])N([H])[H]

>  <Name>  (65) 
[azanyl-[(4-chlorophenyl)methylsulfanyl]methylidene]azanium

>  <Pocket>  (65) 
A

>  <ATP_Site>  (65) 
1.0

>  <Peripheral>  (65) 
1.0

>  <Num_H_Atoms_ProtBoundConf>  (65) 
9.0

>  <Num_Resolved_Atoms>  (65) 
12.0

>  <Num_Not_Resolved_Atoms>  (65) 
0.0

$$$$
8K5
     RDKit          3D

  0  0  0  0  0  0  0  0  0  0999 V3000
M  V30 BEGIN CTAB
M  V30 COUNTS 21 21 0 0 0
M  V30 BEGIN ATOM
M  V30 1 H -0.672662 -3.124465 3.819940 0
M  V30 2 N -0.067936 -2.271272 3.850968 0
M  V30 3 C -0.268313 -1.312740 2.992153 0
M  V30 4 S 0.827534 0.056725 3.168865 0
M  V30 5 C 0.575205 1.382076 1.996035 0
M  V30 6 C 0.896165 0.978302 0.606883 0
M  V30 7 C 2.222574 1.164632 0.264916 0
M  V30 8 C 2.761688 0.861311 -0.992507 0
M  V30 9 C 1.892570 0.346688 -1.926783 0
M  V30 10 Cl 2.424576 -0.079355 -3.542696 0
M  V30 11 C 0.589821 0.163697 -1.590665 0
M  V30 12 C 0.041199 0.462083 -0.341706 0
M  V30 13 N -1.309561 -1.476099 2.045469 0
M  V30 14 H 1.173937 2.250620 2.315209 0
M  V30 15 H -0.506732 1.685345 1.977457 0
M  V30 16 H 2.975927 1.567325 0.948886 0
M  V30 17 H 3.800874 1.015885 -1.235533 0
M  V30 18 H -0.137450 -0.242116 -2.300569 0
M  V30 19 H -0.968226 0.340021 -0.033165 0
M  V30 20 H -2.199747 -1.485877 1.508019 0
M  V30 21 H -2.003603 -0.997622 2.637383 0
M  V30 END ATOM
M  V30 BEGIN BOND
M  V30 1 1 1 2
M  V30 2 2 2 3
M  V30 3 1 3 4
M  V30 4 1 4 5
M  V30 5 1 5 6
M  V30 6 2 6 7
M  V30 7 1 7 8
M  V30 8 2 8 9
M  V30 9 1 9 10
M  V30 10 1 9 11
M  V30 11 2 11 12
M  V30 12 1 3 13
M  V30 13 1 12 6
M  V30 14 1 5 14
M  V30 15 1 5 15
M  V30 16 1 7 16
M  V30 17 1 8 17
M  V30 18 1 11 18
M  V30 19 1 12 19
M  V30 20 1 13 20
M  V30 21 1 13 21
M  V30 END BOND
M  V30 END CTAB
M  END
>  <Dataset>  (66) 
PDB

>  <Ligand_Instance>  (66) 
5N32_8K5_A_402

>  <PDB_ID>  (66) 
5N32

>  <Standardized_SMILES>  (66) 
[H]/N=C(/SC([H])([H])C1=C([H])C([H])=C(Cl)C([H])=C1[H])N([H])[H]

>  <Name>  (66) 
[azanyl-[(4-chlorophenyl)methylsulfanyl]methylidene]azanium

>  <Pocket>  (66) 
X

>  <ATP_Site>  (66) 
1.0

>  <Peripheral>  (66) 
1.0

>  <Num_H_Atoms_ProtBoundConf>  (66) 
9.0

>  <Num_Resolved_Atoms>  (66) 
12.0

>  <Num_Not_Resolved_Atoms>  (66) 
0.0

$$$$
8KB
     RDKit          3D

  0  0  0  0  0  0  0  0  0  0999 V3000
M  V30 BEGIN CTAB
M  V30 COUNTS 20 20 0 0 0
M  V30 BEGIN ATOM
M  V30 1 O -1.114759 0.602365 -1.166723 0
M  V30 2 C -0.139681 0.351601 -0.217755 0 CFG=1
M  V30 3 C -0.590393 0.926581 1.093222 0
M  V30 4 O 0.340945 0.797181 2.105367 0
M  V30 5 C 1.647283 0.719827 1.665989 0
M  V30 6 C 2.046885 -0.614302 1.130878 0
M  V30 7 N 0.964784 -1.531067 0.926917 0 CHG=1 VAL=4
M  V30 8 C 0.002466 -1.130906 -0.052097 0
M  V30 9 H -0.686564 0.538943 -2.067984 0
M  V30 10 H 0.805019 0.751540 -0.597870 0
M  V30 11 H -1.482872 0.328253 1.409523 0
M  V30 12 H -0.963786 1.968874 0.976655 0
M  V30 13 H 1.907076 1.533687 0.939377 0
M  V30 14 H 2.286787 0.961739 2.559757 0
M  V30 15 H 2.757302 -1.128339 1.832624 0
M  V30 16 H 2.643157 -0.466721 0.196019 0
M  V30 17 H 1.405030 -2.418341 0.573550 0
M  V30 18 H 0.562778 -1.783064 1.855708 0
M  V30 19 H 0.162219 -1.565480 -1.056505 0
M  V30 20 H -0.993581 -1.513491 0.286784 0
M  V30 END ATOM
M  V30 BEGIN BOND
M  V30 1 1 1 2
M  V30 2 1 2 3
M  V30 3 1 3 4
M  V30 4 1 4 5
M  V30 5 1 5 6
M  V30 6 1 6 7
M  V30 7 1 7 8
M  V30 8 1 8 2
M  V30 9 1 1 9
M  V30 10 1 2 10 CFG=3
M  V30 11 1 3 11
M  V30 12 1 3 12
M  V30 13 1 5 13
M  V30 14 1 5 14
M  V30 15 1 6 15
M  V30 16 1 6 16
M  V30 17 1 7 17
M  V30 18 1 7 18
M  V30 19 1 8 19
M  V30 20 1 8 20
M  V30 END BOND
M  V30 END CTAB
M  END
>  <Dataset>  (67) 
PDB

>  <Ligand_Instance>  (67) 
5N3G_8KB_A_401

>  <PDB_ID>  (67) 
5N3G

>  <Standardized_SMILES>  (67) 
[H]O[C@@]1([H])C([H])([H])OC([H])([H])C([H])([H])[N+]([H])([H])C1([H])[H]

>  <Name>  (67) 
(6~{R})-1,4-oxazepan-6-ol

>  <Pocket>  (67) 
B

>  <ATP_Site>  (67) 
0.0

>  <Peripheral>  (67) 
1.0

>  <Num_H_Atoms_ProtBoundConf>  (67) 
12.0

>  <Num_Resolved_Atoms>  (67) 
8.0

>  <Num_Not_Resolved_Atoms>  (67) 
0.0

$$$$
8KB
     RDKit          3D

  0  0  0  0  0  0  0  0  0  0999 V3000
M  V30 BEGIN CTAB
M  V30 COUNTS 20 20 0 0 0
M  V30 BEGIN ATOM
M  V30 1 O -1.114759 0.602365 -1.166723 0
M  V30 2 C -0.139681 0.351601 -0.217755 0 CFG=1
M  V30 3 C -0.590393 0.926581 1.093222 0
M  V30 4 O 0.340945 0.797181 2.105367 0
M  V30 5 C 1.647283 0.719827 1.665989 0
M  V30 6 C 2.046885 -0.614302 1.130878 0
M  V30 7 N 0.964784 -1.531067 0.926917 0 CHG=1 VAL=4
M  V30 8 C 0.002466 -1.130906 -0.052097 0
M  V30 9 H -0.686564 0.538943 -2.067984 0
M  V30 10 H 0.805019 0.751540 -0.597870 0
M  V30 11 H -1.482872 0.328253 1.409523 0
M  V30 12 H -0.963786 1.968874 0.976655 0
M  V30 13 H 1.907076 1.533687 0.939377 0
M  V30 14 H 2.286787 0.961739 2.559757 0
M  V30 15 H 2.757302 -1.128339 1.832624 0
M  V30 16 H 2.643157 -0.466721 0.196019 0
M  V30 17 H 1.405030 -2.418341 0.573550 0
M  V30 18 H 0.562778 -1.783064 1.855708 0
M  V30 19 H 0.162219 -1.565480 -1.056505 0
M  V30 20 H -0.993581 -1.513491 0.286784 0
M  V30 END ATOM
M  V30 BEGIN BOND
M  V30 1 1 1 2
M  V30 2 1 2 3
M  V30 3 1 3 4
M  V30 4 1 4 5
M  V30 5 1 5 6
M  V30 6 1 6 7
M  V30 7 1 7 8
M  V30 8 1 8 2
M  V30 9 1 1 9
M  V30 10 1 2 10 CFG=3
M  V30 11 1 3 11
M  V30 12 1 3 12
M  V30 13 1 5 13
M  V30 14 1 5 14
M  V30 15 1 6 15
M  V30 16 1 6 16
M  V30 17 1 7 17
M  V30 18 1 7 18
M  V30 19 1 8 19
M  V30 20 1 8 20
M  V30 END BOND
M  V30 END CTAB
M  END
>  <Dataset>  (68) 
PDB

>  <Ligand_Instance>  (68) 
5N3G_8KB_A_402

>  <PDB_ID>  (68) 
5N3G

>  <Standardized_SMILES>  (68) 
[H]O[C@@]1([H])C([H])([H])OC([H])([H])C([H])([H])[N+]([H])([H])C1([H])[H]

>  <Name>  (68) 
(6~{R})-1,4-oxazepan-6-ol

>  <Pocket>  (68) 
X

>  <ATP_Site>  (68) 
0.0

>  <Peripheral>  (68) 
1.0

>  <Num_H_Atoms_ProtBoundConf>  (68) 
12.0

>  <Num_Resolved_Atoms>  (68) 
8.0

>  <Num_Not_Resolved_Atoms>  (68) 
0.0

$$$$
8LZ
     RDKit          3D

  0  0  0  0  0  0  0  0  0  0999 V3000
M  V30 BEGIN CTAB
M  V30 COUNTS 31 33 0 0 0
M  V30 BEGIN ATOM
M  V30 1 C 0.780389 0.488284 2.207677 0
M  V30 2 C 0.458986 -0.795220 1.796113 0
M  V30 3 C 0.380507 -1.157392 0.467763 0
M  V30 4 C 0.029946 -2.554685 0.089751 0 CFG=2
M  V30 5 C -1.447754 -2.818824 0.215177 0
M  V30 6 C -1.551263 -3.621339 1.470520 0
M  V30 7 C -0.250802 -4.393697 1.476484 0
M  V30 8 N 0.723199 -3.536690 0.845374 0 CHG=1 VAL=4
M  V30 9 C 0.642746 -0.160593 -0.466549 0
M  V30 10 C 0.962808 1.117072 -0.068848 0
M  V30 11 C 1.036801 1.461949 1.269394 0
M  V30 12 O 1.366760 2.771613 1.490411 0
M  V30 13 C 0.988944 3.846563 0.659376 0
M  V30 14 C 0.753392 3.470458 -0.764271 0
M  V30 15 O 1.229998 2.134072 -0.985175 0
M  V30 16 H 0.849354 0.801224 3.243419 0
M  V30 17 H 0.279335 -1.471652 2.599979 0
M  V30 18 H 0.265799 -2.623511 -1.010385 0
M  V30 19 H -1.877460 -3.327531 -0.668727 0
M  V30 20 H -1.947786 -1.812230 0.308807 0
M  V30 21 H -1.603094 -2.943979 2.359122 0
M  V30 22 H -2.434240 -4.297045 1.441778 0
M  V30 23 H -0.423226 -5.350935 0.921768 0
M  V30 24 H -0.019689 -4.614912 2.536704 0
M  V30 25 H 1.432951 -3.166099 1.510905 0
M  V30 26 H 1.262268 -4.150023 0.169007 0
M  V30 27 H 0.588174 -0.417350 -1.514292 0
M  V30 28 H 1.742191 4.656160 0.667465 0
M  V30 29 H 0.070687 4.300889 1.117912 0
M  V30 30 H -0.351527 3.518654 -0.954178 0
M  V30 31 H 1.216244 4.122455 -1.517018 0
M  V30 END ATOM
M  V30 BEGIN BOND
M  V30 1 2 1 2
M  V30 2 1 2 3
M  V30 3 1 3 4
M  V30 4 1 4 5
M  V30 5 1 5 6
M  V30 6 1 6 7
M  V30 7 1 7 8
M  V30 8 2 3 9
M  V30 9 1 9 10
M  V30 10 2 10 11
M  V30 11 1 11 12
M  V30 12 1 12 13
M  V30 13 1 13 14
M  V30 14 1 14 15
M  V30 15 1 11 1
M  V30 16 1 8 4
M  V30 17 1 15 10
M  V30 18 1 1 16
M  V30 19 1 2 17
M  V30 20 1 4 18 CFG=3
M  V30 21 1 5 19
M  V30 22 1 5 20
M  V30 23 1 6 21
M  V30 24 1 6 22
M  V30 25 1 7 23
M  V30 26 1 7 24
M  V30 27 1 8 25
M  V30 28 1 8 26
M  V30 29 1 9 27
M  V30 30 1 13 28
M  V30 31 1 13 29
M  V30 32 1 14 30
M  V30 33 1 14 31
M  V30 END BOND
M  V30 END CTAB
M  END
>  <Dataset>  (69) 
PDB

>  <Ligand_Instance>  (69) 
5N39_8LZ_A_401

>  <PDB_ID>  (69) 
5N39

>  <Standardized_SMILES>  (69) 
[H]C1=C([H])C([C@]2([H])C([H])([H])C([H])([H])C([H])([H])[N+]2([H])[H])=C([H])C2=C1OC([H])([H])C([H])([H])O2

>  <Name>  (69) 
(2~{S})-2-(2,3-dihydro-1,4-benzodioxin-6-yl)pyrrolidin-1-ium

>  <Pocket>  (69) 
A

>  <ATP_Site>  (69) 
1.0

>  <Peripheral>  (69) 
0.0

>  <Num_H_Atoms_ProtBoundConf>  (69) 
16.0

>  <Num_Resolved_Atoms>  (69) 
15.0

>  <Num_Not_Resolved_Atoms>  (69) 
0.0

$$$$
8M2
     RDKit          3D

  0  0  0  0  0  0  0  0  0  0999 V3000
M  V30 BEGIN CTAB
M  V30 COUNTS 15 15 0 0 0
M  V30 BEGIN ATOM
M  V30 1 C 0.556969 -1.279390 3.410511 0
M  V30 2 C 1.303510 -0.881434 2.373677 0
M  V30 3 C 0.747698 -0.109060 1.385129 0
M  V30 4 C 1.491905 0.364048 0.225277 0
M  V30 5 N 1.185144 1.604667 -0.393483 0
M  V30 6 N 2.444891 -0.381337 -0.222327 0 CHG=1 VAL=4
M  V30 7 C -0.605826 0.231420 1.515364 0
M  V30 8 S -1.120776 -0.595587 3.140761 0
M  V30 9 H 0.720334 -1.857589 4.279795 0
M  V30 10 H 2.332885 -1.205906 2.382295 0
M  V30 11 H 0.944325 2.473363 -0.887835 0
M  V30 12 H 1.409477 2.437783 0.203413 0
M  V30 13 H 3.044162 -0.155254 -1.037468 0
M  V30 14 H 3.047776 -0.154297 -1.042071 0
M  V30 15 H -1.211713 0.807411 0.876283 0
M  V30 END ATOM
M  V30 BEGIN BOND
M  V30 1 2 1 2
M  V30 2 1 2 3
M  V30 3 1 3 4
M  V30 4 1 4 5
M  V30 5 2 4 6
M  V30 6 2 3 7
M  V30 7 1 7 8
M  V30 8 1 8 1
M  V30 9 1 1 9
M  V30 10 1 2 10
M  V30 11 1 5 11
M  V30 12 1 5 12
M  V30 13 1 6 13
M  V30 14 1 6 14
M  V30 15 1 7 15
M  V30 END BOND
M  V30 END CTAB
M  END
>  <Dataset>  (70) 
PDB

>  <Ligand_Instance>  (70) 
5N3C_8M2_A_401

>  <PDB_ID>  (70) 
5N3C

>  <Standardized_SMILES>  (70) 
[H]C1=C([H])C(C(N([H])[H])=[N+]([H])[H])=C([H])S1

>  <Name>  (70) 
[azanyl(thiophen-3-yl)methylidene]azanium

>  <Pocket>  (70) 
A

>  <ATP_Site>  (70) 
1.0

>  <Peripheral>  (70) 
0.0

>  <Num_H_Atoms_ProtBoundConf>  (70) 
7.0

>  <Num_Resolved_Atoms>  (70) 
8.0

>  <Num_Not_Resolved_Atoms>  (70) 
0.0

$$$$
8NE
     RDKit          3D

  0  0  0  0  0  0  0  0  0  0999 V3000
M  V30 BEGIN CTAB
M  V30 COUNTS 20 20 0 0 0
M  V30 BEGIN ATOM
M  V30 1 H 0.978188 -1.791268 3.680897 0
M  V30 2 N 0.038951 -2.092531 3.336905 0
M  V30 3 C -0.434130 -1.660599 2.217423 0
M  V30 4 C 0.206366 -0.749295 1.307702 0
M  V30 5 C 1.581881 -0.722569 1.225111 0
M  V30 6 C 2.230640 0.137235 0.364973 0
M  V30 7 C 1.436362 0.965004 -0.404644 0
M  V30 8 C 2.113382 1.907931 -1.346481 0
M  V30 9 F 2.457990 3.097219 -0.745058 0
M  V30 10 F 1.263470 2.192061 -2.398939 0
M  V30 11 F 3.242084 1.260450 -1.850363 0
M  V30 12 C 0.050288 0.979546 -0.361618 0
M  V30 13 C -0.537991 0.104330 0.510964 0
M  V30 14 N -1.721405 -2.132404 1.841476 0
M  V30 15 H 2.151313 -1.387344 1.846006 0
M  V30 16 H 3.319845 0.191102 0.267858 0
M  V30 17 H -0.522594 1.653276 -0.991046 0
M  V30 18 H -1.629353 0.098189 0.561900 0
M  V30 19 H -2.461983 -1.677928 1.252800 0
M  V30 20 H -2.203207 -3.043525 2.077570 0
M  V30 END ATOM
M  V30 BEGIN BOND
M  V30 1 1 1 2
M  V30 2 2 2 3
M  V30 3 1 3 4
M  V30 4 2 4 5
M  V30 5 1 5 6
M  V30 6 2 6 7
M  V30 7 1 7 8
M  V30 8 1 8 9
M  V30 9 1 8 10
M  V30 10 1 8 11
M  V30 11 1 7 12
M  V30 12 2 12 13
M  V30 13 1 3 14
M  V30 14 1 13 4
M  V30 15 1 5 15
M  V30 16 1 6 16
M  V30 17 1 12 17
M  V30 18 1 13 18
M  V30 19 1 14 19
M  V30 20 1 14 20
M  V30 END BOND
M  V30 END CTAB
M  END
>  <Dataset>  (71) 
PDB

>  <Ligand_Instance>  (71) 
5N3D_8NE_A_401

>  <PDB_ID>  (71) 
5N3D

>  <Standardized_SMILES>  (71) 
[H]/N=C(\C1=C([H])C([H])=C(C(F)(F)F)C([H])=C1[H])N([H])[H]

>  <Name>  (71) 
[azanyl-[4-(trifluoromethyl)phenyl]methylidene]azanium

>  <Pocket>  (71) 
A

>  <ATP_Site>  (71) 
1.0

>  <Peripheral>  (71) 
0.0

>  <Num_H_Atoms_ProtBoundConf>  (71) 
7.0

>  <Num_Resolved_Atoms>  (71) 
13.0

>  <Num_Not_Resolved_Atoms>  (71) 
0.0

$$$$
8PQ
     RDKit          3D

  0  0  0  0  0  0  0  0  0  0999 V3000
M  V30 BEGIN CTAB
M  V30 COUNTS 15 15 0 0 0
M  V30 BEGIN ATOM
M  V30 1 N -0.382450 0.276871 1.817588 0
M  V30 2 N -0.324929 -0.839529 1.111897 0
M  V30 3 C 0.880044 -0.973421 0.537999 0
M  V30 4 C 1.405155 -2.065212 -0.343607 0
M  V30 5 C 1.672054 0.102692 0.872145 0
M  V30 6 Br 3.469509 0.517501 0.391588 0
M  V30 7 C 0.834707 0.871639 1.683979 0
M  V30 8 C 1.237677 2.159743 2.306541 0
M  V30 9 H -1.159669 0.684359 2.383990 0
M  V30 10 H 0.579165 -2.697548 -0.684802 0
M  V30 11 H 1.851894 -1.603418 -1.265894 0
M  V30 12 H 2.189128 -2.641827 0.163799 0
M  V30 13 H 0.688297 2.371521 3.238897 0
M  V30 14 H 1.000770 2.974290 1.566612 0
M  V30 15 H 2.349408 2.161178 2.428586 0
M  V30 END ATOM
M  V30 BEGIN BOND
M  V30 1 1 1 2
M  V30 2 2 2 3
M  V30 3 1 3 4
M  V30 4 1 3 5
M  V30 5 1 5 6
M  V30 6 2 5 7
M  V30 7 1 7 8
M  V30 8 1 7 1
M  V30 9 1 1 9
M  V30 10 1 4 10
M  V30 11 1 4 11
M  V30 12 1 4 12
M  V30 13 1 8 13
M  V30 14 1 8 14
M  V30 15 1 8 15
M  V30 END BOND
M  V30 END CTAB
M  END
>  <Dataset>  (72) 
PDB

>  <Ligand_Instance>  (72) 
5N7U_8PQ_A_402

>  <PDB_ID>  (72) 
5N7U

>  <Standardized_SMILES>  (72) 
[H]N1N=C(C([H])([H])[H])C(Br)=C1C([H])([H])[H]

>  <Name>  (72) 
4-bromanyl-3,5-dimethyl-1~{H}-pyrazole

>  <Pocket>  (72) 
A

>  <ATP_Site>  (72) 
1.0

>  <Peripheral>  (72) 
0.0

>  <Num_H_Atoms_ProtBoundConf>  (72) 
7.0

>  <Num_Resolved_Atoms>  (72) 
8.0

>  <Num_Not_Resolved_Atoms>  (72) 
0.0

$$$$
9CY
     RDKit          3D

  0  0  0  0  0  0  0  0  0  0999 V3000
M  V30 BEGIN CTAB
M  V30 COUNTS 45 47 0 0 0
M  V30 BEGIN ATOM
M  V30 1 O 0.586337 -5.989031 1.612448 0
M  V30 2 C 0.851459 -4.721512 1.142963 0
M  V30 3 C -0.070123 -3.655731 1.757844 0 CFG=1
M  V30 4 N 0.376124 -2.423572 1.135214 0
M  V30 5 C 1.017267 -1.327250 1.772780 0
M  V30 6 O 1.201566 -1.479503 3.018686 0
M  V30 7 C 1.411440 -0.146593 1.012772 0
M  V30 8 C 1.240842 0.082395 -0.340589 0
M  V30 9 C 1.675041 1.263284 -0.905875 0
M  V30 10 C 2.290429 2.259270 -0.166313 0
M  V30 11 C 2.694247 3.450309 -0.903220 0
M  V30 12 C 1.990009 3.906822 -1.997888 0
M  V30 13 C 2.415884 5.051058 -2.670029 0
M  V30 14 N 3.519747 5.752525 -2.285209 0
M  V30 15 C 4.192147 5.290152 -1.215119 0
M  V30 16 C 3.810305 4.163017 -0.517427 0
M  V30 17 C 2.454667 2.026560 1.164465 0
M  V30 18 C 2.029010 0.854672 1.750961 0
M  V30 19 C -1.442384 -3.982857 1.326069 0
M  V30 20 C -2.532103 -3.131964 1.764995 0
M  V30 21 C -3.170349 -3.421798 2.928195 0
M  V30 22 C -4.215778 -2.625436 3.372088 0
M  V30 23 C -4.655532 -1.520427 2.673526 0
M  V30 24 C -4.007079 -1.213004 1.476846 0
M  V30 25 C -2.960330 -2.026785 1.051255 0
M  V30 26 H 0.405323 -5.968267 2.580867 0
M  V30 27 H 0.585380 -4.704838 0.056154 0
M  V30 28 H 1.904148 -4.413907 1.209493 0
M  V30 29 H 0.128476 -3.699192 2.826136 0
M  V30 30 H 0.167338 -2.413235 0.092485 0
M  V30 31 H 0.758902 -0.717424 -0.874545 0
M  V30 32 H 1.487872 1.337061 -1.987272 0
M  V30 33 H 1.117480 3.383688 -2.331472 0
M  V30 34 H 1.896389 5.451501 -3.537432 0
M  V30 35 H 5.080398 5.796206 -0.850651 0
M  V30 36 H 4.390481 3.827537 0.346270 0
M  V30 37 H 2.945322 2.838409 1.713857 0
M  V30 38 H 2.210551 0.769701 2.830392 0
M  V30 39 H -1.448160 -4.011198 0.204076 0
M  V30 40 H -1.708382 -5.041725 1.607951 0
M  V30 41 H -2.867643 -4.272791 3.512955 0
M  V30 42 H -4.692797 -2.905866 4.314747 0
M  V30 43 H -5.481213 -0.906474 3.041403 0
M  V30 44 H -4.309345 -0.362269 0.891833 0
M  V30 45 H -2.444532 -1.794521 0.113463 0
M  V30 END ATOM
M  V30 BEGIN BOND
M  V30 1 1 1 2
M  V30 2 1 2 3
M  V30 3 1 3 4
M  V30 4 1 4 5
M  V30 5 2 5 6
M  V30 6 1 5 7
M  V30 7 2 7 8
M  V30 8 1 8 9
M  V30 9 2 9 10
M  V30 10 1 10 11
M  V30 11 2 11 12
M  V30 12 1 12 13
M  V30 13 2 13 14
M  V30 14 1 14 15
M  V30 15 2 15 16
M  V30 16 1 10 17
M  V30 17 2 17 18
M  V30 18 1 3 19
M  V30 19 1 19 20
M  V30 20 2 20 21
M  V30 21 1 21 22
M  V30 22 2 22 23
M  V30 23 1 23 24
M  V30 24 2 24 25
M  V30 25 1 18 7
M  V30 26 1 25 20
M  V30 27 1 16 11
M  V30 28 1 1 26
M  V30 29 1 2 27
M  V30 30 1 2 28
M  V30 31 1 3 29 CFG=1
M  V30 32 1 4 30
M  V30 33 1 8 31
M  V30 34 1 9 32
M  V30 35 1 12 33
M  V30 36 1 13 34
M  V30 37 1 15 35
M  V30 38 1 16 36
M  V30 39 1 17 37
M  V30 40 1 18 38
M  V30 41 1 19 39
M  V30 42 1 19 40
M  V30 43 1 21 41
M  V30 44 1 22 42
M  V30 45 1 23 43
M  V30 46 1 24 44
M  V30 47 1 25 45
M  V30 END BOND
M  V30 END CTAB
M  END
>  <Dataset>  (73) 
PDB

>  <Ligand_Instance>  (73) 
5VHB_9CY_A_401

>  <PDB_ID>  (73) 
5VHB

>  <Standardized_SMILES>  (73) 
[H]OC([H])([H])[C@@]([H])(N([H])C(=O)C1=C([H])C([H])=C(C2=C([H])C([H])=NC([H])=C2[H])C([H])=C1[H])C([H])([H])C1=C([H])C([H])=C([H])C([H])=C1[H]

>  <Name>  (73) 
N-[(2S)-1-hydroxy-3-phenylpropan-2-yl]-4-(pyridin-4-yl)benzamide

>  <Pocket>  (73) 
A

>  <ATP_Site>  (73) 
1.0

>  <Peripheral>  (73) 
0.0

>  <Num_H_Atoms_ProtBoundConf>  (73) 
20.0

>  <Num_Resolved_Atoms>  (73) 
25.0

>  <Num_Not_Resolved_Atoms>  (73) 
0.0

$$$$
9D1
     RDKit          3D

  0  0  0  0  0  0  0  0  0  0999 V3000
M  V30 BEGIN CTAB
M  V30 COUNTS 58 62 0 0 0
M  V30 BEGIN ATOM
M  V30 1 O 0.939507 -3.137728 6.323383 0
M  V30 2 C 1.273362 -2.623371 5.060746 0
M  V30 3 C 2.186970 -1.601209 4.990859 0
M  V30 4 C 2.530629 -1.079885 3.761773 0
M  V30 5 C 1.900615 -1.654344 2.665399 0
M  V30 6 C 0.975020 -2.688887 2.721967 0
M  V30 7 C 0.417315 -3.150836 1.400810 0
M  V30 8 N -0.788433 -2.401011 1.138307 0
M  V30 9 C -0.466743 -0.969682 1.146562 0
M  V30 10 N -0.384004 0.019103 1.702901 0
M  V30 11 C -0.016482 1.215564 1.296803 0
M  V30 12 C 0.058755 2.388186 2.021379 0
M  V30 13 C 0.464020 3.530177 1.391406 0
M  V30 14 C 0.818079 3.642758 0.066959 0
M  V30 15 C 1.243525 4.845241 -0.628008 0
M  V30 16 C 0.827087 6.145663 -0.371545 0
M  V30 17 C 1.347796 7.172061 -1.136828 0
M  V30 18 N 2.235796 7.005422 -2.120225 0
M  V30 19 C 2.678819 5.761508 -2.416119 0
M  V30 20 C 2.159355 4.746340 -1.654561 0
M  V30 21 C 0.752305 2.483371 -0.681498 0
M  V30 22 C 0.336046 1.318081 -0.029692 0
M  V30 23 S 0.097065 -0.387086 -0.598747 0
M  V30 24 C -2.169129 -2.634950 0.856585 0
M  V30 25 C -2.479267 -3.210296 -0.481248 0
M  V30 26 N -1.899373 -4.474907 -0.784549 0 CHG=1 VAL=4
M  V30 27 C -0.793008 -4.323676 -1.712732 0
M  V30 28 C -1.482576 -4.055705 -3.012672 0
M  V30 29 C -2.657428 -5.010970 -2.963537 0
M  V30 30 C -2.787998 -5.367011 -1.514216 0
M  V30 31 C 0.658531 -3.181591 3.962071 0
M  V30 32 H 0.012830 -3.549879 6.457444 0
M  V30 33 H 2.662092 -1.173097 5.862004 0
M  V30 34 H 3.242070 -0.274947 3.623032 0
M  V30 35 H 2.182764 -1.232467 1.695356 0
M  V30 36 H 1.128983 -2.937053 0.586551 0
M  V30 37 H 0.194387 -4.224107 1.440559 0
M  V30 38 H -0.176572 2.508801 3.074813 0
M  V30 39 H 0.537459 4.488357 1.935476 0
M  V30 40 H 0.107460 6.259414 0.427881 0
M  V30 41 H 1.006172 8.194011 -0.918605 0
M  V30 42 H 3.396281 5.570744 -3.200914 0
M  V30 43 H 2.521807 3.741899 -1.897723 0
M  V30 44 H 0.980654 2.352228 -1.707654 0
M  V30 45 H -2.815352 -1.765813 1.080420 0
M  V30 46 H -2.509770 -3.412679 1.610260 0
M  V30 47 H -3.599403 -3.365815 -0.513183 0
M  V30 48 H -2.296992 -2.446594 -1.287158 0
M  V30 49 H -1.591085 -4.984485 0.066699 0
M  V30 50 H -0.247322 -5.278288 -1.828555 0
M  V30 51 H -0.092507 -3.530063 -1.411356 0
M  V30 52 H -1.811135 -3.009127 -3.164194 0
M  V30 53 H -0.813968 -4.274616 -3.894634 0
M  V30 54 H -2.376692 -5.891244 -3.604970 0
M  V30 55 H -3.593542 -4.549001 -3.375288 0
M  V30 56 H -3.808781 -5.188968 -1.178998 0
M  V30 57 H -2.406497 -6.398736 -1.369594 0
M  V30 58 H -0.064895 -3.986658 3.977866 0
M  V30 END ATOM
M  V30 BEGIN BOND
M  V30 1 1 1 2
M  V30 2 2 2 3
M  V30 3 1 3 4
M  V30 4 2 4 5
M  V30 5 1 5 6
M  V30 6 1 6 7
M  V30 7 1 7 8
M  V30 8 1 8 9
M  V30 9 2 9 10
M  V30 10 1 10 11
M  V30 11 2 11 12
M  V30 12 1 12 13
M  V30 13 2 13 14
M  V30 14 1 14 15
M  V30 15 2 15 16
M  V30 16 1 16 17
M  V30 17 2 17 18
M  V30 18 1 18 19
M  V30 19 2 19 20
M  V30 20 1 14 21
M  V30 21 2 21 22
M  V30 22 1 22 23
M  V30 23 1 8 24
M  V30 24 1 24 25
M  V30 25 1 25 26
M  V30 26 1 26 27
M  V30 27 1 27 28
M  V30 28 1 28 29
M  V30 29 1 29 30
M  V30 30 2 6 31
M  V30 31 1 31 2
M  V30 32 1 23 9
M  V30 33 1 30 26
M  V30 34 1 22 11
M  V30 35 1 20 15
M  V30 36 1 1 32
M  V30 37 1 3 33
M  V30 38 1 4 34
M  V30 39 1 5 35
M  V30 40 1 7 36
M  V30 41 1 7 37
M  V30 42 1 12 38
M  V30 43 1 13 39
M  V30 44 1 16 40
M  V30 45 1 17 41
M  V30 46 1 19 42
M  V30 47 1 20 43
M  V30 48 1 21 44
M  V30 49 1 24 45
M  V30 50 1 24 46
M  V30 51 1 25 47
M  V30 52 1 25 48
M  V30 53 1 26 49
M  V30 54 1 27 50
M  V30 55 1 27 51
M  V30 56 1 28 52
M  V30 57 1 28 53
M  V30 58 1 29 54
M  V30 59 1 29 55
M  V30 60 1 30 56
M  V30 61 1 30 57
M  V30 62 1 31 58
M  V30 END BOND
M  V30 END CTAB
M  END
>  <Dataset>  (74) 
PDB

>  <Ligand_Instance>  (74) 
5VIB_9D1_A_401

>  <PDB_ID>  (74) 
5VIB

>  <Standardized_SMILES>  (74) 
[H]OC1=C([H])C([H])=C([H])C(C([H])([H])N(C2=NC3=C([H])C([H])=C(C4=C([H])C([H])=NC([H])=C4[H])C([H])=C3S2)C([H])([H])C([H])([H])[N+]2([H])C([H])([H])C([H])([H])C([H])([H])C2([H])[H])=C1[H]

>  <Name>  (74) 
3-({[6-(pyridin-4-yl)-1,3-benzothiazol-2-yl][2-(pyrrolidin-1-yl)ethyl]amino}methyl)phenol

>  <Pocket>  (74) 
A

>  <ATP_Site>  (74) 
1.0

>  <Peripheral>  (74) 
0.0

>  <Num_H_Atoms_ProtBoundConf>  (74) 
27.0

>  <Num_Resolved_Atoms>  (74) 
31.0

>  <Num_Not_Resolved_Atoms>  (74) 
0.0

$$$$
9K6
     RDKit          3D

  0  0  0  0  0  0  0  0  0  0999 V3000
M  V30 BEGIN CTAB
M  V30 COUNTS 41 43 0 0 0
M  V30 BEGIN ATOM
M  V30 1 C 0.775303 -1.826843 4.069674 0
M  V30 2 N 0.007416 -2.860055 4.521111 0
M  V30 3 C -0.469166 -3.767480 3.623279 0
M  V30 4 C -0.217878 -3.705219 2.253213 0
M  V30 5 C -0.692956 -4.619696 1.368306 0
M  V30 6 C -0.402491 -4.504733 0.027038 0
M  V30 7 C 0.378515 -3.431696 -0.345342 0
M  V30 8 C 0.907198 -2.448786 0.488839 0
M  V30 9 S 1.859620 -1.137574 -0.165160 0
M  V30 10 O 3.288612 -1.220253 0.356186 0
M  V30 11 O 2.002433 -1.413023 -1.655962 0
M  V30 12 N 1.198378 0.397642 0.010299 0
M  V30 13 C 1.894059 1.342174 0.792569 0
M  V30 14 C 1.058493 2.022761 1.834661 0
M  V30 15 C -0.357459 2.268230 1.480346 0
M  V30 16 N -0.720215 2.683808 0.199686 0 CHG=1 VAL=4
M  V30 17 C -0.007452 2.300566 -0.945160 0
M  V30 18 C 0.413044 0.871743 -1.066853 0 CFG=2
M  V30 19 C -0.771623 -0.048146 -1.239254 0
M  V30 20 C 0.556367 -2.661933 1.800999 0
M  V30 21 C 1.016737 -1.771757 2.732612 0
M  V30 22 H 1.170876 -1.084259 4.768846 0
M  V30 23 H -1.084322 -4.611729 3.912617 0
M  V30 24 H -1.301647 -5.442539 1.712800 0
M  V30 25 H -0.764044 -5.213476 -0.698252 0
M  V30 26 H 0.588942 -3.371123 -1.413413 0
M  V30 27 H 2.455302 2.109674 0.170044 0
M  V30 28 H 2.718067 0.830030 1.323762 0
M  V30 29 H 1.073267 1.377475 2.738367 0
M  V30 30 H 1.589637 2.955793 2.116569 0
M  V30 31 H -0.962020 1.358186 1.776760 0
M  V30 32 H -0.727884 3.023702 2.212628 0
M  V30 33 H -1.737169 2.403009 0.045339 0
M  V30 34 H -0.794548 3.747137 0.172723 0
M  V30 35 H 0.892043 2.950971 -1.108913 0
M  V30 36 H -0.638372 2.502334 -1.838747 0
M  V30 37 H 0.999256 0.787192 -2.007071 0
M  V30 38 H -1.672909 0.512346 -1.603310 0
M  V30 39 H -1.005524 -0.598959 -0.283431 0
M  V30 40 H -0.592686 -0.846116 -1.990816 0
M  V30 41 H 1.629633 -0.955428 2.407490 0
M  V30 END ATOM
M  V30 BEGIN BOND
M  V30 1 2 1 2
M  V30 2 1 2 3
M  V30 3 2 3 4
M  V30 4 1 4 5
M  V30 5 2 5 6
M  V30 6 1 6 7
M  V30 7 2 7 8
M  V30 8 1 8 9
M  V30 9 2 9 10
M  V30 10 2 9 11
M  V30 11 1 9 12
M  V30 12 1 12 13
M  V30 13 1 13 14
M  V30 14 1 14 15
M  V30 15 1 15 16
M  V30 16 1 16 17
M  V30 17 1 17 18
M  V30 18 1 18 19
M  V30 19 1 8 20
M  V30 20 2 20 21
M  V30 21 1 21 1
M  V30 22 1 20 4
M  V30 23 1 18 12
M  V30 24 1 1 22
M  V30 25 1 3 23
M  V30 26 1 5 24
M  V30 27 1 6 25
M  V30 28 1 7 26
M  V30 29 1 13 27
M  V30 30 1 13 28
M  V30 31 1 14 29
M  V30 32 1 14 30
M  V30 33 1 15 31
M  V30 34 1 15 32
M  V30 35 1 16 33
M  V30 36 1 16 34
M  V30 37 1 17 35
M  V30 38 1 17 36
M  V30 39 1 18 37 CFG=3
M  V30 40 1 19 38
M  V30 41 1 19 39
M  V30 42 1 19 40
M  V30 43 1 21 41
M  V30 END BOND
M  V30 END CTAB
M  END
>  <Dataset>  (75) 
PDB

>  <Ligand_Instance>  (75) 
5M75_9K6_A_402

>  <PDB_ID>  (75) 
5M75

>  <Standardized_SMILES>  (75) 
[H]C1=NC([H])=C2C([H])=C([H])C([H])=C(S(=O)(=O)N3C([H])([H])C([H])([H])C([H])([H])[N+]([H])([H])C([H])([H])[C@]3([H])C([H])([H])[H])C2=C1[H]

>  <Name>  (75) 
5-[[(2~{S})-2-methyl-1,4-diazepan-1-yl]sulfonyl]isoquinoline

>  <Pocket>  (75) 
A

>  <ATP_Site>  (75) 
1.0

>  <Peripheral>  (75) 
0.0

>  <Num_H_Atoms_ProtBoundConf>  (75) 
20.0

>  <Num_Resolved_Atoms>  (75) 
21.0

>  <Num_Not_Resolved_Atoms>  (75) 
0.0

$$$$
9LQ
     RDKit          3D

  0  0  0  0  0  0  0  0  0  0999 V3000
M  V30 BEGIN CTAB
M  V30 COUNTS 55 58 0 0 0
M  V30 BEGIN ATOM
M  V30 1 O 1.985844 -3.395984 1.835417 0
M  V30 2 B 2.953750 -2.290878 1.913970 0
M  V30 3 O 3.218963 -1.735243 3.253659 0
M  V30 4 C 3.847222 -1.874605 0.737575 0
M  V30 5 C 5.179705 -2.203416 0.658629 0
M  V30 6 C 5.985740 -1.837979 -0.402310 0
M  V30 7 C 5.388137 -1.105270 -1.417785 0
M  V30 8 C 4.049750 -0.776338 -1.335874 0
M  V30 9 C 3.240070 -1.150691 -0.256704 0
M  V30 10 C 1.826723 -0.691596 -0.349226 0
M  V30 11 N 1.591065 0.457414 0.476437 0 CFG=2 CHG=1 VAL=4
M  V30 12 C 0.675231 0.145174 1.512282 0
M  V30 13 C -0.393326 1.176037 1.774064 0
M  V30 14 N -1.419238 1.279666 0.833438 0
M  V30 15 S -3.022815 1.155117 1.297549 0
M  V30 16 O -3.714034 2.376312 0.702097 0
M  V30 17 O -3.254551 1.325639 2.774682 0
M  V30 18 C -3.860460 -0.217267 0.647268 0
M  V30 19 C -4.933229 -0.071032 -0.249483 0
M  V30 20 C -5.635792 -1.084711 -0.830573 0
M  V30 21 C -5.290745 -2.384233 -0.535205 0
M  V30 22 C -4.250930 -2.614898 0.335383 0
M  V30 23 C -3.903442 -3.912003 0.643400 0
M  V30 24 N -2.883748 -4.147554 1.508955 0
M  V30 25 C -2.200205 -3.114859 2.076837 0
M  V30 26 C -2.576933 -1.852813 1.744144 0
M  V30 27 C -3.597270 -1.532968 0.875683 0
M  V30 28 C -1.150833 2.040485 -0.342721 0
M  V30 29 C 0.035234 1.527426 -1.124164 0
M  V30 30 C 1.263826 1.633357 -0.298045 0
M  V30 31 H 1.091136 -2.985435 1.946322 0
M  V30 32 H 2.515824 -1.989074 3.894756 0
M  V30 33 H 5.568673 -2.784207 1.505795 0
M  V30 34 H 7.016493 -2.157489 -0.346712 0
M  V30 35 H 6.013888 -0.825947 -2.233505 0
M  V30 36 H 3.693089 -0.201929 -2.188131 0
M  V30 37 H 1.512580 -0.572373 -1.408507 0
M  V30 38 H 1.193024 -1.552211 0.018041 0
M  V30 39 H 2.521366 0.703818 0.935871 0
M  V30 40 H 0.181716 -0.828274 1.352946 0
M  V30 41 H 1.207765 0.033850 2.505473 0
M  V30 42 H 0.080713 2.188240 1.945423 0
M  V30 43 H -0.830929 0.938476 2.773388 0
M  V30 44 H -5.271571 0.921809 -0.538036 0
M  V30 45 H -6.448955 -0.922542 -1.510929 0
M  V30 46 H -5.816764 -3.214548 -0.970069 0
M  V30 47 H -4.433154 -4.761980 0.203956 0
M  V30 48 H -1.394241 -3.292770 2.761325 0
M  V30 49 H -2.037554 -1.049690 2.209175 0
M  V30 50 H -2.085028 2.099764 -0.934565 0
M  V30 51 H -0.921363 3.082174 -0.038525 0
M  V30 52 H -0.138438 0.562291 -1.589476 0
M  V30 53 H 0.158494 2.260999 -1.973677 0
M  V30 54 H 2.139936 1.761794 -1.000196 0
M  V30 55 H 1.274673 2.522025 0.327724 0
M  V30 END ATOM
M  V30 BEGIN BOND
M  V30 1 1 1 2
M  V30 2 1 2 3
M  V30 3 1 2 4
M  V30 4 2 4 5
M  V30 5 1 5 6
M  V30 6 2 6 7
M  V30 7 1 7 8
M  V30 8 2 8 9
M  V30 9 1 9 10
M  V30 10 1 10 11
M  V30 11 1 11 12
M  V30 12 1 12 13
M  V30 13 1 13 14
M  V30 14 1 14 15
M  V30 15 2 15 16
M  V30 16 2 15 17
M  V30 17 1 15 18
M  V30 18 2 18 19
M  V30 19 1 19 20
M  V30 20 2 20 21
M  V30 21 1 21 22
M  V30 22 2 22 23
M  V30 23 1 23 24
M  V30 24 2 24 25
M  V30 25 1 25 26
M  V30 26 2 26 27
M  V30 27 1 14 28
M  V30 28 1 28 29
M  V30 29 1 29 30
M  V30 30 1 9 4
M  V30 31 1 30 11
M  V30 32 1 27 18
M  V30 33 1 27 22
M  V30 34 1 1 31
M  V30 35 1 3 32
M  V30 36 1 5 33
M  V30 37 1 6 34
M  V30 38 1 7 35
M  V30 39 1 8 36
M  V30 40 1 10 37
M  V30 41 1 10 38
M  V30 42 1 11 39 CFG=1
M  V30 43 1 12 40
M  V30 44 1 12 41
M  V30 45 1 13 42
M  V30 46 1 13 43
M  V30 47 1 19 44
M  V30 48 1 20 45
M  V30 49 1 21 46
M  V30 50 1 23 47
M  V30 51 1 25 48
M  V30 52 1 26 49
M  V30 53 1 28 50
M  V30 54 1 28 51
M  V30 55 1 29 52
M  V30 56 1 29 53
M  V30 57 1 30 54
M  V30 58 1 30 55
M  V30 END BOND
M  V30 END CTAB
M  END
>  <Dataset>  (76) 
PDB

>  <Ligand_Instance>  (76) 
5O5M_9LQ_A_401

>  <PDB_ID>  (76) 
5O5M

>  <Standardized_SMILES>  (76) 
[H]OB(O[H])C1=C([H])C([H])=C([H])C([H])=C1C([H])([H])[N@+]1([H])C([H])([H])C([H])([H])N(S(=O)(=O)C2=C([H])C([H])=C([H])C3=C([H])N=C([H])C([H])=C32)C([H])([H])C([H])([H])C1([H])[H]

>  <Name>  (76) 
[2-[(4-isoquinolin-5-ylsulfonyl-1,4-diazepan-1-yl)methyl]phenyl]boronic acid

>  <Pocket>  (76) 
A

>  <ATP_Site>  (76) 
1.0

>  <Peripheral>  (76) 
0.0

>  <Num_H_Atoms_ProtBoundConf>  (76) 
25.0

>  <Num_Resolved_Atoms>  (76) 
30.0

>  <Num_Not_Resolved_Atoms>  (76) 
0.0

$$$$
9LQ
     RDKit          3D

  0  0  0  0  0  0  0  0  0  0999 V3000
M  V30 BEGIN CTAB
M  V30 COUNTS 55 58 0 0 0
M  V30 BEGIN ATOM
M  V30 1 O 1.985844 -3.395984 1.835417 0
M  V30 2 B 2.953750 -2.290878 1.913970 0
M  V30 3 O 3.218963 -1.735243 3.253659 0
M  V30 4 C 3.847222 -1.874605 0.737575 0
M  V30 5 C 5.179705 -2.203416 0.658629 0
M  V30 6 C 5.985740 -1.837979 -0.402310 0
M  V30 7 C 5.388137 -1.105270 -1.417785 0
M  V30 8 C 4.049750 -0.776338 -1.335874 0
M  V30 9 C 3.240070 -1.150691 -0.256704 0
M  V30 10 C 1.826723 -0.691596 -0.349226 0
M  V30 11 N 1.591065 0.457414 0.476437 0 CFG=2 CHG=1 VAL=4
M  V30 12 C 0.675231 0.145174 1.512282 0
M  V30 13 C -0.393326 1.176037 1.774064 0
M  V30 14 N -1.419238 1.279666 0.833438 0
M  V30 15 S -3.022815 1.155117 1.297549 0
M  V30 16 O -3.714034 2.376312 0.702097 0
M  V30 17 O -3.254551 1.325639 2.774682 0
M  V30 18 C -3.860460 -0.217267 0.647268 0
M  V30 19 C -4.933229 -0.071032 -0.249483 0
M  V30 20 C -5.635792 -1.084711 -0.830573 0
M  V30 21 C -5.290745 -2.384233 -0.535205 0
M  V30 22 C -4.250930 -2.614898 0.335383 0
M  V30 23 C -3.903442 -3.912003 0.643400 0
M  V30 24 N -2.883748 -4.147554 1.508955 0
M  V30 25 C -2.200205 -3.114859 2.076837 0
M  V30 26 C -2.576933 -1.852813 1.744144 0
M  V30 27 C -3.597270 -1.532968 0.875683 0
M  V30 28 C -1.150833 2.040485 -0.342721 0
M  V30 29 C 0.035234 1.527426 -1.124164 0
M  V30 30 C 1.263826 1.633357 -0.298045 0
M  V30 31 H 1.091136 -2.985435 1.946322 0
M  V30 32 H 2.515824 -1.989074 3.894756 0
M  V30 33 H 5.568673 -2.784207 1.505795 0
M  V30 34 H 7.016493 -2.157489 -0.346712 0
M  V30 35 H 6.013888 -0.825947 -2.233505 0
M  V30 36 H 3.693089 -0.201929 -2.188131 0
M  V30 37 H 1.512580 -0.572373 -1.408507 0
M  V30 38 H 1.193024 -1.552211 0.018041 0
M  V30 39 H 2.521366 0.703818 0.935871 0
M  V30 40 H 0.181716 -0.828274 1.352946 0
M  V30 41 H 1.207765 0.033850 2.505473 0
M  V30 42 H 0.080713 2.188240 1.945423 0
M  V30 43 H -0.830929 0.938476 2.773388 0
M  V30 44 H -5.271571 0.921809 -0.538036 0
M  V30 45 H -6.448955 -0.922542 -1.510929 0
M  V30 46 H -5.816764 -3.214548 -0.970069 0
M  V30 47 H -4.433154 -4.761980 0.203956 0
M  V30 48 H -1.394241 -3.292770 2.761325 0
M  V30 49 H -2.037554 -1.049690 2.209175 0
M  V30 50 H -2.085028 2.099764 -0.934565 0
M  V30 51 H -0.921363 3.082174 -0.038525 0
M  V30 52 H -0.138438 0.562291 -1.589476 0
M  V30 53 H 0.158494 2.260999 -1.973677 0
M  V30 54 H 2.139936 1.761794 -1.000196 0
M  V30 55 H 1.274673 2.522025 0.327724 0
M  V30 END ATOM
M  V30 BEGIN BOND
M  V30 1 1 1 2
M  V30 2 1 2 3
M  V30 3 1 2 4
M  V30 4 2 4 5
M  V30 5 1 5 6
M  V30 6 2 6 7
M  V30 7 1 7 8
M  V30 8 2 8 9
M  V30 9 1 9 10
M  V30 10 1 10 11
M  V30 11 1 11 12
M  V30 12 1 12 13
M  V30 13 1 13 14
M  V30 14 1 14 15
M  V30 15 2 15 16
M  V30 16 2 15 17
M  V30 17 1 15 18
M  V30 18 2 18 19
M  V30 19 1 19 20
M  V30 20 2 20 21
M  V30 21 1 21 22
M  V30 22 2 22 23
M  V30 23 1 23 24
M  V30 24 2 24 25
M  V30 25 1 25 26
M  V30 26 2 26 27
M  V30 27 1 14 28
M  V30 28 1 28 29
M  V30 29 1 29 30
M  V30 30 1 9 4
M  V30 31 1 30 11
M  V30 32 1 27 18
M  V30 33 1 27 22
M  V30 34 1 1 31
M  V30 35 1 3 32
M  V30 36 1 5 33
M  V30 37 1 6 34
M  V30 38 1 7 35
M  V30 39 1 8 36
M  V30 40 1 10 37
M  V30 41 1 10 38
M  V30 42 1 11 39 CFG=1
M  V30 43 1 12 40
M  V30 44 1 12 41
M  V30 45 1 13 42
M  V30 46 1 13 43
M  V30 47 1 19 44
M  V30 48 1 20 45
M  V30 49 1 21 46
M  V30 50 1 23 47
M  V30 51 1 25 48
M  V30 52 1 26 49
M  V30 53 1 28 50
M  V30 54 1 28 51
M  V30 55 1 29 52
M  V30 56 1 29 53
M  V30 57 1 30 54
M  V30 58 1 30 55
M  V30 END BOND
M  V30 END CTAB
M  END
>  <Dataset>  (77) 
PDB

>  <Ligand_Instance>  (77) 
5OL3_9LQ_A_401

>  <PDB_ID>  (77) 
5OL3

>  <Standardized_SMILES>  (77) 
[H]OB(O[H])C1=C([H])C([H])=C([H])C([H])=C1C([H])([H])[N@+]1([H])C([H])([H])C([H])([H])N(S(=O)(=O)C2=C([H])C([H])=C([H])C3=C([H])N=C([H])C([H])=C32)C([H])([H])C([H])([H])C1([H])[H]

>  <Name>  (77) 
[2-[(4-isoquinolin-5-ylsulfonyl-1,4-diazepan-1-yl)methyl]phenyl]boronic acid

>  <Pocket>  (77) 
A

>  <ATP_Site>  (77) 
1.0

>  <Peripheral>  (77) 
0.0

>  <Num_H_Atoms_ProtBoundConf>  (77) 
25.0

>  <Num_Resolved_Atoms>  (77) 
30.0

>  <Num_Not_Resolved_Atoms>  (77) 
0.0

$$$$
9LQ
     RDKit          3D

  0  0  0  0  0  0  0  0  0  0999 V3000
M  V30 BEGIN CTAB
M  V30 COUNTS 55 58 0 0 0
M  V30 BEGIN ATOM
M  V30 1 O 1.775789 -0.990101 3.302848 0
M  V30 2 B 2.790967 -1.697749 2.494314 0
M  V30 3 O 2.647005 -3.135305 2.286149 0
M  V30 4 C 3.852886 -0.825626 1.791734 0
M  V30 5 C 4.768488 -0.164346 2.594649 0
M  V30 6 C 5.742784 0.632144 2.010225 0
M  V30 7 C 5.809677 0.773544 0.625499 0
M  V30 8 C 4.892110 0.109813 -0.163721 0
M  V30 9 C 3.913256 -0.690206 0.420353 0
M  V30 10 C 2.954648 -1.379919 -0.448756 0
M  V30 11 N 1.644329 -0.795816 -0.494557 0 CFG=1 CHG=1 VAL=4
M  V30 12 C 1.583813 0.571716 -0.045193 0
M  V30 13 C 0.133838 0.992239 -0.009868 0
M  V30 14 N -0.631054 -0.142027 0.502409 0
M  V30 15 S -1.857599 0.382235 1.579984 0
M  V30 16 O -1.682221 1.869537 1.791482 0
M  V30 17 O -1.609226 -0.228071 2.955607 0
M  V30 18 C -3.444528 0.058688 1.014823 0
M  V30 19 C -4.247494 1.118229 0.577598 0
M  V30 20 C -5.504404 0.953753 0.071170 0
M  V30 21 C -6.064063 -0.309540 -0.037706 0
M  V30 22 C -5.310544 -1.392913 0.382614 0
M  V30 23 C -5.774661 -2.677473 0.336781 0
M  V30 24 N -5.063490 -3.748111 0.760490 0
M  V30 25 C -3.810719 -3.574078 1.267559 0
M  V30 26 C -3.365744 -2.269625 1.302311 0
M  V30 27 C -4.058971 -1.152522 0.879404 0
M  V30 28 C -1.103114 -0.973041 -0.564596 0
M  V30 29 C -0.384939 -0.793838 -1.879146 0
M  V30 30 C 1.093289 -0.867932 -1.826595 0
M  V30 31 H 1.554610 -1.475557 4.135916 0
M  V30 32 H 1.785889 -3.449724 2.655674 0
M  V30 33 H 4.823891 -0.189968 3.662393 0
M  V30 34 H 6.523923 1.209888 2.491937 0
M  V30 35 H 6.532036 1.370470 0.093301 0
M  V30 36 H 4.904884 0.189391 -1.242566 0
M  V30 37 H 3.336192 -1.428771 -1.505583 0
M  V30 38 H 2.901285 -2.460769 -0.135020 0
M  V30 39 H 1.018413 -1.382608 0.118142 0
M  V30 40 H 2.137397 1.213727 -0.765459 0
M  V30 41 H 1.981898 0.745890 0.957324 0
M  V30 42 H -0.176978 1.340296 -0.992991 0
M  V30 43 H 0.014174 1.869320 0.680416 0
M  V30 44 H -3.924677 2.151870 0.611035 0
M  V30 45 H -6.129614 1.766389 -0.268298 0
M  V30 46 H -7.044381 -0.454688 -0.431655 0
M  V30 47 H -6.762917 -2.869530 -0.056757 0
M  V30 48 H -3.202037 -4.394765 1.619693 0
M  V30 49 H -2.370196 -2.147353 1.715622 0
M  V30 50 H -1.024836 -2.036939 -0.281309 0
M  V30 51 H -2.158887 -0.711651 -0.769700 0
M  V30 52 H -0.737206 -1.673031 -2.505885 0
M  V30 53 H -0.775136 0.080963 -2.439391 0
M  V30 54 H 1.490700 -1.811644 -2.269789 0
M  V30 55 H 1.556543 -0.045800 -2.447664 0
M  V30 END ATOM
M  V30 BEGIN BOND
M  V30 1 1 1 2
M  V30 2 1 2 3
M  V30 3 1 2 4
M  V30 4 2 4 5
M  V30 5 1 5 6
M  V30 6 2 6 7
M  V30 7 1 7 8
M  V30 8 2 8 9
M  V30 9 1 9 10
M  V30 10 1 10 11
M  V30 11 1 11 12
M  V30 12 1 12 13
M  V30 13 1 13 14
M  V30 14 1 14 15
M  V30 15 2 15 16
M  V30 16 2 15 17
M  V30 17 1 15 18
M  V30 18 2 18 19
M  V30 19 1 19 20
M  V30 20 2 20 21
M  V30 21 1 21 22
M  V30 22 2 22 23
M  V30 23 1 23 24
M  V30 24 2 24 25
M  V30 25 1 25 26
M  V30 26 2 26 27
M  V30 27 1 14 28
M  V30 28 1 28 29
M  V30 29 1 29 30
M  V30 30 1 9 4
M  V30 31 1 30 11
M  V30 32 1 27 18
M  V30 33 1 27 22
M  V30 34 1 1 31
M  V30 35 1 3 32
M  V30 36 1 5 33
M  V30 37 1 6 34
M  V30 38 1 7 35
M  V30 39 1 8 36
M  V30 40 1 10 37
M  V30 41 1 10 38
M  V30 42 1 11 39 CFG=1
M  V30 43 1 12 40
M  V30 44 1 12 41
M  V30 45 1 13 42
M  V30 46 1 13 43
M  V30 47 1 19 44
M  V30 48 1 20 45
M  V30 49 1 21 46
M  V30 50 1 23 47
M  V30 51 1 25 48
M  V30 52 1 26 49
M  V30 53 1 28 50
M  V30 54 1 28 51
M  V30 55 1 29 52
M  V30 56 1 29 53
M  V30 57 1 30 54
M  V30 58 1 30 55
M  V30 END BOND
M  V30 END CTAB
M  END
>  <Dataset>  (78) 
PDB

>  <Ligand_Instance>  (78) 
5OT3_9LQ_A_401

>  <PDB_ID>  (78) 
5OT3

>  <Standardized_SMILES>  (78) 
[H]OB(O[H])C1=C([H])C([H])=C([H])C([H])=C1C([H])([H])[N@@+]1([H])C([H])([H])C([H])([H])N(S(=O)(=O)C2=C([H])C([H])=C([H])C3=C([H])N=C([H])C([H])=C32)C([H])([H])C([H])([H])C1([H])[H]

>  <Name>  (78) 
[2-[(4-isoquinolin-5-ylsulfonyl-1,4-diazepan-1-yl)methyl]phenyl]boronic acid

>  <Pocket>  (78) 
A

>  <ATP_Site>  (78) 
1.0

>  <Peripheral>  (78) 
0.0

>  <Num_H_Atoms_ProtBoundConf>  (78) 
25.0

>  <Num_Resolved_Atoms>  (78) 
30.0

>  <Num_Not_Resolved_Atoms>  (78) 
0.0

$$$$
9LQ
     RDKit          3D

  0  0  0  0  0  0  0  0  0  0999 V3000
M  V30 BEGIN CTAB
M  V30 COUNTS 55 58 0 0 0
M  V30 BEGIN ATOM
M  V30 1 O 1.985844 -3.395984 1.835417 0
M  V30 2 B 2.953750 -2.290878 1.913970 0
M  V30 3 O 3.218963 -1.735243 3.253659 0
M  V30 4 C 3.847222 -1.874605 0.737575 0
M  V30 5 C 5.179705 -2.203416 0.658629 0
M  V30 6 C 5.985740 -1.837979 -0.402310 0
M  V30 7 C 5.388137 -1.105270 -1.417785 0
M  V30 8 C 4.049750 -0.776338 -1.335874 0
M  V30 9 C 3.240070 -1.150691 -0.256704 0
M  V30 10 C 1.826723 -0.691596 -0.349226 0
M  V30 11 N 1.591065 0.457414 0.476437 0 CFG=2 CHG=1 VAL=4
M  V30 12 C 0.675231 0.145174 1.512282 0
M  V30 13 C -0.393326 1.176037 1.774064 0
M  V30 14 N -1.419238 1.279666 0.833438 0
M  V30 15 S -3.022815 1.155117 1.297549 0
M  V30 16 O -3.714034 2.376312 0.702097 0
M  V30 17 O -3.254551 1.325639 2.774682 0
M  V30 18 C -3.860460 -0.217267 0.647268 0
M  V30 19 C -4.933229 -0.071032 -0.249483 0
M  V30 20 C -5.635792 -1.084711 -0.830573 0
M  V30 21 C -5.290745 -2.384233 -0.535205 0
M  V30 22 C -4.250930 -2.614898 0.335383 0
M  V30 23 C -3.903442 -3.912003 0.643400 0
M  V30 24 N -2.883748 -4.147554 1.508955 0
M  V30 25 C -2.200205 -3.114859 2.076837 0
M  V30 26 C -2.576933 -1.852813 1.744144 0
M  V30 27 C -3.597270 -1.532968 0.875683 0
M  V30 28 C -1.150833 2.040485 -0.342721 0
M  V30 29 C 0.035234 1.527426 -1.124164 0
M  V30 30 C 1.263826 1.633357 -0.298045 0
M  V30 31 H 1.091136 -2.985435 1.946322 0
M  V30 32 H 2.515824 -1.989074 3.894756 0
M  V30 33 H 5.568673 -2.784207 1.505795 0
M  V30 34 H 7.016493 -2.157489 -0.346712 0
M  V30 35 H 6.013888 -0.825947 -2.233505 0
M  V30 36 H 3.693089 -0.201929 -2.188131 0
M  V30 37 H 1.512580 -0.572373 -1.408507 0
M  V30 38 H 1.193024 -1.552211 0.018041 0
M  V30 39 H 2.521366 0.703818 0.935871 0
M  V30 40 H 0.181716 -0.828274 1.352946 0
M  V30 41 H 1.207765 0.033850 2.505473 0
M  V30 42 H 0.080713 2.188240 1.945423 0
M  V30 43 H -0.830929 0.938476 2.773388 0
M  V30 44 H -5.271571 0.921809 -0.538036 0
M  V30 45 H -6.448955 -0.922542 -1.510929 0
M  V30 46 H -5.816764 -3.214548 -0.970069 0
M  V30 47 H -4.433154 -4.761980 0.203956 0
M  V30 48 H -1.394241 -3.292770 2.761325 0
M  V30 49 H -2.037554 -1.049690 2.209175 0
M  V30 50 H -2.085028 2.099764 -0.934565 0
M  V30 51 H -0.921363 3.082174 -0.038525 0
M  V30 52 H -0.138438 0.562291 -1.589476 0
M  V30 53 H 0.158494 2.260999 -1.973677 0
M  V30 54 H 2.139936 1.761794 -1.000196 0
M  V30 55 H 1.274673 2.522025 0.327724 0
M  V30 END ATOM
M  V30 BEGIN BOND
M  V30 1 1 1 2
M  V30 2 1 2 3
M  V30 3 1 2 4
M  V30 4 2 4 5
M  V30 5 1 5 6
M  V30 6 2 6 7
M  V30 7 1 7 8
M  V30 8 2 8 9
M  V30 9 1 9 10
M  V30 10 1 10 11
M  V30 11 1 11 12
M  V30 12 1 12 13
M  V30 13 1 13 14
M  V30 14 1 14 15
M  V30 15 2 15 16
M  V30 16 2 15 17
M  V30 17 1 15 18
M  V30 18 2 18 19
M  V30 19 1 19 20
M  V30 20 2 20 21
M  V30 21 1 21 22
M  V30 22 2 22 23
M  V30 23 1 23 24
M  V30 24 2 24 25
M  V30 25 1 25 26
M  V30 26 2 26 27
M  V30 27 1 14 28
M  V30 28 1 28 29
M  V30 29 1 29 30
M  V30 30 1 9 4
M  V30 31 1 30 11
M  V30 32 1 27 18
M  V30 33 1 27 22
M  V30 34 1 1 31
M  V30 35 1 3 32
M  V30 36 1 5 33
M  V30 37 1 6 34
M  V30 38 1 7 35
M  V30 39 1 8 36
M  V30 40 1 10 37
M  V30 41 1 10 38
M  V30 42 1 11 39 CFG=1
M  V30 43 1 12 40
M  V30 44 1 12 41
M  V30 45 1 13 42
M  V30 46 1 13 43
M  V30 47 1 19 44
M  V30 48 1 20 45
M  V30 49 1 21 46
M  V30 50 1 23 47
M  V30 51 1 25 48
M  V30 52 1 26 49
M  V30 53 1 28 50
M  V30 54 1 28 51
M  V30 55 1 29 52
M  V30 56 1 29 53
M  V30 57 1 30 54
M  V30 58 1 30 55
M  V30 END BOND
M  V30 END CTAB
M  END
>  <Dataset>  (79) 
PDB

>  <Ligand_Instance>  (79) 
6I2B_9LQ_A_401

>  <PDB_ID>  (79) 
6I2B

>  <Standardized_SMILES>  (79) 
[H]OB(O[H])C1=C([H])C([H])=C([H])C([H])=C1C([H])([H])[N@+]1([H])C([H])([H])C([H])([H])N(S(=O)(=O)C2=C([H])C([H])=C([H])C3=C([H])N=C([H])C([H])=C32)C([H])([H])C([H])([H])C1([H])[H]

>  <Name>  (79) 
[2-[(4-isoquinolin-5-ylsulfonyl-1,4-diazepan-1-yl)methyl]phenyl]boronic acid

>  <Pocket>  (79) 
A

>  <ATP_Site>  (79) 
1.0

>  <Peripheral>  (79) 
1.0

>  <Num_H_Atoms_ProtBoundConf>  (79) 
25.0

>  <Num_Resolved_Atoms>  (79) 
30.0

>  <Num_Not_Resolved_Atoms>  (79) 
0.0

$$$$
9LQ
     RDKit          3D

  0  0  0  0  0  0  0  0  0  0999 V3000
M  V30 BEGIN CTAB
M  V30 COUNTS 55 58 0 0 0
M  V30 BEGIN ATOM
M  V30 1 O 1.775789 -0.990101 3.302848 0
M  V30 2 B 2.790967 -1.697749 2.494314 0
M  V30 3 O 2.647005 -3.135305 2.286149 0
M  V30 4 C 3.852886 -0.825626 1.791734 0
M  V30 5 C 4.768488 -0.164346 2.594649 0
M  V30 6 C 5.742784 0.632144 2.010225 0
M  V30 7 C 5.809677 0.773544 0.625499 0
M  V30 8 C 4.892110 0.109813 -0.163721 0
M  V30 9 C 3.913256 -0.690206 0.420353 0
M  V30 10 C 2.954648 -1.379919 -0.448756 0
M  V30 11 N 1.644329 -0.795816 -0.494557 0 CFG=1 CHG=1 VAL=4
M  V30 12 C 1.583813 0.571716 -0.045193 0
M  V30 13 C 0.133838 0.992239 -0.009868 0
M  V30 14 N -0.631054 -0.142027 0.502409 0
M  V30 15 S -1.857599 0.382235 1.579984 0
M  V30 16 O -1.682221 1.869537 1.791482 0
M  V30 17 O -1.609226 -0.228071 2.955607 0
M  V30 18 C -3.444528 0.058688 1.014823 0
M  V30 19 C -4.247494 1.118229 0.577598 0
M  V30 20 C -5.504404 0.953753 0.071170 0
M  V30 21 C -6.064063 -0.309540 -0.037706 0
M  V30 22 C -5.310544 -1.392913 0.382614 0
M  V30 23 C -5.774661 -2.677473 0.336781 0
M  V30 24 N -5.063490 -3.748111 0.760490 0
M  V30 25 C -3.810719 -3.574078 1.267559 0
M  V30 26 C -3.365744 -2.269625 1.302311 0
M  V30 27 C -4.058971 -1.152522 0.879404 0
M  V30 28 C -1.103114 -0.973041 -0.564596 0
M  V30 29 C -0.384939 -0.793838 -1.879146 0
M  V30 30 C 1.093289 -0.867932 -1.826595 0
M  V30 31 H 1.554610 -1.475557 4.135916 0
M  V30 32 H 1.785889 -3.449724 2.655674 0
M  V30 33 H 4.823891 -0.189968 3.662393 0
M  V30 34 H 6.523923 1.209888 2.491937 0
M  V30 35 H 6.532036 1.370470 0.093301 0
M  V30 36 H 4.904884 0.189391 -1.242566 0
M  V30 37 H 3.336192 -1.428771 -1.505583 0
M  V30 38 H 2.901285 -2.460769 -0.135020 0
M  V30 39 H 1.018413 -1.382608 0.118142 0
M  V30 40 H 2.137397 1.213727 -0.765459 0
M  V30 41 H 1.981898 0.745890 0.957324 0
M  V30 42 H -0.176978 1.340296 -0.992991 0
M  V30 43 H 0.014174 1.869320 0.680416 0
M  V30 44 H -3.924677 2.151870 0.611035 0
M  V30 45 H -6.129614 1.766389 -0.268298 0
M  V30 46 H -7.044381 -0.454688 -0.431655 0
M  V30 47 H -6.762917 -2.869530 -0.056757 0
M  V30 48 H -3.202037 -4.394765 1.619693 0
M  V30 49 H -2.370196 -2.147353 1.715622 0
M  V30 50 H -1.024836 -2.036939 -0.281309 0
M  V30 51 H -2.158887 -0.711651 -0.769700 0
M  V30 52 H -0.737206 -1.673031 -2.505885 0
M  V30 53 H -0.775136 0.080963 -2.439391 0
M  V30 54 H 1.490700 -1.811644 -2.269789 0
M  V30 55 H 1.556543 -0.045800 -2.447664 0
M  V30 END ATOM
M  V30 BEGIN BOND
M  V30 1 1 1 2
M  V30 2 1 2 3
M  V30 3 1 2 4
M  V30 4 2 4 5
M  V30 5 1 5 6
M  V30 6 2 6 7
M  V30 7 1 7 8
M  V30 8 2 8 9
M  V30 9 1 9 10
M  V30 10 1 10 11
M  V30 11 1 11 12
M  V30 12 1 12 13
M  V30 13 1 13 14
M  V30 14 1 14 15
M  V30 15 2 15 16
M  V30 16 2 15 17
M  V30 17 1 15 18
M  V30 18 2 18 19
M  V30 19 1 19 20
M  V30 20 2 20 21
M  V30 21 1 21 22
M  V30 22 2 22 23
M  V30 23 1 23 24
M  V30 24 2 24 25
M  V30 25 1 25 26
M  V30 26 2 26 27
M  V30 27 1 14 28
M  V30 28 1 28 29
M  V30 29 1 29 30
M  V30 30 1 9 4
M  V30 31 1 30 11
M  V30 32 1 27 18
M  V30 33 1 27 22
M  V30 34 1 1 31
M  V30 35 1 3 32
M  V30 36 1 5 33
M  V30 37 1 6 34
M  V30 38 1 7 35
M  V30 39 1 8 36
M  V30 40 1 10 37
M  V30 41 1 10 38
M  V30 42 1 11 39 CFG=1
M  V30 43 1 12 40
M  V30 44 1 12 41
M  V30 45 1 13 42
M  V30 46 1 13 43
M  V30 47 1 19 44
M  V30 48 1 20 45
M  V30 49 1 21 46
M  V30 50 1 23 47
M  V30 51 1 25 48
M  V30 52 1 26 49
M  V30 53 1 28 50
M  V30 54 1 28 51
M  V30 55 1 29 52
M  V30 56 1 29 53
M  V30 57 1 30 54
M  V30 58 1 30 55
M  V30 END BOND
M  V30 END CTAB
M  END
>  <Dataset>  (80) 
PDB

>  <Ligand_Instance>  (80) 
6I2D_9LQ_A_401

>  <PDB_ID>  (80) 
6I2D

>  <Standardized_SMILES>  (80) 
[H]OB(O[H])C1=C([H])C([H])=C([H])C([H])=C1C([H])([H])[N@@+]1([H])C([H])([H])C([H])([H])N(S(=O)(=O)C2=C([H])C([H])=C([H])C3=C([H])N=C([H])C([H])=C32)C([H])([H])C([H])([H])C1([H])[H]

>  <Name>  (80) 
[2-[(4-isoquinolin-5-ylsulfonyl-1,4-diazepan-1-yl)methyl]phenyl]boronic acid

>  <Pocket>  (80) 
A

>  <ATP_Site>  (80) 
1.0

>  <Peripheral>  (80) 
0.0

>  <Num_H_Atoms_ProtBoundConf>  (80) 
25.0

>  <Num_Resolved_Atoms>  (80) 
30.0

>  <Num_Not_Resolved_Atoms>  (80) 
0.0

$$$$
9NT
     RDKit          3D

  0  0  0  0  0  0  0  0  0  0999 V3000
M  V30 BEGIN CTAB
M  V30 COUNTS 28 29 0 0 0
M  V30 BEGIN ATOM
M  V30 1 C 1.474431 -1.024282 3.604469 0
M  V30 2 C 1.792170 -2.330083 3.333791 0
M  V30 3 O 2.417072 -3.373595 4.014303 0
M  V30 4 C 2.036155 -4.615549 3.402446 0
M  V30 5 O 1.860963 -4.144495 2.056857 0
M  V30 6 C 1.441626 -2.822234 2.094920 0
M  V30 7 C 0.798806 -2.049529 1.155708 0
M  V30 8 C 0.470430 -0.737437 1.405720 0
M  V30 9 N -0.190225 -0.007863 0.389555 0
M  V30 10 C -0.634265 1.336539 0.387049 0
M  V30 11 O -0.445980 2.040816 1.403487 0
M  V30 12 C -1.320340 1.991650 -0.749929 0
M  V30 13 N -1.507077 1.133880 -1.884901 0 CHG=1 VAL=4
M  V30 14 C -0.254610 0.949277 -2.604990 0
M  V30 15 C 0.830756 -0.272079 2.646904 0
M  V30 16 H 1.736159 -0.610639 4.566165 0
M  V30 17 H 2.834784 -5.355833 3.460202 0
M  V30 18 H 1.069535 -4.911577 3.826305 0
M  V30 19 H 0.552286 -2.498106 0.202927 0
M  V30 20 H -0.411576 -0.474265 -0.517307 0
M  V30 21 H -0.815749 2.920644 -1.078587 0
M  V30 22 H -2.330262 2.304791 -0.402978 0
M  V30 23 H -1.963221 0.237753 -1.638909 0
M  V30 24 H -2.143020 1.647876 -2.542208 0
M  V30 25 H -0.099280 -0.110717 -2.869033 0
M  V30 26 H -0.215889 1.560855 -3.545129 0
M  V30 27 H 0.607644 1.232638 -1.933846 0
M  V30 28 H 0.614281 0.728579 2.919619 0
M  V30 END ATOM
M  V30 BEGIN BOND
M  V30 1 2 1 2
M  V30 2 1 2 3
M  V30 3 1 3 4
M  V30 4 1 4 5
M  V30 5 1 5 6
M  V30 6 2 6 7
M  V30 7 1 7 8
M  V30 8 1 8 9
M  V30 9 1 9 10
M  V30 10 2 10 11
M  V30 11 1 10 12
M  V30 12 1 12 13
M  V30 13 1 13 14
M  V30 14 2 8 15
M  V30 15 1 15 1
M  V30 16 1 6 2
M  V30 17 1 1 16
M  V30 18 1 4 17
M  V30 19 1 4 18
M  V30 20 1 7 19
M  V30 21 1 9 20
M  V30 22 1 12 21
M  V30 23 1 12 22
M  V30 24 1 13 23
M  V30 25 1 13 24
M  V30 26 1 14 25
M  V30 27 1 14 26
M  V30 28 1 14 27
M  V30 29 1 15 28
M  V30 END BOND
M  V30 END CTAB
M  END
>  <Dataset>  (81) 
PDB

>  <Ligand_Instance>  (81) 
5N1E_9NT_A_402

>  <PDB_ID>  (81) 
5N1E

>  <Standardized_SMILES>  (81) 
[H]C1=C2OC([H])([H])OC2=C([H])C(N([H])C(=O)C([H])([H])[N+]([H])([H])C([H])([H])[H])=C1[H]

>  <Name>  (81) 
~{N}-(1,3-benzodioxol-5-yl)-2-piperidin-1-ium-1-yl-ethanamide

>  <Pocket>  (81) 
A

>  <ATP_Site>  (81) 
1.0

>  <Peripheral>  (81) 
0.0

>  <Num_H_Atoms_ProtBoundConf>  (81) 
13.0

>  <Num_Resolved_Atoms>  (81) 
15.0

>  <Num_Not_Resolved_Atoms>  (81) 
4.0

$$$$
A02
     RDKit          3D

  0  0  0  0  0  0  0  0  0  0999 V3000
M  V30 BEGIN CTAB
M  V30 COUNTS 140 142 0 0 0
M  V30 BEGIN ATOM
M  V30 1 O 2.601672 0.332111 -5.985830 0
M  V30 2 C 2.819463 1.407865 -5.116333 0 CFG=1
M  V30 3 C 4.287722 1.329357 -4.733083 0 CFG=1
M  V30 4 O 5.002315 0.569867 -5.656892 0
M  V30 5 C 4.703363 2.783934 -4.777380 0 CFG=2
M  V30 6 N 4.955360 3.240340 -3.426887 0
M  V30 7 C 5.835856 2.577171 -2.691100 0
M  V30 8 N 6.025557 3.051799 -1.426999 0
M  V30 9 C 5.166192 4.122398 -1.376503 0
M  V30 10 C 4.525181 4.214034 -2.614285 0
M  V30 11 N 3.595376 5.153825 -2.948852 0
M  V30 12 C 3.262339 6.061720 -2.042557 0
M  V30 13 N 3.841307 6.021234 -0.847993 0
M  V30 14 C 4.755899 5.100242 -0.506012 0
M  V30 15 N 5.364569 5.082793 0.759489 0
M  V30 16 O 3.687648 3.540844 -5.324179 0
M  V30 17 C 2.769895 2.703836 -5.889765 0 CFG=2
M  V30 18 C 1.446052 3.315414 -6.017531 0
M  V30 19 O 0.984408 4.482488 -5.797026 0
M  V30 20 N 0.399426 2.449984 -6.494048 0
M  V30 21 C -1.014957 2.649015 -6.779495 0
M  V30 22 C -1.663309 1.331980 -7.189893 0
M  V30 23 C -1.583017 0.432010 -5.957435 0
M  V30 24 C -2.063397 -0.956632 -6.189305 0
M  V30 25 C -2.047824 -1.849726 -4.982810 0
M  V30 26 C -0.670219 -1.976954 -4.467634 0
M  V30 27 O 0.110776 -1.484727 -5.334049 0
M  V30 28 N -0.119616 -2.507008 -3.260761 0
M  V30 29 C 1.348858 -2.368100 -3.170469 0 CFG=1
M  V30 30 C 1.569381 -1.300489 -2.174262 0
M  V30 31 O 0.312119 -1.573607 -2.009690 0
M  V30 32 N 2.205020 -0.304750 -1.394692 0
M  V30 33 C 1.259353 0.260327 -0.463048 0
M  V30 34 C 1.877245 1.394869 0.328856 0
M  V30 35 C 0.918097 1.969997 1.333764 0
M  V30 36 C 0.563501 1.016587 2.460345 0
M  V30 37 C -0.440886 1.643359 3.382279 0
M  V30 38 C -0.795667 0.841188 4.563128 0
M  V30 39 O 0.248987 0.165911 4.705331 0
M  V30 40 N -2.038631 0.900066 5.284362 0
M  V30 41 C -2.320006 0.110706 6.475182 0 CFG=1
M  V30 42 C -3.722430 -0.399180 6.391231 0
M  V30 43 O -4.281897 -1.231563 7.142767 0
M  V30 44 N -4.635225 0.026119 5.357945 0
M  V30 45 C -5.976210 -0.198122 4.801347 0 CFG=1
M  V30 46 C -6.859892 0.894333 5.343011 0
M  V30 47 O -7.815152 1.646004 5.627387 0
M  V30 48 N -6.198056 1.871540 6.192992 0
M  V30 49 C -5.821953 0.101766 3.276414 0
M  V30 50 C -4.679465 -0.725461 2.805205 0
M  V30 51 C -4.195667 -0.489977 1.370046 0
M  V30 52 N -2.908306 -1.248637 1.374840 0
M  V30 53 C -2.785238 -2.645967 1.337286 0
M  V30 54 N -1.348706 -2.838683 1.397051 0
M  V30 55 N -3.624872 -3.598084 1.268981 0 CHG=1 VAL=4
M  V30 56 C -1.473376 -1.188220 6.494835 0
M  V30 57 C -1.861039 -2.124322 5.393178 0
M  V30 58 C -0.982554 -3.375786 5.410971 0
M  V30 59 N -1.494757 -4.358727 4.470633 0
M  V30 60 C -1.113682 -5.638839 4.000448 0
M  V30 61 N -1.973218 -6.278295 3.005111 0
M  V30 62 N 0.044139 -5.880368 4.676877 0 CHG=1 VAL=4
M  V30 63 C 1.867444 -3.715976 -2.757314 0
M  V30 64 C 1.283670 -4.152581 -1.426515 0
M  V30 65 C 1.798222 -5.497631 -1.038220 0
M  V30 66 C 1.236727 -5.959511 0.295679 0
M  V30 67 N 1.749353 -7.279124 0.664097 0 CHG=1 VAL=4
M  V30 68 H 2.895669 -0.525051 -5.604052 0
M  V30 69 H 2.124049 1.332840 -4.286442 0
M  V30 70 H 4.486332 0.937115 -3.744125 0
M  V30 71 H 5.098016 -0.364080 -5.364026 0
M  V30 72 H 5.662103 2.838555 -5.336300 0
M  V30 73 H 6.460516 1.702094 -2.901542 0
M  V30 74 H 2.548562 6.860694 -2.165105 0
M  V30 75 H 5.876344 5.531336 1.534260 0
M  V30 76 H 5.329647 4.147111 1.264383 0
M  V30 77 H 3.095514 2.472891 -6.960935 0
M  V30 78 H 0.708378 1.458169 -6.697105 0
M  V30 79 H -1.106358 3.392291 -7.587325 0
M  V30 80 H -1.523126 2.982548 -5.854825 0
M  V30 81 H -1.201547 0.869786 -8.062546 0
M  V30 82 H -2.729778 1.541219 -7.369883 0
M  V30 83 H -0.588131 0.495460 -5.550798 0
M  V30 84 H -2.249335 0.939341 -5.191566 0
M  V30 85 H -1.517737 -1.430796 -7.056081 0
M  V30 86 H -3.121352 -0.869521 -6.570511 0
M  V30 87 H -2.464399 -2.838114 -5.289083 0
M  V30 88 H -2.703114 -1.398622 -4.205488 0
M  V30 89 H -0.878025 -2.894184 -2.673508 0
M  V30 90 H 1.791651 -2.014685 -4.106529 0
M  V30 91 H 3.117920 -0.456434 -1.898237 0
M  V30 92 H 0.352262 0.632821 -1.021581 0
M  V30 93 H 0.909887 -0.489793 0.256484 0
M  V30 94 H 2.846997 1.109097 0.759948 0
M  V30 95 H 2.091092 2.192729 -0.411849 0
M  V30 96 H -0.027165 2.190341 0.729755 0
M  V30 97 H 1.218018 2.935152 1.744368 0
M  V30 98 H 0.124669 0.120637 2.020046 0
M  V30 99 H 1.481924 0.851748 3.024879 0
M  V30 100 H -1.352992 1.902496 2.769612 0
M  V30 101 H -0.049126 2.658388 3.707593 0
M  V30 102 H -2.559683 1.611792 4.748189 0
M  V30 103 H -2.107262 0.671999 7.358012 0
M  V30 104 H -4.223077 0.793866 4.804062 0
M  V30 105 H -6.343764 -1.149991 5.064847 0
M  V30 106 H -5.630658 2.739465 6.430435 0
M  V30 107 H -5.624820 2.752337 6.340422 0
M  V30 108 H -6.761357 -0.178808 2.800613 0
M  V30 109 H -5.651206 1.169189 3.183909 0
M  V30 110 H -3.810119 -0.648407 3.485425 0
M  V30 111 H -5.008652 -1.811094 2.784542 0
M  V30 112 H -4.864868 -0.960708 0.628365 0
M  V30 113 H -4.060236 0.547020 1.195624 0
M  V30 114 H -2.143615 -0.529061 1.413871 0
M  V30 115 H -0.641554 -3.290003 2.051017 0
M  V30 116 H -0.633732 -2.532523 0.714257 0
M  V30 117 H -3.041005 -4.380541 1.298125 0
M  V30 118 H -4.628922 -3.927028 1.126396 0
M  V30 119 H -0.409306 -0.985390 6.567364 0
M  V30 120 H -1.763308 -1.657100 7.469244 0
M  V30 121 H -2.900696 -2.520437 5.518389 0
M  V30 122 H -1.808564 -1.596401 4.432053 0
M  V30 123 H -0.813440 -3.752693 6.421675 0
M  V30 124 H 0.011720 -3.038506 4.989869 0
M  V30 125 H -2.405340 -4.018435 4.018023 0
M  V30 126 H -1.102398 -6.055878 2.447005 0
M  V30 127 H -1.125619 -6.084265 2.382645 0
M  V30 128 H 0.081014 -6.795551 4.181246 0
M  V30 129 H 0.203934 -6.818377 4.264352 0
M  V30 130 H 2.982150 -3.737373 -2.727842 0
M  V30 131 H 1.541683 -4.453090 -3.511059 0
M  V30 132 H 0.189870 -4.240008 -1.570371 0
M  V30 133 H 1.437346 -3.385545 -0.641779 0
M  V30 134 H 2.907552 -5.530526 -0.958740 0
M  V30 135 H 1.532187 -6.289869 -1.764905 0
M  V30 136 H 1.661226 -5.247941 1.063761 0
M  V30 137 H 0.147649 -6.001297 0.328374 0
M  V30 138 H 1.140444 -8.056516 0.304149 0
M  V30 139 H 1.765348 -7.300071 1.723395 0
M  V30 140 H 2.741739 -7.367861 0.351882 0
M  V30 END ATOM
M  V30 BEGIN BOND
M  V30 1 1 1 2
M  V30 2 1 2 3
M  V30 3 1 3 4
M  V30 4 1 3 5
M  V30 5 1 5 6
M  V30 6 1 6 7
M  V30 7 2 7 8
M  V30 8 1 8 9
M  V30 9 2 9 10
M  V30 10 1 10 11
M  V30 11 2 11 12
M  V30 12 1 12 13
M  V30 13 2 13 14
M  V30 14 1 14 15
M  V30 15 1 5 16
M  V30 16 1 16 17
M  V30 17 1 17 18
M  V30 18 2 18 19
M  V30 19 1 18 20
M  V30 20 1 20 21
M  V30 21 1 21 22
M  V30 22 1 22 23
M  V30 23 1 23 24
M  V30 24 1 24 25
M  V30 25 1 25 26
M  V30 26 2 26 27
M  V30 27 1 26 28
M  V30 28 1 28 29
M  V30 29 1 29 30
M  V30 30 2 30 31
M  V30 31 1 30 32
M  V30 32 1 32 33
M  V30 33 1 33 34
M  V30 34 1 34 35
M  V30 35 1 35 36
M  V30 36 1 36 37
M  V30 37 1 37 38
M  V30 38 2 38 39
M  V30 39 1 38 40
M  V30 40 1 40 41
M  V30 41 1 41 42
M  V30 42 2 42 43
M  V30 43 1 42 44
M  V30 44 1 44 45
M  V30 45 1 45 46
M  V30 46 2 46 47
M  V30 47 1 46 48
M  V30 48 1 45 49
M  V30 49 1 49 50
M  V30 50 1 50 51
M  V30 51 1 51 52
M  V30 52 1 52 53
M  V30 53 1 53 54
M  V30 54 2 53 55
M  V30 55 1 41 56
M  V30 56 1 56 57
M  V30 57 1 57 58
M  V30 58 1 58 59
M  V30 59 1 59 60
M  V30 60 1 60 61
M  V30 61 2 60 62
M  V30 62 1 29 63
M  V30 63 1 63 64
M  V30 64 1 64 65
M  V30 65 1 65 66
M  V30 66 1 66 67
M  V30 67 1 17 2
M  V30 68 1 10 6
M  V30 69 1 14 9
M  V30 70 1 1 68
M  V30 71 1 2 69 CFG=1
M  V30 72 1 3 70 CFG=1
M  V30 73 1 4 71
M  V30 74 1 5 72 CFG=3
M  V30 75 1 7 73
M  V30 76 1 12 74
M  V30 77 1 15 75
M  V30 78 1 15 76
M  V30 79 1 17 77 CFG=3
M  V30 80 1 20 78
M  V30 81 1 21 79
M  V30 82 1 21 80
M  V30 83 1 22 81
M  V30 84 1 22 82
M  V30 85 1 23 83
M  V30 86 1 23 84
M  V30 87 1 24 85
M  V30 88 1 24 86
M  V30 89 1 25 87
M  V30 90 1 25 88
M  V30 91 1 28 89
M  V30 92 1 29 90 CFG=3
M  V30 93 1 32 91
M  V30 94 1 33 92
M  V30 95 1 33 93
M  V30 96 1 34 94
M  V30 97 1 34 95
M  V30 98 1 35 96
M  V30 99 1 35 97
M  V30 100 1 36 98
M  V30 101 1 36 99
M  V30 102 1 37 100
M  V30 103 1 37 101
M  V30 104 1 40 102
M  V30 105 1 41 103 CFG=1
M  V30 106 1 44 104
M  V30 107 1 45 105 CFG=3
M  V30 108 1 48 106
M  V30 109 1 48 107
M  V30 110 1 49 108
M  V30 111 1 49 109
M  V30 112 1 50 110
M  V30 113 1 50 111
M  V30 114 1 51 112
M  V30 115 1 51 113
M  V30 116 1 52 114
M  V30 117 1 54 115
M  V30 118 1 54 116
M  V30 119 1 55 117
M  V30 120 1 55 118
M  V30 121 1 56 119
M  V30 122 1 56 120
M  V30 123 1 57 121
M  V30 124 1 57 122
M  V30 125 1 58 123
M  V30 126 1 58 124
M  V30 127 1 59 125
M  V30 128 1 61 126
M  V30 129 1 61 127
M  V30 130 1 62 128
M  V30 131 1 62 129
M  V30 132 1 63 130
M  V30 133 1 63 131
M  V30 134 1 64 132
M  V30 135 1 64 133
M  V30 136 1 65 134
M  V30 137 1 65 135
M  V30 138 1 66 136
M  V30 139 1 66 137
M  V30 140 1 67 138
M  V30 141 1 67 139
M  V30 142 1 67 140
M  V30 END BOND
M  V30 END CTAB
M  END
>  <Dataset>  (82) 
PDB

>  <Ligand_Instance>  (82) 
3AG9_A02_B_351

>  <PDB_ID>  (82) 
3AG9

>  <Standardized_SMILES>  (82) 
[H]O[C@@]1([H])[C@@]([H])(O[H])[C@]([H])(N2C([H])=NC3=C2N=C([H])N=C3N([H])[H])O[C@]1([H])C(=O)N([H])C([H])([H])C([H])([H])C([H])([H])C([H])([H])C([H])([H])C(=O)N([H])[C@@]([H])(C(=O)N([H])C([H])([H])C([H])([H])C([H])([H])C([H])([H])C([H])([H])C(=O)N([H])[C@@]([H])(C(=O)N([H])[C@@]([H])(C(=O)N([H])[H])C([H])([H])C([H])([H])C([H])([H])N([H])C(N([H])[H])=[N+]([H])[H])C([H])([H])C([H])([H])C([H])([H])N([H])C(N([H])[H])=[N+]([H])[H])C([H])([H])C([H])([H])C([H])([H])C([H])([H])[N+]([H])([H])[H]

>  <Name>  (82) 
(10R,20R,23R)-10-(4-aminobutyl)-1-[(2S,3S,4R,5R)-5-(6-amino-9H-purin-9-yl)-3,4-dihydroxytetrahydrofuran-2-yl]-20,23-bis(3-carbamimidamidopropyl)-1,8,11,18,21-pentaoxo-2,9,12,19,22-pentaazatetracosan-24-amide

>  <Pocket>  (82) 
A

>  <ATP_Site>  (82) 
1.0

>  <Peripheral>  (82) 
0.0

>  <Num_H_Atoms_ProtBoundConf>  (82) 
73.0

>  <Num_Resolved_Atoms>  (82) 
67.0

>  <Num_Not_Resolved_Atoms>  (82) 
0.0

$$$$
A03
     RDKit          3D

  0  0  0  0  0  0  0  0  0  0999 V3000
M  V30 BEGIN CTAB
M  V30 COUNTS 128 130 0 0 0
M  V30 BEGIN ATOM
M  V30 1 O 8.891589 -2.761050 3.427921 0
M  V30 2 C 7.832588 -2.857632 2.519934 0 CFG=1
M  V30 3 C 6.733662 -1.929910 2.987440 0 CFG=1
M  V30 4 O 6.800075 -1.838083 4.369585 0
M  V30 5 C 7.152660 -0.618139 2.399525 0 CFG=2
M  V30 6 N 5.997710 0.152160 2.003546 0
M  V30 7 C 4.742557 -0.151787 2.351857 0
M  V30 8 N 3.872690 0.746249 1.820938 0
M  V30 9 C 4.572253 1.641471 1.121990 0
M  V30 10 C 5.900902 1.254623 1.247606 0
M  V30 11 N 6.795919 2.010020 0.630546 0
M  V30 12 C 6.437901 3.092361 -0.080285 0
M  V30 13 N 5.146105 3.452110 -0.193029 0
M  V30 14 C 4.155736 2.741078 0.403506 0
M  V30 15 N 2.757869 3.064548 0.307984 0
M  V30 16 O 7.981030 -0.854545 1.314652 0
M  V30 17 C 8.185584 -2.218048 1.199178 0 CFG=2
M  V30 18 C 7.451173 -2.827473 0.045570 0
M  V30 19 O 7.374996 -4.025219 -0.313348 0
M  V30 20 N 6.713045 -1.924264 -0.801436 0
M  V30 21 C 5.911830 -2.213268 -1.978632 0
M  V30 22 C 4.754084 -3.140617 -1.641171 0
M  V30 23 C 3.870994 -2.542554 -0.602403 0
M  V30 24 C 3.268137 -1.225301 -0.874689 0
M  V30 25 C 2.320023 -0.994569 -1.968328 0
M  V30 26 C 2.695298 -1.227463 -3.352063 0
M  V30 27 O 3.471369 -1.696714 -4.238712 0
M  V30 28 N 1.694777 -0.631310 -4.230489 0
M  V30 29 C 1.530018 -0.564321 -5.656307 0 CFG=1
M  V30 30 C 0.434604 0.324139 -6.046793 0
M  V30 31 O -0.242070 0.335280 -7.081668 0
M  V30 32 N -0.016229 1.393999 -5.186914 0
M  V30 33 C -1.114471 2.310811 -5.510287 0
M  V30 34 C -1.234166 3.329617 -4.389927 0
M  V30 35 C -2.334331 4.299299 -4.525717 0
M  V30 36 C -3.728351 3.844555 -4.568157 0
M  V30 37 C -4.299291 3.123177 -3.397293 0
M  V30 38 C -3.634620 1.839443 -3.132610 0
M  V30 39 O -2.830137 0.898209 -3.233276 0
M  V30 40 N -4.394340 1.250334 -2.028166 0
M  V30 41 C -4.210060 -0.057139 -1.299501 0 CFG=1
M  V30 42 C -4.125025 0.114317 0.100147 0
M  V30 43 O -3.355288 -0.701918 0.702543 0
M  V30 44 N -4.599475 0.903727 1.156970 0
M  V30 45 C -4.922183 1.552448 2.341077 0 CFG=1
M  V30 46 C -6.019698 2.497664 2.252082 0
M  V30 47 O -6.817913 2.899191 1.345172 0
M  V30 48 N -6.196379 3.085012 3.506123 0
M  V30 49 C -5.046371 0.725829 3.621210 0
M  V30 50 C -3.728302 0.124598 4.016869 0
M  V30 51 C -3.771396 -0.662004 5.310454 0
M  V30 52 N -4.608082 -1.808392 5.319976 0
M  V30 53 C -4.535903 -2.964873 4.517722 0
M  V30 54 N -5.363983 -4.109428 4.572908 0
M  V30 55 N -3.573039 -3.017727 3.623461 0 CHG=1 VAL=4
M  V30 56 C -5.151495 -1.001574 -1.960058 0
M  V30 57 C -5.252836 -2.359153 -1.406534 0
M  V30 58 C -5.929054 -2.527286 -0.088959 0
M  V30 59 N -5.954935 -3.950226 0.288117 0
M  V30 60 C -6.654239 -4.211659 1.479026 0
M  V30 61 N -6.769317 -5.559507 1.968109 0
M  V30 62 N -7.235647 -3.310271 2.203946 0 CHG=1 VAL=4
M  V30 63 C 2.809539 0.171205 -6.230489 0
M  V30 64 H 9.037985 -1.780813 3.546334 0
M  V30 65 H 7.533884 -3.899457 2.449269 0
M  V30 66 H 5.739276 -2.280629 2.730138 0
M  V30 67 H 6.226051 -2.491901 4.836333 0
M  V30 68 H 7.791271 -0.056913 3.136787 0
M  V30 69 H 4.273080 -0.929074 2.939824 0
M  V30 70 H 7.127856 3.757963 -0.610158 0
M  V30 71 H 2.672445 4.107579 0.436745 0
M  V30 72 H 2.102965 2.270047 0.137848 0
M  V30 73 H 9.260551 -2.398020 1.016090 0
M  V30 74 H 6.749589 -0.907856 -0.541540 0
M  V30 75 H 6.517943 -2.672897 -2.770164 0
M  V30 76 H 5.463845 -1.297989 -2.403211 0
M  V30 77 H 5.207895 -4.064301 -1.166256 0
M  V30 78 H 4.178142 -3.504012 -2.481706 0
M  V30 79 H 3.016023 -3.252743 -0.375785 0
M  V30 80 H 4.420833 -2.495373 0.373267 0
M  V30 81 H 4.062485 -0.407123 -0.899907 0
M  V30 82 H 2.676107 -0.953602 0.081809 0
M  V30 83 H 1.329785 -1.528874 -1.728008 0
M  V30 84 H 1.976528 0.097200 -1.856225 0
M  V30 85 H 0.858623 -0.147813 -3.761430 0
M  V30 86 H 1.583568 -1.507523 -6.171730 0
M  V30 87 H 0.428838 1.607763 -4.258698 0
M  V30 88 H -2.042171 1.725248 -5.637014 0
M  V30 89 H -0.911191 2.815724 -6.496947 0
M  V30 90 H -1.095305 2.830661 -3.428980 0
M  V30 91 H -0.274897 3.985497 -4.521088 0
M  V30 92 H -2.239655 5.043778 -3.671281 0
M  V30 93 H -2.163668 4.886297 -5.492087 0
M  V30 94 H -3.850907 3.222030 -5.514891 0
M  V30 95 H -4.373439 4.738844 -4.808944 0
M  V30 96 H -5.401903 2.922832 -3.576750 0
M  V30 97 H -4.281686 3.778689 -2.472032 0
M  V30 98 H -5.260425 1.624195 -1.505618 0
M  V30 99 H -3.175587 -0.393011 -1.685549 0
M  V30 100 H -5.233557 1.468556 0.475174 0
M  V30 101 H -3.977422 2.195803 2.681240 0
M  V30 102 H -5.920536 3.849093 4.159323 0
M  V30 103 H -6.761712 2.942010 4.383301 0
M  V30 104 H -5.318206 1.449813 4.415400 0
M  V30 105 H -5.862652 -0.015490 3.569281 0
M  V30 106 H -3.198348 -0.433595 3.228892 0
M  V30 107 H -2.996038 0.975552 4.243490 0
M  V30 108 H -2.718552 -0.957900 5.527386 0
M  V30 109 H -4.020166 0.034116 6.174361 0
M  V30 110 H -5.410414 -1.865637 5.997145 0
M  V30 111 H -6.309306 -4.538981 4.541661 0
M  V30 112 H -5.134171 -5.103360 4.702310 0
M  V30 113 H -2.856463 -3.163793 2.889621 0
M  V30 114 H -2.729338 -2.778401 3.067264 0
M  V30 115 H -6.168773 -0.489102 -2.000652 0
M  V30 116 H -4.818397 -1.070429 -3.038753 0
M  V30 117 H -4.239508 -2.857768 -1.333942 0
M  V30 118 H -5.790947 -3.028028 -2.140366 0
M  V30 119 H -5.579050 -1.940278 0.756006 0
M  V30 120 H -7.033863 -2.236627 -0.183552 0
M  V30 121 H -5.533828 -4.767351 -0.198175 0
M  V30 122 H -5.792792 -5.939381 2.150928 0
M  V30 123 H -7.552767 -6.213410 2.174973 0
M  V30 124 H -7.779703 -3.312828 3.083461 0
M  V30 125 H -7.205705 -2.323478 1.923694 0
M  V30 126 H 2.509903 0.366627 -7.273578 0
M  V30 127 H 2.967236 1.106744 -5.687490 0
M  V30 128 H 3.597676 -0.569214 -6.198264 0
M  V30 END ATOM
M  V30 BEGIN BOND
M  V30 1 1 1 2
M  V30 2 1 2 3
M  V30 3 1 3 4
M  V30 4 1 3 5
M  V30 5 1 5 6
M  V30 6 1 6 7
M  V30 7 2 7 8
M  V30 8 1 8 9
M  V30 9 2 9 10
M  V30 10 1 10 11
M  V30 11 2 11 12
M  V30 12 1 12 13
M  V30 13 2 13 14
M  V30 14 1 14 15
M  V30 15 1 5 16
M  V30 16 1 16 17
M  V30 17 1 17 18
M  V30 18 2 18 19
M  V30 19 1 18 20
M  V30 20 1 20 21
M  V30 21 1 21 22
M  V30 22 1 22 23
M  V30 23 1 23 24
M  V30 24 1 24 25
M  V30 25 1 25 26
M  V30 26 2 26 27
M  V30 27 1 26 28
M  V30 28 1 28 29
M  V30 29 1 29 30
M  V30 30 2 30 31
M  V30 31 1 30 32
M  V30 32 1 32 33
M  V30 33 1 33 34
M  V30 34 1 34 35
M  V30 35 1 35 36
M  V30 36 1 36 37
M  V30 37 1 37 38
M  V30 38 2 38 39
M  V30 39 1 38 40
M  V30 40 1 40 41
M  V30 41 1 41 42
M  V30 42 2 42 43
M  V30 43 1 42 44
M  V30 44 1 44 45
M  V30 45 1 45 46
M  V30 46 2 46 47
M  V30 47 1 46 48
M  V30 48 1 45 49
M  V30 49 1 49 50
M  V30 50 1 50 51
M  V30 51 1 51 52
M  V30 52 1 52 53
M  V30 53 1 53 54
M  V30 54 2 53 55
M  V30 55 1 41 56
M  V30 56 1 56 57
M  V30 57 1 57 58
M  V30 58 1 58 59
M  V30 59 1 59 60
M  V30 60 1 60 61
M  V30 61 2 60 62
M  V30 62 1 29 63
M  V30 63 1 17 2
M  V30 64 1 10 6
M  V30 65 1 14 9
M  V30 66 1 1 64
M  V30 67 1 2 65 CFG=3
M  V30 68 1 3 66 CFG=1
M  V30 69 1 4 67
M  V30 70 1 5 68 CFG=1
M  V30 71 1 7 69
M  V30 72 1 12 70
M  V30 73 1 15 71
M  V30 74 1 15 72
M  V30 75 1 17 73 CFG=3
M  V30 76 1 20 74
M  V30 77 1 21 75
M  V30 78 1 21 76
M  V30 79 1 22 77
M  V30 80 1 22 78
M  V30 81 1 23 79
M  V30 82 1 23 80
M  V30 83 1 24 81
M  V30 84 1 24 82
M  V30 85 1 25 83
M  V30 86 1 25 84
M  V30 87 1 28 85
M  V30 88 1 29 86 CFG=3
M  V30 89 1 32 87
M  V30 90 1 33 88
M  V30 91 1 33 89
M  V30 92 1 34 90
M  V30 93 1 34 91
M  V30 94 1 35 92
M  V30 95 1 35 93
M  V30 96 1 36 94
M  V30 97 1 36 95
M  V30 98 1 37 96
M  V30 99 1 37 97
M  V30 100 1 40 98
M  V30 101 1 41 99 CFG=3
M  V30 102 1 44 100
M  V30 103 1 45 101 CFG=1
M  V30 104 1 48 102
M  V30 105 1 48 103
M  V30 106 1 49 104
M  V30 107 1 49 105
M  V30 108 1 50 106
M  V30 109 1 50 107
M  V30 110 1 51 108
M  V30 111 1 51 109
M  V30 112 1 52 110
M  V30 113 1 54 111
M  V30 114 1 54 112
M  V30 115 1 55 113
M  V30 116 1 55 114
M  V30 117 1 56 115
M  V30 118 1 56 116
M  V30 119 1 57 117
M  V30 120 1 57 118
M  V30 121 1 58 119
M  V30 122 1 58 120
M  V30 123 1 59 121
M  V30 124 1 61 122
M  V30 125 1 61 123
M  V30 126 1 62 124
M  V30 127 1 62 125
M  V30 128 1 63 126
M  V30 129 1 63 127
M  V30 130 1 63 128
M  V30 END BOND
M  V30 END CTAB
M  END
>  <Dataset>  (83) 
PDB

>  <Ligand_Instance>  (83) 
3AGL_A03_A_351

>  <PDB_ID>  (83) 
3AGL

>  <Standardized_SMILES>  (83) 
[H]O[C@@]1([H])[C@@]([H])(O[H])[C@]([H])(N2C([H])=NC3=C2N=C([H])N=C3N([H])[H])O[C@]1([H])C(=O)N([H])C([H])([H])C([H])([H])C([H])([H])C([H])([H])C([H])([H])C(=O)N([H])[C@@]([H])(C(=O)N([H])C([H])([H])C([H])([H])C([H])([H])C([H])([H])C([H])([H])C(=O)N([H])[C@@]([H])(C(=O)N([H])[C@@]([H])(C(=O)N([H])[H])C([H])([H])C([H])([H])C([H])([H])N([H])C(N([H])[H])=[N+]([H])[H])C([H])([H])C([H])([H])C([H])([H])N([H])C(N([H])[H])=[N+]([H])[H])C([H])([H])[H]

>  <Name>  (83) 
(10R,20R,23R)-1-[(2S,3S,4R,5R)-5-(6-amino-9H-purin-9-yl)-3,4-dihydroxytetrahydrofuran-2-yl]-20,23-bis(3-carbamimidamido
propyl)-10-methyl-1,8,11,18,21-pentaoxo-2,9,12,19,22-pentaazatetracosan-24-amide

>  <Pocket>  (83) 
A

>  <ATP_Site>  (83) 
1.0

>  <Peripheral>  (83) 
0.0

>  <Num_H_Atoms_ProtBoundConf>  (83) 
65.0

>  <Num_Resolved_Atoms>  (83) 
63.0

>  <Num_Not_Resolved_Atoms>  (83) 
0.0

$$$$
A03
     RDKit          3D

  0  0  0  0  0  0  0  0  0  0999 V3000
M  V30 BEGIN CTAB
M  V30 COUNTS 128 130 0 0 0
M  V30 BEGIN ATOM
M  V30 1 O 8.891589 -2.761050 3.427921 0
M  V30 2 C 7.832588 -2.857632 2.519934 0 CFG=1
M  V30 3 C 6.733662 -1.929910 2.987440 0 CFG=1
M  V30 4 O 6.800075 -1.838083 4.369585 0
M  V30 5 C 7.152660 -0.618139 2.399525 0 CFG=2
M  V30 6 N 5.997710 0.152160 2.003546 0
M  V30 7 C 4.742557 -0.151787 2.351857 0
M  V30 8 N 3.872690 0.746249 1.820938 0
M  V30 9 C 4.572253 1.641471 1.121990 0
M  V30 10 C 5.900902 1.254623 1.247606 0
M  V30 11 N 6.795919 2.010020 0.630546 0
M  V30 12 C 6.437901 3.092361 -0.080285 0
M  V30 13 N 5.146105 3.452110 -0.193029 0
M  V30 14 C 4.155736 2.741078 0.403506 0
M  V30 15 N 2.757869 3.064548 0.307984 0
M  V30 16 O 7.981030 -0.854545 1.314652 0
M  V30 17 C 8.185584 -2.218048 1.199178 0 CFG=2
M  V30 18 C 7.451173 -2.827473 0.045570 0
M  V30 19 O 7.374996 -4.025219 -0.313348 0
M  V30 20 N 6.713045 -1.924264 -0.801436 0
M  V30 21 C 5.911830 -2.213268 -1.978632 0
M  V30 22 C 4.754084 -3.140617 -1.641171 0
M  V30 23 C 3.870994 -2.542554 -0.602403 0
M  V30 24 C 3.268137 -1.225301 -0.874689 0
M  V30 25 C 2.320023 -0.994569 -1.968328 0
M  V30 26 C 2.695298 -1.227463 -3.352063 0
M  V30 27 O 3.471369 -1.696714 -4.238712 0
M  V30 28 N 1.694777 -0.631310 -4.230489 0
M  V30 29 C 1.530018 -0.564321 -5.656307 0 CFG=1
M  V30 30 C 0.434604 0.324139 -6.046793 0
M  V30 31 O -0.242070 0.335280 -7.081668 0
M  V30 32 N -0.016229 1.393999 -5.186914 0
M  V30 33 C -1.114471 2.310811 -5.510287 0
M  V30 34 C -1.234166 3.329617 -4.389927 0
M  V30 35 C -2.334331 4.299299 -4.525717 0
M  V30 36 C -3.728351 3.844555 -4.568157 0
M  V30 37 C -4.299291 3.123177 -3.397293 0
M  V30 38 C -3.634620 1.839443 -3.132610 0
M  V30 39 O -2.830137 0.898209 -3.233276 0
M  V30 40 N -4.394340 1.250334 -2.028166 0
M  V30 41 C -4.210060 -0.057139 -1.299501 0 CFG=1
M  V30 42 C -4.125025 0.114317 0.100147 0
M  V30 43 O -3.355288 -0.701918 0.702543 0
M  V30 44 N -4.599475 0.903727 1.156970 0
M  V30 45 C -4.922183 1.552448 2.341077 0 CFG=1
M  V30 46 C -6.019698 2.497664 2.252082 0
M  V30 47 O -6.817913 2.899191 1.345172 0
M  V30 48 N -6.196379 3.085012 3.506123 0
M  V30 49 C -5.046371 0.725829 3.621210 0
M  V30 50 C -3.728302 0.124598 4.016869 0
M  V30 51 C -3.771396 -0.662004 5.310454 0
M  V30 52 N -4.608082 -1.808392 5.319976 0
M  V30 53 C -4.535903 -2.964873 4.517722 0
M  V30 54 N -5.363983 -4.109428 4.572908 0
M  V30 55 N -3.573039 -3.017727 3.623461 0 CHG=1 VAL=4
M  V30 56 C -5.151495 -1.001574 -1.960058 0
M  V30 57 C -5.252836 -2.359153 -1.406534 0
M  V30 58 C -5.929054 -2.527286 -0.088959 0
M  V30 59 N -5.954935 -3.950226 0.288117 0
M  V30 60 C -6.654239 -4.211659 1.479026 0
M  V30 61 N -6.769317 -5.559507 1.968109 0
M  V30 62 N -7.235647 -3.310271 2.203946 0 CHG=1 VAL=4
M  V30 63 C 2.809539 0.171205 -6.230489 0
M  V30 64 H 9.037985 -1.780813 3.546334 0
M  V30 65 H 7.533884 -3.899457 2.449269 0
M  V30 66 H 5.739276 -2.280629 2.730138 0
M  V30 67 H 6.226051 -2.491901 4.836333 0
M  V30 68 H 7.791271 -0.056913 3.136787 0
M  V30 69 H 4.273080 -0.929074 2.939824 0
M  V30 70 H 7.127856 3.757963 -0.610158 0
M  V30 71 H 2.672445 4.107579 0.436745 0
M  V30 72 H 2.102965 2.270047 0.137848 0
M  V30 73 H 9.260551 -2.398020 1.016090 0
M  V30 74 H 6.749589 -0.907856 -0.541540 0
M  V30 75 H 6.517943 -2.672897 -2.770164 0
M  V30 76 H 5.463845 -1.297989 -2.403211 0
M  V30 77 H 5.207895 -4.064301 -1.166256 0
M  V30 78 H 4.178142 -3.504012 -2.481706 0
M  V30 79 H 3.016023 -3.252743 -0.375785 0
M  V30 80 H 4.420833 -2.495373 0.373267 0
M  V30 81 H 4.062485 -0.407123 -0.899907 0
M  V30 82 H 2.676107 -0.953602 0.081809 0
M  V30 83 H 1.329785 -1.528874 -1.728008 0
M  V30 84 H 1.976528 0.097200 -1.856225 0
M  V30 85 H 0.858623 -0.147813 -3.761430 0
M  V30 86 H 1.583568 -1.507523 -6.171730 0
M  V30 87 H 0.428838 1.607763 -4.258698 0
M  V30 88 H -2.042171 1.725248 -5.637014 0
M  V30 89 H -0.911191 2.815724 -6.496947 0
M  V30 90 H -1.095305 2.830661 -3.428980 0
M  V30 91 H -0.274897 3.985497 -4.521088 0
M  V30 92 H -2.239655 5.043778 -3.671281 0
M  V30 93 H -2.163668 4.886297 -5.492087 0
M  V30 94 H -3.850907 3.222030 -5.514891 0
M  V30 95 H -4.373439 4.738844 -4.808944 0
M  V30 96 H -5.401903 2.922832 -3.576750 0
M  V30 97 H -4.281686 3.778689 -2.472032 0
M  V30 98 H -5.260425 1.624195 -1.505618 0
M  V30 99 H -3.175587 -0.393011 -1.685549 0
M  V30 100 H -5.233557 1.468556 0.475174 0
M  V30 101 H -3.977422 2.195803 2.681240 0
M  V30 102 H -5.920536 3.849093 4.159323 0
M  V30 103 H -6.761712 2.942010 4.383301 0
M  V30 104 H -5.318206 1.449813 4.415400 0
M  V30 105 H -5.862652 -0.015490 3.569281 0
M  V30 106 H -3.198348 -0.433595 3.228892 0
M  V30 107 H -2.996038 0.975552 4.243490 0
M  V30 108 H -2.718552 -0.957900 5.527386 0
M  V30 109 H -4.020166 0.034116 6.174361 0
M  V30 110 H -5.410414 -1.865637 5.997145 0
M  V30 111 H -6.309306 -4.538981 4.541661 0
M  V30 112 H -5.134171 -5.103360 4.702310 0
M  V30 113 H -2.856463 -3.163793 2.889621 0
M  V30 114 H -2.729338 -2.778401 3.067264 0
M  V30 115 H -6.168773 -0.489102 -2.000652 0
M  V30 116 H -4.818397 -1.070429 -3.038753 0
M  V30 117 H -4.239508 -2.857768 -1.333942 0
M  V30 118 H -5.790947 -3.028028 -2.140366 0
M  V30 119 H -5.579050 -1.940278 0.756006 0
M  V30 120 H -7.033863 -2.236627 -0.183552 0
M  V30 121 H -5.533828 -4.767351 -0.198175 0
M  V30 122 H -5.792792 -5.939381 2.150928 0
M  V30 123 H -7.552767 -6.213410 2.174973 0
M  V30 124 H -7.779703 -3.312828 3.083461 0
M  V30 125 H -7.205705 -2.323478 1.923694 0
M  V30 126 H 2.509903 0.366627 -7.273578 0
M  V30 127 H 2.967236 1.106744 -5.687490 0
M  V30 128 H 3.597676 -0.569214 -6.198264 0
M  V30 END ATOM
M  V30 BEGIN BOND
M  V30 1 1 1 2
M  V30 2 1 2 3
M  V30 3 1 3 4
M  V30 4 1 3 5
M  V30 5 1 5 6
M  V30 6 1 6 7
M  V30 7 2 7 8
M  V30 8 1 8 9
M  V30 9 2 9 10
M  V30 10 1 10 11
M  V30 11 2 11 12
M  V30 12 1 12 13
M  V30 13 2 13 14
M  V30 14 1 14 15
M  V30 15 1 5 16
M  V30 16 1 16 17
M  V30 17 1 17 18
M  V30 18 2 18 19
M  V30 19 1 18 20
M  V30 20 1 20 21
M  V30 21 1 21 22
M  V30 22 1 22 23
M  V30 23 1 23 24
M  V30 24 1 24 25
M  V30 25 1 25 26
M  V30 26 2 26 27
M  V30 27 1 26 28
M  V30 28 1 28 29
M  V30 29 1 29 30
M  V30 30 2 30 31
M  V30 31 1 30 32
M  V30 32 1 32 33
M  V30 33 1 33 34
M  V30 34 1 34 35
M  V30 35 1 35 36
M  V30 36 1 36 37
M  V30 37 1 37 38
M  V30 38 2 38 39
M  V30 39 1 38 40
M  V30 40 1 40 41
M  V30 41 1 41 42
M  V30 42 2 42 43
M  V30 43 1 42 44
M  V30 44 1 44 45
M  V30 45 1 45 46
M  V30 46 2 46 47
M  V30 47 1 46 48
M  V30 48 1 45 49
M  V30 49 1 49 50
M  V30 50 1 50 51
M  V30 51 1 51 52
M  V30 52 1 52 53
M  V30 53 1 53 54
M  V30 54 2 53 55
M  V30 55 1 41 56
M  V30 56 1 56 57
M  V30 57 1 57 58
M  V30 58 1 58 59
M  V30 59 1 59 60
M  V30 60 1 60 61
M  V30 61 2 60 62
M  V30 62 1 29 63
M  V30 63 1 17 2
M  V30 64 1 10 6
M  V30 65 1 14 9
M  V30 66 1 1 64
M  V30 67 1 2 65 CFG=3
M  V30 68 1 3 66 CFG=1
M  V30 69 1 4 67
M  V30 70 1 5 68 CFG=1
M  V30 71 1 7 69
M  V30 72 1 12 70
M  V30 73 1 15 71
M  V30 74 1 15 72
M  V30 75 1 17 73 CFG=3
M  V30 76 1 20 74
M  V30 77 1 21 75
M  V30 78 1 21 76
M  V30 79 1 22 77
M  V30 80 1 22 78
M  V30 81 1 23 79
M  V30 82 1 23 80
M  V30 83 1 24 81
M  V30 84 1 24 82
M  V30 85 1 25 83
M  V30 86 1 25 84
M  V30 87 1 28 85
M  V30 88 1 29 86 CFG=3
M  V30 89 1 32 87
M  V30 90 1 33 88
M  V30 91 1 33 89
M  V30 92 1 34 90
M  V30 93 1 34 91
M  V30 94 1 35 92
M  V30 95 1 35 93
M  V30 96 1 36 94
M  V30 97 1 36 95
M  V30 98 1 37 96
M  V30 99 1 37 97
M  V30 100 1 40 98
M  V30 101 1 41 99 CFG=3
M  V30 102 1 44 100
M  V30 103 1 45 101 CFG=1
M  V30 104 1 48 102
M  V30 105 1 48 103
M  V30 106 1 49 104
M  V30 107 1 49 105
M  V30 108 1 50 106
M  V30 109 1 50 107
M  V30 110 1 51 108
M  V30 111 1 51 109
M  V30 112 1 52 110
M  V30 113 1 54 111
M  V30 114 1 54 112
M  V30 115 1 55 113
M  V30 116 1 55 114
M  V30 117 1 56 115
M  V30 118 1 56 116
M  V30 119 1 57 117
M  V30 120 1 57 118
M  V30 121 1 58 119
M  V30 122 1 58 120
M  V30 123 1 59 121
M  V30 124 1 61 122
M  V30 125 1 61 123
M  V30 126 1 62 124
M  V30 127 1 62 125
M  V30 128 1 63 126
M  V30 129 1 63 127
M  V30 130 1 63 128
M  V30 END BOND
M  V30 END CTAB
M  END
>  <Dataset>  (84) 
PDB

>  <Ligand_Instance>  (84) 
3AGL_A03_B_351

>  <PDB_ID>  (84) 
3AGL

>  <Standardized_SMILES>  (84) 
[H]O[C@@]1([H])[C@@]([H])(O[H])[C@]([H])(N2C([H])=NC3=C2N=C([H])N=C3N([H])[H])O[C@]1([H])C(=O)N([H])C([H])([H])C([H])([H])C([H])([H])C([H])([H])C([H])([H])C(=O)N([H])[C@@]([H])(C(=O)N([H])C([H])([H])C([H])([H])C([H])([H])C([H])([H])C([H])([H])C(=O)N([H])[C@@]([H])(C(=O)N([H])[C@@]([H])(C(=O)N([H])[H])C([H])([H])C([H])([H])C([H])([H])N([H])C(N([H])[H])=[N+]([H])[H])C([H])([H])C([H])([H])C([H])([H])N([H])C(N([H])[H])=[N+]([H])[H])C([H])([H])[H]

>  <Name>  (84) 
(10R,20R,23R)-1-[(2S,3S,4R,5R)-5-(6-amino-9H-purin-9-yl)-3,4-dihydroxytetrahydrofuran-2-yl]-20,23-bis(3-carbamimidamido
propyl)-10-methyl-1,8,11,18,21-pentaoxo-2,9,12,19,22-pentaazatetracosan-24-amide

>  <Pocket>  (84) 
A

>  <ATP_Site>  (84) 
1.0

>  <Peripheral>  (84) 
0.0

>  <Num_H_Atoms_ProtBoundConf>  (84) 
65.0

>  <Num_Resolved_Atoms>  (84) 
63.0

>  <Num_Not_Resolved_Atoms>  (84) 
0.0

$$$$
ACP
     RDKit          3D

  0  0  0  0  0  0  0  0  0  0999 V3000
M  V30 BEGIN CTAB
M  V30 COUNTS 45 47 0 0 0
M  V30 BEGIN ATOM
M  V30 1 O 4.084766 0.003712 1.853064 0
M  V30 2 C 2.877762 -0.608022 2.234073 0 CFG=1
M  V30 3 C 2.189814 0.280145 3.276529 0 CFG=1
M  V30 4 O 3.105529 0.963339 4.065988 0
M  V30 5 C 1.437387 1.210596 2.323154 0 CFG=2
M  V30 6 N 0.544222 2.091726 3.005343 0
M  V30 7 C 0.292226 2.293778 4.290966 0
M  V30 8 N -0.648689 3.247446 4.412370 0
M  V30 9 C -0.997751 3.656069 3.169767 0
M  V30 10 C -0.238842 2.920124 2.290885 0
M  V30 11 N -0.447704 3.188514 0.985630 0
M  V30 12 C -1.329129 4.105505 0.544255 0
M  V30 13 N -2.083304 4.837780 1.396146 0
M  V30 14 C -1.898223 4.593405 2.706487 0
M  V30 15 N -2.655543 5.324364 3.664042 0
M  V30 16 O 0.840311 0.284802 1.493772 0
M  V30 17 C 1.937021 -0.475367 1.068161 0 CFG=2
M  V30 18 C 1.506887 -1.816241 0.520074 0
M  V30 19 O 0.663829 -1.580796 -0.560355 0
M  V30 20 P 0.115960 -3.020043 -1.258781 0 CFG=2 VAL=5
M  V30 21 O -1.375090 -2.966457 -1.526244 0
M  V30 22 O 0.476885 -4.257020 -0.163643 0 CHG=-1 VAL=1
M  V30 23 O 0.879322 -3.294420 -2.742469 0
M  V30 24 P -0.185131 -4.192917 -3.699795 0 CFG=1 VAL=5
M  V30 25 O -1.561244 -3.530745 -3.756517 0
M  V30 26 O 0.354820 -4.248971 -5.311803 0 CHG=-1 VAL=1
M  V30 27 C -0.344539 -5.865158 -3.023837 0
M  V30 28 P -2.063605 -6.245282 -2.601060 0
M  V30 29 O -2.315597 -7.695694 -2.866565 0
M  V30 30 O -2.354448 -5.856934 -0.980416 0 CHG=-1 VAL=1
M  V30 31 O -3.093029 -5.282253 -3.529307 0 CHG=-1 VAL=1
M  V30 32 H 3.945755 0.629094 1.089425 0
M  V30 33 H 3.018825 -1.634691 2.588904 0
M  V30 34 H 1.502619 -0.372289 3.838243 0
M  V30 35 H 3.208453 0.395045 4.893234 0
M  V30 36 H 2.198105 1.757744 1.735685 0
M  V30 37 H 0.784607 1.758195 5.085070 0
M  V30 38 H -1.482510 4.306601 -0.508157 0
M  V30 39 H -2.601193 6.167822 4.292941 0
M  V30 40 H -3.547759 4.784634 3.701327 0
M  V30 41 H 2.380182 0.072992 0.200479 0
M  V30 42 H 2.434360 -2.282904 0.104643 0
M  V30 43 H 1.016586 -2.450857 1.265785 0
M  V30 44 H 0.245065 -5.941318 -2.079640 0
M  V30 45 H 0.010865 -6.628056 -3.767707 0
M  V30 END ATOM
M  V30 BEGIN BOND
M  V30 1 1 1 2
M  V30 2 1 2 3
M  V30 3 1 3 4
M  V30 4 1 3 5
M  V30 5 1 5 6
M  V30 6 1 6 7
M  V30 7 2 7 8
M  V30 8 1 8 9
M  V30 9 2 9 10
M  V30 10 1 10 11
M  V30 11 2 11 12
M  V30 12 1 12 13
M  V30 13 2 13 14
M  V30 14 1 14 15
M  V30 15 1 5 16
M  V30 16 1 16 17
M  V30 17 1 17 18
M  V30 18 1 18 19
M  V30 19 1 19 20
M  V30 20 2 20 21
M  V30 21 1 20 22 CFG=1
M  V30 22 1 20 23
M  V30 23 1 23 24
M  V30 24 2 24 25
M  V30 25 1 24 26 CFG=3
M  V30 26 1 24 27
M  V30 27 1 27 28
M  V30 28 2 28 29
M  V30 29 1 28 30
M  V30 30 1 28 31
M  V30 31 1 17 2
M  V30 32 1 10 6
M  V30 33 1 14 9
M  V30 34 1 1 32
M  V30 35 1 2 33 CFG=1
M  V30 36 1 3 34 CFG=1
M  V30 37 1 4 35
M  V30 38 1 5 36 CFG=3
M  V30 39 1 7 37
M  V30 40 1 12 38
M  V30 41 1 15 39
M  V30 42 1 15 40
M  V30 43 1 17 41 CFG=3
M  V30 44 1 18 42
M  V30 45 1 18 43
M  V30 46 1 27 44
M  V30 47 1 27 45
M  V30 END BOND
M  V30 END CTAB
M  END
>  <Dataset>  (85) 
PDB

>  <Ligand_Instance>  (85) 
4IAC_ACP_A_403

>  <PDB_ID>  (85) 
4IAC

>  <Standardized_SMILES>  (85) 
[H]O[C@@]1([H])[C@@]([H])(O[H])[C@]([H])(N2C([H])=NC3=C2N=C([H])N=C3N([H])[H])O[C@]1([H])C([H])([H])O[P@](=O)([O-])O[P@@](=O)([O-])C([H])([H])P(=O)([O-])[O-]

>  <Name>  (85) 
PHOSPHOMETHYLPHOSPHONIC ACID ADENYLATE ESTER

>  <Pocket>  (85) 
A

>  <ATP_Site>  (85) 
1.0

>  <Peripheral>  (85) 
0.0

>  <Num_H_Atoms_ProtBoundConf>  (85) 
14.0

>  <Num_Resolved_Atoms>  (85) 
31.0

>  <Num_Not_Resolved_Atoms>  (85) 
0.0

$$$$
ADE
     RDKit          3D

  0  0  0  0  0  0  0  0  0  0999 V3000
M  V30 BEGIN CTAB
M  V30 COUNTS 15 16 0 0 0
M  V30 BEGIN ATOM
M  V30 1 C -0.199463 -0.457388 -0.745622 0
M  V30 2 N 0.829291 -1.240343 -0.384807 0
M  V30 3 C 1.566851 -0.921736 0.673840 0
M  V30 4 C 1.224080 0.230738 1.364192 0
M  V30 5 N 2.090209 0.368803 2.392798 0
M  V30 6 C 2.974353 -0.643717 2.394160 0
M  V30 7 N 2.632296 -1.408289 1.342413 0
M  V30 8 C 0.158491 1.060709 1.007726 0
M  V30 9 N -0.139221 2.230753 1.761045 0
M  V30 10 N -0.541362 0.668556 -0.078476 0
M  V30 11 H -0.807388 -0.723658 -1.621555 0
M  V30 12 H 3.808322 -0.862402 3.064906 0
M  V30 13 H 3.108613 -2.279947 1.046639 0
M  V30 14 H 0.541229 3.022526 1.593965 0
M  V30 15 H -0.955540 2.254233 2.398096 0
M  V30 END ATOM
M  V30 BEGIN BOND
M  V30 1 2 1 2
M  V30 2 1 2 3
M  V30 3 2 3 4
M  V30 4 1 4 5
M  V30 5 2 5 6
M  V30 6 1 6 7
M  V30 7 1 4 8
M  V30 8 1 8 9
M  V30 9 2 8 10
M  V30 10 1 10 1
M  V30 11 1 7 3
M  V30 12 1 1 11
M  V30 13 1 6 12
M  V30 14 1 7 13
M  V30 15 1 9 14
M  V30 16 1 9 15
M  V30 END BOND
M  V30 END CTAB
M  END
>  <Dataset>  (86) 
PDB

>  <Ligand_Instance>  (86) 
6Y05_ADE_A_401

>  <PDB_ID>  (86) 
6Y05

>  <Standardized_SMILES>  (86) 
[H]C1=NC2=C(N=C([H])N2[H])C(N([H])[H])=N1

>  <Name>  (86) 
ADENINE

>  <Pocket>  (86) 
A

>  <ATP_Site>  (86) 
1.0

>  <Peripheral>  (86) 
0.0

>  <Num_H_Atoms_ProtBoundConf>  (86) 
5.0

>  <Num_Resolved_Atoms>  (86) 
10.0

>  <Num_Not_Resolved_Atoms>  (86) 
0.0

$$$$
ADP
     RDKit          3D

  0  0  0  0  0  0  0  0  0  0999 V3000
M  V30 BEGIN CTAB
M  V30 COUNTS 39 41 0 0 0
M  V30 BEGIN ATOM
M  V30 1 O -0.948285 -0.438583 4.255156 0
M  V30 2 C -0.411171 -0.255040 2.979968 0 CFG=1
M  V30 3 C 1.092178 -0.234105 3.045441 0 CFG=1
M  V30 4 O 1.474056 -0.912258 4.222552 0
M  V30 5 C 1.506228 -0.966081 1.819101 0 CFG=2
M  V30 6 N 2.233989 -0.193765 0.858355 0
M  V30 7 C 3.405953 -0.569193 0.290616 0
M  V30 8 N 3.775171 0.412104 -0.553372 0
M  V30 9 C 2.841851 1.378111 -0.504725 0
M  V30 10 C 1.841459 1.007625 0.397855 0
M  V30 11 N 0.833709 1.848388 0.572746 0
M  V30 12 C 0.798356 3.009814 -0.105821 0
M  V30 13 N 1.756149 3.378451 -0.978390 0
M  V30 14 C 2.825105 2.577588 -1.218927 0
M  V30 15 N 3.876306 2.894850 -2.123767 0
M  V30 16 O 0.375978 -1.480544 1.215317 0
M  V30 17 C -0.633812 -1.513038 2.138200 0 CFG=2
M  V30 18 C -2.014257 -1.365032 1.534430 0
M  V30 19 O -2.203385 -2.413883 0.644895 0
M  V30 20 P -3.712747 -2.369453 -0.103693 0 CFG=2 VAL=5
M  V30 21 O -4.183525 -0.939805 -0.202494 0
M  V30 22 O -4.824228 -3.304172 0.763507 0 CHG=-1 VAL=1
M  V30 23 O -3.512953 -3.048156 -1.649054 0
M  V30 24 P -2.467036 -4.373660 -1.493633 0
M  V30 25 O -3.034914 -5.398648 -0.528818 0
M  V30 26 O -2.251903 -5.116515 -3.005593 0 CHG=-1 VAL=1
M  V30 27 O -0.976837 -3.814647 -0.958446 0 CHG=-1 VAL=1
M  V30 28 H -1.249546 0.460417 4.565166 0
M  V30 29 H -0.849340 0.579238 2.433626 0
M  V30 30 H 1.506209 0.786595 3.129986 0
M  V30 31 H 2.375076 -0.559672 4.486506 0
M  V30 32 H 2.104238 -1.862424 2.148636 0
M  V30 33 H 3.911678 -1.512796 0.518410 0
M  V30 34 H 0.006807 3.762144 -0.024072 0
M  V30 35 H 4.664131 3.602715 -2.092400 0
M  V30 36 H 4.178059 2.540901 -3.055154 0
M  V30 37 H -0.589421 -2.343916 2.868457 0
M  V30 38 H -2.757307 -1.531700 2.351388 0
M  V30 39 H -2.175056 -0.362661 1.104157 0
M  V30 END ATOM
M  V30 BEGIN BOND
M  V30 1 1 1 2
M  V30 2 1 2 3
M  V30 3 1 3 4
M  V30 4 1 3 5
M  V30 5 1 5 6
M  V30 6 1 6 7
M  V30 7 2 7 8
M  V30 8 1 8 9
M  V30 9 2 9 10
M  V30 10 1 10 11
M  V30 11 2 11 12
M  V30 12 1 12 13
M  V30 13 2 13 14
M  V30 14 1 14 15
M  V30 15 1 5 16
M  V30 16 1 16 17
M  V30 17 1 17 18
M  V30 18 1 18 19
M  V30 19 1 19 20
M  V30 20 2 20 21
M  V30 21 1 20 22 CFG=1
M  V30 22 1 20 23
M  V30 23 1 23 24
M  V30 24 2 24 25
M  V30 25 1 24 26
M  V30 26 1 24 27
M  V30 27 1 17 2
M  V30 28 1 10 6
M  V30 29 1 14 9
M  V30 30 1 1 28
M  V30 31 1 2 29 CFG=3
M  V30 32 1 3 30 CFG=1
M  V30 33 1 4 31
M  V30 34 1 5 32 CFG=1
M  V30 35 1 7 33
M  V30 36 1 12 34
M  V30 37 1 15 35
M  V30 38 1 15 36
M  V30 39 1 17 37 CFG=1
M  V30 40 1 18 38
M  V30 41 1 18 39
M  V30 END BOND
M  V30 END CTAB
M  END
>  <Dataset>  (87) 
PDB

>  <Ligand_Instance>  (87) 
2QUR_ADP_B_1

>  <PDB_ID>  (87) 
2QUR

>  <Standardized_SMILES>  (87) 
[H]O[C@@]1([H])[C@@]([H])(O[H])[C@]([H])(N2C([H])=NC3=C2N=C([H])N=C3N([H])[H])O[C@]1([H])C([H])([H])O[P@](=O)([O-])OP(=O)([O-])[O-]

>  <Name>  (87) 
ADENOSINE-5'-DIPHOSPHATE

>  <Pocket>  (87) 
A

>  <ATP_Site>  (87) 
1.0

>  <Peripheral>  (87) 
0.0

>  <Num_H_Atoms_ProtBoundConf>  (87) 
12.0

>  <Num_Resolved_Atoms>  (87) 
27.0

>  <Num_Not_Resolved_Atoms>  (87) 
0.0

$$$$
ADP
     RDKit          3D

  0  0  0  0  0  0  0  0  0  0999 V3000
M  V30 BEGIN CTAB
M  V30 COUNTS 39 41 0 0 0
M  V30 BEGIN ATOM
M  V30 1 O -0.948285 -0.438583 4.255156 0
M  V30 2 C -0.411171 -0.255040 2.979968 0 CFG=1
M  V30 3 C 1.092178 -0.234105 3.045441 0 CFG=1
M  V30 4 O 1.474056 -0.912258 4.222552 0
M  V30 5 C 1.506228 -0.966081 1.819101 0 CFG=2
M  V30 6 N 2.233989 -0.193765 0.858355 0
M  V30 7 C 3.405953 -0.569193 0.290616 0
M  V30 8 N 3.775171 0.412104 -0.553372 0
M  V30 9 C 2.841851 1.378111 -0.504725 0
M  V30 10 C 1.841459 1.007625 0.397855 0
M  V30 11 N 0.833709 1.848388 0.572746 0
M  V30 12 C 0.798356 3.009814 -0.105821 0
M  V30 13 N 1.756149 3.378451 -0.978390 0
M  V30 14 C 2.825105 2.577588 -1.218927 0
M  V30 15 N 3.876306 2.894850 -2.123767 0
M  V30 16 O 0.375978 -1.480544 1.215317 0
M  V30 17 C -0.633812 -1.513038 2.138200 0 CFG=2
M  V30 18 C -2.014257 -1.365032 1.534430 0
M  V30 19 O -2.203385 -2.413883 0.644895 0
M  V30 20 P -3.712747 -2.369453 -0.103693 0 CFG=2 VAL=5
M  V30 21 O -4.183525 -0.939805 -0.202494 0
M  V30 22 O -4.824228 -3.304172 0.763507 0 CHG=-1 VAL=1
M  V30 23 O -3.512953 -3.048156 -1.649054 0
M  V30 24 P -2.467036 -4.373660 -1.493633 0
M  V30 25 O -3.034914 -5.398648 -0.528818 0
M  V30 26 O -2.251903 -5.116515 -3.005593 0 CHG=-1 VAL=1
M  V30 27 O -0.976837 -3.814647 -0.958446 0 CHG=-1 VAL=1
M  V30 28 H -1.249546 0.460417 4.565166 0
M  V30 29 H -0.849340 0.579238 2.433626 0
M  V30 30 H 1.506209 0.786595 3.129986 0
M  V30 31 H 2.375076 -0.559672 4.486506 0
M  V30 32 H 2.104238 -1.862424 2.148636 0
M  V30 33 H 3.911678 -1.512796 0.518410 0
M  V30 34 H 0.006807 3.762144 -0.024072 0
M  V30 35 H 4.664131 3.602715 -2.092400 0
M  V30 36 H 4.178059 2.540901 -3.055154 0
M  V30 37 H -0.589421 -2.343916 2.868457 0
M  V30 38 H -2.757307 -1.531700 2.351388 0
M  V30 39 H -2.175056 -0.362661 1.104157 0
M  V30 END ATOM
M  V30 BEGIN BOND
M  V30 1 1 1 2
M  V30 2 1 2 3
M  V30 3 1 3 4
M  V30 4 1 3 5
M  V30 5 1 5 6
M  V30 6 1 6 7
M  V30 7 2 7 8
M  V30 8 1 8 9
M  V30 9 2 9 10
M  V30 10 1 10 11
M  V30 11 2 11 12
M  V30 12 1 12 13
M  V30 13 2 13 14
M  V30 14 1 14 15
M  V30 15 1 5 16
M  V30 16 1 16 17
M  V30 17 1 17 18
M  V30 18 1 18 19
M  V30 19 1 19 20
M  V30 20 2 20 21
M  V30 21 1 20 22 CFG=1
M  V30 22 1 20 23
M  V30 23 1 23 24
M  V30 24 2 24 25
M  V30 25 1 24 26
M  V30 26 1 24 27
M  V30 27 1 17 2
M  V30 28 1 10 6
M  V30 29 1 14 9
M  V30 30 1 1 28
M  V30 31 1 2 29 CFG=3
M  V30 32 1 3 30 CFG=1
M  V30 33 1 4 31
M  V30 34 1 5 32 CFG=1
M  V30 35 1 7 33
M  V30 36 1 12 34
M  V30 37 1 15 35
M  V30 38 1 15 36
M  V30 39 1 17 37 CFG=1
M  V30 40 1 18 38
M  V30 41 1 18 39
M  V30 END BOND
M  V30 END CTAB
M  END
>  <Dataset>  (88) 
PDB

>  <Ligand_Instance>  (88) 
4DH5_ADP_A_403

>  <PDB_ID>  (88) 
4DH5

>  <Standardized_SMILES>  (88) 
[H]O[C@@]1([H])[C@@]([H])(O[H])[C@]([H])(N2C([H])=NC3=C2N=C([H])N=C3N([H])[H])O[C@]1([H])C([H])([H])O[P@](=O)([O-])OP(=O)([O-])[O-]

>  <Name>  (88) 
ADENOSINE-5'-DIPHOSPHATE

>  <Pocket>  (88) 
A

>  <ATP_Site>  (88) 
1.0

>  <Peripheral>  (88) 
0.0

>  <Num_H_Atoms_ProtBoundConf>  (88) 
12.0

>  <Num_Resolved_Atoms>  (88) 
27.0

>  <Num_Not_Resolved_Atoms>  (88) 
0.0

$$$$
ADP
     RDKit          3D

  0  0  0  0  0  0  0  0  0  0999 V3000
M  V30 BEGIN CTAB
M  V30 COUNTS 39 41 0 0 0
M  V30 BEGIN ATOM
M  V30 1 O -0.948285 -0.438583 4.255156 0
M  V30 2 C -0.411171 -0.255040 2.979968 0 CFG=1
M  V30 3 C 1.092178 -0.234105 3.045441 0 CFG=1
M  V30 4 O 1.474056 -0.912258 4.222552 0
M  V30 5 C 1.506228 -0.966081 1.819101 0 CFG=2
M  V30 6 N 2.233989 -0.193765 0.858355 0
M  V30 7 C 3.405953 -0.569193 0.290616 0
M  V30 8 N 3.775171 0.412104 -0.553372 0
M  V30 9 C 2.841851 1.378111 -0.504725 0
M  V30 10 C 1.841459 1.007625 0.397855 0
M  V30 11 N 0.833709 1.848388 0.572746 0
M  V30 12 C 0.798356 3.009814 -0.105821 0
M  V30 13 N 1.756149 3.378451 -0.978390 0
M  V30 14 C 2.825105 2.577588 -1.218927 0
M  V30 15 N 3.876306 2.894850 -2.123767 0
M  V30 16 O 0.375978 -1.480544 1.215317 0
M  V30 17 C -0.633812 -1.513038 2.138200 0 CFG=2
M  V30 18 C -2.014257 -1.365032 1.534430 0
M  V30 19 O -2.203385 -2.413883 0.644895 0
M  V30 20 P -3.712747 -2.369453 -0.103693 0 CFG=2 VAL=5
M  V30 21 O -4.183525 -0.939805 -0.202494 0
M  V30 22 O -4.824228 -3.304172 0.763507 0 CHG=-1 VAL=1
M  V30 23 O -3.512953 -3.048156 -1.649054 0
M  V30 24 P -2.467036 -4.373660 -1.493633 0
M  V30 25 O -3.034914 -5.398648 -0.528818 0
M  V30 26 O -2.251903 -5.116515 -3.005593 0 CHG=-1 VAL=1
M  V30 27 O -0.976837 -3.814647 -0.958446 0 CHG=-1 VAL=1
M  V30 28 H -1.249546 0.460417 4.565166 0
M  V30 29 H -0.849340 0.579238 2.433626 0
M  V30 30 H 1.506209 0.786595 3.129986 0
M  V30 31 H 2.375076 -0.559672 4.486506 0
M  V30 32 H 2.104238 -1.862424 2.148636 0
M  V30 33 H 3.911678 -1.512796 0.518410 0
M  V30 34 H 0.006807 3.762144 -0.024072 0
M  V30 35 H 4.664131 3.602715 -2.092400 0
M  V30 36 H 4.178059 2.540901 -3.055154 0
M  V30 37 H -0.589421 -2.343916 2.868457 0
M  V30 38 H -2.757307 -1.531700 2.351388 0
M  V30 39 H -2.175056 -0.362661 1.104157 0
M  V30 END ATOM
M  V30 BEGIN BOND
M  V30 1 1 1 2
M  V30 2 1 2 3
M  V30 3 1 3 4
M  V30 4 1 3 5
M  V30 5 1 5 6
M  V30 6 1 6 7
M  V30 7 2 7 8
M  V30 8 1 8 9
M  V30 9 2 9 10
M  V30 10 1 10 11
M  V30 11 2 11 12
M  V30 12 1 12 13
M  V30 13 2 13 14
M  V30 14 1 14 15
M  V30 15 1 5 16
M  V30 16 1 16 17
M  V30 17 1 17 18
M  V30 18 1 18 19
M  V30 19 1 19 20
M  V30 20 2 20 21
M  V30 21 1 20 22 CFG=1
M  V30 22 1 20 23
M  V30 23 1 23 24
M  V30 24 2 24 25
M  V30 25 1 24 26
M  V30 26 1 24 27
M  V30 27 1 17 2
M  V30 28 1 10 6
M  V30 29 1 14 9
M  V30 30 1 1 28
M  V30 31 1 2 29 CFG=3
M  V30 32 1 3 30 CFG=1
M  V30 33 1 4 31
M  V30 34 1 5 32 CFG=1
M  V30 35 1 7 33
M  V30 36 1 12 34
M  V30 37 1 15 35
M  V30 38 1 15 36
M  V30 39 1 17 37 CFG=1
M  V30 40 1 18 38
M  V30 41 1 18 39
M  V30 END BOND
M  V30 END CTAB
M  END
>  <Dataset>  (89) 
PDB

>  <Ligand_Instance>  (89) 
4IAD_ADP_A_403

>  <PDB_ID>  (89) 
4IAD

>  <Standardized_SMILES>  (89) 
[H]O[C@@]1([H])[C@@]([H])(O[H])[C@]([H])(N2C([H])=NC3=C2N=C([H])N=C3N([H])[H])O[C@]1([H])C([H])([H])O[P@](=O)([O-])OP(=O)([O-])[O-]

>  <Name>  (89) 
ADENOSINE-5'-DIPHOSPHATE

>  <Pocket>  (89) 
A

>  <ATP_Site>  (89) 
1.0

>  <Peripheral>  (89) 
0.0

>  <Num_H_Atoms_ProtBoundConf>  (89) 
12.0

>  <Num_Resolved_Atoms>  (89) 
27.0

>  <Num_Not_Resolved_Atoms>  (89) 
0.0

$$$$
ADP
     RDKit          3D

  0  0  0  0  0  0  0  0  0  0999 V3000
M  V30 BEGIN CTAB
M  V30 COUNTS 39 41 0 0 0
M  V30 BEGIN ATOM
M  V30 1 O -0.948285 -0.438583 4.255156 0
M  V30 2 C -0.411171 -0.255040 2.979968 0 CFG=1
M  V30 3 C 1.092178 -0.234105 3.045441 0 CFG=1
M  V30 4 O 1.474056 -0.912258 4.222552 0
M  V30 5 C 1.506228 -0.966081 1.819101 0 CFG=2
M  V30 6 N 2.233989 -0.193765 0.858355 0
M  V30 7 C 3.405953 -0.569193 0.290616 0
M  V30 8 N 3.775171 0.412104 -0.553372 0
M  V30 9 C 2.841851 1.378111 -0.504725 0
M  V30 10 C 1.841459 1.007625 0.397855 0
M  V30 11 N 0.833709 1.848388 0.572746 0
M  V30 12 C 0.798356 3.009814 -0.105821 0
M  V30 13 N 1.756149 3.378451 -0.978390 0
M  V30 14 C 2.825105 2.577588 -1.218927 0
M  V30 15 N 3.876306 2.894850 -2.123767 0
M  V30 16 O 0.375978 -1.480544 1.215317 0
M  V30 17 C -0.633812 -1.513038 2.138200 0 CFG=2
M  V30 18 C -2.014257 -1.365032 1.534430 0
M  V30 19 O -2.203385 -2.413883 0.644895 0
M  V30 20 P -3.712747 -2.369453 -0.103693 0 CFG=2 VAL=5
M  V30 21 O -4.183525 -0.939805 -0.202494 0
M  V30 22 O -4.824228 -3.304172 0.763507 0 CHG=-1 VAL=1
M  V30 23 O -3.512953 -3.048156 -1.649054 0
M  V30 24 P -2.467036 -4.373660 -1.493633 0
M  V30 25 O -3.034914 -5.398648 -0.528818 0
M  V30 26 O -2.251903 -5.116515 -3.005593 0 CHG=-1 VAL=1
M  V30 27 O -0.976837 -3.814647 -0.958446 0 CHG=-1 VAL=1
M  V30 28 H -1.249546 0.460417 4.565166 0
M  V30 29 H -0.849340 0.579238 2.433626 0
M  V30 30 H 1.506209 0.786595 3.129986 0
M  V30 31 H 2.375076 -0.559672 4.486506 0
M  V30 32 H 2.104238 -1.862424 2.148636 0
M  V30 33 H 3.911678 -1.512796 0.518410 0
M  V30 34 H 0.006807 3.762144 -0.024072 0
M  V30 35 H 4.664131 3.602715 -2.092400 0
M  V30 36 H 4.178059 2.540901 -3.055154 0
M  V30 37 H -0.589421 -2.343916 2.868457 0
M  V30 38 H -2.757307 -1.531700 2.351388 0
M  V30 39 H -2.175056 -0.362661 1.104157 0
M  V30 END ATOM
M  V30 BEGIN BOND
M  V30 1 1 1 2
M  V30 2 1 2 3
M  V30 3 1 3 4
M  V30 4 1 3 5
M  V30 5 1 5 6
M  V30 6 1 6 7
M  V30 7 2 7 8
M  V30 8 1 8 9
M  V30 9 2 9 10
M  V30 10 1 10 11
M  V30 11 2 11 12
M  V30 12 1 12 13
M  V30 13 2 13 14
M  V30 14 1 14 15
M  V30 15 1 5 16
M  V30 16 1 16 17
M  V30 17 1 17 18
M  V30 18 1 18 19
M  V30 19 1 19 20
M  V30 20 2 20 21
M  V30 21 1 20 22 CFG=1
M  V30 22 1 20 23
M  V30 23 1 23 24
M  V30 24 2 24 25
M  V30 25 1 24 26
M  V30 26 1 24 27
M  V30 27 1 17 2
M  V30 28 1 10 6
M  V30 29 1 14 9
M  V30 30 1 1 28
M  V30 31 1 2 29 CFG=3
M  V30 32 1 3 30 CFG=1
M  V30 33 1 4 31
M  V30 34 1 5 32 CFG=1
M  V30 35 1 7 33
M  V30 36 1 12 34
M  V30 37 1 15 35
M  V30 38 1 15 36
M  V30 39 1 17 37 CFG=1
M  V30 40 1 18 38
M  V30 41 1 18 39
M  V30 END BOND
M  V30 END CTAB
M  END
>  <Dataset>  (90) 
PDB

>  <Ligand_Instance>  (90) 
4IAF_ADP_A_403

>  <PDB_ID>  (90) 
4IAF

>  <Standardized_SMILES>  (90) 
[H]O[C@@]1([H])[C@@]([H])(O[H])[C@]([H])(N2C([H])=NC3=C2N=C([H])N=C3N([H])[H])O[C@]1([H])C([H])([H])O[P@](=O)([O-])OP(=O)([O-])[O-]

>  <Name>  (90) 
ADENOSINE-5'-DIPHOSPHATE

>  <Pocket>  (90) 
A

>  <ATP_Site>  (90) 
1.0

>  <Peripheral>  (90) 
0.0

>  <Num_H_Atoms_ProtBoundConf>  (90) 
12.0

>  <Num_Resolved_Atoms>  (90) 
27.0

>  <Num_Not_Resolved_Atoms>  (90) 
0.0

$$$$
ADP
     RDKit          3D

  0  0  0  0  0  0  0  0  0  0999 V3000
M  V30 BEGIN CTAB
M  V30 COUNTS 39 41 0 0 0
M  V30 BEGIN ATOM
M  V30 1 O -0.948285 -0.438583 4.255156 0
M  V30 2 C -0.411171 -0.255040 2.979968 0 CFG=1
M  V30 3 C 1.092178 -0.234105 3.045441 0 CFG=1
M  V30 4 O 1.474056 -0.912258 4.222552 0
M  V30 5 C 1.506228 -0.966081 1.819101 0 CFG=2
M  V30 6 N 2.233989 -0.193765 0.858355 0
M  V30 7 C 3.405953 -0.569193 0.290616 0
M  V30 8 N 3.775171 0.412104 -0.553372 0
M  V30 9 C 2.841851 1.378111 -0.504725 0
M  V30 10 C 1.841459 1.007625 0.397855 0
M  V30 11 N 0.833709 1.848388 0.572746 0
M  V30 12 C 0.798356 3.009814 -0.105821 0
M  V30 13 N 1.756149 3.378451 -0.978390 0
M  V30 14 C 2.825105 2.577588 -1.218927 0
M  V30 15 N 3.876306 2.894850 -2.123767 0
M  V30 16 O 0.375978 -1.480544 1.215317 0
M  V30 17 C -0.633812 -1.513038 2.138200 0 CFG=2
M  V30 18 C -2.014257 -1.365032 1.534430 0
M  V30 19 O -2.203385 -2.413883 0.644895 0
M  V30 20 P -3.712747 -2.369453 -0.103693 0 CFG=2 VAL=5
M  V30 21 O -4.183525 -0.939805 -0.202494 0
M  V30 22 O -4.824228 -3.304172 0.763507 0 CHG=-1 VAL=1
M  V30 23 O -3.512953 -3.048156 -1.649054 0
M  V30 24 P -2.467036 -4.373660 -1.493633 0
M  V30 25 O -3.034914 -5.398648 -0.528818 0
M  V30 26 O -2.251903 -5.116515 -3.005593 0 CHG=-1 VAL=1
M  V30 27 O -0.976837 -3.814647 -0.958446 0 CHG=-1 VAL=1
M  V30 28 H -1.249546 0.460417 4.565166 0
M  V30 29 H -0.849340 0.579238 2.433626 0
M  V30 30 H 1.506209 0.786595 3.129986 0
M  V30 31 H 2.375076 -0.559672 4.486506 0
M  V30 32 H 2.104238 -1.862424 2.148636 0
M  V30 33 H 3.911678 -1.512796 0.518410 0
M  V30 34 H 0.006807 3.762144 -0.024072 0
M  V30 35 H 4.664131 3.602715 -2.092400 0
M  V30 36 H 4.178059 2.540901 -3.055154 0
M  V30 37 H -0.589421 -2.343916 2.868457 0
M  V30 38 H -2.757307 -1.531700 2.351388 0
M  V30 39 H -2.175056 -0.362661 1.104157 0
M  V30 END ATOM
M  V30 BEGIN BOND
M  V30 1 1 1 2
M  V30 2 1 2 3
M  V30 3 1 3 4
M  V30 4 1 3 5
M  V30 5 1 5 6
M  V30 6 1 6 7
M  V30 7 2 7 8
M  V30 8 1 8 9
M  V30 9 2 9 10
M  V30 10 1 10 11
M  V30 11 2 11 12
M  V30 12 1 12 13
M  V30 13 2 13 14
M  V30 14 1 14 15
M  V30 15 1 5 16
M  V30 16 1 16 17
M  V30 17 1 17 18
M  V30 18 1 18 19
M  V30 19 1 19 20
M  V30 20 2 20 21
M  V30 21 1 20 22 CFG=1
M  V30 22 1 20 23
M  V30 23 1 23 24
M  V30 24 2 24 25
M  V30 25 1 24 26
M  V30 26 1 24 27
M  V30 27 1 17 2
M  V30 28 1 10 6
M  V30 29 1 14 9
M  V30 30 1 1 28
M  V30 31 1 2 29 CFG=3
M  V30 32 1 3 30 CFG=1
M  V30 33 1 4 31
M  V30 34 1 5 32 CFG=1
M  V30 35 1 7 33
M  V30 36 1 12 34
M  V30 37 1 15 35
M  V30 38 1 15 36
M  V30 39 1 17 37 CFG=1
M  V30 40 1 18 38
M  V30 41 1 18 39
M  V30 END BOND
M  V30 END CTAB
M  END
>  <Dataset>  (91) 
PDB

>  <Ligand_Instance>  (91) 
4IAI_ADP_A_403

>  <PDB_ID>  (91) 
4IAI

>  <Standardized_SMILES>  (91) 
[H]O[C@@]1([H])[C@@]([H])(O[H])[C@]([H])(N2C([H])=NC3=C2N=C([H])N=C3N([H])[H])O[C@]1([H])C([H])([H])O[P@](=O)([O-])OP(=O)([O-])[O-]

>  <Name>  (91) 
ADENOSINE-5'-DIPHOSPHATE

>  <Pocket>  (91) 
A

>  <ATP_Site>  (91) 
1.0

>  <Peripheral>  (91) 
0.0

>  <Num_H_Atoms_ProtBoundConf>  (91) 
12.0

>  <Num_Resolved_Atoms>  (91) 
27.0

>  <Num_Not_Resolved_Atoms>  (91) 
0.0

$$$$
ADP
     RDKit          3D

  0  0  0  0  0  0  0  0  0  0999 V3000
M  V30 BEGIN CTAB
M  V30 COUNTS 39 41 0 0 0
M  V30 BEGIN ATOM
M  V30 1 O -0.948285 -0.438583 4.255156 0
M  V30 2 C -0.411171 -0.255040 2.979968 0 CFG=1
M  V30 3 C 1.092178 -0.234105 3.045441 0 CFG=1
M  V30 4 O 1.474056 -0.912258 4.222552 0
M  V30 5 C 1.506228 -0.966081 1.819101 0 CFG=2
M  V30 6 N 2.233989 -0.193765 0.858355 0
M  V30 7 C 3.405953 -0.569193 0.290616 0
M  V30 8 N 3.775171 0.412104 -0.553372 0
M  V30 9 C 2.841851 1.378111 -0.504725 0
M  V30 10 C 1.841459 1.007625 0.397855 0
M  V30 11 N 0.833709 1.848388 0.572746 0
M  V30 12 C 0.798356 3.009814 -0.105821 0
M  V30 13 N 1.756149 3.378451 -0.978390 0
M  V30 14 C 2.825105 2.577588 -1.218927 0
M  V30 15 N 3.876306 2.894850 -2.123767 0
M  V30 16 O 0.375978 -1.480544 1.215317 0
M  V30 17 C -0.633812 -1.513038 2.138200 0 CFG=2
M  V30 18 C -2.014257 -1.365032 1.534430 0
M  V30 19 O -2.203385 -2.413883 0.644895 0
M  V30 20 P -3.712747 -2.369453 -0.103693 0 CFG=2 VAL=5
M  V30 21 O -4.183525 -0.939805 -0.202494 0
M  V30 22 O -4.824228 -3.304172 0.763507 0 CHG=-1 VAL=1
M  V30 23 O -3.512953 -3.048156 -1.649054 0
M  V30 24 P -2.467036 -4.373660 -1.493633 0
M  V30 25 O -3.034914 -5.398648 -0.528818 0
M  V30 26 O -2.251903 -5.116515 -3.005593 0 CHG=-1 VAL=1
M  V30 27 O -0.976837 -3.814647 -0.958446 0 CHG=-1 VAL=1
M  V30 28 H -1.249546 0.460417 4.565166 0
M  V30 29 H -0.849340 0.579238 2.433626 0
M  V30 30 H 1.506209 0.786595 3.129986 0
M  V30 31 H 2.375076 -0.559672 4.486506 0
M  V30 32 H 2.104238 -1.862424 2.148636 0
M  V30 33 H 3.911678 -1.512796 0.518410 0
M  V30 34 H 0.006807 3.762144 -0.024072 0
M  V30 35 H 4.664131 3.602715 -2.092400 0
M  V30 36 H 4.178059 2.540901 -3.055154 0
M  V30 37 H -0.589421 -2.343916 2.868457 0
M  V30 38 H -2.757307 -1.531700 2.351388 0
M  V30 39 H -2.175056 -0.362661 1.104157 0
M  V30 END ATOM
M  V30 BEGIN BOND
M  V30 1 1 1 2
M  V30 2 1 2 3
M  V30 3 1 3 4
M  V30 4 1 3 5
M  V30 5 1 5 6
M  V30 6 1 6 7
M  V30 7 2 7 8
M  V30 8 1 8 9
M  V30 9 2 9 10
M  V30 10 1 10 11
M  V30 11 2 11 12
M  V30 12 1 12 13
M  V30 13 2 13 14
M  V30 14 1 14 15
M  V30 15 1 5 16
M  V30 16 1 16 17
M  V30 17 1 17 18
M  V30 18 1 18 19
M  V30 19 1 19 20
M  V30 20 2 20 21
M  V30 21 1 20 22 CFG=1
M  V30 22 1 20 23
M  V30 23 1 23 24
M  V30 24 2 24 25
M  V30 25 1 24 26
M  V30 26 1 24 27
M  V30 27 1 17 2
M  V30 28 1 10 6
M  V30 29 1 14 9
M  V30 30 1 1 28
M  V30 31 1 2 29 CFG=3
M  V30 32 1 3 30 CFG=1
M  V30 33 1 4 31
M  V30 34 1 5 32 CFG=1
M  V30 35 1 7 33
M  V30 36 1 12 34
M  V30 37 1 15 35
M  V30 38 1 15 36
M  V30 39 1 17 37 CFG=1
M  V30 40 1 18 38
M  V30 41 1 18 39
M  V30 END BOND
M  V30 END CTAB
M  END
>  <Dataset>  (92) 
PDB

>  <Ligand_Instance>  (92) 
4IAK_ADP_A_403

>  <PDB_ID>  (92) 
4IAK

>  <Standardized_SMILES>  (92) 
[H]O[C@@]1([H])[C@@]([H])(O[H])[C@]([H])(N2C([H])=NC3=C2N=C([H])N=C3N([H])[H])O[C@]1([H])C([H])([H])O[P@](=O)([O-])OP(=O)([O-])[O-]

>  <Name>  (92) 
ADENOSINE-5'-DIPHOSPHATE

>  <Pocket>  (92) 
A

>  <ATP_Site>  (92) 
1.0

>  <Peripheral>  (92) 
0.0

>  <Num_H_Atoms_ProtBoundConf>  (92) 
12.0

>  <Num_Resolved_Atoms>  (92) 
27.0

>  <Num_Not_Resolved_Atoms>  (92) 
0.0

$$$$
ADP
     RDKit          3D

  0  0  0  0  0  0  0  0  0  0999 V3000
M  V30 BEGIN CTAB
M  V30 COUNTS 39 41 0 0 0
M  V30 BEGIN ATOM
M  V30 1 O -0.948285 -0.438583 4.255156 0
M  V30 2 C -0.411171 -0.255040 2.979968 0 CFG=1
M  V30 3 C 1.092178 -0.234105 3.045441 0 CFG=1
M  V30 4 O 1.474056 -0.912258 4.222552 0
M  V30 5 C 1.506228 -0.966081 1.819101 0 CFG=2
M  V30 6 N 2.233989 -0.193765 0.858355 0
M  V30 7 C 3.405953 -0.569193 0.290616 0
M  V30 8 N 3.775171 0.412104 -0.553372 0
M  V30 9 C 2.841851 1.378111 -0.504725 0
M  V30 10 C 1.841459 1.007625 0.397855 0
M  V30 11 N 0.833709 1.848388 0.572746 0
M  V30 12 C 0.798356 3.009814 -0.105821 0
M  V30 13 N 1.756149 3.378451 -0.978390 0
M  V30 14 C 2.825105 2.577588 -1.218927 0
M  V30 15 N 3.876306 2.894850 -2.123767 0
M  V30 16 O 0.375978 -1.480544 1.215317 0
M  V30 17 C -0.633812 -1.513038 2.138200 0 CFG=2
M  V30 18 C -2.014257 -1.365032 1.534430 0
M  V30 19 O -2.203385 -2.413883 0.644895 0
M  V30 20 P -3.712747 -2.369453 -0.103693 0 CFG=2 VAL=5
M  V30 21 O -4.183525 -0.939805 -0.202494 0
M  V30 22 O -4.824228 -3.304172 0.763507 0 CHG=-1 VAL=1
M  V30 23 O -3.512953 -3.048156 -1.649054 0
M  V30 24 P -2.467036 -4.373660 -1.493633 0
M  V30 25 O -3.034914 -5.398648 -0.528818 0
M  V30 26 O -2.251903 -5.116515 -3.005593 0 CHG=-1 VAL=1
M  V30 27 O -0.976837 -3.814647 -0.958446 0 CHG=-1 VAL=1
M  V30 28 H -1.249546 0.460417 4.565166 0
M  V30 29 H -0.849340 0.579238 2.433626 0
M  V30 30 H 1.506209 0.786595 3.129986 0
M  V30 31 H 2.375076 -0.559672 4.486506 0
M  V30 32 H 2.104238 -1.862424 2.148636 0
M  V30 33 H 3.911678 -1.512796 0.518410 0
M  V30 34 H 0.006807 3.762144 -0.024072 0
M  V30 35 H 4.664131 3.602715 -2.092400 0
M  V30 36 H 4.178059 2.540901 -3.055154 0
M  V30 37 H -0.589421 -2.343916 2.868457 0
M  V30 38 H -2.757307 -1.531700 2.351388 0
M  V30 39 H -2.175056 -0.362661 1.104157 0
M  V30 END ATOM
M  V30 BEGIN BOND
M  V30 1 1 1 2
M  V30 2 1 2 3
M  V30 3 1 3 4
M  V30 4 1 3 5
M  V30 5 1 5 6
M  V30 6 1 6 7
M  V30 7 2 7 8
M  V30 8 1 8 9
M  V30 9 2 9 10
M  V30 10 1 10 11
M  V30 11 2 11 12
M  V30 12 1 12 13
M  V30 13 2 13 14
M  V30 14 1 14 15
M  V30 15 1 5 16
M  V30 16 1 16 17
M  V30 17 1 17 18
M  V30 18 1 18 19
M  V30 19 1 19 20
M  V30 20 2 20 21
M  V30 21 1 20 22 CFG=1
M  V30 22 1 20 23
M  V30 23 1 23 24
M  V30 24 2 24 25
M  V30 25 1 24 26
M  V30 26 1 24 27
M  V30 27 1 17 2
M  V30 28 1 10 6
M  V30 29 1 14 9
M  V30 30 1 1 28
M  V30 31 1 2 29 CFG=3
M  V30 32 1 3 30 CFG=1
M  V30 33 1 4 31
M  V30 34 1 5 32 CFG=1
M  V30 35 1 7 33
M  V30 36 1 12 34
M  V30 37 1 15 35
M  V30 38 1 15 36
M  V30 39 1 17 37 CFG=1
M  V30 40 1 18 38
M  V30 41 1 18 39
M  V30 END BOND
M  V30 END CTAB
M  END
>  <Dataset>  (93) 
PDB

>  <Ligand_Instance>  (93) 
4IAY_ADP_A_403

>  <PDB_ID>  (93) 
4IAY

>  <Standardized_SMILES>  (93) 
[H]O[C@@]1([H])[C@@]([H])(O[H])[C@]([H])(N2C([H])=NC3=C2N=C([H])N=C3N([H])[H])O[C@]1([H])C([H])([H])O[P@](=O)([O-])OP(=O)([O-])[O-]

>  <Name>  (93) 
ADENOSINE-5'-DIPHOSPHATE

>  <Pocket>  (93) 
A

>  <ATP_Site>  (93) 
1.0

>  <Peripheral>  (93) 
0.0

>  <Num_H_Atoms_ProtBoundConf>  (93) 
12.0

>  <Num_Resolved_Atoms>  (93) 
27.0

>  <Num_Not_Resolved_Atoms>  (93) 
0.0

$$$$
ADP
     RDKit          3D

  0  0  0  0  0  0  0  0  0  0999 V3000
M  V30 BEGIN CTAB
M  V30 COUNTS 39 41 0 0 0
M  V30 BEGIN ATOM
M  V30 1 O -0.948285 -0.438583 4.255156 0
M  V30 2 C -0.411171 -0.255040 2.979968 0 CFG=1
M  V30 3 C 1.092178 -0.234105 3.045441 0 CFG=1
M  V30 4 O 1.474056 -0.912258 4.222552 0
M  V30 5 C 1.506228 -0.966081 1.819101 0 CFG=2
M  V30 6 N 2.233989 -0.193765 0.858355 0
M  V30 7 C 3.405953 -0.569193 0.290616 0
M  V30 8 N 3.775171 0.412104 -0.553372 0
M  V30 9 C 2.841851 1.378111 -0.504725 0
M  V30 10 C 1.841459 1.007625 0.397855 0
M  V30 11 N 0.833709 1.848388 0.572746 0
M  V30 12 C 0.798356 3.009814 -0.105821 0
M  V30 13 N 1.756149 3.378451 -0.978390 0
M  V30 14 C 2.825105 2.577588 -1.218927 0
M  V30 15 N 3.876306 2.894850 -2.123767 0
M  V30 16 O 0.375978 -1.480544 1.215317 0
M  V30 17 C -0.633812 -1.513038 2.138200 0 CFG=2
M  V30 18 C -2.014257 -1.365032 1.534430 0
M  V30 19 O -2.203385 -2.413883 0.644895 0
M  V30 20 P -3.712747 -2.369453 -0.103693 0 CFG=2 VAL=5
M  V30 21 O -4.183525 -0.939805 -0.202494 0
M  V30 22 O -4.824228 -3.304172 0.763507 0 CHG=-1 VAL=1
M  V30 23 O -3.512953 -3.048156 -1.649054 0
M  V30 24 P -2.467036 -4.373660 -1.493633 0
M  V30 25 O -3.034914 -5.398648 -0.528818 0
M  V30 26 O -2.251903 -5.116515 -3.005593 0 CHG=-1 VAL=1
M  V30 27 O -0.976837 -3.814647 -0.958446 0 CHG=-1 VAL=1
M  V30 28 H -1.249546 0.460417 4.565166 0
M  V30 29 H -0.849340 0.579238 2.433626 0
M  V30 30 H 1.506209 0.786595 3.129986 0
M  V30 31 H 2.375076 -0.559672 4.486506 0
M  V30 32 H 2.104238 -1.862424 2.148636 0
M  V30 33 H 3.911678 -1.512796 0.518410 0
M  V30 34 H 0.006807 3.762144 -0.024072 0
M  V30 35 H 4.664131 3.602715 -2.092400 0
M  V30 36 H 4.178059 2.540901 -3.055154 0
M  V30 37 H -0.589421 -2.343916 2.868457 0
M  V30 38 H -2.757307 -1.531700 2.351388 0
M  V30 39 H -2.175056 -0.362661 1.104157 0
M  V30 END ATOM
M  V30 BEGIN BOND
M  V30 1 1 1 2
M  V30 2 1 2 3
M  V30 3 1 3 4
M  V30 4 1 3 5
M  V30 5 1 5 6
M  V30 6 1 6 7
M  V30 7 2 7 8
M  V30 8 1 8 9
M  V30 9 2 9 10
M  V30 10 1 10 11
M  V30 11 2 11 12
M  V30 12 1 12 13
M  V30 13 2 13 14
M  V30 14 1 14 15
M  V30 15 1 5 16
M  V30 16 1 16 17
M  V30 17 1 17 18
M  V30 18 1 18 19
M  V30 19 1 19 20
M  V30 20 2 20 21
M  V30 21 1 20 22 CFG=1
M  V30 22 1 20 23
M  V30 23 1 23 24
M  V30 24 2 24 25
M  V30 25 1 24 26
M  V30 26 1 24 27
M  V30 27 1 17 2
M  V30 28 1 10 6
M  V30 29 1 14 9
M  V30 30 1 1 28
M  V30 31 1 2 29 CFG=3
M  V30 32 1 3 30 CFG=1
M  V30 33 1 4 31
M  V30 34 1 5 32 CFG=1
M  V30 35 1 7 33
M  V30 36 1 12 34
M  V30 37 1 15 35
M  V30 38 1 15 36
M  V30 39 1 17 37 CFG=1
M  V30 40 1 18 38
M  V30 41 1 18 39
M  V30 END BOND
M  V30 END CTAB
M  END
>  <Dataset>  (94) 
PDB

>  <Ligand_Instance>  (94) 
4IAZ_ADP_A_403

>  <PDB_ID>  (94) 
4IAZ

>  <Standardized_SMILES>  (94) 
[H]O[C@@]1([H])[C@@]([H])(O[H])[C@]([H])(N2C([H])=NC3=C2N=C([H])N=C3N([H])[H])O[C@]1([H])C([H])([H])O[P@](=O)([O-])OP(=O)([O-])[O-]

>  <Name>  (94) 
ADENOSINE-5'-DIPHOSPHATE

>  <Pocket>  (94) 
A

>  <ATP_Site>  (94) 
1.0

>  <Peripheral>  (94) 
0.0

>  <Num_H_Atoms_ProtBoundConf>  (94) 
12.0

>  <Num_Resolved_Atoms>  (94) 
27.0

>  <Num_Not_Resolved_Atoms>  (94) 
0.0

$$$$
ADP
     RDKit          3D

  0  0  0  0  0  0  0  0  0  0999 V3000
M  V30 BEGIN CTAB
M  V30 COUNTS 39 41 0 0 0
M  V30 BEGIN ATOM
M  V30 1 O -0.948285 -0.438583 4.255156 0
M  V30 2 C -0.411171 -0.255040 2.979968 0 CFG=1
M  V30 3 C 1.092178 -0.234105 3.045441 0 CFG=1
M  V30 4 O 1.474056 -0.912258 4.222552 0
M  V30 5 C 1.506228 -0.966081 1.819101 0 CFG=2
M  V30 6 N 2.233989 -0.193765 0.858355 0
M  V30 7 C 3.405953 -0.569193 0.290616 0
M  V30 8 N 3.775171 0.412104 -0.553372 0
M  V30 9 C 2.841851 1.378111 -0.504725 0
M  V30 10 C 1.841459 1.007625 0.397855 0
M  V30 11 N 0.833709 1.848388 0.572746 0
M  V30 12 C 0.798356 3.009814 -0.105821 0
M  V30 13 N 1.756149 3.378451 -0.978390 0
M  V30 14 C 2.825105 2.577588 -1.218927 0
M  V30 15 N 3.876306 2.894850 -2.123767 0
M  V30 16 O 0.375978 -1.480544 1.215317 0
M  V30 17 C -0.633812 -1.513038 2.138200 0 CFG=2
M  V30 18 C -2.014257 -1.365032 1.534430 0
M  V30 19 O -2.203385 -2.413883 0.644895 0
M  V30 20 P -3.712747 -2.369453 -0.103693 0 CFG=2 VAL=5
M  V30 21 O -4.183525 -0.939805 -0.202494 0
M  V30 22 O -4.824228 -3.304172 0.763507 0 CHG=-1 VAL=1
M  V30 23 O -3.512953 -3.048156 -1.649054 0
M  V30 24 P -2.467036 -4.373660 -1.493633 0
M  V30 25 O -3.034914 -5.398648 -0.528818 0
M  V30 26 O -2.251903 -5.116515 -3.005593 0 CHG=-1 VAL=1
M  V30 27 O -0.976837 -3.814647 -0.958446 0 CHG=-1 VAL=1
M  V30 28 H -1.249546 0.460417 4.565166 0
M  V30 29 H -0.849340 0.579238 2.433626 0
M  V30 30 H 1.506209 0.786595 3.129986 0
M  V30 31 H 2.375076 -0.559672 4.486506 0
M  V30 32 H 2.104238 -1.862424 2.148636 0
M  V30 33 H 3.911678 -1.512796 0.518410 0
M  V30 34 H 0.006807 3.762144 -0.024072 0
M  V30 35 H 4.664131 3.602715 -2.092400 0
M  V30 36 H 4.178059 2.540901 -3.055154 0
M  V30 37 H -0.589421 -2.343916 2.868457 0
M  V30 38 H -2.757307 -1.531700 2.351388 0
M  V30 39 H -2.175056 -0.362661 1.104157 0
M  V30 END ATOM
M  V30 BEGIN BOND
M  V30 1 1 1 2
M  V30 2 1 2 3
M  V30 3 1 3 4
M  V30 4 1 3 5
M  V30 5 1 5 6
M  V30 6 1 6 7
M  V30 7 2 7 8
M  V30 8 1 8 9
M  V30 9 2 9 10
M  V30 10 1 10 11
M  V30 11 2 11 12
M  V30 12 1 12 13
M  V30 13 2 13 14
M  V30 14 1 14 15
M  V30 15 1 5 16
M  V30 16 1 16 17
M  V30 17 1 17 18
M  V30 18 1 18 19
M  V30 19 1 19 20
M  V30 20 2 20 21
M  V30 21 1 20 22 CFG=1
M  V30 22 1 20 23
M  V30 23 1 23 24
M  V30 24 2 24 25
M  V30 25 1 24 26
M  V30 26 1 24 27
M  V30 27 1 17 2
M  V30 28 1 10 6
M  V30 29 1 14 9
M  V30 30 1 1 28
M  V30 31 1 2 29 CFG=3
M  V30 32 1 3 30 CFG=1
M  V30 33 1 4 31
M  V30 34 1 5 32 CFG=1
M  V30 35 1 7 33
M  V30 36 1 12 34
M  V30 37 1 15 35
M  V30 38 1 15 36
M  V30 39 1 17 37 CFG=1
M  V30 40 1 18 38
M  V30 41 1 18 39
M  V30 END BOND
M  V30 END CTAB
M  END
>  <Dataset>  (95) 
PDB

>  <Ligand_Instance>  (95) 
4IB0_ADP_A_403

>  <PDB_ID>  (95) 
4IB0

>  <Standardized_SMILES>  (95) 
[H]O[C@@]1([H])[C@@]([H])(O[H])[C@]([H])(N2C([H])=NC3=C2N=C([H])N=C3N([H])[H])O[C@]1([H])C([H])([H])O[P@](=O)([O-])OP(=O)([O-])[O-]

>  <Name>  (95) 
ADENOSINE-5'-DIPHOSPHATE

>  <Pocket>  (95) 
A

>  <ATP_Site>  (95) 
1.0

>  <Peripheral>  (95) 
0.0

>  <Num_H_Atoms_ProtBoundConf>  (95) 
12.0

>  <Num_Resolved_Atoms>  (95) 
27.0

>  <Num_Not_Resolved_Atoms>  (95) 
0.0

$$$$
ADP
     RDKit          3D

  0  0  0  0  0  0  0  0  0  0999 V3000
M  V30 BEGIN CTAB
M  V30 COUNTS 39 41 0 0 0
M  V30 BEGIN ATOM
M  V30 1 O -0.948285 -0.438583 4.255156 0
M  V30 2 C -0.411171 -0.255040 2.979968 0 CFG=1
M  V30 3 C 1.092178 -0.234105 3.045441 0 CFG=1
M  V30 4 O 1.474056 -0.912258 4.222552 0
M  V30 5 C 1.506228 -0.966081 1.819101 0 CFG=2
M  V30 6 N 2.233989 -0.193765 0.858355 0
M  V30 7 C 3.405953 -0.569193 0.290616 0
M  V30 8 N 3.775171 0.412104 -0.553372 0
M  V30 9 C 2.841851 1.378111 -0.504725 0
M  V30 10 C 1.841459 1.007625 0.397855 0
M  V30 11 N 0.833709 1.848388 0.572746 0
M  V30 12 C 0.798356 3.009814 -0.105821 0
M  V30 13 N 1.756149 3.378451 -0.978390 0
M  V30 14 C 2.825105 2.577588 -1.218927 0
M  V30 15 N 3.876306 2.894850 -2.123767 0
M  V30 16 O 0.375978 -1.480544 1.215317 0
M  V30 17 C -0.633812 -1.513038 2.138200 0 CFG=2
M  V30 18 C -2.014257 -1.365032 1.534430 0
M  V30 19 O -2.203385 -2.413883 0.644895 0
M  V30 20 P -3.712747 -2.369453 -0.103693 0 CFG=2 VAL=5
M  V30 21 O -4.183525 -0.939805 -0.202494 0
M  V30 22 O -4.824228 -3.304172 0.763507 0 CHG=-1 VAL=1
M  V30 23 O -3.512953 -3.048156 -1.649054 0
M  V30 24 P -2.467036 -4.373660 -1.493633 0
M  V30 25 O -3.034914 -5.398648 -0.528818 0
M  V30 26 O -2.251903 -5.116515 -3.005593 0 CHG=-1 VAL=1
M  V30 27 O -0.976837 -3.814647 -0.958446 0 CHG=-1 VAL=1
M  V30 28 H -1.249546 0.460417 4.565166 0
M  V30 29 H -0.849340 0.579238 2.433626 0
M  V30 30 H 1.506209 0.786595 3.129986 0
M  V30 31 H 2.375076 -0.559672 4.486506 0
M  V30 32 H 2.104238 -1.862424 2.148636 0
M  V30 33 H 3.911678 -1.512796 0.518410 0
M  V30 34 H 0.006807 3.762144 -0.024072 0
M  V30 35 H 4.664131 3.602715 -2.092400 0
M  V30 36 H 4.178059 2.540901 -3.055154 0
M  V30 37 H -0.589421 -2.343916 2.868457 0
M  V30 38 H -2.757307 -1.531700 2.351388 0
M  V30 39 H -2.175056 -0.362661 1.104157 0
M  V30 END ATOM
M  V30 BEGIN BOND
M  V30 1 1 1 2
M  V30 2 1 2 3
M  V30 3 1 3 4
M  V30 4 1 3 5
M  V30 5 1 5 6
M  V30 6 1 6 7
M  V30 7 2 7 8
M  V30 8 1 8 9
M  V30 9 2 9 10
M  V30 10 1 10 11
M  V30 11 2 11 12
M  V30 12 1 12 13
M  V30 13 2 13 14
M  V30 14 1 14 15
M  V30 15 1 5 16
M  V30 16 1 16 17
M  V30 17 1 17 18
M  V30 18 1 18 19
M  V30 19 1 19 20
M  V30 20 2 20 21
M  V30 21 1 20 22 CFG=1
M  V30 22 1 20 23
M  V30 23 1 23 24
M  V30 24 2 24 25
M  V30 25 1 24 26
M  V30 26 1 24 27
M  V30 27 1 17 2
M  V30 28 1 10 6
M  V30 29 1 14 9
M  V30 30 1 1 28
M  V30 31 1 2 29 CFG=3
M  V30 32 1 3 30 CFG=1
M  V30 33 1 4 31
M  V30 34 1 5 32 CFG=1
M  V30 35 1 7 33
M  V30 36 1 12 34
M  V30 37 1 15 35
M  V30 38 1 15 36
M  V30 39 1 17 37 CFG=1
M  V30 40 1 18 38
M  V30 41 1 18 39
M  V30 END BOND
M  V30 END CTAB
M  END
>  <Dataset>  (96) 
PDB

>  <Ligand_Instance>  (96) 
4IB1_ADP_A_403

>  <PDB_ID>  (96) 
4IB1

>  <Standardized_SMILES>  (96) 
[H]O[C@@]1([H])[C@@]([H])(O[H])[C@]([H])(N2C([H])=NC3=C2N=C([H])N=C3N([H])[H])O[C@]1([H])C([H])([H])O[P@](=O)([O-])OP(=O)([O-])[O-]

>  <Name>  (96) 
ADENOSINE-5'-DIPHOSPHATE

>  <Pocket>  (96) 
A

>  <ATP_Site>  (96) 
1.0

>  <Peripheral>  (96) 
0.0

>  <Num_H_Atoms_ProtBoundConf>  (96) 
12.0

>  <Num_Resolved_Atoms>  (96) 
27.0

>  <Num_Not_Resolved_Atoms>  (96) 
0.0

$$$$
ADP
     RDKit          3D

  0  0  0  0  0  0  0  0  0  0999 V3000
M  V30 BEGIN CTAB
M  V30 COUNTS 39 41 0 0 0
M  V30 BEGIN ATOM
M  V30 1 O -0.948285 -0.438583 4.255156 0
M  V30 2 C -0.411171 -0.255040 2.979968 0 CFG=1
M  V30 3 C 1.092178 -0.234105 3.045441 0 CFG=1
M  V30 4 O 1.474056 -0.912258 4.222552 0
M  V30 5 C 1.506228 -0.966081 1.819101 0 CFG=2
M  V30 6 N 2.233989 -0.193765 0.858355 0
M  V30 7 C 3.405953 -0.569193 0.290616 0
M  V30 8 N 3.775171 0.412104 -0.553372 0
M  V30 9 C 2.841851 1.378111 -0.504725 0
M  V30 10 C 1.841459 1.007625 0.397855 0
M  V30 11 N 0.833709 1.848388 0.572746 0
M  V30 12 C 0.798356 3.009814 -0.105821 0
M  V30 13 N 1.756149 3.378451 -0.978390 0
M  V30 14 C 2.825105 2.577588 -1.218927 0
M  V30 15 N 3.876306 2.894850 -2.123767 0
M  V30 16 O 0.375978 -1.480544 1.215317 0
M  V30 17 C -0.633812 -1.513038 2.138200 0 CFG=2
M  V30 18 C -2.014257 -1.365032 1.534430 0
M  V30 19 O -2.203385 -2.413883 0.644895 0
M  V30 20 P -3.712747 -2.369453 -0.103693 0 CFG=2 VAL=5
M  V30 21 O -4.183525 -0.939805 -0.202494 0
M  V30 22 O -4.824228 -3.304172 0.763507 0 CHG=-1 VAL=1
M  V30 23 O -3.512953 -3.048156 -1.649054 0
M  V30 24 P -2.467036 -4.373660 -1.493633 0
M  V30 25 O -3.034914 -5.398648 -0.528818 0
M  V30 26 O -2.251903 -5.116515 -3.005593 0 CHG=-1 VAL=1
M  V30 27 O -0.976837 -3.814647 -0.958446 0 CHG=-1 VAL=1
M  V30 28 H -1.249546 0.460417 4.565166 0
M  V30 29 H -0.849340 0.579238 2.433626 0
M  V30 30 H 1.506209 0.786595 3.129986 0
M  V30 31 H 2.375076 -0.559672 4.486506 0
M  V30 32 H 2.104238 -1.862424 2.148636 0
M  V30 33 H 3.911678 -1.512796 0.518410 0
M  V30 34 H 0.006807 3.762144 -0.024072 0
M  V30 35 H 4.664131 3.602715 -2.092400 0
M  V30 36 H 4.178059 2.540901 -3.055154 0
M  V30 37 H -0.589421 -2.343916 2.868457 0
M  V30 38 H -2.757307 -1.531700 2.351388 0
M  V30 39 H -2.175056 -0.362661 1.104157 0
M  V30 END ATOM
M  V30 BEGIN BOND
M  V30 1 1 1 2
M  V30 2 1 2 3
M  V30 3 1 3 4
M  V30 4 1 3 5
M  V30 5 1 5 6
M  V30 6 1 6 7
M  V30 7 2 7 8
M  V30 8 1 8 9
M  V30 9 2 9 10
M  V30 10 1 10 11
M  V30 11 2 11 12
M  V30 12 1 12 13
M  V30 13 2 13 14
M  V30 14 1 14 15
M  V30 15 1 5 16
M  V30 16 1 16 17
M  V30 17 1 17 18
M  V30 18 1 18 19
M  V30 19 1 19 20
M  V30 20 2 20 21
M  V30 21 1 20 22 CFG=1
M  V30 22 1 20 23
M  V30 23 1 23 24
M  V30 24 2 24 25
M  V30 25 1 24 26
M  V30 26 1 24 27
M  V30 27 1 17 2
M  V30 28 1 10 6
M  V30 29 1 14 9
M  V30 30 1 1 28
M  V30 31 1 2 29 CFG=3
M  V30 32 1 3 30 CFG=1
M  V30 33 1 4 31
M  V30 34 1 5 32 CFG=1
M  V30 35 1 7 33
M  V30 36 1 12 34
M  V30 37 1 15 35
M  V30 38 1 15 36
M  V30 39 1 17 37 CFG=1
M  V30 40 1 18 38
M  V30 41 1 18 39
M  V30 END BOND
M  V30 END CTAB
M  END
>  <Dataset>  (97) 
PDB

>  <Ligand_Instance>  (97) 
4IB3_ADP_A_401

>  <PDB_ID>  (97) 
4IB3

>  <Standardized_SMILES>  (97) 
[H]O[C@@]1([H])[C@@]([H])(O[H])[C@]([H])(N2C([H])=NC3=C2N=C([H])N=C3N([H])[H])O[C@]1([H])C([H])([H])O[P@](=O)([O-])OP(=O)([O-])[O-]

>  <Name>  (97) 
ADENOSINE-5'-DIPHOSPHATE

>  <Pocket>  (97) 
A

>  <ATP_Site>  (97) 
1.0

>  <Peripheral>  (97) 
0.0

>  <Num_H_Atoms_ProtBoundConf>  (97) 
12.0

>  <Num_Resolved_Atoms>  (97) 
27.0

>  <Num_Not_Resolved_Atoms>  (97) 
0.0

$$$$
ADP
     RDKit          3D

  0  0  0  0  0  0  0  0  0  0999 V3000
M  V30 BEGIN CTAB
M  V30 COUNTS 39 41 0 0 0
M  V30 BEGIN ATOM
M  V30 1 O -0.948285 -0.438583 4.255156 0
M  V30 2 C -0.411171 -0.255040 2.979968 0 CFG=1
M  V30 3 C 1.092178 -0.234105 3.045441 0 CFG=1
M  V30 4 O 1.474056 -0.912258 4.222552 0
M  V30 5 C 1.506228 -0.966081 1.819101 0 CFG=2
M  V30 6 N 2.233989 -0.193765 0.858355 0
M  V30 7 C 3.405953 -0.569193 0.290616 0
M  V30 8 N 3.775171 0.412104 -0.553372 0
M  V30 9 C 2.841851 1.378111 -0.504725 0
M  V30 10 C 1.841459 1.007625 0.397855 0
M  V30 11 N 0.833709 1.848388 0.572746 0
M  V30 12 C 0.798356 3.009814 -0.105821 0
M  V30 13 N 1.756149 3.378451 -0.978390 0
M  V30 14 C 2.825105 2.577588 -1.218927 0
M  V30 15 N 3.876306 2.894850 -2.123767 0
M  V30 16 O 0.375978 -1.480544 1.215317 0
M  V30 17 C -0.633812 -1.513038 2.138200 0 CFG=2
M  V30 18 C -2.014257 -1.365032 1.534430 0
M  V30 19 O -2.203385 -2.413883 0.644895 0
M  V30 20 P -3.712747 -2.369453 -0.103693 0 CFG=2 VAL=5
M  V30 21 O -4.183525 -0.939805 -0.202494 0
M  V30 22 O -4.824228 -3.304172 0.763507 0 CHG=-1 VAL=1
M  V30 23 O -3.512953 -3.048156 -1.649054 0
M  V30 24 P -2.467036 -4.373660 -1.493633 0
M  V30 25 O -3.034914 -5.398648 -0.528818 0
M  V30 26 O -2.251903 -5.116515 -3.005593 0 CHG=-1 VAL=1
M  V30 27 O -0.976837 -3.814647 -0.958446 0 CHG=-1 VAL=1
M  V30 28 H -1.249546 0.460417 4.565166 0
M  V30 29 H -0.849340 0.579238 2.433626 0
M  V30 30 H 1.506209 0.786595 3.129986 0
M  V30 31 H 2.375076 -0.559672 4.486506 0
M  V30 32 H 2.104238 -1.862424 2.148636 0
M  V30 33 H 3.911678 -1.512796 0.518410 0
M  V30 34 H 0.006807 3.762144 -0.024072 0
M  V30 35 H 4.664131 3.602715 -2.092400 0
M  V30 36 H 4.178059 2.540901 -3.055154 0
M  V30 37 H -0.589421 -2.343916 2.868457 0
M  V30 38 H -2.757307 -1.531700 2.351388 0
M  V30 39 H -2.175056 -0.362661 1.104157 0
M  V30 END ATOM
M  V30 BEGIN BOND
M  V30 1 1 1 2
M  V30 2 1 2 3
M  V30 3 1 3 4
M  V30 4 1 3 5
M  V30 5 1 5 6
M  V30 6 1 6 7
M  V30 7 2 7 8
M  V30 8 1 8 9
M  V30 9 2 9 10
M  V30 10 1 10 11
M  V30 11 2 11 12
M  V30 12 1 12 13
M  V30 13 2 13 14
M  V30 14 1 14 15
M  V30 15 1 5 16
M  V30 16 1 16 17
M  V30 17 1 17 18
M  V30 18 1 18 19
M  V30 19 1 19 20
M  V30 20 2 20 21
M  V30 21 1 20 22 CFG=1
M  V30 22 1 20 23
M  V30 23 1 23 24
M  V30 24 2 24 25
M  V30 25 1 24 26
M  V30 26 1 24 27
M  V30 27 1 17 2
M  V30 28 1 10 6
M  V30 29 1 14 9
M  V30 30 1 1 28
M  V30 31 1 2 29 CFG=3
M  V30 32 1 3 30 CFG=1
M  V30 33 1 4 31
M  V30 34 1 5 32 CFG=1
M  V30 35 1 7 33
M  V30 36 1 12 34
M  V30 37 1 15 35
M  V30 38 1 15 36
M  V30 39 1 17 37 CFG=1
M  V30 40 1 18 38
M  V30 41 1 18 39
M  V30 END BOND
M  V30 END CTAB
M  END
>  <Dataset>  (98) 
PDB

>  <Ligand_Instance>  (98) 
4NTT_ADP_A_401

>  <PDB_ID>  (98) 
4NTT

>  <Standardized_SMILES>  (98) 
[H]O[C@@]1([H])[C@@]([H])(O[H])[C@]([H])(N2C([H])=NC3=C2N=C([H])N=C3N([H])[H])O[C@]1([H])C([H])([H])O[P@](=O)([O-])OP(=O)([O-])[O-]

>  <Name>  (98) 
ADENOSINE-5'-DIPHOSPHATE

>  <Pocket>  (98) 
A

>  <ATP_Site>  (98) 
1.0

>  <Peripheral>  (98) 
0.0

>  <Num_H_Atoms_ProtBoundConf>  (98) 
12.0

>  <Num_Resolved_Atoms>  (98) 
27.0

>  <Num_Not_Resolved_Atoms>  (98) 
0.0

$$$$
ADP
     RDKit          3D

  0  0  0  0  0  0  0  0  0  0999 V3000
M  V30 BEGIN CTAB
M  V30 COUNTS 39 41 0 0 0
M  V30 BEGIN ATOM
M  V30 1 O -0.948285 -0.438583 4.255156 0
M  V30 2 C -0.411171 -0.255040 2.979968 0 CFG=1
M  V30 3 C 1.092178 -0.234105 3.045441 0 CFG=1
M  V30 4 O 1.474056 -0.912258 4.222552 0
M  V30 5 C 1.506228 -0.966081 1.819101 0 CFG=2
M  V30 6 N 2.233989 -0.193765 0.858355 0
M  V30 7 C 3.405953 -0.569193 0.290616 0
M  V30 8 N 3.775171 0.412104 -0.553372 0
M  V30 9 C 2.841851 1.378111 -0.504725 0
M  V30 10 C 1.841459 1.007625 0.397855 0
M  V30 11 N 0.833709 1.848388 0.572746 0
M  V30 12 C 0.798356 3.009814 -0.105821 0
M  V30 13 N 1.756149 3.378451 -0.978390 0
M  V30 14 C 2.825105 2.577588 -1.218927 0
M  V30 15 N 3.876306 2.894850 -2.123767 0
M  V30 16 O 0.375978 -1.480544 1.215317 0
M  V30 17 C -0.633812 -1.513038 2.138200 0 CFG=2
M  V30 18 C -2.014257 -1.365032 1.534430 0
M  V30 19 O -2.203385 -2.413883 0.644895 0
M  V30 20 P -3.712747 -2.369453 -0.103693 0 CFG=2 VAL=5
M  V30 21 O -4.183525 -0.939805 -0.202494 0
M  V30 22 O -4.824228 -3.304172 0.763507 0 CHG=-1 VAL=1
M  V30 23 O -3.512953 -3.048156 -1.649054 0
M  V30 24 P -2.467036 -4.373660 -1.493633 0
M  V30 25 O -3.034914 -5.398648 -0.528818 0
M  V30 26 O -2.251903 -5.116515 -3.005593 0 CHG=-1 VAL=1
M  V30 27 O -0.976837 -3.814647 -0.958446 0 CHG=-1 VAL=1
M  V30 28 H -1.249546 0.460417 4.565166 0
M  V30 29 H -0.849340 0.579238 2.433626 0
M  V30 30 H 1.506209 0.786595 3.129986 0
M  V30 31 H 2.375076 -0.559672 4.486506 0
M  V30 32 H 2.104238 -1.862424 2.148636 0
M  V30 33 H 3.911678 -1.512796 0.518410 0
M  V30 34 H 0.006807 3.762144 -0.024072 0
M  V30 35 H 4.664131 3.602715 -2.092400 0
M  V30 36 H 4.178059 2.540901 -3.055154 0
M  V30 37 H -0.589421 -2.343916 2.868457 0
M  V30 38 H -2.757307 -1.531700 2.351388 0
M  V30 39 H -2.175056 -0.362661 1.104157 0
M  V30 END ATOM
M  V30 BEGIN BOND
M  V30 1 1 1 2
M  V30 2 1 2 3
M  V30 3 1 3 4
M  V30 4 1 3 5
M  V30 5 1 5 6
M  V30 6 1 6 7
M  V30 7 2 7 8
M  V30 8 1 8 9
M  V30 9 2 9 10
M  V30 10 1 10 11
M  V30 11 2 11 12
M  V30 12 1 12 13
M  V30 13 2 13 14
M  V30 14 1 14 15
M  V30 15 1 5 16
M  V30 16 1 16 17
M  V30 17 1 17 18
M  V30 18 1 18 19
M  V30 19 1 19 20
M  V30 20 2 20 21
M  V30 21 1 20 22 CFG=1
M  V30 22 1 20 23
M  V30 23 1 23 24
M  V30 24 2 24 25
M  V30 25 1 24 26
M  V30 26 1 24 27
M  V30 27 1 17 2
M  V30 28 1 10 6
M  V30 29 1 14 9
M  V30 30 1 1 28
M  V30 31 1 2 29 CFG=3
M  V30 32 1 3 30 CFG=1
M  V30 33 1 4 31
M  V30 34 1 5 32 CFG=1
M  V30 35 1 7 33
M  V30 36 1 12 34
M  V30 37 1 15 35
M  V30 38 1 15 36
M  V30 39 1 17 37 CFG=1
M  V30 40 1 18 38
M  V30 41 1 18 39
M  V30 END BOND
M  V30 END CTAB
M  END
>  <Dataset>  (99) 
PDB

>  <Ligand_Instance>  (99) 
4NTT_ADP_B_401

>  <PDB_ID>  (99) 
4NTT

>  <Standardized_SMILES>  (99) 
[H]O[C@@]1([H])[C@@]([H])(O[H])[C@]([H])(N2C([H])=NC3=C2N=C([H])N=C3N([H])[H])O[C@]1([H])C([H])([H])O[P@](=O)([O-])OP(=O)([O-])[O-]

>  <Name>  (99) 
ADENOSINE-5'-DIPHOSPHATE

>  <Pocket>  (99) 
A

>  <ATP_Site>  (99) 
1.0

>  <Peripheral>  (99) 
0.0

>  <Num_H_Atoms_ProtBoundConf>  (99) 
12.0

>  <Num_Resolved_Atoms>  (99) 
27.0

>  <Num_Not_Resolved_Atoms>  (99) 
0.0

$$$$
ADP
     RDKit          3D

  0  0  0  0  0  0  0  0  0  0999 V3000
M  V30 BEGIN CTAB
M  V30 COUNTS 39 41 0 0 0
M  V30 BEGIN ATOM
M  V30 1 O -0.948285 -0.438583 4.255156 0
M  V30 2 C -0.411171 -0.255040 2.979968 0 CFG=1
M  V30 3 C 1.092178 -0.234105 3.045441 0 CFG=1
M  V30 4 O 1.474056 -0.912258 4.222552 0
M  V30 5 C 1.506228 -0.966081 1.819101 0 CFG=2
M  V30 6 N 2.233989 -0.193765 0.858355 0
M  V30 7 C 3.405953 -0.569193 0.290616 0
M  V30 8 N 3.775171 0.412104 -0.553372 0
M  V30 9 C 2.841851 1.378111 -0.504725 0
M  V30 10 C 1.841459 1.007625 0.397855 0
M  V30 11 N 0.833709 1.848388 0.572746 0
M  V30 12 C 0.798356 3.009814 -0.105821 0
M  V30 13 N 1.756149 3.378451 -0.978390 0
M  V30 14 C 2.825105 2.577588 -1.218927 0
M  V30 15 N 3.876306 2.894850 -2.123767 0
M  V30 16 O 0.375978 -1.480544 1.215317 0
M  V30 17 C -0.633812 -1.513038 2.138200 0 CFG=2
M  V30 18 C -2.014257 -1.365032 1.534430 0
M  V30 19 O -2.203385 -2.413883 0.644895 0
M  V30 20 P -3.712747 -2.369453 -0.103693 0 CFG=2 VAL=5
M  V30 21 O -4.183525 -0.939805 -0.202494 0
M  V30 22 O -4.824228 -3.304172 0.763507 0 CHG=-1 VAL=1
M  V30 23 O -3.512953 -3.048156 -1.649054 0
M  V30 24 P -2.467036 -4.373660 -1.493633 0
M  V30 25 O -3.034914 -5.398648 -0.528818 0
M  V30 26 O -2.251903 -5.116515 -3.005593 0 CHG=-1 VAL=1
M  V30 27 O -0.976837 -3.814647 -0.958446 0 CHG=-1 VAL=1
M  V30 28 H -1.249546 0.460417 4.565166 0
M  V30 29 H -0.849340 0.579238 2.433626 0
M  V30 30 H 1.506209 0.786595 3.129986 0
M  V30 31 H 2.375076 -0.559672 4.486506 0
M  V30 32 H 2.104238 -1.862424 2.148636 0
M  V30 33 H 3.911678 -1.512796 0.518410 0
M  V30 34 H 0.006807 3.762144 -0.024072 0
M  V30 35 H 4.664131 3.602715 -2.092400 0
M  V30 36 H 4.178059 2.540901 -3.055154 0
M  V30 37 H -0.589421 -2.343916 2.868457 0
M  V30 38 H -2.757307 -1.531700 2.351388 0
M  V30 39 H -2.175056 -0.362661 1.104157 0
M  V30 END ATOM
M  V30 BEGIN BOND
M  V30 1 1 1 2
M  V30 2 1 2 3
M  V30 3 1 3 4
M  V30 4 1 3 5
M  V30 5 1 5 6
M  V30 6 1 6 7
M  V30 7 2 7 8
M  V30 8 1 8 9
M  V30 9 2 9 10
M  V30 10 1 10 11
M  V30 11 2 11 12
M  V30 12 1 12 13
M  V30 13 2 13 14
M  V30 14 1 14 15
M  V30 15 1 5 16
M  V30 16 1 16 17
M  V30 17 1 17 18
M  V30 18 1 18 19
M  V30 19 1 19 20
M  V30 20 2 20 21
M  V30 21 1 20 22 CFG=1
M  V30 22 1 20 23
M  V30 23 1 23 24
M  V30 24 2 24 25
M  V30 25 1 24 26
M  V30 26 1 24 27
M  V30 27 1 17 2
M  V30 28 1 10 6
M  V30 29 1 14 9
M  V30 30 1 1 28
M  V30 31 1 2 29 CFG=3
M  V30 32 1 3 30 CFG=1
M  V30 33 1 4 31
M  V30 34 1 5 32 CFG=1
M  V30 35 1 7 33
M  V30 36 1 12 34
M  V30 37 1 15 35
M  V30 38 1 15 36
M  V30 39 1 17 37 CFG=1
M  V30 40 1 18 38
M  V30 41 1 18 39
M  V30 END BOND
M  V30 END CTAB
M  END
>  <Dataset>  (100) 
PDB

>  <Ligand_Instance>  (100) 
4O21_ADP_A_401

>  <PDB_ID>  (100) 
4O21

>  <Standardized_SMILES>  (100) 
[H]O[C@@]1([H])[C@@]([H])(O[H])[C@]([H])(N2C([H])=NC3=C2N=C([H])N=C3N([H])[H])O[C@]1([H])C([H])([H])O[P@](=O)([O-])OP(=O)([O-])[O-]

>  <Name>  (100) 
ADENOSINE-5'-DIPHOSPHATE

>  <Pocket>  (100) 
A

>  <ATP_Site>  (100) 
1.0

>  <Peripheral>  (100) 
0.0

>  <Num_H_Atoms_ProtBoundConf>  (100) 
12.0

>  <Num_Resolved_Atoms>  (100) 
27.0

>  <Num_Not_Resolved_Atoms>  (100) 
0.0

$$$$
ADP
     RDKit          3D

  0  0  0  0  0  0  0  0  0  0999 V3000
M  V30 BEGIN CTAB
M  V30 COUNTS 39 41 0 0 0
M  V30 BEGIN ATOM
M  V30 1 O -0.948285 -0.438583 4.255156 0
M  V30 2 C -0.411171 -0.255040 2.979968 0 CFG=1
M  V30 3 C 1.092178 -0.234105 3.045441 0 CFG=1
M  V30 4 O 1.474056 -0.912258 4.222552 0
M  V30 5 C 1.506228 -0.966081 1.819101 0 CFG=2
M  V30 6 N 2.233989 -0.193765 0.858355 0
M  V30 7 C 3.405953 -0.569193 0.290616 0
M  V30 8 N 3.775171 0.412104 -0.553372 0
M  V30 9 C 2.841851 1.378111 -0.504725 0
M  V30 10 C 1.841459 1.007625 0.397855 0
M  V30 11 N 0.833709 1.848388 0.572746 0
M  V30 12 C 0.798356 3.009814 -0.105821 0
M  V30 13 N 1.756149 3.378451 -0.978390 0
M  V30 14 C 2.825105 2.577588 -1.218927 0
M  V30 15 N 3.876306 2.894850 -2.123767 0
M  V30 16 O 0.375978 -1.480544 1.215317 0
M  V30 17 C -0.633812 -1.513038 2.138200 0 CFG=2
M  V30 18 C -2.014257 -1.365032 1.534430 0
M  V30 19 O -2.203385 -2.413883 0.644895 0
M  V30 20 P -3.712747 -2.369453 -0.103693 0 CFG=2 VAL=5
M  V30 21 O -4.183525 -0.939805 -0.202494 0
M  V30 22 O -4.824228 -3.304172 0.763507 0 CHG=-1 VAL=1
M  V30 23 O -3.512953 -3.048156 -1.649054 0
M  V30 24 P -2.467036 -4.373660 -1.493633 0
M  V30 25 O -3.034914 -5.398648 -0.528818 0
M  V30 26 O -2.251903 -5.116515 -3.005593 0 CHG=-1 VAL=1
M  V30 27 O -0.976837 -3.814647 -0.958446 0 CHG=-1 VAL=1
M  V30 28 H -1.249546 0.460417 4.565166 0
M  V30 29 H -0.849340 0.579238 2.433626 0
M  V30 30 H 1.506209 0.786595 3.129986 0
M  V30 31 H 2.375076 -0.559672 4.486506 0
M  V30 32 H 2.104238 -1.862424 2.148636 0
M  V30 33 H 3.911678 -1.512796 0.518410 0
M  V30 34 H 0.006807 3.762144 -0.024072 0
M  V30 35 H 4.664131 3.602715 -2.092400 0
M  V30 36 H 4.178059 2.540901 -3.055154 0
M  V30 37 H -0.589421 -2.343916 2.868457 0
M  V30 38 H -2.757307 -1.531700 2.351388 0
M  V30 39 H -2.175056 -0.362661 1.104157 0
M  V30 END ATOM
M  V30 BEGIN BOND
M  V30 1 1 1 2
M  V30 2 1 2 3
M  V30 3 1 3 4
M  V30 4 1 3 5
M  V30 5 1 5 6
M  V30 6 1 6 7
M  V30 7 2 7 8
M  V30 8 1 8 9
M  V30 9 2 9 10
M  V30 10 1 10 11
M  V30 11 2 11 12
M  V30 12 1 12 13
M  V30 13 2 13 14
M  V30 14 1 14 15
M  V30 15 1 5 16
M  V30 16 1 16 17
M  V30 17 1 17 18
M  V30 18 1 18 19
M  V30 19 1 19 20
M  V30 20 2 20 21
M  V30 21 1 20 22 CFG=1
M  V30 22 1 20 23
M  V30 23 1 23 24
M  V30 24 2 24 25
M  V30 25 1 24 26
M  V30 26 1 24 27
M  V30 27 1 17 2
M  V30 28 1 10 6
M  V30 29 1 14 9
M  V30 30 1 1 28
M  V30 31 1 2 29 CFG=3
M  V30 32 1 3 30 CFG=1
M  V30 33 1 4 31
M  V30 34 1 5 32 CFG=1
M  V30 35 1 7 33
M  V30 36 1 12 34
M  V30 37 1 15 35
M  V30 38 1 15 36
M  V30 39 1 17 37 CFG=1
M  V30 40 1 18 38
M  V30 41 1 18 39
M  V30 END BOND
M  V30 END CTAB
M  END
>  <Dataset>  (101) 
PDB

>  <Ligand_Instance>  (101) 
4XW6_ADP_A_403

>  <PDB_ID>  (101) 
4XW6

>  <Standardized_SMILES>  (101) 
[H]O[C@@]1([H])[C@@]([H])(O[H])[C@]([H])(N2C([H])=NC3=C2N=C([H])N=C3N([H])[H])O[C@]1([H])C([H])([H])O[P@](=O)([O-])OP(=O)([O-])[O-]

>  <Name>  (101) 
ADENOSINE-5'-DIPHOSPHATE

>  <Pocket>  (101) 
A

>  <ATP_Site>  (101) 
1.0

>  <Peripheral>  (101) 
0.0

>  <Num_H_Atoms_ProtBoundConf>  (101) 
12.0

>  <Num_Resolved_Atoms>  (101) 
27.0

>  <Num_Not_Resolved_Atoms>  (101) 
0.0

$$$$
ADP
     RDKit          3D

  0  0  0  0  0  0  0  0  0  0999 V3000
M  V30 BEGIN CTAB
M  V30 COUNTS 39 41 0 0 0
M  V30 BEGIN ATOM
M  V30 1 O -1.717774 -0.034959 3.559082 0
M  V30 2 C -0.759199 -0.272865 2.585384 0 CFG=1
M  V30 3 C 0.643594 -0.069815 3.073638 0 CFG=1
M  V30 4 O 0.644694 -0.511894 4.415048 0
M  V30 5 C 1.404472 -1.003986 2.179438 0 CFG=2
M  V30 6 N 2.259305 -0.335498 1.220754 0
M  V30 7 C 3.407023 -0.884949 0.746764 0
M  V30 8 N 3.977040 -0.026214 -0.124551 0
M  V30 9 C 3.201225 1.059903 -0.205780 0
M  V30 10 C 2.117438 0.885630 0.631299 0
M  V30 11 N 1.172844 1.803400 0.759782 0
M  V30 12 C 1.186206 2.972749 0.093562 0
M  V30 13 N 2.236504 3.194793 -0.747525 0
M  V30 14 C 3.208254 2.262079 -0.886130 0
M  V30 15 N 4.291340 2.525317 -1.772728 0
M  V30 16 O 0.506723 -1.861257 1.596420 0
M  V30 17 C -0.690569 -1.769661 2.253343 0 CFG=2
M  V30 18 C -1.901948 -2.114247 1.424313 0
M  V30 19 O -2.047234 -1.303298 0.326420 0
M  V30 20 P -3.388360 -1.653880 -0.627909 0 CFG=1 VAL=5
M  V30 21 O -4.298734 -2.682784 0.033025 0
M  V30 22 O -4.313191 -0.237643 -0.847801 0 CHG=-1 VAL=1
M  V30 23 O -2.865398 -2.162845 -2.150798 0
M  V30 24 P -2.660432 -3.847963 -2.090819 0
M  V30 25 O -3.625383 -4.486098 -1.122570 0
M  V30 26 O -3.078664 -4.427175 -3.633317 0 CHG=-1 VAL=1
M  V30 27 O -1.068445 -4.208177 -1.684313 0 CHG=-1 VAL=1
M  V30 28 H -1.722699 0.935829 3.717851 0
M  V30 29 H -1.027595 0.251078 1.667040 0
M  V30 30 H 0.998391 0.973799 3.021783 0
M  V30 31 H 1.547358 -0.509045 4.796058 0
M  V30 32 H 2.058534 -1.608915 2.866401 0
M  V30 33 H 3.805364 -1.858009 1.021901 0
M  V30 34 H 0.358645 3.620646 0.293881 0
M  V30 35 H 4.863229 3.184411 -1.184479 0
M  V30 36 H 5.184065 3.023931 -1.931429 0
M  V30 37 H -0.658288 -2.302573 3.201667 0
M  V30 38 H -1.874987 -3.192151 1.192057 0
M  V30 39 H -2.786382 -1.968468 2.079350 0
M  V30 END ATOM
M  V30 BEGIN BOND
M  V30 1 1 1 2
M  V30 2 1 2 3
M  V30 3 1 3 4
M  V30 4 1 3 5
M  V30 5 1 5 6
M  V30 6 1 6 7
M  V30 7 2 7 8
M  V30 8 1 8 9
M  V30 9 2 9 10
M  V30 10 1 10 11
M  V30 11 2 11 12
M  V30 12 1 12 13
M  V30 13 2 13 14
M  V30 14 1 14 15
M  V30 15 1 5 16
M  V30 16 1 16 17
M  V30 17 1 17 18
M  V30 18 1 18 19
M  V30 19 1 19 20
M  V30 20 2 20 21
M  V30 21 1 20 22 CFG=3
M  V30 22 1 20 23
M  V30 23 1 23 24
M  V30 24 2 24 25
M  V30 25 1 24 26
M  V30 26 1 24 27
M  V30 27 1 17 2
M  V30 28 1 10 6
M  V30 29 1 14 9
M  V30 30 1 1 28
M  V30 31 1 2 29 CFG=3
M  V30 32 1 3 30 CFG=1
M  V30 33 1 4 31
M  V30 34 1 5 32 CFG=1
M  V30 35 1 7 33
M  V30 36 1 12 34
M  V30 37 1 15 35
M  V30 38 1 15 36
M  V30 39 1 17 37 CFG=1
M  V30 40 1 18 38
M  V30 41 1 18 39
M  V30 END BOND
M  V30 END CTAB
M  END
>  <Dataset>  (102) 
PDB

>  <Ligand_Instance>  (102) 
6E21_ADP_A_403

>  <PDB_ID>  (102) 
6E21

>  <Standardized_SMILES>  (102) 
[H]O[C@@]1([H])[C@@]([H])(O[H])[C@]([H])(N2C([H])=NC3=C2N=C([H])N=C3N([H])[H])O[C@]1([H])C([H])([H])O[P@@](=O)([O-])OP(=O)([O-])[O-]

>  <Name>  (102) 
ADENOSINE-5'-DIPHOSPHATE

>  <Pocket>  (102) 
A

>  <ATP_Site>  (102) 
1.0

>  <Peripheral>  (102) 
0.0

>  <Num_H_Atoms_ProtBoundConf>  (102) 
12.0

>  <Num_Resolved_Atoms>  (102) 
27.0

>  <Num_Not_Resolved_Atoms>  (102) 
0.0

$$$$
ADP
     RDKit          3D

  0  0  0  0  0  0  0  0  0  0999 V3000
M  V30 BEGIN CTAB
M  V30 COUNTS 39 41 0 0 0
M  V30 BEGIN ATOM
M  V30 1 O -1.717774 -0.034959 3.559082 0
M  V30 2 C -0.759199 -0.272865 2.585384 0 CFG=1
M  V30 3 C 0.643594 -0.069815 3.073638 0 CFG=1
M  V30 4 O 0.644694 -0.511894 4.415048 0
M  V30 5 C 1.404472 -1.003986 2.179438 0 CFG=2
M  V30 6 N 2.259305 -0.335498 1.220754 0
M  V30 7 C 3.407023 -0.884949 0.746764 0
M  V30 8 N 3.977040 -0.026214 -0.124551 0
M  V30 9 C 3.201225 1.059903 -0.205780 0
M  V30 10 C 2.117438 0.885630 0.631299 0
M  V30 11 N 1.172844 1.803400 0.759782 0
M  V30 12 C 1.186206 2.972749 0.093562 0
M  V30 13 N 2.236504 3.194793 -0.747525 0
M  V30 14 C 3.208254 2.262079 -0.886130 0
M  V30 15 N 4.291340 2.525317 -1.772728 0
M  V30 16 O 0.506723 -1.861257 1.596420 0
M  V30 17 C -0.690569 -1.769661 2.253343 0 CFG=2
M  V30 18 C -1.901948 -2.114247 1.424313 0
M  V30 19 O -2.047234 -1.303298 0.326420 0
M  V30 20 P -3.388360 -1.653880 -0.627909 0 CFG=1 VAL=5
M  V30 21 O -4.298734 -2.682784 0.033025 0
M  V30 22 O -4.313191 -0.237643 -0.847801 0 CHG=-1 VAL=1
M  V30 23 O -2.865398 -2.162845 -2.150798 0
M  V30 24 P -2.660432 -3.847963 -2.090819 0
M  V30 25 O -3.625383 -4.486098 -1.122570 0
M  V30 26 O -3.078664 -4.427175 -3.633317 0 CHG=-1 VAL=1
M  V30 27 O -1.068445 -4.208177 -1.684313 0 CHG=-1 VAL=1
M  V30 28 H -1.722699 0.935829 3.717851 0
M  V30 29 H -1.027595 0.251078 1.667040 0
M  V30 30 H 0.998391 0.973799 3.021783 0
M  V30 31 H 1.547358 -0.509045 4.796058 0
M  V30 32 H 2.058534 -1.608915 2.866401 0
M  V30 33 H 3.805364 -1.858009 1.021901 0
M  V30 34 H 0.358645 3.620646 0.293881 0
M  V30 35 H 4.863229 3.184411 -1.184479 0
M  V30 36 H 5.184065 3.023931 -1.931429 0
M  V30 37 H -0.658288 -2.302573 3.201667 0
M  V30 38 H -1.874987 -3.192151 1.192057 0
M  V30 39 H -2.786382 -1.968468 2.079350 0
M  V30 END ATOM
M  V30 BEGIN BOND
M  V30 1 1 1 2
M  V30 2 1 2 3
M  V30 3 1 3 4
M  V30 4 1 3 5
M  V30 5 1 5 6
M  V30 6 1 6 7
M  V30 7 2 7 8
M  V30 8 1 8 9
M  V30 9 2 9 10
M  V30 10 1 10 11
M  V30 11 2 11 12
M  V30 12 1 12 13
M  V30 13 2 13 14
M  V30 14 1 14 15
M  V30 15 1 5 16
M  V30 16 1 16 17
M  V30 17 1 17 18
M  V30 18 1 18 19
M  V30 19 1 19 20
M  V30 20 2 20 21
M  V30 21 1 20 22 CFG=3
M  V30 22 1 20 23
M  V30 23 1 23 24
M  V30 24 2 24 25
M  V30 25 1 24 26
M  V30 26 1 24 27
M  V30 27 1 17 2
M  V30 28 1 10 6
M  V30 29 1 14 9
M  V30 30 1 1 28
M  V30 31 1 2 29 CFG=3
M  V30 32 1 3 30 CFG=1
M  V30 33 1 4 31
M  V30 34 1 5 32 CFG=1
M  V30 35 1 7 33
M  V30 36 1 12 34
M  V30 37 1 15 35
M  V30 38 1 15 36
M  V30 39 1 17 37 CFG=1
M  V30 40 1 18 38
M  V30 41 1 18 39
M  V30 END BOND
M  V30 END CTAB
M  END
>  <Dataset>  (103) 
PDB

>  <Ligand_Instance>  (103) 
6EM6_ADP_A_401

>  <PDB_ID>  (103) 
6EM6

>  <Standardized_SMILES>  (103) 
[H]O[C@@]1([H])[C@@]([H])(O[H])[C@]([H])(N2C([H])=NC3=C2N=C([H])N=C3N([H])[H])O[C@]1([H])C([H])([H])O[P@@](=O)([O-])OP(=O)([O-])[O-]

>  <Name>  (103) 
ADENOSINE-5'-DIPHOSPHATE

>  <Pocket>  (103) 
A

>  <ATP_Site>  (103) 
1.0

>  <Peripheral>  (103) 
0.0

>  <Num_H_Atoms_ProtBoundConf>  (103) 
12.0

>  <Num_Resolved_Atoms>  (103) 
27.0

>  <Num_Not_Resolved_Atoms>  (103) 
0.0

$$$$
ADP
     RDKit          3D

  0  0  0  0  0  0  0  0  0  0999 V3000
M  V30 BEGIN CTAB
M  V30 COUNTS 39 41 0 0 0
M  V30 BEGIN ATOM
M  V30 1 O -1.717774 -0.034959 3.559082 0
M  V30 2 C -0.759199 -0.272865 2.585384 0 CFG=1
M  V30 3 C 0.643594 -0.069815 3.073638 0 CFG=1
M  V30 4 O 0.644694 -0.511894 4.415048 0
M  V30 5 C 1.404472 -1.003986 2.179438 0 CFG=2
M  V30 6 N 2.259305 -0.335498 1.220754 0
M  V30 7 C 3.407023 -0.884949 0.746764 0
M  V30 8 N 3.977040 -0.026214 -0.124551 0
M  V30 9 C 3.201225 1.059903 -0.205780 0
M  V30 10 C 2.117438 0.885630 0.631299 0
M  V30 11 N 1.172844 1.803400 0.759782 0
M  V30 12 C 1.186206 2.972749 0.093562 0
M  V30 13 N 2.236504 3.194793 -0.747525 0
M  V30 14 C 3.208254 2.262079 -0.886130 0
M  V30 15 N 4.291340 2.525317 -1.772728 0
M  V30 16 O 0.506723 -1.861257 1.596420 0
M  V30 17 C -0.690569 -1.769661 2.253343 0 CFG=2
M  V30 18 C -1.901948 -2.114247 1.424313 0
M  V30 19 O -2.047234 -1.303298 0.326420 0
M  V30 20 P -3.388360 -1.653880 -0.627909 0 CFG=1 VAL=5
M  V30 21 O -4.298734 -2.682784 0.033025 0
M  V30 22 O -4.313191 -0.237643 -0.847801 0 CHG=-1 VAL=1
M  V30 23 O -2.865398 -2.162845 -2.150798 0
M  V30 24 P -2.660432 -3.847963 -2.090819 0
M  V30 25 O -3.625383 -4.486098 -1.122570 0
M  V30 26 O -3.078664 -4.427175 -3.633317 0 CHG=-1 VAL=1
M  V30 27 O -1.068445 -4.208177 -1.684313 0 CHG=-1 VAL=1
M  V30 28 H -1.722699 0.935829 3.717851 0
M  V30 29 H -1.027595 0.251078 1.667040 0
M  V30 30 H 0.998391 0.973799 3.021783 0
M  V30 31 H 1.547358 -0.509045 4.796058 0
M  V30 32 H 2.058534 -1.608915 2.866401 0
M  V30 33 H 3.805364 -1.858009 1.021901 0
M  V30 34 H 0.358645 3.620646 0.293881 0
M  V30 35 H 4.863229 3.184411 -1.184479 0
M  V30 36 H 5.184065 3.023931 -1.931429 0
M  V30 37 H -0.658288 -2.302573 3.201667 0
M  V30 38 H -1.874987 -3.192151 1.192057 0
M  V30 39 H -2.786382 -1.968468 2.079350 0
M  V30 END ATOM
M  V30 BEGIN BOND
M  V30 1 1 1 2
M  V30 2 1 2 3
M  V30 3 1 3 4
M  V30 4 1 3 5
M  V30 5 1 5 6
M  V30 6 1 6 7
M  V30 7 2 7 8
M  V30 8 1 8 9
M  V30 9 2 9 10
M  V30 10 1 10 11
M  V30 11 2 11 12
M  V30 12 1 12 13
M  V30 13 2 13 14
M  V30 14 1 14 15
M  V30 15 1 5 16
M  V30 16 1 16 17
M  V30 17 1 17 18
M  V30 18 1 18 19
M  V30 19 1 19 20
M  V30 20 2 20 21
M  V30 21 1 20 22 CFG=3
M  V30 22 1 20 23
M  V30 23 1 23 24
M  V30 24 2 24 25
M  V30 25 1 24 26
M  V30 26 1 24 27
M  V30 27 1 17 2
M  V30 28 1 10 6
M  V30 29 1 14 9
M  V30 30 1 1 28
M  V30 31 1 2 29 CFG=3
M  V30 32 1 3 30 CFG=1
M  V30 33 1 4 31
M  V30 34 1 5 32 CFG=1
M  V30 35 1 7 33
M  V30 36 1 12 34
M  V30 37 1 15 35
M  V30 38 1 15 36
M  V30 39 1 17 37 CFG=1
M  V30 40 1 18 38
M  V30 41 1 18 39
M  V30 END BOND
M  V30 END CTAB
M  END
>  <Dataset>  (104) 
PDB

>  <Ligand_Instance>  (104) 
7UJX_ADP_E_401

>  <PDB_ID>  (104) 
7UJX

>  <Standardized_SMILES>  (104) 
[H]O[C@@]1([H])[C@@]([H])(O[H])[C@]([H])(N2C([H])=NC3=C2N=C([H])N=C3N([H])[H])O[C@]1([H])C([H])([H])O[P@@](=O)([O-])OP(=O)([O-])[O-]

>  <Name>  (104) 
ADENOSINE-5'-DIPHOSPHATE

>  <Pocket>  (104) 
A

>  <ATP_Site>  (104) 
1.0

>  <Peripheral>  (104) 
0.0

>  <Num_H_Atoms_ProtBoundConf>  (104) 
12.0

>  <Num_Resolved_Atoms>  (104) 
27.0

>  <Num_Not_Resolved_Atoms>  (104) 
0.0

$$$$
ADP
     RDKit          3D

  0  0  0  0  0  0  0  0  0  0999 V3000
M  V30 BEGIN CTAB
M  V30 COUNTS 39 41 0 0 0
M  V30 BEGIN ATOM
M  V30 1 O -1.717774 -0.034959 3.559082 0
M  V30 2 C -0.759199 -0.272865 2.585384 0 CFG=1
M  V30 3 C 0.643594 -0.069815 3.073638 0 CFG=1
M  V30 4 O 0.644694 -0.511894 4.415048 0
M  V30 5 C 1.404472 -1.003986 2.179438 0 CFG=2
M  V30 6 N 2.259305 -0.335498 1.220754 0
M  V30 7 C 3.407023 -0.884949 0.746764 0
M  V30 8 N 3.977040 -0.026214 -0.124551 0
M  V30 9 C 3.201225 1.059903 -0.205780 0
M  V30 10 C 2.117438 0.885630 0.631299 0
M  V30 11 N 1.172844 1.803400 0.759782 0
M  V30 12 C 1.186206 2.972749 0.093562 0
M  V30 13 N 2.236504 3.194793 -0.747525 0
M  V30 14 C 3.208254 2.262079 -0.886130 0
M  V30 15 N 4.291340 2.525317 -1.772728 0
M  V30 16 O 0.506723 -1.861257 1.596420 0
M  V30 17 C -0.690569 -1.769661 2.253343 0 CFG=2
M  V30 18 C -1.901948 -2.114247 1.424313 0
M  V30 19 O -2.047234 -1.303298 0.326420 0
M  V30 20 P -3.388360 -1.653880 -0.627909 0 CFG=1 VAL=5
M  V30 21 O -4.298734 -2.682784 0.033025 0
M  V30 22 O -4.313191 -0.237643 -0.847801 0 CHG=-1 VAL=1
M  V30 23 O -2.865398 -2.162845 -2.150798 0
M  V30 24 P -2.660432 -3.847963 -2.090819 0
M  V30 25 O -3.625383 -4.486098 -1.122570 0
M  V30 26 O -3.078664 -4.427175 -3.633317 0 CHG=-1 VAL=1
M  V30 27 O -1.068445 -4.208177 -1.684313 0 CHG=-1 VAL=1
M  V30 28 H -1.722699 0.935829 3.717851 0
M  V30 29 H -1.027595 0.251078 1.667040 0
M  V30 30 H 0.998391 0.973799 3.021783 0
M  V30 31 H 1.547358 -0.509045 4.796058 0
M  V30 32 H 2.058534 -1.608915 2.866401 0
M  V30 33 H 3.805364 -1.858009 1.021901 0
M  V30 34 H 0.358645 3.620646 0.293881 0
M  V30 35 H 4.863229 3.184411 -1.184479 0
M  V30 36 H 5.184065 3.023931 -1.931429 0
M  V30 37 H -0.658288 -2.302573 3.201667 0
M  V30 38 H -1.874987 -3.192151 1.192057 0
M  V30 39 H -2.786382 -1.968468 2.079350 0
M  V30 END ATOM
M  V30 BEGIN BOND
M  V30 1 1 1 2
M  V30 2 1 2 3
M  V30 3 1 3 4
M  V30 4 1 3 5
M  V30 5 1 5 6
M  V30 6 1 6 7
M  V30 7 2 7 8
M  V30 8 1 8 9
M  V30 9 2 9 10
M  V30 10 1 10 11
M  V30 11 2 11 12
M  V30 12 1 12 13
M  V30 13 2 13 14
M  V30 14 1 14 15
M  V30 15 1 5 16
M  V30 16 1 16 17
M  V30 17 1 17 18
M  V30 18 1 18 19
M  V30 19 1 19 20
M  V30 20 2 20 21
M  V30 21 1 20 22 CFG=3
M  V30 22 1 20 23
M  V30 23 1 23 24
M  V30 24 2 24 25
M  V30 25 1 24 26
M  V30 26 1 24 27
M  V30 27 1 17 2
M  V30 28 1 10 6
M  V30 29 1 14 9
M  V30 30 1 1 28
M  V30 31 1 2 29 CFG=3
M  V30 32 1 3 30 CFG=1
M  V30 33 1 4 31
M  V30 34 1 5 32 CFG=1
M  V30 35 1 7 33
M  V30 36 1 12 34
M  V30 37 1 15 35
M  V30 38 1 15 36
M  V30 39 1 17 37 CFG=1
M  V30 40 1 18 38
M  V30 41 1 18 39
M  V30 END BOND
M  V30 END CTAB
M  END
>  <Dataset>  (105) 
PDB

>  <Ligand_Instance>  (105) 
7V0G_ADP_E_401

>  <PDB_ID>  (105) 
7V0G

>  <Standardized_SMILES>  (105) 
[H]O[C@@]1([H])[C@@]([H])(O[H])[C@]([H])(N2C([H])=NC3=C2N=C([H])N=C3N([H])[H])O[C@]1([H])C([H])([H])O[P@@](=O)([O-])OP(=O)([O-])[O-]

>  <Name>  (105) 
ADENOSINE-5'-DIPHOSPHATE

>  <Pocket>  (105) 
A

>  <ATP_Site>  (105) 
1.0

>  <Peripheral>  (105) 
0.0

>  <Num_H_Atoms_ProtBoundConf>  (105) 
12.0

>  <Num_Resolved_Atoms>  (105) 
27.0

>  <Num_Not_Resolved_Atoms>  (105) 
0.0

$$$$
AMP
     RDKit          3D

  0  0  0  0  0  0  0  0  0  0999 V3000
M  V30 BEGIN CTAB
M  V30 COUNTS 35 37 0 0 0
M  V30 BEGIN ATOM
M  V30 1 O 1.682160 -4.128904 -0.214121 0
M  V30 2 C 0.610126 -3.441729 0.357545 0 CFG=1
M  V30 3 C 1.074096 -2.571447 1.510829 0 CFG=1
M  V30 4 O 2.091840 -3.251757 2.198413 0
M  V30 5 C 1.612184 -1.386291 0.771940 0 CFG=2
M  V30 6 N 1.240412 -0.121251 1.356082 0
M  V30 7 C 1.068677 0.150479 2.662993 0
M  V30 8 N 0.721820 1.447820 2.819484 0
M  V30 9 C 0.659574 2.051289 1.617978 0
M  V30 10 C 0.991843 1.035768 0.714158 0
M  V30 11 N 1.031204 1.283819 -0.614786 0
M  V30 12 C 0.751570 2.517345 -1.110970 0
M  V30 13 N 0.430225 3.506969 -0.261712 0
M  V30 14 C 0.382330 3.289606 1.075187 0
M  V30 15 N 0.044215 4.312390 2.030267 0
M  V30 16 O 1.147400 -1.435186 -0.519940 0
M  V30 17 C 0.173104 -2.391166 -0.641214 0 CFG=2
M  V30 18 C -1.217597 -1.928937 -0.287669 0
M  V30 19 O -1.657382 -0.889181 -1.067731 0
M  V30 20 P -3.219294 -0.447044 -0.593544 0
M  V30 21 O -3.377007 1.061434 -0.513095 0
M  V30 22 O -3.532720 -1.067157 0.946948 0 CHG=-1 VAL=1
M  V30 23 O -4.363687 -1.084585 -1.687192 0 CHG=-1 VAL=1
M  V30 24 H 2.180904 -3.472173 -0.762871 0
M  V30 25 H -0.214241 -4.113737 0.649192 0
M  V30 26 H 0.222166 -2.343586 2.176052 0
M  V30 27 H 2.003138 -4.231057 1.991569 0
M  V30 28 H 2.730475 -1.421568 0.794785 0
M  V30 29 H 1.181050 -0.538062 3.502204 0
M  V30 30 H 0.773899 2.750937 -2.173033 0
M  V30 31 H 0.634616 4.917216 2.659683 0
M  V30 32 H -0.992935 4.289664 1.923635 0
M  V30 33 H 0.176443 -2.786386 -1.677584 0
M  V30 34 H -1.874421 -2.827025 -0.370345 0
M  V30 35 H -1.272024 -1.607962 0.766149 0
M  V30 END ATOM
M  V30 BEGIN BOND
M  V30 1 1 1 2
M  V30 2 1 2 3
M  V30 3 1 3 4
M  V30 4 1 3 5
M  V30 5 1 5 6
M  V30 6 1 6 7
M  V30 7 2 7 8
M  V30 8 1 8 9
M  V30 9 2 9 10
M  V30 10 1 10 11
M  V30 11 2 11 12
M  V30 12 1 12 13
M  V30 13 2 13 14
M  V30 14 1 14 15
M  V30 15 1 5 16
M  V30 16 1 16 17
M  V30 17 1 17 18
M  V30 18 1 18 19
M  V30 19 1 19 20
M  V30 20 2 20 21
M  V30 21 1 20 22
M  V30 22 1 20 23
M  V30 23 1 17 2
M  V30 24 1 10 6
M  V30 25 1 14 9
M  V30 26 1 1 24
M  V30 27 1 2 25 CFG=1
M  V30 28 1 3 26 CFG=1
M  V30 29 1 4 27
M  V30 30 1 5 28 CFG=3
M  V30 31 1 7 29
M  V30 32 1 12 30
M  V30 33 1 15 31
M  V30 34 1 15 32
M  V30 35 1 17 33 CFG=3
M  V30 36 1 18 34
M  V30 37 1 18 35
M  V30 END BOND
M  V30 END CTAB
M  END
>  <Dataset>  (106) 
PDB

>  <Ligand_Instance>  (106) 
6EH2_AMP_A_401

>  <PDB_ID>  (106) 
6EH2

>  <Standardized_SMILES>  (106) 
[H]O[C@@]1([H])[C@@]([H])(O[H])[C@]([H])(N2C([H])=NC3=C2N=C([H])N=C3N([H])[H])O[C@]1([H])C([H])([H])OP(=O)([O-])[O-]

>  <Name>  (106) 
ADENOSINE MONOPHOSPHATE

>  <Pocket>  (106) 
A

>  <ATP_Site>  (106) 
1.0

>  <Peripheral>  (106) 
0.0

>  <Num_H_Atoms_ProtBoundConf>  (106) 
12.0

>  <Num_Resolved_Atoms>  (106) 
23.0

>  <Num_Not_Resolved_Atoms>  (106) 
0.0

$$$$
ANP
     RDKit          3D

  0  0  0  0  0  0  0  0  0  0999 V3000
M  V30 BEGIN CTAB
M  V30 COUNTS 44 46 0 0 0
M  V30 BEGIN ATOM
M  V30 1 O -0.695907 -0.352663 -2.648680 0
M  V30 2 C 0.287716 -0.632771 -1.695539 0 CFG=1
M  V30 3 C 0.755801 0.734905 -1.180767 0 CFG=1
M  V30 4 O 0.817679 1.565722 -2.290114 0
M  V30 5 C -0.388257 1.057103 -0.248182 0 CFG=2
M  V30 6 N -0.002806 1.934380 0.844747 0
M  V30 7 C 0.819379 1.643501 1.868661 0
M  V30 8 N 0.937393 2.710053 2.685776 0
M  V30 9 C 0.190445 3.711687 2.201416 0
M  V30 10 C -0.387796 3.210040 1.054280 0
M  V30 11 N -1.213160 4.036993 0.349857 0
M  V30 12 C -1.451449 5.309757 0.771705 0
M  V30 13 N -0.880199 5.784622 1.892447 0
M  V30 14 C -0.070219 5.009876 2.605984 0
M  V30 15 N 0.569073 5.452959 3.806786 0
M  V30 16 O -0.821163 -0.135494 0.289383 0
M  V30 17 C -0.327644 -1.189960 -0.434697 0 CFG=2
M  V30 18 C 0.792726 -1.807912 0.408854 0
M  V30 19 O 1.376479 -2.910987 -0.245667 0
M  V30 20 P 2.609887 -3.590492 0.684126 0 CFG=2 VAL=5
M  V30 21 O 2.798908 -2.740631 1.938883 0
M  V30 22 O 4.071495 -3.451516 -0.193416 0 CHG=-1 VAL=1
M  V30 23 O 2.391584 -5.192726 1.058900 0
M  V30 24 P 1.327718 -5.522383 2.288669 0 CFG=2 VAL=5
M  V30 25 O 0.621214 -4.352360 2.873162 0
M  V30 26 O 2.228369 -6.222783 3.563216 0 CHG=-1 VAL=1
M  V30 27 N 0.227015 -6.769371 1.724564 0
M  V30 28 P -1.081137 -6.091338 0.794405 0
M  V30 29 O -1.621422 -4.835722 1.399666 0
M  V30 30 O -0.564198 -5.868351 -0.797332 0 CHG=-1 VAL=1
M  V30 31 O -2.348242 -7.222588 0.759276 0 CHG=-1 VAL=1
M  V30 32 H -1.496843 -0.034440 -2.200301 0
M  V30 33 H 1.121970 -1.230156 -2.070755 0
M  V30 34 H 1.706097 0.634646 -0.632895 0
M  V30 35 H 1.755388 1.730419 -2.573087 0
M  V30 36 H -1.167376 1.557615 -0.854712 0
M  V30 37 H 1.338204 0.718148 2.066242 0
M  V30 38 H -2.107380 5.942182 0.196937 0
M  V30 39 H 0.479502 5.016674 4.754472 0
M  V30 40 H 1.185105 6.290589 3.739264 0
M  V30 41 H -1.057657 -1.965196 -0.685177 0
M  V30 42 H 0.302490 -2.079884 1.357643 0
M  V30 43 H 1.605555 -1.072958 0.491282 0
M  V30 44 H 0.763550 -7.450006 1.158307 0
M  V30 END ATOM
M  V30 BEGIN BOND
M  V30 1 1 1 2
M  V30 2 1 2 3
M  V30 3 1 3 4
M  V30 4 1 3 5
M  V30 5 1 5 6
M  V30 6 1 6 7
M  V30 7 2 7 8
M  V30 8 1 8 9
M  V30 9 2 9 10
M  V30 10 1 10 11
M  V30 11 2 11 12
M  V30 12 1 12 13
M  V30 13 2 13 14
M  V30 14 1 14 15
M  V30 15 1 5 16
M  V30 16 1 16 17
M  V30 17 1 17 18
M  V30 18 1 18 19
M  V30 19 1 19 20
M  V30 20 2 20 21
M  V30 21 1 20 22 CFG=3
M  V30 22 1 20 23
M  V30 23 1 23 24
M  V30 24 2 24 25
M  V30 25 1 24 26 CFG=1
M  V30 26 1 24 27
M  V30 27 1 27 28
M  V30 28 2 28 29
M  V30 29 1 28 30
M  V30 30 1 28 31
M  V30 31 1 17 2
M  V30 32 1 10 6
M  V30 33 1 14 9
M  V30 34 1 1 32
M  V30 35 1 2 33 CFG=3
M  V30 36 1 3 34 CFG=1
M  V30 37 1 4 35
M  V30 38 1 5 36 CFG=3
M  V30 39 1 7 37
M  V30 40 1 12 38
M  V30 41 1 15 39
M  V30 42 1 15 40
M  V30 43 1 17 41 CFG=3
M  V30 44 1 18 42
M  V30 45 1 18 43
M  V30 46 1 27 44
M  V30 END BOND
M  V30 END CTAB
M  END
>  <Dataset>  (107) 
PDB

>  <Ligand_Instance>  (107) 
1CDK_ANP_A_400

>  <PDB_ID>  (107) 
1CDK

>  <Standardized_SMILES>  (107) 
[H]O[C@@]1([H])[C@@]([H])(O[H])[C@]([H])(N2C([H])=NC3=C2N=C([H])N=C3N([H])[H])O[C@]1([H])C([H])([H])O[P@](=O)([O-])O[P@](=O)([O-])N([H])P(=O)([O-])[O-]

>  <Name>  (107) 
PHOSPHOAMINOPHOSPHONIC ACID-ADENYLATE ESTER

>  <Pocket>  (107) 
A

>  <ATP_Site>  (107) 
1.0

>  <Peripheral>  (107) 
0.0

>  <Num_H_Atoms_ProtBoundConf>  (107) 
13.0

>  <Num_Resolved_Atoms>  (107) 
31.0

>  <Num_Not_Resolved_Atoms>  (107) 
0.0

$$$$
ANP
     RDKit          3D

  0  0  0  0  0  0  0  0  0  0999 V3000
M  V30 BEGIN CTAB
M  V30 COUNTS 44 46 0 0 0
M  V30 BEGIN ATOM
M  V30 1 O -0.695907 -0.352663 -2.648680 0
M  V30 2 C 0.287716 -0.632771 -1.695539 0 CFG=1
M  V30 3 C 0.755801 0.734905 -1.180767 0 CFG=1
M  V30 4 O 0.817679 1.565722 -2.290114 0
M  V30 5 C -0.388257 1.057103 -0.248182 0 CFG=2
M  V30 6 N -0.002806 1.934380 0.844747 0
M  V30 7 C 0.819379 1.643501 1.868661 0
M  V30 8 N 0.937393 2.710053 2.685776 0
M  V30 9 C 0.190445 3.711687 2.201416 0
M  V30 10 C -0.387796 3.210040 1.054280 0
M  V30 11 N -1.213160 4.036993 0.349857 0
M  V30 12 C -1.451449 5.309757 0.771705 0
M  V30 13 N -0.880199 5.784622 1.892447 0
M  V30 14 C -0.070219 5.009876 2.605984 0
M  V30 15 N 0.569073 5.452959 3.806786 0
M  V30 16 O -0.821163 -0.135494 0.289383 0
M  V30 17 C -0.327644 -1.189960 -0.434697 0 CFG=2
M  V30 18 C 0.792726 -1.807912 0.408854 0
M  V30 19 O 1.376479 -2.910987 -0.245667 0
M  V30 20 P 2.609887 -3.590492 0.684126 0 CFG=2 VAL=5
M  V30 21 O 2.798908 -2.740631 1.938883 0
M  V30 22 O 4.071495 -3.451516 -0.193416 0 CHG=-1 VAL=1
M  V30 23 O 2.391584 -5.192726 1.058900 0
M  V30 24 P 1.327718 -5.522383 2.288669 0 CFG=2 VAL=5
M  V30 25 O 0.621214 -4.352360 2.873162 0
M  V30 26 O 2.228369 -6.222783 3.563216 0 CHG=-1 VAL=1
M  V30 27 N 0.227015 -6.769371 1.724564 0
M  V30 28 P -1.081137 -6.091338 0.794405 0
M  V30 29 O -1.621422 -4.835722 1.399666 0
M  V30 30 O -0.564198 -5.868351 -0.797332 0 CHG=-1 VAL=1
M  V30 31 O -2.348242 -7.222588 0.759276 0 CHG=-1 VAL=1
M  V30 32 H -1.496843 -0.034440 -2.200301 0
M  V30 33 H 1.121970 -1.230156 -2.070755 0
M  V30 34 H 1.706097 0.634646 -0.632895 0
M  V30 35 H 1.755388 1.730419 -2.573087 0
M  V30 36 H -1.167376 1.557615 -0.854712 0
M  V30 37 H 1.338204 0.718148 2.066242 0
M  V30 38 H -2.107380 5.942182 0.196937 0
M  V30 39 H 0.479502 5.016674 4.754472 0
M  V30 40 H 1.185105 6.290589 3.739264 0
M  V30 41 H -1.057657 -1.965196 -0.685177 0
M  V30 42 H 0.302490 -2.079884 1.357643 0
M  V30 43 H 1.605555 -1.072958 0.491282 0
M  V30 44 H 0.763550 -7.450006 1.158307 0
M  V30 END ATOM
M  V30 BEGIN BOND
M  V30 1 1 1 2
M  V30 2 1 2 3
M  V30 3 1 3 4
M  V30 4 1 3 5
M  V30 5 1 5 6
M  V30 6 1 6 7
M  V30 7 2 7 8
M  V30 8 1 8 9
M  V30 9 2 9 10
M  V30 10 1 10 11
M  V30 11 2 11 12
M  V30 12 1 12 13
M  V30 13 2 13 14
M  V30 14 1 14 15
M  V30 15 1 5 16
M  V30 16 1 16 17
M  V30 17 1 17 18
M  V30 18 1 18 19
M  V30 19 1 19 20
M  V30 20 2 20 21
M  V30 21 1 20 22 CFG=3
M  V30 22 1 20 23
M  V30 23 1 23 24
M  V30 24 2 24 25
M  V30 25 1 24 26 CFG=1
M  V30 26 1 24 27
M  V30 27 1 27 28
M  V30 28 2 28 29
M  V30 29 1 28 30
M  V30 30 1 28 31
M  V30 31 1 17 2
M  V30 32 1 10 6
M  V30 33 1 14 9
M  V30 34 1 1 32
M  V30 35 1 2 33 CFG=3
M  V30 36 1 3 34 CFG=1
M  V30 37 1 4 35
M  V30 38 1 5 36 CFG=3
M  V30 39 1 7 37
M  V30 40 1 12 38
M  V30 41 1 15 39
M  V30 42 1 15 40
M  V30 43 1 17 41 CFG=3
M  V30 44 1 18 42
M  V30 45 1 18 43
M  V30 46 1 27 44
M  V30 END BOND
M  V30 END CTAB
M  END
>  <Dataset>  (108) 
PDB

>  <Ligand_Instance>  (108) 
1CDK_ANP_B_400

>  <PDB_ID>  (108) 
1CDK

>  <Standardized_SMILES>  (108) 
[H]O[C@@]1([H])[C@@]([H])(O[H])[C@]([H])(N2C([H])=NC3=C2N=C([H])N=C3N([H])[H])O[C@]1([H])C([H])([H])O[P@](=O)([O-])O[P@](=O)([O-])N([H])P(=O)([O-])[O-]

>  <Name>  (108) 
PHOSPHOAMINOPHOSPHONIC ACID-ADENYLATE ESTER

>  <Pocket>  (108) 
A

>  <ATP_Site>  (108) 
1.0

>  <Peripheral>  (108) 
0.0

>  <Num_H_Atoms_ProtBoundConf>  (108) 
13.0

>  <Num_Resolved_Atoms>  (108) 
31.0

>  <Num_Not_Resolved_Atoms>  (108) 
0.0

$$$$
ANP
     RDKit          3D

  0  0  0  0  0  0  0  0  0  0999 V3000
M  V30 BEGIN CTAB
M  V30 COUNTS 44 46 0 0 0
M  V30 BEGIN ATOM
M  V30 1 O 3.804972 0.256954 0.199957 0
M  V30 2 C 3.071562 -0.699356 0.920550 0 CFG=1
M  V30 3 C 2.793476 -0.034110 2.276014 0 CFG=1
M  V30 4 O 3.860673 0.729209 2.714109 0
M  V30 5 C 1.609080 0.829414 1.819143 0 CFG=2
M  V30 6 N 0.999910 1.511799 2.929364 0
M  V30 7 C 1.391537 1.566846 4.215518 0
M  V30 8 N 0.497200 2.328062 4.870940 0
M  V30 9 C -0.438095 2.741281 4.005576 0
M  V30 10 C -0.127687 2.225293 2.758228 0
M  V30 11 N -0.936299 2.512619 1.726839 0
M  V30 12 C -2.037811 3.277333 1.833979 0
M  V30 13 N -2.324767 3.770978 3.054492 0
M  V30 14 C -1.574365 3.538385 4.149548 0
M  V30 15 N -1.883559 4.063176 5.435864 0
M  V30 16 O 0.817449 -0.147290 1.265944 0
M  V30 17 C 1.662532 -0.768875 0.348130 0 CFG=2
M  V30 18 C 1.309787 -2.234938 0.170964 0
M  V30 19 O 0.019078 -2.406076 -0.286665 0
M  V30 20 P -0.346050 -4.056956 -0.475479 0 CFG=2 VAL=5
M  V30 21 O -1.830535 -4.254716 -0.233766 0
M  V30 22 O 0.494676 -4.914502 0.738920 0 CHG=-1 VAL=1
M  V30 23 O 0.115221 -4.633660 -1.996434 0
M  V30 24 P -1.264318 -4.755191 -2.995361 0 CFG=1 VAL=5
M  V30 25 O -1.667435 -6.203821 -3.149764 0
M  V30 26 O -2.565210 -3.932456 -2.258537 0 CHG=-1 VAL=1
M  V30 27 N -0.939646 -4.114999 -4.589935 0
M  V30 28 P -1.697966 -2.558248 -4.844712 0
M  V30 29 O -2.758341 -2.369451 -3.768950 0
M  V30 30 O -0.580966 -1.290427 -4.770205 0 CHG=-1 VAL=1
M  V30 31 O -2.485242 -2.506038 -6.334258 0 CHG=-1 VAL=1
M  V30 32 H 4.661309 -0.073356 -0.117656 0
M  V30 33 H 3.563103 -1.667569 1.007388 0
M  V30 34 H 2.460322 -0.797577 3.003953 0
M  V30 35 H 4.271901 0.218109 3.465092 0
M  V30 36 H 1.999913 1.478554 1.031413 0
M  V30 37 H 2.260112 1.076506 4.587367 0
M  V30 38 H -2.671125 3.489463 0.973906 0
M  V30 39 H -1.695810 4.896999 6.038486 0
M  V30 40 H -1.619631 4.947964 5.938005 0
M  V30 41 H 1.585363 -0.287887 -0.643267 0
M  V30 42 H 2.086832 -2.659649 -0.503986 0
M  V30 43 H 1.425899 -2.693440 1.183988 0
M  V30 44 H 0.080834 -4.069179 -4.817113 0
M  V30 END ATOM
M  V30 BEGIN BOND
M  V30 1 1 1 2
M  V30 2 1 2 3
M  V30 3 1 3 4
M  V30 4 1 3 5
M  V30 5 1 5 6
M  V30 6 1 6 7
M  V30 7 2 7 8
M  V30 8 1 8 9
M  V30 9 2 9 10
M  V30 10 1 10 11
M  V30 11 2 11 12
M  V30 12 1 12 13
M  V30 13 2 13 14
M  V30 14 1 14 15
M  V30 15 1 5 16
M  V30 16 1 16 17
M  V30 17 1 17 18
M  V30 18 1 18 19
M  V30 19 1 19 20
M  V30 20 2 20 21
M  V30 21 1 20 22 CFG=1
M  V30 22 1 20 23
M  V30 23 1 23 24
M  V30 24 2 24 25
M  V30 25 1 24 26 CFG=1
M  V30 26 1 24 27
M  V30 27 1 27 28
M  V30 28 2 28 29
M  V30 29 1 28 30
M  V30 30 1 28 31
M  V30 31 1 17 2
M  V30 32 1 10 6
M  V30 33 1 14 9
M  V30 34 1 1 32
M  V30 35 1 2 33 CFG=1
M  V30 36 1 3 34 CFG=1
M  V30 37 1 4 35
M  V30 38 1 5 36 CFG=3
M  V30 39 1 7 37
M  V30 40 1 12 38
M  V30 41 1 15 39
M  V30 42 1 15 40
M  V30 43 1 17 41 CFG=3
M  V30 44 1 18 42
M  V30 45 1 18 43
M  V30 46 1 27 44
M  V30 END BOND
M  V30 END CTAB
M  END
>  <Dataset>  (109) 
PDB

>  <Ligand_Instance>  (109) 
4DFX_ANP_E_402

>  <PDB_ID>  (109) 
4DFX

>  <Standardized_SMILES>  (109) 
[H]O[C@@]1([H])[C@@]([H])(O[H])[C@]([H])(N2C([H])=NC3=C2N=C([H])N=C3N([H])[H])O[C@]1([H])C([H])([H])O[P@](=O)([O-])O[P@@](=O)([O-])N([H])P(=O)([O-])[O-]

>  <Name>  (109) 
PHOSPHOAMINOPHOSPHONIC ACID-ADENYLATE ESTER

>  <Pocket>  (109) 
A

>  <ATP_Site>  (109) 
1.0

>  <Peripheral>  (109) 
0.0

>  <Num_H_Atoms_ProtBoundConf>  (109) 
13.0

>  <Num_Resolved_Atoms>  (109) 
31.0

>  <Num_Not_Resolved_Atoms>  (109) 
0.0

$$$$
ANP
     RDKit          3D

  0  0  0  0  0  0  0  0  0  0999 V3000
M  V30 BEGIN CTAB
M  V30 COUNTS 44 46 0 0 0
M  V30 BEGIN ATOM
M  V30 1 O 3.804972 0.256954 0.199957 0
M  V30 2 C 3.071562 -0.699356 0.920550 0 CFG=1
M  V30 3 C 2.793476 -0.034110 2.276014 0 CFG=1
M  V30 4 O 3.860673 0.729209 2.714109 0
M  V30 5 C 1.609080 0.829414 1.819143 0 CFG=2
M  V30 6 N 0.999910 1.511799 2.929364 0
M  V30 7 C 1.391537 1.566846 4.215518 0
M  V30 8 N 0.497200 2.328062 4.870940 0
M  V30 9 C -0.438095 2.741281 4.005576 0
M  V30 10 C -0.127687 2.225293 2.758228 0
M  V30 11 N -0.936299 2.512619 1.726839 0
M  V30 12 C -2.037811 3.277333 1.833979 0
M  V30 13 N -2.324767 3.770978 3.054492 0
M  V30 14 C -1.574365 3.538385 4.149548 0
M  V30 15 N -1.883559 4.063176 5.435864 0
M  V30 16 O 0.817449 -0.147290 1.265944 0
M  V30 17 C 1.662532 -0.768875 0.348130 0 CFG=2
M  V30 18 C 1.309787 -2.234938 0.170964 0
M  V30 19 O 0.019078 -2.406076 -0.286665 0
M  V30 20 P -0.346050 -4.056956 -0.475479 0 CFG=2 VAL=5
M  V30 21 O -1.830535 -4.254716 -0.233766 0
M  V30 22 O 0.494676 -4.914502 0.738920 0 CHG=-1 VAL=1
M  V30 23 O 0.115221 -4.633660 -1.996434 0
M  V30 24 P -1.264318 -4.755191 -2.995361 0 CFG=1 VAL=5
M  V30 25 O -1.667435 -6.203821 -3.149764 0
M  V30 26 O -2.565210 -3.932456 -2.258537 0 CHG=-1 VAL=1
M  V30 27 N -0.939646 -4.114999 -4.589935 0
M  V30 28 P -1.697966 -2.558248 -4.844712 0
M  V30 29 O -2.758341 -2.369451 -3.768950 0
M  V30 30 O -0.580966 -1.290427 -4.770205 0 CHG=-1 VAL=1
M  V30 31 O -2.485242 -2.506038 -6.334258 0 CHG=-1 VAL=1
M  V30 32 H 4.661309 -0.073356 -0.117656 0
M  V30 33 H 3.563103 -1.667569 1.007388 0
M  V30 34 H 2.460322 -0.797577 3.003953 0
M  V30 35 H 4.271901 0.218109 3.465092 0
M  V30 36 H 1.999913 1.478554 1.031413 0
M  V30 37 H 2.260112 1.076506 4.587367 0
M  V30 38 H -2.671125 3.489463 0.973906 0
M  V30 39 H -1.695810 4.896999 6.038486 0
M  V30 40 H -1.619631 4.947964 5.938005 0
M  V30 41 H 1.585363 -0.287887 -0.643267 0
M  V30 42 H 2.086832 -2.659649 -0.503986 0
M  V30 43 H 1.425899 -2.693440 1.183988 0
M  V30 44 H 0.080834 -4.069179 -4.817113 0
M  V30 END ATOM
M  V30 BEGIN BOND
M  V30 1 1 1 2
M  V30 2 1 2 3
M  V30 3 1 3 4
M  V30 4 1 3 5
M  V30 5 1 5 6
M  V30 6 1 6 7
M  V30 7 2 7 8
M  V30 8 1 8 9
M  V30 9 2 9 10
M  V30 10 1 10 11
M  V30 11 2 11 12
M  V30 12 1 12 13
M  V30 13 2 13 14
M  V30 14 1 14 15
M  V30 15 1 5 16
M  V30 16 1 16 17
M  V30 17 1 17 18
M  V30 18 1 18 19
M  V30 19 1 19 20
M  V30 20 2 20 21
M  V30 21 1 20 22 CFG=1
M  V30 22 1 20 23
M  V30 23 1 23 24
M  V30 24 2 24 25
M  V30 25 1 24 26 CFG=1
M  V30 26 1 24 27
M  V30 27 1 27 28
M  V30 28 2 28 29
M  V30 29 1 28 30
M  V30 30 1 28 31
M  V30 31 1 17 2
M  V30 32 1 10 6
M  V30 33 1 14 9
M  V30 34 1 1 32
M  V30 35 1 2 33 CFG=1
M  V30 36 1 3 34 CFG=1
M  V30 37 1 4 35
M  V30 38 1 5 36 CFG=3
M  V30 39 1 7 37
M  V30 40 1 12 38
M  V30 41 1 15 39
M  V30 42 1 15 40
M  V30 43 1 17 41 CFG=3
M  V30 44 1 18 42
M  V30 45 1 18 43
M  V30 46 1 27 44
M  V30 END BOND
M  V30 END CTAB
M  END
>  <Dataset>  (110) 
PDB

>  <Ligand_Instance>  (110) 
4DG0_ANP_E_402

>  <PDB_ID>  (110) 
4DG0

>  <Standardized_SMILES>  (110) 
[H]O[C@@]1([H])[C@@]([H])(O[H])[C@]([H])(N2C([H])=NC3=C2N=C([H])N=C3N([H])[H])O[C@]1([H])C([H])([H])O[P@](=O)([O-])O[P@@](=O)([O-])N([H])P(=O)([O-])[O-]

>  <Name>  (110) 
PHOSPHOAMINOPHOSPHONIC ACID-ADENYLATE ESTER

>  <Pocket>  (110) 
A

>  <ATP_Site>  (110) 
1.0

>  <Peripheral>  (110) 
0.0

>  <Num_H_Atoms_ProtBoundConf>  (110) 
13.0

>  <Num_Resolved_Atoms>  (110) 
31.0

>  <Num_Not_Resolved_Atoms>  (110) 
0.0

$$$$
ANP
     RDKit          3D

  0  0  0  0  0  0  0  0  0  0999 V3000
M  V30 BEGIN CTAB
M  V30 COUNTS 44 46 0 0 0
M  V30 BEGIN ATOM
M  V30 1 O 3.804972 0.256954 0.199957 0
M  V30 2 C 3.071562 -0.699356 0.920550 0 CFG=1
M  V30 3 C 2.793476 -0.034110 2.276014 0 CFG=1
M  V30 4 O 3.860673 0.729209 2.714109 0
M  V30 5 C 1.609080 0.829414 1.819143 0 CFG=2
M  V30 6 N 0.999910 1.511799 2.929364 0
M  V30 7 C 1.391537 1.566846 4.215518 0
M  V30 8 N 0.497200 2.328062 4.870940 0
M  V30 9 C -0.438095 2.741281 4.005576 0
M  V30 10 C -0.127687 2.225293 2.758228 0
M  V30 11 N -0.936299 2.512619 1.726839 0
M  V30 12 C -2.037811 3.277333 1.833979 0
M  V30 13 N -2.324767 3.770978 3.054492 0
M  V30 14 C -1.574365 3.538385 4.149548 0
M  V30 15 N -1.883559 4.063176 5.435864 0
M  V30 16 O 0.817449 -0.147290 1.265944 0
M  V30 17 C 1.662532 -0.768875 0.348130 0 CFG=2
M  V30 18 C 1.309787 -2.234938 0.170964 0
M  V30 19 O 0.019078 -2.406076 -0.286665 0
M  V30 20 P -0.346050 -4.056956 -0.475479 0 CFG=2 VAL=5
M  V30 21 O -1.830535 -4.254716 -0.233766 0
M  V30 22 O 0.494676 -4.914502 0.738920 0 CHG=-1 VAL=1
M  V30 23 O 0.115221 -4.633660 -1.996434 0
M  V30 24 P -1.264318 -4.755191 -2.995361 0 CFG=1 VAL=5
M  V30 25 O -1.667435 -6.203821 -3.149764 0
M  V30 26 O -2.565210 -3.932456 -2.258537 0 CHG=-1 VAL=1
M  V30 27 N -0.939646 -4.114999 -4.589935 0
M  V30 28 P -1.697966 -2.558248 -4.844712 0
M  V30 29 O -2.758341 -2.369451 -3.768950 0
M  V30 30 O -0.580966 -1.290427 -4.770205 0 CHG=-1 VAL=1
M  V30 31 O -2.485242 -2.506038 -6.334258 0 CHG=-1 VAL=1
M  V30 32 H 4.661309 -0.073356 -0.117656 0
M  V30 33 H 3.563103 -1.667569 1.007388 0
M  V30 34 H 2.460322 -0.797577 3.003953 0
M  V30 35 H 4.271901 0.218109 3.465092 0
M  V30 36 H 1.999913 1.478554 1.031413 0
M  V30 37 H 2.260112 1.076506 4.587367 0
M  V30 38 H -2.671125 3.489463 0.973906 0
M  V30 39 H -1.695810 4.896999 6.038486 0
M  V30 40 H -1.619631 4.947964 5.938005 0
M  V30 41 H 1.585363 -0.287887 -0.643267 0
M  V30 42 H 2.086832 -2.659649 -0.503986 0
M  V30 43 H 1.425899 -2.693440 1.183988 0
M  V30 44 H 0.080834 -4.069179 -4.817113 0
M  V30 END ATOM
M  V30 BEGIN BOND
M  V30 1 1 1 2
M  V30 2 1 2 3
M  V30 3 1 3 4
M  V30 4 1 3 5
M  V30 5 1 5 6
M  V30 6 1 6 7
M  V30 7 2 7 8
M  V30 8 1 8 9
M  V30 9 2 9 10
M  V30 10 1 10 11
M  V30 11 2 11 12
M  V30 12 1 12 13
M  V30 13 2 13 14
M  V30 14 1 14 15
M  V30 15 1 5 16
M  V30 16 1 16 17
M  V30 17 1 17 18
M  V30 18 1 18 19
M  V30 19 1 19 20
M  V30 20 2 20 21
M  V30 21 1 20 22 CFG=1
M  V30 22 1 20 23
M  V30 23 1 23 24
M  V30 24 2 24 25
M  V30 25 1 24 26 CFG=1
M  V30 26 1 24 27
M  V30 27 1 27 28
M  V30 28 2 28 29
M  V30 29 1 28 30
M  V30 30 1 28 31
M  V30 31 1 17 2
M  V30 32 1 10 6
M  V30 33 1 14 9
M  V30 34 1 1 32
M  V30 35 1 2 33 CFG=1
M  V30 36 1 3 34 CFG=1
M  V30 37 1 4 35
M  V30 38 1 5 36 CFG=3
M  V30 39 1 7 37
M  V30 40 1 12 38
M  V30 41 1 15 39
M  V30 42 1 15 40
M  V30 43 1 17 41 CFG=3
M  V30 44 1 18 42
M  V30 45 1 18 43
M  V30 46 1 27 44
M  V30 END BOND
M  V30 END CTAB
M  END
>  <Dataset>  (111) 
PDB

>  <Ligand_Instance>  (111) 
4DG3_ANP_E_401

>  <PDB_ID>  (111) 
4DG3

>  <Standardized_SMILES>  (111) 
[H]O[C@@]1([H])[C@@]([H])(O[H])[C@]([H])(N2C([H])=NC3=C2N=C([H])N=C3N([H])[H])O[C@]1([H])C([H])([H])O[P@](=O)([O-])O[P@@](=O)([O-])N([H])P(=O)([O-])[O-]

>  <Name>  (111) 
PHOSPHOAMINOPHOSPHONIC ACID-ADENYLATE ESTER

>  <Pocket>  (111) 
A

>  <ATP_Site>  (111) 
1.0

>  <Peripheral>  (111) 
0.0

>  <Num_H_Atoms_ProtBoundConf>  (111) 
13.0

>  <Num_Resolved_Atoms>  (111) 
31.0

>  <Num_Not_Resolved_Atoms>  (111) 
0.0

$$$$
ANP
     RDKit          3D

  0  0  0  0  0  0  0  0  0  0999 V3000
M  V30 BEGIN CTAB
M  V30 COUNTS 44 46 0 0 0
M  V30 BEGIN ATOM
M  V30 1 O 3.804972 0.256954 0.199957 0
M  V30 2 C 3.071562 -0.699356 0.920550 0 CFG=1
M  V30 3 C 2.793476 -0.034110 2.276014 0 CFG=1
M  V30 4 O 3.860673 0.729209 2.714109 0
M  V30 5 C 1.609080 0.829414 1.819143 0 CFG=2
M  V30 6 N 0.999910 1.511799 2.929364 0
M  V30 7 C 1.391537 1.566846 4.215518 0
M  V30 8 N 0.497200 2.328062 4.870940 0
M  V30 9 C -0.438095 2.741281 4.005576 0
M  V30 10 C -0.127687 2.225293 2.758228 0
M  V30 11 N -0.936299 2.512619 1.726839 0
M  V30 12 C -2.037811 3.277333 1.833979 0
M  V30 13 N -2.324767 3.770978 3.054492 0
M  V30 14 C -1.574365 3.538385 4.149548 0
M  V30 15 N -1.883559 4.063176 5.435864 0
M  V30 16 O 0.817449 -0.147290 1.265944 0
M  V30 17 C 1.662532 -0.768875 0.348130 0 CFG=2
M  V30 18 C 1.309787 -2.234938 0.170964 0
M  V30 19 O 0.019078 -2.406076 -0.286665 0
M  V30 20 P -0.346050 -4.056956 -0.475479 0 CFG=2 VAL=5
M  V30 21 O -1.830535 -4.254716 -0.233766 0
M  V30 22 O 0.494676 -4.914502 0.738920 0 CHG=-1 VAL=1
M  V30 23 O 0.115221 -4.633660 -1.996434 0
M  V30 24 P -1.264318 -4.755191 -2.995361 0 CFG=1 VAL=5
M  V30 25 O -1.667435 -6.203821 -3.149764 0
M  V30 26 O -2.565210 -3.932456 -2.258537 0 CHG=-1 VAL=1
M  V30 27 N -0.939646 -4.114999 -4.589935 0
M  V30 28 P -1.697966 -2.558248 -4.844712 0
M  V30 29 O -2.758341 -2.369451 -3.768950 0
M  V30 30 O -0.580966 -1.290427 -4.770205 0 CHG=-1 VAL=1
M  V30 31 O -2.485242 -2.506038 -6.334258 0 CHG=-1 VAL=1
M  V30 32 H 4.661309 -0.073356 -0.117656 0
M  V30 33 H 3.563103 -1.667569 1.007388 0
M  V30 34 H 2.460322 -0.797577 3.003953 0
M  V30 35 H 4.271901 0.218109 3.465092 0
M  V30 36 H 1.999913 1.478554 1.031413 0
M  V30 37 H 2.260112 1.076506 4.587367 0
M  V30 38 H -2.671125 3.489463 0.973906 0
M  V30 39 H -1.695810 4.896999 6.038486 0
M  V30 40 H -1.619631 4.947964 5.938005 0
M  V30 41 H 1.585363 -0.287887 -0.643267 0
M  V30 42 H 2.086832 -2.659649 -0.503986 0
M  V30 43 H 1.425899 -2.693440 1.183988 0
M  V30 44 H 0.080834 -4.069179 -4.817113 0
M  V30 END ATOM
M  V30 BEGIN BOND
M  V30 1 1 1 2
M  V30 2 1 2 3
M  V30 3 1 3 4
M  V30 4 1 3 5
M  V30 5 1 5 6
M  V30 6 1 6 7
M  V30 7 2 7 8
M  V30 8 1 8 9
M  V30 9 2 9 10
M  V30 10 1 10 11
M  V30 11 2 11 12
M  V30 12 1 12 13
M  V30 13 2 13 14
M  V30 14 1 14 15
M  V30 15 1 5 16
M  V30 16 1 16 17
M  V30 17 1 17 18
M  V30 18 1 18 19
M  V30 19 1 19 20
M  V30 20 2 20 21
M  V30 21 1 20 22 CFG=1
M  V30 22 1 20 23
M  V30 23 1 23 24
M  V30 24 2 24 25
M  V30 25 1 24 26 CFG=1
M  V30 26 1 24 27
M  V30 27 1 27 28
M  V30 28 2 28 29
M  V30 29 1 28 30
M  V30 30 1 28 31
M  V30 31 1 17 2
M  V30 32 1 10 6
M  V30 33 1 14 9
M  V30 34 1 1 32
M  V30 35 1 2 33 CFG=1
M  V30 36 1 3 34 CFG=1
M  V30 37 1 4 35
M  V30 38 1 5 36 CFG=3
M  V30 39 1 7 37
M  V30 40 1 12 38
M  V30 41 1 15 39
M  V30 42 1 15 40
M  V30 43 1 17 41 CFG=3
M  V30 44 1 18 42
M  V30 45 1 18 43
M  V30 46 1 27 44
M  V30 END BOND
M  V30 END CTAB
M  END
>  <Dataset>  (112) 
PDB

>  <Ligand_Instance>  (112) 
4DH7_ANP_A_403

>  <PDB_ID>  (112) 
4DH7

>  <Standardized_SMILES>  (112) 
[H]O[C@@]1([H])[C@@]([H])(O[H])[C@]([H])(N2C([H])=NC3=C2N=C([H])N=C3N([H])[H])O[C@]1([H])C([H])([H])O[P@](=O)([O-])O[P@@](=O)([O-])N([H])P(=O)([O-])[O-]

>  <Name>  (112) 
PHOSPHOAMINOPHOSPHONIC ACID-ADENYLATE ESTER

>  <Pocket>  (112) 
A

>  <ATP_Site>  (112) 
1.0

>  <Peripheral>  (112) 
0.0

>  <Num_H_Atoms_ProtBoundConf>  (112) 
13.0

>  <Num_Resolved_Atoms>  (112) 
31.0

>  <Num_Not_Resolved_Atoms>  (112) 
0.0

$$$$
ANP
     RDKit          3D

  0  0  0  0  0  0  0  0  0  0999 V3000
M  V30 BEGIN CTAB
M  V30 COUNTS 44 46 0 0 0
M  V30 BEGIN ATOM
M  V30 1 O 3.804972 0.256954 0.199957 0
M  V30 2 C 3.071562 -0.699356 0.920550 0 CFG=1
M  V30 3 C 2.793476 -0.034110 2.276014 0 CFG=1
M  V30 4 O 3.860673 0.729209 2.714109 0
M  V30 5 C 1.609080 0.829414 1.819143 0 CFG=2
M  V30 6 N 0.999910 1.511799 2.929364 0
M  V30 7 C 1.391537 1.566846 4.215518 0
M  V30 8 N 0.497200 2.328062 4.870940 0
M  V30 9 C -0.438095 2.741281 4.005576 0
M  V30 10 C -0.127687 2.225293 2.758228 0
M  V30 11 N -0.936299 2.512619 1.726839 0
M  V30 12 C -2.037811 3.277333 1.833979 0
M  V30 13 N -2.324767 3.770978 3.054492 0
M  V30 14 C -1.574365 3.538385 4.149548 0
M  V30 15 N -1.883559 4.063176 5.435864 0
M  V30 16 O 0.817449 -0.147290 1.265944 0
M  V30 17 C 1.662532 -0.768875 0.348130 0 CFG=2
M  V30 18 C 1.309787 -2.234938 0.170964 0
M  V30 19 O 0.019078 -2.406076 -0.286665 0
M  V30 20 P -0.346050 -4.056956 -0.475479 0 CFG=2 VAL=5
M  V30 21 O -1.830535 -4.254716 -0.233766 0
M  V30 22 O 0.494676 -4.914502 0.738920 0 CHG=-1 VAL=1
M  V30 23 O 0.115221 -4.633660 -1.996434 0
M  V30 24 P -1.264318 -4.755191 -2.995361 0 CFG=1 VAL=5
M  V30 25 O -1.667435 -6.203821 -3.149764 0
M  V30 26 O -2.565210 -3.932456 -2.258537 0 CHG=-1 VAL=1
M  V30 27 N -0.939646 -4.114999 -4.589935 0
M  V30 28 P -1.697966 -2.558248 -4.844712 0
M  V30 29 O -2.758341 -2.369451 -3.768950 0
M  V30 30 O -0.580966 -1.290427 -4.770205 0 CHG=-1 VAL=1
M  V30 31 O -2.485242 -2.506038 -6.334258 0 CHG=-1 VAL=1
M  V30 32 H 4.661309 -0.073356 -0.117656 0
M  V30 33 H 3.563103 -1.667569 1.007388 0
M  V30 34 H 2.460322 -0.797577 3.003953 0
M  V30 35 H 4.271901 0.218109 3.465092 0
M  V30 36 H 1.999913 1.478554 1.031413 0
M  V30 37 H 2.260112 1.076506 4.587367 0
M  V30 38 H -2.671125 3.489463 0.973906 0
M  V30 39 H -1.695810 4.896999 6.038486 0
M  V30 40 H -1.619631 4.947964 5.938005 0
M  V30 41 H 1.585363 -0.287887 -0.643267 0
M  V30 42 H 2.086832 -2.659649 -0.503986 0
M  V30 43 H 1.425899 -2.693440 1.183988 0
M  V30 44 H 0.080834 -4.069179 -4.817113 0
M  V30 END ATOM
M  V30 BEGIN BOND
M  V30 1 1 1 2
M  V30 2 1 2 3
M  V30 3 1 3 4
M  V30 4 1 3 5
M  V30 5 1 5 6
M  V30 6 1 6 7
M  V30 7 2 7 8
M  V30 8 1 8 9
M  V30 9 2 9 10
M  V30 10 1 10 11
M  V30 11 2 11 12
M  V30 12 1 12 13
M  V30 13 2 13 14
M  V30 14 1 14 15
M  V30 15 1 5 16
M  V30 16 1 16 17
M  V30 17 1 17 18
M  V30 18 1 18 19
M  V30 19 1 19 20
M  V30 20 2 20 21
M  V30 21 1 20 22 CFG=1
M  V30 22 1 20 23
M  V30 23 1 23 24
M  V30 24 2 24 25
M  V30 25 1 24 26 CFG=1
M  V30 26 1 24 27
M  V30 27 1 27 28
M  V30 28 2 28 29
M  V30 29 1 28 30
M  V30 30 1 28 31
M  V30 31 1 17 2
M  V30 32 1 10 6
M  V30 33 1 14 9
M  V30 34 1 1 32
M  V30 35 1 2 33 CFG=1
M  V30 36 1 3 34 CFG=1
M  V30 37 1 4 35
M  V30 38 1 5 36 CFG=3
M  V30 39 1 7 37
M  V30 40 1 12 38
M  V30 41 1 15 39
M  V30 42 1 15 40
M  V30 43 1 17 41 CFG=3
M  V30 44 1 18 42
M  V30 45 1 18 43
M  V30 46 1 27 44
M  V30 END BOND
M  V30 END CTAB
M  END
>  <Dataset>  (113) 
PDB

>  <Ligand_Instance>  (113) 
4DH8_ANP_A_403

>  <PDB_ID>  (113) 
4DH8

>  <Standardized_SMILES>  (113) 
[H]O[C@@]1([H])[C@@]([H])(O[H])[C@]([H])(N2C([H])=NC3=C2N=C([H])N=C3N([H])[H])O[C@]1([H])C([H])([H])O[P@](=O)([O-])O[P@@](=O)([O-])N([H])P(=O)([O-])[O-]

>  <Name>  (113) 
PHOSPHOAMINOPHOSPHONIC ACID-ADENYLATE ESTER

>  <Pocket>  (113) 
A

>  <ATP_Site>  (113) 
1.0

>  <Peripheral>  (113) 
0.0

>  <Num_H_Atoms_ProtBoundConf>  (113) 
13.0

>  <Num_Resolved_Atoms>  (113) 
31.0

>  <Num_Not_Resolved_Atoms>  (113) 
0.0

$$$$
ANP
     RDKit          3D

  0  0  0  0  0  0  0  0  0  0999 V3000
M  V30 BEGIN CTAB
M  V30 COUNTS 44 46 0 0 0
M  V30 BEGIN ATOM
M  V30 1 O 3.259756 1.630618 -1.700879 0
M  V30 2 C 2.901748 0.676698 -0.719895 0 CFG=1
M  V30 3 C 2.945545 1.429835 0.606037 0 CFG=1
M  V30 4 O 3.804658 2.522015 0.559956 0
M  V30 5 C 1.499919 1.865249 0.725939 0 CFG=2
M  V30 6 N 1.146552 2.283645 2.042376 0
M  V30 7 C 2.008113 2.702130 2.967629 0
M  V30 8 N 1.327484 3.015604 4.087877 0
M  V30 9 C 0.024749 2.785961 3.847513 0
M  V30 10 C -0.100059 2.322097 2.554486 0
M  V30 11 N -1.335104 2.024423 2.096801 0
M  V30 12 C -2.407632 2.181295 2.893215 0
M  V30 13 N -2.294752 2.639365 4.173435 0
M  V30 14 C -1.073994 2.951554 4.677440 0
M  V30 15 N -0.998031 3.425913 6.016353 0
M  V30 16 O 0.829887 0.708888 0.333851 0
M  V30 17 C 1.459559 0.320481 -0.847252 0 CFG=2
M  V30 18 C 1.234142 -1.168072 -1.009938 0
M  V30 19 O -0.126811 -1.457364 -1.080404 0
M  V30 20 P -0.251471 -3.141221 -1.260998 0 CFG=1 VAL=5
M  V30 21 O -1.653671 -3.503715 -1.639963 0
M  V30 22 O 0.795676 -3.630564 -2.519528 0 CHG=-1 VAL=1
M  V30 23 O 0.187864 -3.984461 0.112201 0
M  V30 24 P -0.656214 -5.454408 0.200026 0 CFG=1 VAL=5
M  V30 25 O -0.011000 -6.263279 1.316083 0
M  V30 26 O -2.263539 -5.114375 0.645644 0 CHG=-1 VAL=1
M  V30 27 N -0.608303 -6.308529 -1.314998 0
M  V30 28 P -2.199442 -6.694221 -1.931928 0
M  V30 29 O -3.253156 -6.106882 -1.020963 0
M  V30 30 O -2.441003 -6.040088 -3.486969 0 CHG=-1 VAL=1
M  V30 31 O -2.427686 -8.369692 -2.024155 0 CHG=-1 VAL=1
M  V30 32 H 2.642483 2.402965 -1.647920 0
M  V30 33 H 3.588542 -0.166370 -0.743582 0
M  V30 34 H 3.218013 0.703734 1.381345 0
M  V30 35 H 3.394981 3.330783 0.213114 0
M  V30 36 H 1.309804 2.665432 -0.015340 0
M  V30 37 H 3.088569 2.814576 2.942748 0
M  V30 38 H -3.434471 1.969103 2.614174 0
M  V30 39 H -0.864193 3.011337 6.960645 0
M  V30 40 H -1.127163 4.464672 5.827992 0
M  V30 41 H 1.021251 0.841302 -1.726940 0
M  V30 42 H 1.662584 -1.512331 -1.980854 0
M  V30 43 H 1.727660 -1.735405 -0.221705 0
M  V30 44 H -0.153957 -5.709518 -2.025080 0
M  V30 END ATOM
M  V30 BEGIN BOND
M  V30 1 1 1 2
M  V30 2 1 2 3
M  V30 3 1 3 4
M  V30 4 1 3 5
M  V30 5 1 5 6
M  V30 6 1 6 7
M  V30 7 2 7 8
M  V30 8 1 8 9
M  V30 9 2 9 10
M  V30 10 1 10 11
M  V30 11 2 11 12
M  V30 12 1 12 13
M  V30 13 2 13 14
M  V30 14 1 14 15
M  V30 15 1 5 16
M  V30 16 1 16 17
M  V30 17 1 17 18
M  V30 18 1 18 19
M  V30 19 1 19 20
M  V30 20 2 20 21
M  V30 21 1 20 22 CFG=3
M  V30 22 1 20 23
M  V30 23 1 23 24
M  V30 24 2 24 25
M  V30 25 1 24 26 CFG=1
M  V30 26 1 24 27
M  V30 27 1 27 28
M  V30 28 2 28 29
M  V30 29 1 28 30
M  V30 30 1 28 31
M  V30 31 1 17 2
M  V30 32 1 10 6
M  V30 33 1 14 9
M  V30 34 1 1 32
M  V30 35 1 2 33 CFG=1
M  V30 36 1 3 34 CFG=1
M  V30 37 1 4 35
M  V30 38 1 5 36 CFG=3
M  V30 39 1 7 37
M  V30 40 1 12 38
M  V30 41 1 15 39
M  V30 42 1 15 40
M  V30 43 1 17 41 CFG=3
M  V30 44 1 18 42
M  V30 45 1 18 43
M  V30 46 1 27 44
M  V30 END BOND
M  V30 END CTAB
M  END
>  <Dataset>  (114) 
PDB

>  <Ligand_Instance>  (114) 
4XW4_ANP_A_403

>  <PDB_ID>  (114) 
4XW4

>  <Standardized_SMILES>  (114) 
[H]O[C@@]1([H])[C@@]([H])(O[H])[C@]([H])(N2C([H])=NC3=C2N=C([H])N=C3N([H])[H])O[C@]1([H])C([H])([H])O[P@@](=O)([O-])O[P@@](=O)([O-])N([H])P(=O)([O-])[O-]

>  <Name>  (114) 
PHOSPHOAMINOPHOSPHONIC ACID-ADENYLATE ESTER

>  <Pocket>  (114) 
A

>  <ATP_Site>  (114) 
1.0

>  <Peripheral>  (114) 
0.0

>  <Num_H_Atoms_ProtBoundConf>  (114) 
13.0

>  <Num_Resolved_Atoms>  (114) 
31.0

>  <Num_Not_Resolved_Atoms>  (114) 
0.0

$$$$
ANP
     RDKit          3D

  0  0  0  0  0  0  0  0  0  0999 V3000
M  V30 BEGIN CTAB
M  V30 COUNTS 44 46 0 0 0
M  V30 BEGIN ATOM
M  V30 1 O 3.804972 0.256954 0.199957 0
M  V30 2 C 3.071562 -0.699356 0.920550 0 CFG=1
M  V30 3 C 2.793476 -0.034110 2.276014 0 CFG=1
M  V30 4 O 3.860673 0.729209 2.714109 0
M  V30 5 C 1.609080 0.829414 1.819143 0 CFG=2
M  V30 6 N 0.999910 1.511799 2.929364 0
M  V30 7 C 1.391537 1.566846 4.215518 0
M  V30 8 N 0.497200 2.328062 4.870940 0
M  V30 9 C -0.438095 2.741281 4.005576 0
M  V30 10 C -0.127687 2.225293 2.758228 0
M  V30 11 N -0.936299 2.512619 1.726839 0
M  V30 12 C -2.037811 3.277333 1.833979 0
M  V30 13 N -2.324767 3.770978 3.054492 0
M  V30 14 C -1.574365 3.538385 4.149548 0
M  V30 15 N -1.883559 4.063176 5.435864 0
M  V30 16 O 0.817449 -0.147290 1.265944 0
M  V30 17 C 1.662532 -0.768875 0.348130 0 CFG=2
M  V30 18 C 1.309787 -2.234938 0.170964 0
M  V30 19 O 0.019078 -2.406076 -0.286665 0
M  V30 20 P -0.346050 -4.056956 -0.475479 0 CFG=2 VAL=5
M  V30 21 O -1.830535 -4.254716 -0.233766 0
M  V30 22 O 0.494676 -4.914502 0.738920 0 CHG=-1 VAL=1
M  V30 23 O 0.115221 -4.633660 -1.996434 0
M  V30 24 P -1.264318 -4.755191 -2.995361 0 CFG=1 VAL=5
M  V30 25 O -1.667435 -6.203821 -3.149764 0
M  V30 26 O -2.565210 -3.932456 -2.258537 0 CHG=-1 VAL=1
M  V30 27 N -0.939646 -4.114999 -4.589935 0
M  V30 28 P -1.697966 -2.558248 -4.844712 0
M  V30 29 O -2.758341 -2.369451 -3.768950 0
M  V30 30 O -0.580966 -1.290427 -4.770205 0 CHG=-1 VAL=1
M  V30 31 O -2.485242 -2.506038 -6.334258 0 CHG=-1 VAL=1
M  V30 32 H 4.661309 -0.073356 -0.117656 0
M  V30 33 H 3.563103 -1.667569 1.007388 0
M  V30 34 H 2.460322 -0.797577 3.003953 0
M  V30 35 H 4.271901 0.218109 3.465092 0
M  V30 36 H 1.999913 1.478554 1.031413 0
M  V30 37 H 2.260112 1.076506 4.587367 0
M  V30 38 H -2.671125 3.489463 0.973906 0
M  V30 39 H -1.695810 4.896999 6.038486 0
M  V30 40 H -1.619631 4.947964 5.938005 0
M  V30 41 H 1.585363 -0.287887 -0.643267 0
M  V30 42 H 2.086832 -2.659649 -0.503986 0
M  V30 43 H 1.425899 -2.693440 1.183988 0
M  V30 44 H 0.080834 -4.069179 -4.817113 0
M  V30 END ATOM
M  V30 BEGIN BOND
M  V30 1 1 1 2
M  V30 2 1 2 3
M  V30 3 1 3 4
M  V30 4 1 3 5
M  V30 5 1 5 6
M  V30 6 1 6 7
M  V30 7 2 7 8
M  V30 8 1 8 9
M  V30 9 2 9 10
M  V30 10 1 10 11
M  V30 11 2 11 12
M  V30 12 1 12 13
M  V30 13 2 13 14
M  V30 14 1 14 15
M  V30 15 1 5 16
M  V30 16 1 16 17
M  V30 17 1 17 18
M  V30 18 1 18 19
M  V30 19 1 19 20
M  V30 20 2 20 21
M  V30 21 1 20 22 CFG=1
M  V30 22 1 20 23
M  V30 23 1 23 24
M  V30 24 2 24 25
M  V30 25 1 24 26 CFG=1
M  V30 26 1 24 27
M  V30 27 1 27 28
M  V30 28 2 28 29
M  V30 29 1 28 30
M  V30 30 1 28 31
M  V30 31 1 17 2
M  V30 32 1 10 6
M  V30 33 1 14 9
M  V30 34 1 1 32
M  V30 35 1 2 33 CFG=1
M  V30 36 1 3 34 CFG=1
M  V30 37 1 4 35
M  V30 38 1 5 36 CFG=3
M  V30 39 1 7 37
M  V30 40 1 12 38
M  V30 41 1 15 39
M  V30 42 1 15 40
M  V30 43 1 17 41 CFG=3
M  V30 44 1 18 42
M  V30 45 1 18 43
M  V30 46 1 27 44
M  V30 END BOND
M  V30 END CTAB
M  END
>  <Dataset>  (115) 
PDB

>  <Ligand_Instance>  (115) 
7E0Z_ANP_A_401

>  <PDB_ID>  (115) 
7E0Z

>  <Standardized_SMILES>  (115) 
[H]O[C@@]1([H])[C@@]([H])(O[H])[C@]([H])(N2C([H])=NC3=C2N=C([H])N=C3N([H])[H])O[C@]1([H])C([H])([H])O[P@](=O)([O-])O[P@@](=O)([O-])N([H])P(=O)([O-])[O-]

>  <Name>  (115) 
PHOSPHOAMINOPHOSPHONIC ACID-ADENYLATE ESTER

>  <Pocket>  (115) 
A

>  <ATP_Site>  (115) 
1.0

>  <Peripheral>  (115) 
0.0

>  <Num_H_Atoms_ProtBoundConf>  (115) 
13.0

>  <Num_Resolved_Atoms>  (115) 
31.0

>  <Num_Not_Resolved_Atoms>  (115) 
0.0

$$$$
ANP
     RDKit          3D

  0  0  0  0  0  0  0  0  0  0999 V3000
M  V30 BEGIN CTAB
M  V30 COUNTS 44 46 0 0 0
M  V30 BEGIN ATOM
M  V30 1 O 3.804972 0.256954 0.199957 0
M  V30 2 C 3.071562 -0.699356 0.920550 0 CFG=1
M  V30 3 C 2.793476 -0.034110 2.276014 0 CFG=1
M  V30 4 O 3.860673 0.729209 2.714109 0
M  V30 5 C 1.609080 0.829414 1.819143 0 CFG=2
M  V30 6 N 0.999910 1.511799 2.929364 0
M  V30 7 C 1.391537 1.566846 4.215518 0
M  V30 8 N 0.497200 2.328062 4.870940 0
M  V30 9 C -0.438095 2.741281 4.005576 0
M  V30 10 C -0.127687 2.225293 2.758228 0
M  V30 11 N -0.936299 2.512619 1.726839 0
M  V30 12 C -2.037811 3.277333 1.833979 0
M  V30 13 N -2.324767 3.770978 3.054492 0
M  V30 14 C -1.574365 3.538385 4.149548 0
M  V30 15 N -1.883559 4.063176 5.435864 0
M  V30 16 O 0.817449 -0.147290 1.265944 0
M  V30 17 C 1.662532 -0.768875 0.348130 0 CFG=2
M  V30 18 C 1.309787 -2.234938 0.170964 0
M  V30 19 O 0.019078 -2.406076 -0.286665 0
M  V30 20 P -0.346050 -4.056956 -0.475479 0 CFG=2 VAL=5
M  V30 21 O -1.830535 -4.254716 -0.233766 0
M  V30 22 O 0.494676 -4.914502 0.738920 0 CHG=-1 VAL=1
M  V30 23 O 0.115221 -4.633660 -1.996434 0
M  V30 24 P -1.264318 -4.755191 -2.995361 0 CFG=1 VAL=5
M  V30 25 O -1.667435 -6.203821 -3.149764 0
M  V30 26 O -2.565210 -3.932456 -2.258537 0 CHG=-1 VAL=1
M  V30 27 N -0.939646 -4.114999 -4.589935 0
M  V30 28 P -1.697966 -2.558248 -4.844712 0
M  V30 29 O -2.758341 -2.369451 -3.768950 0
M  V30 30 O -0.580966 -1.290427 -4.770205 0 CHG=-1 VAL=1
M  V30 31 O -2.485242 -2.506038 -6.334258 0 CHG=-1 VAL=1
M  V30 32 H 4.661309 -0.073356 -0.117656 0
M  V30 33 H 3.563103 -1.667569 1.007388 0
M  V30 34 H 2.460322 -0.797577 3.003953 0
M  V30 35 H 4.271901 0.218109 3.465092 0
M  V30 36 H 1.999913 1.478554 1.031413 0
M  V30 37 H 2.260112 1.076506 4.587367 0
M  V30 38 H -2.671125 3.489463 0.973906 0
M  V30 39 H -1.695810 4.896999 6.038486 0
M  V30 40 H -1.619631 4.947964 5.938005 0
M  V30 41 H 1.585363 -0.287887 -0.643267 0
M  V30 42 H 2.086832 -2.659649 -0.503986 0
M  V30 43 H 1.425899 -2.693440 1.183988 0
M  V30 44 H 0.080834 -4.069179 -4.817113 0
M  V30 END ATOM
M  V30 BEGIN BOND
M  V30 1 1 1 2
M  V30 2 1 2 3
M  V30 3 1 3 4
M  V30 4 1 3 5
M  V30 5 1 5 6
M  V30 6 1 6 7
M  V30 7 2 7 8
M  V30 8 1 8 9
M  V30 9 2 9 10
M  V30 10 1 10 11
M  V30 11 2 11 12
M  V30 12 1 12 13
M  V30 13 2 13 14
M  V30 14 1 14 15
M  V30 15 1 5 16
M  V30 16 1 16 17
M  V30 17 1 17 18
M  V30 18 1 18 19
M  V30 19 1 19 20
M  V30 20 2 20 21
M  V30 21 1 20 22 CFG=1
M  V30 22 1 20 23
M  V30 23 1 23 24
M  V30 24 2 24 25
M  V30 25 1 24 26 CFG=1
M  V30 26 1 24 27
M  V30 27 1 27 28
M  V30 28 2 28 29
M  V30 29 1 28 30
M  V30 30 1 28 31
M  V30 31 1 17 2
M  V30 32 1 10 6
M  V30 33 1 14 9
M  V30 34 1 1 32
M  V30 35 1 2 33 CFG=1
M  V30 36 1 3 34 CFG=1
M  V30 37 1 4 35
M  V30 38 1 5 36 CFG=3
M  V30 39 1 7 37
M  V30 40 1 12 38
M  V30 41 1 15 39
M  V30 42 1 15 40
M  V30 43 1 17 41 CFG=3
M  V30 44 1 18 42
M  V30 45 1 18 43
M  V30 46 1 27 44
M  V30 END BOND
M  V30 END CTAB
M  END
>  <Dataset>  (116) 
PDB

>  <Ligand_Instance>  (116) 
7E11_ANP_A_401

>  <PDB_ID>  (116) 
7E11

>  <Standardized_SMILES>  (116) 
[H]O[C@@]1([H])[C@@]([H])(O[H])[C@]([H])(N2C([H])=NC3=C2N=C([H])N=C3N([H])[H])O[C@]1([H])C([H])([H])O[P@](=O)([O-])O[P@@](=O)([O-])N([H])P(=O)([O-])[O-]

>  <Name>  (116) 
PHOSPHOAMINOPHOSPHONIC ACID-ADENYLATE ESTER

>  <Pocket>  (116) 
A

>  <ATP_Site>  (116) 
1.0

>  <Peripheral>  (116) 
0.0

>  <Num_H_Atoms_ProtBoundConf>  (116) 
13.0

>  <Num_Resolved_Atoms>  (116) 
31.0

>  <Num_Not_Resolved_Atoms>  (116) 
0.0

$$$$
ANP
     RDKit          3D

  0  0  0  0  0  0  0  0  0  0999 V3000
M  V30 BEGIN CTAB
M  V30 COUNTS 44 46 0 0 0
M  V30 BEGIN ATOM
M  V30 1 O 3.804972 0.256954 0.199957 0
M  V30 2 C 3.071562 -0.699356 0.920550 0 CFG=1
M  V30 3 C 2.793476 -0.034110 2.276014 0 CFG=1
M  V30 4 O 3.860673 0.729209 2.714109 0
M  V30 5 C 1.609080 0.829414 1.819143 0 CFG=2
M  V30 6 N 0.999910 1.511799 2.929364 0
M  V30 7 C 1.391537 1.566846 4.215518 0
M  V30 8 N 0.497200 2.328062 4.870940 0
M  V30 9 C -0.438095 2.741281 4.005576 0
M  V30 10 C -0.127687 2.225293 2.758228 0
M  V30 11 N -0.936299 2.512619 1.726839 0
M  V30 12 C -2.037811 3.277333 1.833979 0
M  V30 13 N -2.324767 3.770978 3.054492 0
M  V30 14 C -1.574365 3.538385 4.149548 0
M  V30 15 N -1.883559 4.063176 5.435864 0
M  V30 16 O 0.817449 -0.147290 1.265944 0
M  V30 17 C 1.662532 -0.768875 0.348130 0 CFG=2
M  V30 18 C 1.309787 -2.234938 0.170964 0
M  V30 19 O 0.019078 -2.406076 -0.286665 0
M  V30 20 P -0.346050 -4.056956 -0.475479 0 CFG=2 VAL=5
M  V30 21 O -1.830535 -4.254716 -0.233766 0
M  V30 22 O 0.494676 -4.914502 0.738920 0 CHG=-1 VAL=1
M  V30 23 O 0.115221 -4.633660 -1.996434 0
M  V30 24 P -1.264318 -4.755191 -2.995361 0 CFG=1 VAL=5
M  V30 25 O -1.667435 -6.203821 -3.149764 0
M  V30 26 O -2.565210 -3.932456 -2.258537 0 CHG=-1 VAL=1
M  V30 27 N -0.939646 -4.114999 -4.589935 0
M  V30 28 P -1.697966 -2.558248 -4.844712 0
M  V30 29 O -2.758341 -2.369451 -3.768950 0
M  V30 30 O -0.580966 -1.290427 -4.770205 0 CHG=-1 VAL=1
M  V30 31 O -2.485242 -2.506038 -6.334258 0 CHG=-1 VAL=1
M  V30 32 H 4.661309 -0.073356 -0.117656 0
M  V30 33 H 3.563103 -1.667569 1.007388 0
M  V30 34 H 2.460322 -0.797577 3.003953 0
M  V30 35 H 4.271901 0.218109 3.465092 0
M  V30 36 H 1.999913 1.478554 1.031413 0
M  V30 37 H 2.260112 1.076506 4.587367 0
M  V30 38 H -2.671125 3.489463 0.973906 0
M  V30 39 H -1.695810 4.896999 6.038486 0
M  V30 40 H -1.619631 4.947964 5.938005 0
M  V30 41 H 1.585363 -0.287887 -0.643267 0
M  V30 42 H 2.086832 -2.659649 -0.503986 0
M  V30 43 H 1.425899 -2.693440 1.183988 0
M  V30 44 H 0.080834 -4.069179 -4.817113 0
M  V30 END ATOM
M  V30 BEGIN BOND
M  V30 1 1 1 2
M  V30 2 1 2 3
M  V30 3 1 3 4
M  V30 4 1 3 5
M  V30 5 1 5 6
M  V30 6 1 6 7
M  V30 7 2 7 8
M  V30 8 1 8 9
M  V30 9 2 9 10
M  V30 10 1 10 11
M  V30 11 2 11 12
M  V30 12 1 12 13
M  V30 13 2 13 14
M  V30 14 1 14 15
M  V30 15 1 5 16
M  V30 16 1 16 17
M  V30 17 1 17 18
M  V30 18 1 18 19
M  V30 19 1 19 20
M  V30 20 2 20 21
M  V30 21 1 20 22 CFG=1
M  V30 22 1 20 23
M  V30 23 1 23 24
M  V30 24 2 24 25
M  V30 25 1 24 26 CFG=1
M  V30 26 1 24 27
M  V30 27 1 27 28
M  V30 28 2 28 29
M  V30 29 1 28 30
M  V30 30 1 28 31
M  V30 31 1 17 2
M  V30 32 1 10 6
M  V30 33 1 14 9
M  V30 34 1 1 32
M  V30 35 1 2 33 CFG=1
M  V30 36 1 3 34 CFG=1
M  V30 37 1 4 35
M  V30 38 1 5 36 CFG=3
M  V30 39 1 7 37
M  V30 40 1 12 38
M  V30 41 1 15 39
M  V30 42 1 15 40
M  V30 43 1 17 41 CFG=3
M  V30 44 1 18 42
M  V30 45 1 18 43
M  V30 46 1 27 44
M  V30 END BOND
M  V30 END CTAB
M  END
>  <Dataset>  (117) 
PDB

>  <Ligand_Instance>  (117) 
7E12_ANP_A_401

>  <PDB_ID>  (117) 
7E12

>  <Standardized_SMILES>  (117) 
[H]O[C@@]1([H])[C@@]([H])(O[H])[C@]([H])(N2C([H])=NC3=C2N=C([H])N=C3N([H])[H])O[C@]1([H])C([H])([H])O[P@](=O)([O-])O[P@@](=O)([O-])N([H])P(=O)([O-])[O-]

>  <Name>  (117) 
PHOSPHOAMINOPHOSPHONIC ACID-ADENYLATE ESTER

>  <Pocket>  (117) 
A

>  <ATP_Site>  (117) 
1.0

>  <Peripheral>  (117) 
0.0

>  <Num_H_Atoms_ProtBoundConf>  (117) 
13.0

>  <Num_Resolved_Atoms>  (117) 
31.0

>  <Num_Not_Resolved_Atoms>  (117) 
0.0

$$$$
AO8
     RDKit          3D

  0  0  0  0  0  0  0  0  0  0999 V3000
M  V30 BEGIN CTAB
M  V30 COUNTS 44 46 0 0 0
M  V30 BEGIN ATOM
M  V30 1 C 0.564975 -3.347619 1.207531 0
M  V30 2 N 1.594141 -4.200335 1.402825 0
M  V30 3 C 2.658572 -4.151168 0.566725 0
M  V30 4 C 2.678678 -3.236701 -0.467550 0
M  V30 5 C 3.748732 -3.152994 -1.346300 0
M  V30 6 C 3.803027 -2.251827 -2.390868 0
M  V30 7 C 2.746816 -1.389333 -2.577200 0
M  V30 8 C 1.643498 -1.421541 -1.731455 0
M  V30 9 S 0.243136 -0.381684 -1.862996 0
M  V30 10 O -0.995251 -1.090217 -2.252061 0
M  V30 11 O 0.547568 0.617762 -2.968067 0
M  V30 12 N 0.058384 0.544343 -0.422628 0
M  V30 13 C 1.172198 1.404126 -0.168863 0
M  V30 14 C 1.048333 2.234598 1.087551 0
M  V30 15 N 0.916551 1.439953 2.291381 0 CHG=1 VAL=4
M  V30 16 C -0.156868 1.878619 3.141922 0
M  V30 17 C -1.435186 1.152516 2.907733 0
M  V30 18 C -1.716789 -0.014957 3.625403 0
M  V30 19 C -2.854070 -0.785982 3.512630 0
M  V30 20 C -3.800717 -0.355757 2.600287 0
M  V30 21 C -3.572054 0.790478 1.866175 0
M  V30 22 C -2.419820 1.540599 2.004133 0
M  V30 23 C 1.639160 -2.341021 -0.703137 0
M  V30 24 C 0.574191 -2.425201 0.172384 0
M  V30 25 H -0.306021 -3.372667 1.874745 0
M  V30 26 H 3.503383 -4.830678 0.704230 0
M  V30 27 H 4.579754 -3.841420 -1.188751 0
M  V30 28 H 4.659409 -2.214932 -3.060634 0
M  V30 29 H 2.709786 -0.650184 -3.374091 0
M  V30 30 H -0.857868 0.995611 -0.377404 0
M  V30 31 H 2.119532 0.863384 -0.172560 0
M  V30 32 H 1.219083 2.133157 -1.005231 0
M  V30 33 H 1.952813 2.877256 1.119337 0
M  V30 34 H 0.184824 2.925513 1.035969 0
M  V30 35 H 1.807243 1.541537 2.825133 0
M  V30 36 H 0.807360 0.423118 2.094669 0
M  V30 37 H 0.124175 1.657217 4.190829 0
M  V30 38 H -0.356390 2.962438 3.053871 0
M  V30 39 H -0.943738 -0.325926 4.339626 0
M  V30 40 H -2.930804 -1.673991 4.143295 0
M  V30 41 H -4.699115 -0.956812 2.505121 0
M  V30 42 H -4.341540 1.090845 1.162209 0
M  V30 43 H -2.231078 2.441239 1.432918 0
M  V30 44 H -0.290131 -1.772182 0.078748 0
M  V30 END ATOM
M  V30 BEGIN BOND
M  V30 1 2 1 2
M  V30 2 1 2 3
M  V30 3 2 3 4
M  V30 4 1 4 5
M  V30 5 2 5 6
M  V30 6 1 6 7
M  V30 7 2 7 8
M  V30 8 1 8 9
M  V30 9 2 9 10
M  V30 10 2 9 11
M  V30 11 1 9 12
M  V30 12 1 12 13
M  V30 13 1 13 14
M  V30 14 1 14 15
M  V30 15 1 15 16
M  V30 16 1 16 17
M  V30 17 2 17 18
M  V30 18 1 18 19
M  V30 19 2 19 20
M  V30 20 1 20 21
M  V30 21 2 21 22
M  V30 22 1 8 23
M  V30 23 2 23 24
M  V30 24 1 24 1
M  V30 25 1 23 4
M  V30 26 1 22 17
M  V30 27 1 1 25
M  V30 28 1 3 26
M  V30 29 1 5 27
M  V30 30 1 6 28
M  V30 31 1 7 29
M  V30 32 1 12 30
M  V30 33 1 13 31
M  V30 34 1 13 32
M  V30 35 1 14 33
M  V30 36 1 14 34
M  V30 37 1 15 35
M  V30 38 1 15 36
M  V30 39 1 16 37
M  V30 40 1 16 38
M  V30 41 1 18 39
M  V30 42 1 19 40
M  V30 43 1 20 41
M  V30 44 1 21 42
M  V30 45 1 22 43
M  V30 46 1 24 44
M  V30 END BOND
M  V30 END CTAB
M  END
>  <Dataset>  (118) 
PDB

>  <Ligand_Instance>  (118) 
5OTG_AO8_A_401

>  <PDB_ID>  (118) 
5OTG

>  <Standardized_SMILES>  (118) 
[H]C1=NC([H])=C2C([H])=C([H])C([H])=C(S(=O)(=O)N([H])C([H])([H])C([H])([H])[N+]([H])([H])C([H])([H])C3=C([H])C([H])=C([H])C([H])=C3[H])C2=C1[H]

>  <Name>  (118) 
[2-[[2-(isoquinolin-5-ylsulfonylamino)ethylamino]methyl]phenyl]boronic acid

>  <Pocket>  (118) 
A

>  <ATP_Site>  (118) 
1.0

>  <Peripheral>  (118) 
0.0

>  <Num_H_Atoms_ProtBoundConf>  (118) 
20.0

>  <Num_Resolved_Atoms>  (118) 
24.0

>  <Num_Not_Resolved_Atoms>  (118) 
3.0

$$$$
AO8
     RDKit          3D

  0  0  0  0  0  0  0  0  0  0999 V3000
M  V30 BEGIN CTAB
M  V30 COUNTS 44 46 0 0 0
M  V30 BEGIN ATOM
M  V30 1 C 0.564975 -3.347619 1.207531 0
M  V30 2 N 1.594141 -4.200335 1.402825 0
M  V30 3 C 2.658572 -4.151168 0.566725 0
M  V30 4 C 2.678678 -3.236701 -0.467550 0
M  V30 5 C 3.748732 -3.152994 -1.346300 0
M  V30 6 C 3.803027 -2.251827 -2.390868 0
M  V30 7 C 2.746816 -1.389333 -2.577200 0
M  V30 8 C 1.643498 -1.421541 -1.731455 0
M  V30 9 S 0.243136 -0.381684 -1.862996 0
M  V30 10 O -0.995251 -1.090217 -2.252061 0
M  V30 11 O 0.547568 0.617762 -2.968067 0
M  V30 12 N 0.058384 0.544343 -0.422628 0
M  V30 13 C 1.172198 1.404126 -0.168863 0
M  V30 14 C 1.048333 2.234598 1.087551 0
M  V30 15 N 0.916551 1.439953 2.291381 0 CHG=1 VAL=4
M  V30 16 C -0.156868 1.878619 3.141922 0
M  V30 17 C -1.435186 1.152516 2.907733 0
M  V30 18 C -1.716789 -0.014957 3.625403 0
M  V30 19 C -2.854070 -0.785982 3.512630 0
M  V30 20 C -3.800717 -0.355757 2.600287 0
M  V30 21 C -3.572054 0.790478 1.866175 0
M  V30 22 C -2.419820 1.540599 2.004133 0
M  V30 23 C 1.639160 -2.341021 -0.703137 0
M  V30 24 C 0.574191 -2.425201 0.172384 0
M  V30 25 H -0.306021 -3.372667 1.874745 0
M  V30 26 H 3.503383 -4.830678 0.704230 0
M  V30 27 H 4.579754 -3.841420 -1.188751 0
M  V30 28 H 4.659409 -2.214932 -3.060634 0
M  V30 29 H 2.709786 -0.650184 -3.374091 0
M  V30 30 H -0.857868 0.995611 -0.377404 0
M  V30 31 H 2.119532 0.863384 -0.172560 0
M  V30 32 H 1.219083 2.133157 -1.005231 0
M  V30 33 H 1.952813 2.877256 1.119337 0
M  V30 34 H 0.184824 2.925513 1.035969 0
M  V30 35 H 1.807243 1.541537 2.825133 0
M  V30 36 H 0.807360 0.423118 2.094669 0
M  V30 37 H 0.124175 1.657217 4.190829 0
M  V30 38 H -0.356390 2.962438 3.053871 0
M  V30 39 H -0.943738 -0.325926 4.339626 0
M  V30 40 H -2.930804 -1.673991 4.143295 0
M  V30 41 H -4.699115 -0.956812 2.505121 0
M  V30 42 H -4.341540 1.090845 1.162209 0
M  V30 43 H -2.231078 2.441239 1.432918 0
M  V30 44 H -0.290131 -1.772182 0.078748 0
M  V30 END ATOM
M  V30 BEGIN BOND
M  V30 1 2 1 2
M  V30 2 1 2 3
M  V30 3 2 3 4
M  V30 4 1 4 5
M  V30 5 2 5 6
M  V30 6 1 6 7
M  V30 7 2 7 8
M  V30 8 1 8 9
M  V30 9 2 9 10
M  V30 10 2 9 11
M  V30 11 1 9 12
M  V30 12 1 12 13
M  V30 13 1 13 14
M  V30 14 1 14 15
M  V30 15 1 15 16
M  V30 16 1 16 17
M  V30 17 2 17 18
M  V30 18 1 18 19
M  V30 19 2 19 20
M  V30 20 1 20 21
M  V30 21 2 21 22
M  V30 22 1 8 23
M  V30 23 2 23 24
M  V30 24 1 24 1
M  V30 25 1 23 4
M  V30 26 1 22 17
M  V30 27 1 1 25
M  V30 28 1 3 26
M  V30 29 1 5 27
M  V30 30 1 6 28
M  V30 31 1 7 29
M  V30 32 1 12 30
M  V30 33 1 13 31
M  V30 34 1 13 32
M  V30 35 1 14 33
M  V30 36 1 14 34
M  V30 37 1 15 35
M  V30 38 1 15 36
M  V30 39 1 16 37
M  V30 40 1 16 38
M  V30 41 1 18 39
M  V30 42 1 19 40
M  V30 43 1 20 41
M  V30 44 1 21 42
M  V30 45 1 22 43
M  V30 46 1 24 44
M  V30 END BOND
M  V30 END CTAB
M  END
>  <Dataset>  (119) 
PDB

>  <Ligand_Instance>  (119) 
5OUC_AO8_A_401

>  <PDB_ID>  (119) 
5OUC

>  <Standardized_SMILES>  (119) 
[H]C1=NC([H])=C2C([H])=C([H])C([H])=C(S(=O)(=O)N([H])C([H])([H])C([H])([H])[N+]([H])([H])C([H])([H])C3=C([H])C([H])=C([H])C([H])=C3[H])C2=C1[H]

>  <Name>  (119) 
[2-[[2-(isoquinolin-5-ylsulfonylamino)ethylamino]methyl]phenyl]boronic acid

>  <Pocket>  (119) 
A

>  <ATP_Site>  (119) 
1.0

>  <Peripheral>  (119) 
0.0

>  <Num_H_Atoms_ProtBoundConf>  (119) 
20.0

>  <Num_Resolved_Atoms>  (119) 
24.0

>  <Num_Not_Resolved_Atoms>  (119) 
3.0

$$$$
AO8
     RDKit          3D

  0  0  0  0  0  0  0  0  0  0999 V3000
M  V30 BEGIN CTAB
M  V30 COUNTS 44 46 0 0 0
M  V30 BEGIN ATOM
M  V30 1 C 0.564975 -3.347619 1.207531 0
M  V30 2 N 1.594141 -4.200335 1.402825 0
M  V30 3 C 2.658572 -4.151168 0.566725 0
M  V30 4 C 2.678678 -3.236701 -0.467550 0
M  V30 5 C 3.748732 -3.152994 -1.346300 0
M  V30 6 C 3.803027 -2.251827 -2.390868 0
M  V30 7 C 2.746816 -1.389333 -2.577200 0
M  V30 8 C 1.643498 -1.421541 -1.731455 0
M  V30 9 S 0.243136 -0.381684 -1.862996 0
M  V30 10 O -0.995251 -1.090217 -2.252061 0
M  V30 11 O 0.547568 0.617762 -2.968067 0
M  V30 12 N 0.058384 0.544343 -0.422628 0
M  V30 13 C 1.172198 1.404126 -0.168863 0
M  V30 14 C 1.048333 2.234598 1.087551 0
M  V30 15 N 0.916551 1.439953 2.291381 0 CHG=1 VAL=4
M  V30 16 C -0.156868 1.878619 3.141922 0
M  V30 17 C -1.435186 1.152516 2.907733 0
M  V30 18 C -1.716789 -0.014957 3.625403 0
M  V30 19 C -2.854070 -0.785982 3.512630 0
M  V30 20 C -3.800717 -0.355757 2.600287 0
M  V30 21 C -3.572054 0.790478 1.866175 0
M  V30 22 C -2.419820 1.540599 2.004133 0
M  V30 23 C 1.639160 -2.341021 -0.703137 0
M  V30 24 C 0.574191 -2.425201 0.172384 0
M  V30 25 H -0.306021 -3.372667 1.874745 0
M  V30 26 H 3.503383 -4.830678 0.704230 0
M  V30 27 H 4.579754 -3.841420 -1.188751 0
M  V30 28 H 4.659409 -2.214932 -3.060634 0
M  V30 29 H 2.709786 -0.650184 -3.374091 0
M  V30 30 H -0.857868 0.995611 -0.377404 0
M  V30 31 H 2.119532 0.863384 -0.172560 0
M  V30 32 H 1.219083 2.133157 -1.005231 0
M  V30 33 H 1.952813 2.877256 1.119337 0
M  V30 34 H 0.184824 2.925513 1.035969 0
M  V30 35 H 1.807243 1.541537 2.825133 0
M  V30 36 H 0.807360 0.423118 2.094669 0
M  V30 37 H 0.124175 1.657217 4.190829 0
M  V30 38 H -0.356390 2.962438 3.053871 0
M  V30 39 H -0.943738 -0.325926 4.339626 0
M  V30 40 H -2.930804 -1.673991 4.143295 0
M  V30 41 H -4.699115 -0.956812 2.505121 0
M  V30 42 H -4.341540 1.090845 1.162209 0
M  V30 43 H -2.231078 2.441239 1.432918 0
M  V30 44 H -0.290131 -1.772182 0.078748 0
M  V30 END ATOM
M  V30 BEGIN BOND
M  V30 1 2 1 2
M  V30 2 1 2 3
M  V30 3 2 3 4
M  V30 4 1 4 5
M  V30 5 2 5 6
M  V30 6 1 6 7
M  V30 7 2 7 8
M  V30 8 1 8 9
M  V30 9 2 9 10
M  V30 10 2 9 11
M  V30 11 1 9 12
M  V30 12 1 12 13
M  V30 13 1 13 14
M  V30 14 1 14 15
M  V30 15 1 15 16
M  V30 16 1 16 17
M  V30 17 2 17 18
M  V30 18 1 18 19
M  V30 19 2 19 20
M  V30 20 1 20 21
M  V30 21 2 21 22
M  V30 22 1 8 23
M  V30 23 2 23 24
M  V30 24 1 24 1
M  V30 25 1 23 4
M  V30 26 1 22 17
M  V30 27 1 1 25
M  V30 28 1 3 26
M  V30 29 1 5 27
M  V30 30 1 6 28
M  V30 31 1 7 29
M  V30 32 1 12 30
M  V30 33 1 13 31
M  V30 34 1 13 32
M  V30 35 1 14 33
M  V30 36 1 14 34
M  V30 37 1 15 35
M  V30 38 1 15 36
M  V30 39 1 16 37
M  V30 40 1 16 38
M  V30 41 1 18 39
M  V30 42 1 19 40
M  V30 43 1 20 41
M  V30 44 1 21 42
M  V30 45 1 22 43
M  V30 46 1 24 44
M  V30 END BOND
M  V30 END CTAB
M  END
>  <Dataset>  (120) 
PDB

>  <Ligand_Instance>  (120) 
6I2H_AO8_A_401

>  <PDB_ID>  (120) 
6I2H

>  <Standardized_SMILES>  (120) 
[H]C1=NC([H])=C2C([H])=C([H])C([H])=C(S(=O)(=O)N([H])C([H])([H])C([H])([H])[N+]([H])([H])C([H])([H])C3=C([H])C([H])=C([H])C([H])=C3[H])C2=C1[H]

>  <Name>  (120) 
[2-[[2-(isoquinolin-5-ylsulfonylamino)ethylamino]methyl]phenyl]boronic acid

>  <Pocket>  (120) 
A

>  <ATP_Site>  (120) 
1.0

>  <Peripheral>  (120) 
0.0

>  <Num_H_Atoms_ProtBoundConf>  (120) 
20.0

>  <Num_Resolved_Atoms>  (120) 
24.0

>  <Num_Not_Resolved_Atoms>  (120) 
3.0

$$$$
ARX
     RDKit          3D

  0  0  0  0  0  0  0  0  0  0999 V3000
M  V30 BEGIN CTAB
M  V30 COUNTS 99 101 0 0 0
M  V30 BEGIN ATOM
M  V30 1 O 0.521858 -0.288357 4.662820 0
M  V30 2 C 0.925515 -1.601320 4.853025 0 CFG=1
M  V30 3 C 2.220543 -1.607958 5.692294 0 CFG=1
M  V30 4 O 1.981570 -0.836603 6.824457 0
M  V30 5 C 2.160226 -3.093348 6.084293 0 CFG=2
M  V30 6 N 2.372474 -3.855356 4.872175 0
M  V30 7 C 1.627204 -4.918517 4.469013 0
M  V30 8 N 2.082891 -5.420695 3.280006 0
M  V30 9 C 3.119483 -4.681163 2.919014 0
M  V30 10 C 3.297203 -3.722646 3.894055 0
M  V30 11 N 4.290459 -2.852740 3.751864 0
M  V30 12 C 5.123349 -2.873325 2.696278 0
M  V30 13 N 4.947495 -3.808229 1.746926 0
M  V30 14 C 3.955237 -4.719123 1.837529 0
M  V30 15 N 3.848013 -5.667302 0.784330 0
M  V30 16 O 0.835639 -3.272534 6.474527 0
M  V30 17 C 0.046500 -2.362585 5.790564 0 CFG=2
M  V30 18 C -1.202087 -2.883253 5.256144 0
M  V30 19 O -1.540728 -4.072929 5.489363 0
M  V30 20 N -2.031145 -2.061400 4.478882 0
M  V30 21 C -3.271691 -2.652560 3.983367 0
M  V30 22 C -4.032777 -1.638678 3.133462 0
M  V30 23 C -3.210375 -1.234800 1.964863 0
M  V30 24 C -3.933866 -0.227584 1.077925 0
M  V30 25 C -3.006165 0.067696 -0.056939 0
M  V30 26 C -3.492546 1.014225 -1.057912 0
M  V30 27 O -4.534665 1.745904 -1.181302 0
M  V30 28 N -2.591201 1.142699 -2.145326 0
M  V30 29 C -2.183742 1.675842 -3.390114 0 CFG=1
M  V30 30 C -1.014935 2.591137 -3.357739 0
M  V30 31 O -0.694157 2.868697 -4.562644 0
M  V30 32 N -0.256721 3.162428 -2.301345 0
M  V30 33 C 0.844190 4.009483 -2.690065 0 CFG=1
M  V30 34 C 0.471102 5.459397 -2.571872 0
M  V30 35 O -0.464270 6.253914 -2.239843 0
M  V30 36 N 1.574000 6.293209 -2.987198 0
M  V30 37 C 2.055079 3.789465 -1.832544 0
M  V30 38 C 2.567952 2.376682 -1.853076 0
M  V30 39 C 2.965657 1.862687 -3.196505 0
M  V30 40 N 3.441883 0.470199 -3.141716 0
M  V30 41 C 4.628550 0.310182 -2.367758 0
M  V30 42 N 5.288951 -0.947427 -2.151020 0
M  V30 43 N 5.287824 1.204146 -1.750269 0 CHG=1 VAL=4
M  V30 44 C -2.120181 0.702088 -4.545832 0
M  V30 45 C -3.503576 0.133602 -4.752207 0
M  V30 46 C -3.539994 -0.867122 -5.886395 0
M  V30 47 N -4.895053 -1.351035 -6.023021 0
M  V30 48 C -5.666867 -2.049432 -5.061733 0
M  V30 49 N -6.991759 -2.509900 -5.213203 0
M  V30 50 N -5.158644 -2.316444 -3.909303 0 CHG=1 VAL=4
M  V30 51 H 0.687660 -0.064505 3.710628 0
M  V30 52 H 1.210777 -2.129417 3.928772 0
M  V30 53 H 3.101769 -1.341219 5.119874 0
M  V30 54 H 2.291387 -1.393975 7.596215 0
M  V30 55 H 2.876585 -3.350362 6.876776 0
M  V30 56 H 0.782245 -5.402412 4.917182 0
M  V30 57 H 5.948244 -2.156372 2.569843 0
M  V30 58 H 3.827910 -6.730356 0.776565 0
M  V30 59 H 3.776095 -5.180361 -0.158839 0
M  V30 60 H -0.252454 -1.607968 6.586214 0
M  V30 61 H -1.784331 -1.088688 4.267075 0
M  V30 62 H -3.847234 -2.920656 4.891330 0
M  V30 63 H -3.067948 -3.596311 3.436572 0
M  V30 64 H -4.348952 -0.820509 3.785160 0
M  V30 65 H -4.929236 -2.195632 2.756611 0
M  V30 66 H -2.277164 -0.765784 2.321800 0
M  V30 67 H -2.917079 -2.134187 1.395978 0
M  V30 68 H -4.812788 -0.801751 0.670011 0
M  V30 69 H -4.278610 0.623108 1.658565 0
M  V30 70 H -2.808561 -0.934262 -0.545725 0
M  V30 71 H -1.998827 0.394668 0.292709 0
M  V30 72 H -1.682347 0.576347 -2.139340 0
M  V30 73 H -3.037307 2.374261 -3.701540 0
M  V30 74 H -0.650082 2.851176 -1.389307 0
M  V30 75 H 1.089901 3.817144 -3.740973 0
M  V30 76 H 2.575146 6.091585 -3.288127 0
M  V30 77 H 2.580022 6.238795 -3.303322 0
M  V30 78 H 1.811386 4.027855 -0.779302 0
M  V30 79 H 2.911408 4.433069 -2.168252 0
M  V30 80 H 1.748729 1.703948 -1.489206 0
M  V30 81 H 3.370943 2.331239 -1.094167 0
M  V30 82 H 3.883955 2.436188 -3.519043 0
M  V30 83 H 2.191953 1.959134 -3.971010 0
M  V30 84 H 3.136813 -0.427763 -3.520516 0
M  V30 85 H 5.319038 -1.312800 -1.163632 0
M  V30 86 H 5.821218 -1.778048 -2.553335 0
M  V30 87 H 6.060640 1.566694 -1.157146 0
M  V30 88 H 5.767459 1.996715 -1.276605 0
M  V30 89 H -1.885132 1.308501 -5.448577 0
M  V30 90 H -1.338016 -0.050712 -4.479070 0
M  V30 91 H -3.951608 -0.284172 -3.843811 0
M  V30 92 H -4.198544 0.960060 -5.065239 0
M  V30 93 H -2.817879 -1.698215 -5.716956 0
M  V30 94 H -3.271954 -0.403328 -6.847266 0
M  V30 95 H -5.478811 -1.221951 -6.906415 0
M  V30 96 H -7.679012 -1.915664 -4.714098 0
M  V30 97 H -7.634204 -3.218433 -5.624669 0
M  V30 98 H -4.917258 -2.620002 -2.927869 0
M  V30 99 H -4.880703 -2.597938 -2.945665 0
M  V30 END ATOM
M  V30 BEGIN BOND
M  V30 1 1 1 2
M  V30 2 1 2 3
M  V30 3 1 3 4
M  V30 4 1 3 5
M  V30 5 1 5 6
M  V30 6 1 6 7
M  V30 7 2 7 8
M  V30 8 1 8 9
M  V30 9 2 9 10
M  V30 10 1 10 11
M  V30 11 2 11 12
M  V30 12 1 12 13
M  V30 13 2 13 14
M  V30 14 1 14 15
M  V30 15 1 5 16
M  V30 16 1 16 17
M  V30 17 1 17 18
M  V30 18 2 18 19
M  V30 19 1 18 20
M  V30 20 1 20 21
M  V30 21 1 21 22
M  V30 22 1 22 23
M  V30 23 1 23 24
M  V30 24 1 24 25
M  V30 25 1 25 26
M  V30 26 2 26 27
M  V30 27 1 26 28
M  V30 28 1 28 29
M  V30 29 1 29 30
M  V30 30 2 30 31
M  V30 31 1 30 32
M  V30 32 1 32 33
M  V30 33 1 33 34
M  V30 34 2 34 35
M  V30 35 1 34 36
M  V30 36 1 33 37
M  V30 37 1 37 38
M  V30 38 1 38 39
M  V30 39 1 39 40
M  V30 40 1 40 41
M  V30 41 1 41 42
M  V30 42 2 41 43
M  V30 43 1 29 44
M  V30 44 1 44 45
M  V30 45 1 45 46
M  V30 46 1 46 47
M  V30 47 1 47 48
M  V30 48 1 48 49
M  V30 49 2 48 50
M  V30 50 1 17 2
M  V30 51 1 10 6
M  V30 52 1 14 9
M  V30 53 1 1 51
M  V30 54 1 2 52 CFG=3
M  V30 55 1 3 53 CFG=3
M  V30 56 1 4 54
M  V30 57 1 5 55 CFG=1
M  V30 58 1 7 56
M  V30 59 1 12 57
M  V30 60 1 15 58
M  V30 61 1 15 59
M  V30 62 1 17 60 CFG=1
M  V30 63 1 20 61
M  V30 64 1 21 62
M  V30 65 1 21 63
M  V30 66 1 22 64
M  V30 67 1 22 65
M  V30 68 1 23 66
M  V30 69 1 23 67
M  V30 70 1 24 68
M  V30 71 1 24 69
M  V30 72 1 25 70
M  V30 73 1 25 71
M  V30 74 1 28 72
M  V30 75 1 29 73 CFG=3
M  V30 76 1 32 74
M  V30 77 1 33 75 CFG=3
M  V30 78 1 36 76
M  V30 79 1 36 77
M  V30 80 1 37 78
M  V30 81 1 37 79
M  V30 82 1 38 80
M  V30 83 1 38 81
M  V30 84 1 39 82
M  V30 85 1 39 83
M  V30 86 1 40 84
M  V30 87 1 42 85
M  V30 88 1 42 86
M  V30 89 1 43 87
M  V30 90 1 43 88
M  V30 91 1 44 89
M  V30 92 1 44 90
M  V30 93 1 45 91
M  V30 94 1 45 92
M  V30 95 1 46 93
M  V30 96 1 46 94
M  V30 97 1 47 95
M  V30 98 1 49 96
M  V30 99 1 49 97
M  V30 100 1 50 98
M  V30 101 1 50 99
M  V30 END BOND
M  V30 END CTAB
M  END
>  <Dataset>  (121) 
PDB

>  <Ligand_Instance>  (121) 
3BWJ_ARX_A_351

>  <PDB_ID>  (121) 
3BWJ

>  <Standardized_SMILES>  (121) 
[H]O[C@@]1([H])[C@@]([H])(O[H])[C@]([H])(N2C([H])=NC3=C2N=C([H])N=C3N([H])[H])O[C@]1([H])C(=O)N([H])C([H])([H])C([H])([H])C([H])([H])C([H])([H])C([H])([H])C(=O)N([H])[C@@]([H])(C(=O)N([H])[C@@]([H])(C(=O)N([H])[H])C([H])([H])C([H])([H])C([H])([H])N([H])C(N([H])[H])=[N+]([H])[H])C([H])([H])C([H])([H])C([H])([H])N([H])C(N([H])[H])=[N+]([H])[H]

>  <Name>  (121) 
(2S,3S,4R,5R)-5-(6-amino-9H-purin-9-yl)-N-(6-{[(1R)-4-carbamimidamido-1-{[(1R)-4-carbamimidamido-1-carbamoylbutyl]carbamoyl}butyl]amino}-6-oxohexyl)-3,4-dihydroxytetrahydrofuran-2-carboxamide

>  <Pocket>  (121) 
A

>  <ATP_Site>  (121) 
1.0

>  <Peripheral>  (121) 
1.0

>  <Num_H_Atoms_ProtBoundConf>  (121) 
49.0

>  <Num_Resolved_Atoms>  (121) 
50.0

>  <Num_Not_Resolved_Atoms>  (121) 
0.0

$$$$
ARX
     RDKit          3D

  0  0  0  0  0  0  0  0  0  0999 V3000
M  V30 BEGIN CTAB
M  V30 COUNTS 99 101 0 0 0
M  V30 BEGIN ATOM
M  V30 1 O 0.521858 -0.288357 4.662820 0
M  V30 2 C 0.925515 -1.601320 4.853025 0 CFG=1
M  V30 3 C 2.220543 -1.607958 5.692294 0 CFG=1
M  V30 4 O 1.981570 -0.836603 6.824457 0
M  V30 5 C 2.160226 -3.093348 6.084293 0 CFG=2
M  V30 6 N 2.372474 -3.855356 4.872175 0
M  V30 7 C 1.627204 -4.918517 4.469013 0
M  V30 8 N 2.082891 -5.420695 3.280006 0
M  V30 9 C 3.119483 -4.681163 2.919014 0
M  V30 10 C 3.297203 -3.722646 3.894055 0
M  V30 11 N 4.290459 -2.852740 3.751864 0
M  V30 12 C 5.123349 -2.873325 2.696278 0
M  V30 13 N 4.947495 -3.808229 1.746926 0
M  V30 14 C 3.955237 -4.719123 1.837529 0
M  V30 15 N 3.848013 -5.667302 0.784330 0
M  V30 16 O 0.835639 -3.272534 6.474527 0
M  V30 17 C 0.046500 -2.362585 5.790564 0 CFG=2
M  V30 18 C -1.202087 -2.883253 5.256144 0
M  V30 19 O -1.540728 -4.072929 5.489363 0
M  V30 20 N -2.031145 -2.061400 4.478882 0
M  V30 21 C -3.271691 -2.652560 3.983367 0
M  V30 22 C -4.032777 -1.638678 3.133462 0
M  V30 23 C -3.210375 -1.234800 1.964863 0
M  V30 24 C -3.933866 -0.227584 1.077925 0
M  V30 25 C -3.006165 0.067696 -0.056939 0
M  V30 26 C -3.492546 1.014225 -1.057912 0
M  V30 27 O -4.534665 1.745904 -1.181302 0
M  V30 28 N -2.591201 1.142699 -2.145326 0
M  V30 29 C -2.183742 1.675842 -3.390114 0 CFG=1
M  V30 30 C -1.014935 2.591137 -3.357739 0
M  V30 31 O -0.694157 2.868697 -4.562644 0
M  V30 32 N -0.256721 3.162428 -2.301345 0
M  V30 33 C 0.844190 4.009483 -2.690065 0 CFG=1
M  V30 34 C 0.471102 5.459397 -2.571872 0
M  V30 35 O -0.464270 6.253914 -2.239843 0
M  V30 36 N 1.574000 6.293209 -2.987198 0
M  V30 37 C 2.055079 3.789465 -1.832544 0
M  V30 38 C 2.567952 2.376682 -1.853076 0
M  V30 39 C 2.965657 1.862687 -3.196505 0
M  V30 40 N 3.441883 0.470199 -3.141716 0
M  V30 41 C 4.628550 0.310182 -2.367758 0
M  V30 42 N 5.288951 -0.947427 -2.151020 0
M  V30 43 N 5.287824 1.204146 -1.750269 0 CHG=1 VAL=4
M  V30 44 C -2.120181 0.702088 -4.545832 0
M  V30 45 C -3.503576 0.133602 -4.752207 0
M  V30 46 C -3.539994 -0.867122 -5.886395 0
M  V30 47 N -4.895053 -1.351035 -6.023021 0
M  V30 48 C -5.666867 -2.049432 -5.061733 0
M  V30 49 N -6.991759 -2.509900 -5.213203 0
M  V30 50 N -5.158644 -2.316444 -3.909303 0 CHG=1 VAL=4
M  V30 51 H 0.687660 -0.064505 3.710628 0
M  V30 52 H 1.210777 -2.129417 3.928772 0
M  V30 53 H 3.101769 -1.341219 5.119874 0
M  V30 54 H 2.291387 -1.393975 7.596215 0
M  V30 55 H 2.876585 -3.350362 6.876776 0
M  V30 56 H 0.782245 -5.402412 4.917182 0
M  V30 57 H 5.948244 -2.156372 2.569843 0
M  V30 58 H 3.827910 -6.730356 0.776565 0
M  V30 59 H 3.776095 -5.180361 -0.158839 0
M  V30 60 H -0.252454 -1.607968 6.586214 0
M  V30 61 H -1.784331 -1.088688 4.267075 0
M  V30 62 H -3.847234 -2.920656 4.891330 0
M  V30 63 H -3.067948 -3.596311 3.436572 0
M  V30 64 H -4.348952 -0.820509 3.785160 0
M  V30 65 H -4.929236 -2.195632 2.756611 0
M  V30 66 H -2.277164 -0.765784 2.321800 0
M  V30 67 H -2.917079 -2.134187 1.395978 0
M  V30 68 H -4.812788 -0.801751 0.670011 0
M  V30 69 H -4.278610 0.623108 1.658565 0
M  V30 70 H -2.808561 -0.934262 -0.545725 0
M  V30 71 H -1.998827 0.394668 0.292709 0
M  V30 72 H -1.682347 0.576347 -2.139340 0
M  V30 73 H -3.037307 2.374261 -3.701540 0
M  V30 74 H -0.650082 2.851176 -1.389307 0
M  V30 75 H 1.089901 3.817144 -3.740973 0
M  V30 76 H 2.575146 6.091585 -3.288127 0
M  V30 77 H 2.580022 6.238795 -3.303322 0
M  V30 78 H 1.811386 4.027855 -0.779302 0
M  V30 79 H 2.911408 4.433069 -2.168252 0
M  V30 80 H 1.748729 1.703948 -1.489206 0
M  V30 81 H 3.370943 2.331239 -1.094167 0
M  V30 82 H 3.883955 2.436188 -3.519043 0
M  V30 83 H 2.191953 1.959134 -3.971010 0
M  V30 84 H 3.136813 -0.427763 -3.520516 0
M  V30 85 H 5.319038 -1.312800 -1.163632 0
M  V30 86 H 5.821218 -1.778048 -2.553335 0
M  V30 87 H 6.060640 1.566694 -1.157146 0
M  V30 88 H 5.767459 1.996715 -1.276605 0
M  V30 89 H -1.885132 1.308501 -5.448577 0
M  V30 90 H -1.338016 -0.050712 -4.479070 0
M  V30 91 H -3.951608 -0.284172 -3.843811 0
M  V30 92 H -4.198544 0.960060 -5.065239 0
M  V30 93 H -2.817879 -1.698215 -5.716956 0
M  V30 94 H -3.271954 -0.403328 -6.847266 0
M  V30 95 H -5.478811 -1.221951 -6.906415 0
M  V30 96 H -7.679012 -1.915664 -4.714098 0
M  V30 97 H -7.634204 -3.218433 -5.624669 0
M  V30 98 H -4.917258 -2.620002 -2.927869 0
M  V30 99 H -4.880703 -2.597938 -2.945665 0
M  V30 END ATOM
M  V30 BEGIN BOND
M  V30 1 1 1 2
M  V30 2 1 2 3
M  V30 3 1 3 4
M  V30 4 1 3 5
M  V30 5 1 5 6
M  V30 6 1 6 7
M  V30 7 2 7 8
M  V30 8 1 8 9
M  V30 9 2 9 10
M  V30 10 1 10 11
M  V30 11 2 11 12
M  V30 12 1 12 13
M  V30 13 2 13 14
M  V30 14 1 14 15
M  V30 15 1 5 16
M  V30 16 1 16 17
M  V30 17 1 17 18
M  V30 18 2 18 19
M  V30 19 1 18 20
M  V30 20 1 20 21
M  V30 21 1 21 22
M  V30 22 1 22 23
M  V30 23 1 23 24
M  V30 24 1 24 25
M  V30 25 1 25 26
M  V30 26 2 26 27
M  V30 27 1 26 28
M  V30 28 1 28 29
M  V30 29 1 29 30
M  V30 30 2 30 31
M  V30 31 1 30 32
M  V30 32 1 32 33
M  V30 33 1 33 34
M  V30 34 2 34 35
M  V30 35 1 34 36
M  V30 36 1 33 37
M  V30 37 1 37 38
M  V30 38 1 38 39
M  V30 39 1 39 40
M  V30 40 1 40 41
M  V30 41 1 41 42
M  V30 42 2 41 43
M  V30 43 1 29 44
M  V30 44 1 44 45
M  V30 45 1 45 46
M  V30 46 1 46 47
M  V30 47 1 47 48
M  V30 48 1 48 49
M  V30 49 2 48 50
M  V30 50 1 17 2
M  V30 51 1 10 6
M  V30 52 1 14 9
M  V30 53 1 1 51
M  V30 54 1 2 52 CFG=3
M  V30 55 1 3 53 CFG=3
M  V30 56 1 4 54
M  V30 57 1 5 55 CFG=1
M  V30 58 1 7 56
M  V30 59 1 12 57
M  V30 60 1 15 58
M  V30 61 1 15 59
M  V30 62 1 17 60 CFG=1
M  V30 63 1 20 61
M  V30 64 1 21 62
M  V30 65 1 21 63
M  V30 66 1 22 64
M  V30 67 1 22 65
M  V30 68 1 23 66
M  V30 69 1 23 67
M  V30 70 1 24 68
M  V30 71 1 24 69
M  V30 72 1 25 70
M  V30 73 1 25 71
M  V30 74 1 28 72
M  V30 75 1 29 73 CFG=3
M  V30 76 1 32 74
M  V30 77 1 33 75 CFG=3
M  V30 78 1 36 76
M  V30 79 1 36 77
M  V30 80 1 37 78
M  V30 81 1 37 79
M  V30 82 1 38 80
M  V30 83 1 38 81
M  V30 84 1 39 82
M  V30 85 1 39 83
M  V30 86 1 40 84
M  V30 87 1 42 85
M  V30 88 1 42 86
M  V30 89 1 43 87
M  V30 90 1 43 88
M  V30 91 1 44 89
M  V30 92 1 44 90
M  V30 93 1 45 91
M  V30 94 1 45 92
M  V30 95 1 46 93
M  V30 96 1 46 94
M  V30 97 1 47 95
M  V30 98 1 49 96
M  V30 99 1 49 97
M  V30 100 1 50 98
M  V30 101 1 50 99
M  V30 END BOND
M  V30 END CTAB
M  END
>  <Dataset>  (122) 
PDB

>  <Ligand_Instance>  (122) 
3BWJ_ARX_A_352

>  <PDB_ID>  (122) 
3BWJ

>  <Standardized_SMILES>  (122) 
[H]O[C@@]1([H])[C@@]([H])(O[H])[C@]([H])(N2C([H])=NC3=C2N=C([H])N=C3N([H])[H])O[C@]1([H])C(=O)N([H])C([H])([H])C([H])([H])C([H])([H])C([H])([H])C([H])([H])C(=O)N([H])[C@@]([H])(C(=O)N([H])[C@@]([H])(C(=O)N([H])[H])C([H])([H])C([H])([H])C([H])([H])N([H])C(N([H])[H])=[N+]([H])[H])C([H])([H])C([H])([H])C([H])([H])N([H])C(N([H])[H])=[N+]([H])[H]

>  <Name>  (122) 
(2S,3S,4R,5R)-5-(6-amino-9H-purin-9-yl)-N-(6-{[(1R)-4-carbamimidamido-1-{[(1R)-4-carbamimidamido-1-carbamoylbutyl]carbamoyl}butyl]amino}-6-oxohexyl)-3,4-dihydroxytetrahydrofuran-2-carboxamide

>  <Pocket>  (122) 
G

>  <ATP_Site>  (122) 
1.0

>  <Peripheral>  (122) 
1.0

>  <Num_H_Atoms_ProtBoundConf>  (122) 
49.0

>  <Num_Resolved_Atoms>  (122) 
50.0

>  <Num_Not_Resolved_Atoms>  (122) 
0.0

$$$$
ATP
     RDKit          3D

  0  0  0  0  0  0  0  0  0  0999 V3000
M  V30 BEGIN CTAB
M  V30 COUNTS 43 45 0 0 0
M  V30 BEGIN ATOM
M  V30 1 O 4.458051 -0.549692 2.184329 0
M  V30 2 C 3.185165 -1.018996 1.888478 0 CFG=1
M  V30 3 C 2.151562 -0.289438 2.717447 0 CFG=1
M  V30 4 O 2.587765 -0.093020 4.026809 0
M  V30 5 C 2.012863 0.994439 1.960220 0 CFG=2
M  V30 6 N 0.621929 1.451657 1.965626 0
M  V30 7 C -0.169403 1.186978 3.037074 0
M  V30 8 N -1.408033 1.704809 2.816585 0
M  V30 9 C -1.383197 2.293131 1.602194 0
M  V30 10 C -0.117365 2.131241 1.079767 0
M  V30 11 N 0.252831 2.597842 -0.119282 0
M  V30 12 C -0.628049 3.265687 -0.885944 0
M  V30 13 N -1.893337 3.456926 -0.423632 0
M  V30 14 C -2.259898 2.982870 0.788144 0
M  V30 15 N -3.585743 3.184843 1.269376 0
M  V30 16 O 2.493981 0.812049 0.696272 0
M  V30 17 C 2.837818 -0.498716 0.511604 0 CFG=2
M  V30 18 C 1.632035 -1.302937 0.044525 0
M  V30 19 O 1.135567 -0.813049 -1.161444 0
M  V30 20 P -0.192912 -1.811328 -1.539116 0 CFG=2 VAL=5
M  V30 21 O -0.479320 -1.766350 -3.016702 0
M  V30 22 O -1.522987 -1.243639 -0.662576 0 CHG=-1 VAL=1
M  V30 23 O 0.116073 -3.404873 -1.019809 0
M  V30 24 P -1.297393 -4.300885 -1.271927 0 CFG=1 VAL=5
M  V30 25 O -2.420463 -3.649929 -0.529018 0
M  V30 26 O -1.638508 -4.216146 -2.928774 0 CHG=-1 VAL=1
M  V30 27 O -1.138965 -5.884115 -0.747270 0
M  V30 28 P -0.201850 -6.050086 0.625565 0
M  V30 29 O -1.055306 -6.187062 1.878940 0
M  V30 30 O 0.793174 -7.414355 0.434730 0 CHG=-1 VAL=1
M  V30 31 O 0.828910 -4.738283 0.902796 0 CHG=-1 VAL=1
M  V30 32 H 4.728577 0.198453 1.612977 0
M  V30 33 H 3.108112 -2.120577 1.951419 0
M  V30 34 H 1.196890 -0.858526 2.756759 0
M  V30 35 H 2.564617 0.853133 4.289095 0
M  V30 36 H 2.658567 1.738405 2.513310 0
M  V30 37 H -0.048996 0.681264 3.985546 0
M  V30 38 H -0.327779 3.642252 -1.854626 0
M  V30 39 H -3.478432 4.162317 1.671853 0
M  V30 40 H -4.518688 2.681523 1.321313 0
M  V30 41 H 3.687934 -0.617775 -0.192358 0
M  V30 42 H 1.866396 -2.364644 -0.082443 0
M  V30 43 H 0.822775 -1.204780 0.790958 0
M  V30 END ATOM
M  V30 BEGIN BOND
M  V30 1 1 1 2
M  V30 2 1 2 3
M  V30 3 1 3 4
M  V30 4 1 3 5
M  V30 5 1 5 6
M  V30 6 1 6 7
M  V30 7 2 7 8
M  V30 8 1 8 9
M  V30 9 2 9 10
M  V30 10 1 10 11
M  V30 11 2 11 12
M  V30 12 1 12 13
M  V30 13 2 13 14
M  V30 14 1 14 15
M  V30 15 1 5 16
M  V30 16 1 16 17
M  V30 17 1 17 18
M  V30 18 1 18 19
M  V30 19 1 19 20
M  V30 20 2 20 21
M  V30 21 1 20 22 CFG=1
M  V30 22 1 20 23
M  V30 23 1 23 24
M  V30 24 2 24 25
M  V30 25 1 24 26 CFG=3
M  V30 26 1 24 27
M  V30 27 1 27 28
M  V30 28 2 28 29
M  V30 29 1 28 30
M  V30 30 1 28 31
M  V30 31 1 17 2
M  V30 32 1 10 6
M  V30 33 1 14 9
M  V30 34 1 1 32
M  V30 35 1 2 33 CFG=3
M  V30 36 1 3 34 CFG=1
M  V30 37 1 4 35
M  V30 38 1 5 36 CFG=1
M  V30 39 1 7 37
M  V30 40 1 12 38
M  V30 41 1 15 39
M  V30 42 1 15 40
M  V30 43 1 17 41 CFG=3
M  V30 44 1 18 42
M  V30 45 1 18 43
M  V30 END BOND
M  V30 END CTAB
M  END
>  <Dataset>  (123) 
PDB

>  <Ligand_Instance>  (123) 
3FJQ_ATP_E_403

>  <PDB_ID>  (123) 
3FJQ

>  <Standardized_SMILES>  (123) 
[H]O[C@@]1([H])[C@@]([H])(O[H])[C@]([H])(N2C([H])=NC3=C2N=C([H])N=C3N([H])[H])O[C@]1([H])C([H])([H])O[P@](=O)([O-])O[P@@](=O)([O-])OP(=O)([O-])[O-]

>  <Name>  (123) 
ADENOSINE-5'-TRIPHOSPHATE

>  <Pocket>  (123) 
A

>  <ATP_Site>  (123) 
1.0

>  <Peripheral>  (123) 
0.0

>  <Num_H_Atoms_ProtBoundConf>  (123) 
12.0

>  <Num_Resolved_Atoms>  (123) 
31.0

>  <Num_Not_Resolved_Atoms>  (123) 
0.0

$$$$
ATP
     RDKit          3D

  0  0  0  0  0  0  0  0  0  0999 V3000
M  V30 BEGIN CTAB
M  V30 COUNTS 43 45 0 0 0
M  V30 BEGIN ATOM
M  V30 1 O 4.458051 -0.549692 2.184329 0
M  V30 2 C 3.185165 -1.018996 1.888478 0 CFG=1
M  V30 3 C 2.151562 -0.289438 2.717447 0 CFG=1
M  V30 4 O 2.587765 -0.093020 4.026809 0
M  V30 5 C 2.012863 0.994439 1.960220 0 CFG=2
M  V30 6 N 0.621929 1.451657 1.965626 0
M  V30 7 C -0.169403 1.186978 3.037074 0
M  V30 8 N -1.408033 1.704809 2.816585 0
M  V30 9 C -1.383197 2.293131 1.602194 0
M  V30 10 C -0.117365 2.131241 1.079767 0
M  V30 11 N 0.252831 2.597842 -0.119282 0
M  V30 12 C -0.628049 3.265687 -0.885944 0
M  V30 13 N -1.893337 3.456926 -0.423632 0
M  V30 14 C -2.259898 2.982870 0.788144 0
M  V30 15 N -3.585743 3.184843 1.269376 0
M  V30 16 O 2.493981 0.812049 0.696272 0
M  V30 17 C 2.837818 -0.498716 0.511604 0 CFG=2
M  V30 18 C 1.632035 -1.302937 0.044525 0
M  V30 19 O 1.135567 -0.813049 -1.161444 0
M  V30 20 P -0.192912 -1.811328 -1.539116 0 CFG=2 VAL=5
M  V30 21 O -0.479320 -1.766350 -3.016702 0
M  V30 22 O -1.522987 -1.243639 -0.662576 0 CHG=-1 VAL=1
M  V30 23 O 0.116073 -3.404873 -1.019809 0
M  V30 24 P -1.297393 -4.300885 -1.271927 0 CFG=1 VAL=5
M  V30 25 O -2.420463 -3.649929 -0.529018 0
M  V30 26 O -1.638508 -4.216146 -2.928774 0 CHG=-1 VAL=1
M  V30 27 O -1.138965 -5.884115 -0.747270 0
M  V30 28 P -0.201850 -6.050086 0.625565 0
M  V30 29 O -1.055306 -6.187062 1.878940 0
M  V30 30 O 0.793174 -7.414355 0.434730 0 CHG=-1 VAL=1
M  V30 31 O 0.828910 -4.738283 0.902796 0 CHG=-1 VAL=1
M  V30 32 H 4.728577 0.198453 1.612977 0
M  V30 33 H 3.108112 -2.120577 1.951419 0
M  V30 34 H 1.196890 -0.858526 2.756759 0
M  V30 35 H 2.564617 0.853133 4.289095 0
M  V30 36 H 2.658567 1.738405 2.513310 0
M  V30 37 H -0.048996 0.681264 3.985546 0
M  V30 38 H -0.327779 3.642252 -1.854626 0
M  V30 39 H -3.478432 4.162317 1.671853 0
M  V30 40 H -4.518688 2.681523 1.321313 0
M  V30 41 H 3.687934 -0.617775 -0.192358 0
M  V30 42 H 1.866396 -2.364644 -0.082443 0
M  V30 43 H 0.822775 -1.204780 0.790958 0
M  V30 END ATOM
M  V30 BEGIN BOND
M  V30 1 1 1 2
M  V30 2 1 2 3
M  V30 3 1 3 4
M  V30 4 1 3 5
M  V30 5 1 5 6
M  V30 6 1 6 7
M  V30 7 2 7 8
M  V30 8 1 8 9
M  V30 9 2 9 10
M  V30 10 1 10 11
M  V30 11 2 11 12
M  V30 12 1 12 13
M  V30 13 2 13 14
M  V30 14 1 14 15
M  V30 15 1 5 16
M  V30 16 1 16 17
M  V30 17 1 17 18
M  V30 18 1 18 19
M  V30 19 1 19 20
M  V30 20 2 20 21
M  V30 21 1 20 22 CFG=1
M  V30 22 1 20 23
M  V30 23 1 23 24
M  V30 24 2 24 25
M  V30 25 1 24 26 CFG=3
M  V30 26 1 24 27
M  V30 27 1 27 28
M  V30 28 2 28 29
M  V30 29 1 28 30
M  V30 30 1 28 31
M  V30 31 1 17 2
M  V30 32 1 10 6
M  V30 33 1 14 9
M  V30 34 1 1 32
M  V30 35 1 2 33 CFG=3
M  V30 36 1 3 34 CFG=1
M  V30 37 1 4 35
M  V30 38 1 5 36 CFG=1
M  V30 39 1 7 37
M  V30 40 1 12 38
M  V30 41 1 15 39
M  V30 42 1 15 40
M  V30 43 1 17 41 CFG=3
M  V30 44 1 18 42
M  V30 45 1 18 43
M  V30 END BOND
M  V30 END CTAB
M  END
>  <Dataset>  (124) 
PDB

>  <Ligand_Instance>  (124) 
3QAL_ATP_E_351

>  <PDB_ID>  (124) 
3QAL

>  <Standardized_SMILES>  (124) 
[H]O[C@@]1([H])[C@@]([H])(O[H])[C@]([H])(N2C([H])=NC3=C2N=C([H])N=C3N([H])[H])O[C@]1([H])C([H])([H])O[P@](=O)([O-])O[P@@](=O)([O-])OP(=O)([O-])[O-]

>  <Name>  (124) 
ADENOSINE-5'-TRIPHOSPHATE

>  <Pocket>  (124) 
A

>  <ATP_Site>  (124) 
1.0

>  <Peripheral>  (124) 
0.0

>  <Num_H_Atoms_ProtBoundConf>  (124) 
12.0

>  <Num_Resolved_Atoms>  (124) 
31.0

>  <Num_Not_Resolved_Atoms>  (124) 
0.0

$$$$
ATP
     RDKit          3D

  0  0  0  0  0  0  0  0  0  0999 V3000
M  V30 BEGIN CTAB
M  V30 COUNTS 43 45 0 0 0
M  V30 BEGIN ATOM
M  V30 1 O 4.458051 -0.549692 2.184329 0
M  V30 2 C 3.185165 -1.018996 1.888478 0 CFG=1
M  V30 3 C 2.151562 -0.289438 2.717447 0 CFG=1
M  V30 4 O 2.587765 -0.093020 4.026809 0
M  V30 5 C 2.012863 0.994439 1.960220 0 CFG=2
M  V30 6 N 0.621929 1.451657 1.965626 0
M  V30 7 C -0.169403 1.186978 3.037074 0
M  V30 8 N -1.408033 1.704809 2.816585 0
M  V30 9 C -1.383197 2.293131 1.602194 0
M  V30 10 C -0.117365 2.131241 1.079767 0
M  V30 11 N 0.252831 2.597842 -0.119282 0
M  V30 12 C -0.628049 3.265687 -0.885944 0
M  V30 13 N -1.893337 3.456926 -0.423632 0
M  V30 14 C -2.259898 2.982870 0.788144 0
M  V30 15 N -3.585743 3.184843 1.269376 0
M  V30 16 O 2.493981 0.812049 0.696272 0
M  V30 17 C 2.837818 -0.498716 0.511604 0 CFG=2
M  V30 18 C 1.632035 -1.302937 0.044525 0
M  V30 19 O 1.135567 -0.813049 -1.161444 0
M  V30 20 P -0.192912 -1.811328 -1.539116 0 CFG=2 VAL=5
M  V30 21 O -0.479320 -1.766350 -3.016702 0
M  V30 22 O -1.522987 -1.243639 -0.662576 0 CHG=-1 VAL=1
M  V30 23 O 0.116073 -3.404873 -1.019809 0
M  V30 24 P -1.297393 -4.300885 -1.271927 0 CFG=1 VAL=5
M  V30 25 O -2.420463 -3.649929 -0.529018 0
M  V30 26 O -1.638508 -4.216146 -2.928774 0 CHG=-1 VAL=1
M  V30 27 O -1.138965 -5.884115 -0.747270 0
M  V30 28 P -0.201850 -6.050086 0.625565 0
M  V30 29 O -1.055306 -6.187062 1.878940 0
M  V30 30 O 0.793174 -7.414355 0.434730 0 CHG=-1 VAL=1
M  V30 31 O 0.828910 -4.738283 0.902796 0 CHG=-1 VAL=1
M  V30 32 H 4.728577 0.198453 1.612977 0
M  V30 33 H 3.108112 -2.120577 1.951419 0
M  V30 34 H 1.196890 -0.858526 2.756759 0
M  V30 35 H 2.564617 0.853133 4.289095 0
M  V30 36 H 2.658567 1.738405 2.513310 0
M  V30 37 H -0.048996 0.681264 3.985546 0
M  V30 38 H -0.327779 3.642252 -1.854626 0
M  V30 39 H -3.478432 4.162317 1.671853 0
M  V30 40 H -4.518688 2.681523 1.321313 0
M  V30 41 H 3.687934 -0.617775 -0.192358 0
M  V30 42 H 1.866396 -2.364644 -0.082443 0
M  V30 43 H 0.822775 -1.204780 0.790958 0
M  V30 END ATOM
M  V30 BEGIN BOND
M  V30 1 1 1 2
M  V30 2 1 2 3
M  V30 3 1 3 4
M  V30 4 1 3 5
M  V30 5 1 5 6
M  V30 6 1 6 7
M  V30 7 2 7 8
M  V30 8 1 8 9
M  V30 9 2 9 10
M  V30 10 1 10 11
M  V30 11 2 11 12
M  V30 12 1 12 13
M  V30 13 2 13 14
M  V30 14 1 14 15
M  V30 15 1 5 16
M  V30 16 1 16 17
M  V30 17 1 17 18
M  V30 18 1 18 19
M  V30 19 1 19 20
M  V30 20 2 20 21
M  V30 21 1 20 22 CFG=1
M  V30 22 1 20 23
M  V30 23 1 23 24
M  V30 24 2 24 25
M  V30 25 1 24 26 CFG=3
M  V30 26 1 24 27
M  V30 27 1 27 28
M  V30 28 2 28 29
M  V30 29 1 28 30
M  V30 30 1 28 31
M  V30 31 1 17 2
M  V30 32 1 10 6
M  V30 33 1 14 9
M  V30 34 1 1 32
M  V30 35 1 2 33 CFG=3
M  V30 36 1 3 34 CFG=1
M  V30 37 1 4 35
M  V30 38 1 5 36 CFG=1
M  V30 39 1 7 37
M  V30 40 1 12 38
M  V30 41 1 15 39
M  V30 42 1 15 40
M  V30 43 1 17 41 CFG=3
M  V30 44 1 18 42
M  V30 45 1 18 43
M  V30 END BOND
M  V30 END CTAB
M  END
>  <Dataset>  (125) 
PDB

>  <Ligand_Instance>  (125) 
3QAM_ATP_E_351

>  <PDB_ID>  (125) 
3QAM

>  <Standardized_SMILES>  (125) 
[H]O[C@@]1([H])[C@@]([H])(O[H])[C@]([H])(N2C([H])=NC3=C2N=C([H])N=C3N([H])[H])O[C@]1([H])C([H])([H])O[P@](=O)([O-])O[P@@](=O)([O-])OP(=O)([O-])[O-]

>  <Name>  (125) 
ADENOSINE-5'-TRIPHOSPHATE

>  <Pocket>  (125) 
A

>  <ATP_Site>  (125) 
1.0

>  <Peripheral>  (125) 
0.0

>  <Num_H_Atoms_ProtBoundConf>  (125) 
12.0

>  <Num_Resolved_Atoms>  (125) 
31.0

>  <Num_Not_Resolved_Atoms>  (125) 
0.0

$$$$
ATP
     RDKit          3D

  0  0  0  0  0  0  0  0  0  0999 V3000
M  V30 BEGIN CTAB
M  V30 COUNTS 43 45 0 0 0
M  V30 BEGIN ATOM
M  V30 1 O 4.458051 -0.549692 2.184329 0
M  V30 2 C 3.185165 -1.018996 1.888478 0 CFG=1
M  V30 3 C 2.151562 -0.289438 2.717447 0 CFG=1
M  V30 4 O 2.587765 -0.093020 4.026809 0
M  V30 5 C 2.012863 0.994439 1.960220 0 CFG=2
M  V30 6 N 0.621929 1.451657 1.965626 0
M  V30 7 C -0.169403 1.186978 3.037074 0
M  V30 8 N -1.408033 1.704809 2.816585 0
M  V30 9 C -1.383197 2.293131 1.602194 0
M  V30 10 C -0.117365 2.131241 1.079767 0
M  V30 11 N 0.252831 2.597842 -0.119282 0
M  V30 12 C -0.628049 3.265687 -0.885944 0
M  V30 13 N -1.893337 3.456926 -0.423632 0
M  V30 14 C -2.259898 2.982870 0.788144 0
M  V30 15 N -3.585743 3.184843 1.269376 0
M  V30 16 O 2.493981 0.812049 0.696272 0
M  V30 17 C 2.837818 -0.498716 0.511604 0 CFG=2
M  V30 18 C 1.632035 -1.302937 0.044525 0
M  V30 19 O 1.135567 -0.813049 -1.161444 0
M  V30 20 P -0.192912 -1.811328 -1.539116 0 CFG=2 VAL=5
M  V30 21 O -0.479320 -1.766350 -3.016702 0
M  V30 22 O -1.522987 -1.243639 -0.662576 0 CHG=-1 VAL=1
M  V30 23 O 0.116073 -3.404873 -1.019809 0
M  V30 24 P -1.297393 -4.300885 -1.271927 0 CFG=1 VAL=5
M  V30 25 O -2.420463 -3.649929 -0.529018 0
M  V30 26 O -1.638508 -4.216146 -2.928774 0 CHG=-1 VAL=1
M  V30 27 O -1.138965 -5.884115 -0.747270 0
M  V30 28 P -0.201850 -6.050086 0.625565 0
M  V30 29 O -1.055306 -6.187062 1.878940 0
M  V30 30 O 0.793174 -7.414355 0.434730 0 CHG=-1 VAL=1
M  V30 31 O 0.828910 -4.738283 0.902796 0 CHG=-1 VAL=1
M  V30 32 H 4.728577 0.198453 1.612977 0
M  V30 33 H 3.108112 -2.120577 1.951419 0
M  V30 34 H 1.196890 -0.858526 2.756759 0
M  V30 35 H 2.564617 0.853133 4.289095 0
M  V30 36 H 2.658567 1.738405 2.513310 0
M  V30 37 H -0.048996 0.681264 3.985546 0
M  V30 38 H -0.327779 3.642252 -1.854626 0
M  V30 39 H -3.478432 4.162317 1.671853 0
M  V30 40 H -4.518688 2.681523 1.321313 0
M  V30 41 H 3.687934 -0.617775 -0.192358 0
M  V30 42 H 1.866396 -2.364644 -0.082443 0
M  V30 43 H 0.822775 -1.204780 0.790958 0
M  V30 END ATOM
M  V30 BEGIN BOND
M  V30 1 1 1 2
M  V30 2 1 2 3
M  V30 3 1 3 4
M  V30 4 1 3 5
M  V30 5 1 5 6
M  V30 6 1 6 7
M  V30 7 2 7 8
M  V30 8 1 8 9
M  V30 9 2 9 10
M  V30 10 1 10 11
M  V30 11 2 11 12
M  V30 12 1 12 13
M  V30 13 2 13 14
M  V30 14 1 14 15
M  V30 15 1 5 16
M  V30 16 1 16 17
M  V30 17 1 17 18
M  V30 18 1 18 19
M  V30 19 1 19 20
M  V30 20 2 20 21
M  V30 21 1 20 22 CFG=1
M  V30 22 1 20 23
M  V30 23 1 23 24
M  V30 24 2 24 25
M  V30 25 1 24 26 CFG=3
M  V30 26 1 24 27
M  V30 27 1 27 28
M  V30 28 2 28 29
M  V30 29 1 28 30
M  V30 30 1 28 31
M  V30 31 1 17 2
M  V30 32 1 10 6
M  V30 33 1 14 9
M  V30 34 1 1 32
M  V30 35 1 2 33 CFG=3
M  V30 36 1 3 34 CFG=1
M  V30 37 1 4 35
M  V30 38 1 5 36 CFG=1
M  V30 39 1 7 37
M  V30 40 1 12 38
M  V30 41 1 15 39
M  V30 42 1 15 40
M  V30 43 1 17 41 CFG=3
M  V30 44 1 18 42
M  V30 45 1 18 43
M  V30 END BOND
M  V30 END CTAB
M  END
>  <Dataset>  (126) 
PDB

>  <Ligand_Instance>  (126) 
3X2U_ATP_A_501

>  <PDB_ID>  (126) 
3X2U

>  <Standardized_SMILES>  (126) 
[H]O[C@@]1([H])[C@@]([H])(O[H])[C@]([H])(N2C([H])=NC3=C2N=C([H])N=C3N([H])[H])O[C@]1([H])C([H])([H])O[P@](=O)([O-])O[P@@](=O)([O-])OP(=O)([O-])[O-]

>  <Name>  (126) 
ADENOSINE-5'-TRIPHOSPHATE

>  <Pocket>  (126) 
A

>  <ATP_Site>  (126) 
1.0

>  <Peripheral>  (126) 
0.0

>  <Num_H_Atoms_ProtBoundConf>  (126) 
12.0

>  <Num_Resolved_Atoms>  (126) 
31.0

>  <Num_Not_Resolved_Atoms>  (126) 
0.0

$$$$
ATP
     RDKit          3D

  0  0  0  0  0  0  0  0  0  0999 V3000
M  V30 BEGIN CTAB
M  V30 COUNTS 43 45 0 0 0
M  V30 BEGIN ATOM
M  V30 1 O 4.458051 -0.549692 2.184329 0
M  V30 2 C 3.185165 -1.018996 1.888478 0 CFG=1
M  V30 3 C 2.151562 -0.289438 2.717447 0 CFG=1
M  V30 4 O 2.587765 -0.093020 4.026809 0
M  V30 5 C 2.012863 0.994439 1.960220 0 CFG=2
M  V30 6 N 0.621929 1.451657 1.965626 0
M  V30 7 C -0.169403 1.186978 3.037074 0
M  V30 8 N -1.408033 1.704809 2.816585 0
M  V30 9 C -1.383197 2.293131 1.602194 0
M  V30 10 C -0.117365 2.131241 1.079767 0
M  V30 11 N 0.252831 2.597842 -0.119282 0
M  V30 12 C -0.628049 3.265687 -0.885944 0
M  V30 13 N -1.893337 3.456926 -0.423632 0
M  V30 14 C -2.259898 2.982870 0.788144 0
M  V30 15 N -3.585743 3.184843 1.269376 0
M  V30 16 O 2.493981 0.812049 0.696272 0
M  V30 17 C 2.837818 -0.498716 0.511604 0 CFG=2
M  V30 18 C 1.632035 -1.302937 0.044525 0
M  V30 19 O 1.135567 -0.813049 -1.161444 0
M  V30 20 P -0.192912 -1.811328 -1.539116 0 CFG=2 VAL=5
M  V30 21 O -0.479320 -1.766350 -3.016702 0
M  V30 22 O -1.522987 -1.243639 -0.662576 0 CHG=-1 VAL=1
M  V30 23 O 0.116073 -3.404873 -1.019809 0
M  V30 24 P -1.297393 -4.300885 -1.271927 0 CFG=1 VAL=5
M  V30 25 O -2.420463 -3.649929 -0.529018 0
M  V30 26 O -1.638508 -4.216146 -2.928774 0 CHG=-1 VAL=1
M  V30 27 O -1.138965 -5.884115 -0.747270 0
M  V30 28 P -0.201850 -6.050086 0.625565 0
M  V30 29 O -1.055306 -6.187062 1.878940 0
M  V30 30 O 0.793174 -7.414355 0.434730 0 CHG=-1 VAL=1
M  V30 31 O 0.828910 -4.738283 0.902796 0 CHG=-1 VAL=1
M  V30 32 H 4.728577 0.198453 1.612977 0
M  V30 33 H 3.108112 -2.120577 1.951419 0
M  V30 34 H 1.196890 -0.858526 2.756759 0
M  V30 35 H 2.564617 0.853133 4.289095 0
M  V30 36 H 2.658567 1.738405 2.513310 0
M  V30 37 H -0.048996 0.681264 3.985546 0
M  V30 38 H -0.327779 3.642252 -1.854626 0
M  V30 39 H -3.478432 4.162317 1.671853 0
M  V30 40 H -4.518688 2.681523 1.321313 0
M  V30 41 H 3.687934 -0.617775 -0.192358 0
M  V30 42 H 1.866396 -2.364644 -0.082443 0
M  V30 43 H 0.822775 -1.204780 0.790958 0
M  V30 END ATOM
M  V30 BEGIN BOND
M  V30 1 1 1 2
M  V30 2 1 2 3
M  V30 3 1 3 4
M  V30 4 1 3 5
M  V30 5 1 5 6
M  V30 6 1 6 7
M  V30 7 2 7 8
M  V30 8 1 8 9
M  V30 9 2 9 10
M  V30 10 1 10 11
M  V30 11 2 11 12
M  V30 12 1 12 13
M  V30 13 2 13 14
M  V30 14 1 14 15
M  V30 15 1 5 16
M  V30 16 1 16 17
M  V30 17 1 17 18
M  V30 18 1 18 19
M  V30 19 1 19 20
M  V30 20 2 20 21
M  V30 21 1 20 22 CFG=1
M  V30 22 1 20 23
M  V30 23 1 23 24
M  V30 24 2 24 25
M  V30 25 1 24 26 CFG=3
M  V30 26 1 24 27
M  V30 27 1 27 28
M  V30 28 2 28 29
M  V30 29 1 28 30
M  V30 30 1 28 31
M  V30 31 1 17 2
M  V30 32 1 10 6
M  V30 33 1 14 9
M  V30 34 1 1 32
M  V30 35 1 2 33 CFG=3
M  V30 36 1 3 34 CFG=1
M  V30 37 1 4 35
M  V30 38 1 5 36 CFG=1
M  V30 39 1 7 37
M  V30 40 1 12 38
M  V30 41 1 15 39
M  V30 42 1 15 40
M  V30 43 1 17 41 CFG=3
M  V30 44 1 18 42
M  V30 45 1 18 43
M  V30 END BOND
M  V30 END CTAB
M  END
>  <Dataset>  (127) 
PDB

>  <Ligand_Instance>  (127) 
3X2V_ATP_A_403

>  <PDB_ID>  (127) 
3X2V

>  <Standardized_SMILES>  (127) 
[H]O[C@@]1([H])[C@@]([H])(O[H])[C@]([H])(N2C([H])=NC3=C2N=C([H])N=C3N([H])[H])O[C@]1([H])C([H])([H])O[P@](=O)([O-])O[P@@](=O)([O-])OP(=O)([O-])[O-]

>  <Name>  (127) 
ADENOSINE-5'-TRIPHOSPHATE

>  <Pocket>  (127) 
A

>  <ATP_Site>  (127) 
1.0

>  <Peripheral>  (127) 
0.0

>  <Num_H_Atoms_ProtBoundConf>  (127) 
12.0

>  <Num_Resolved_Atoms>  (127) 
31.0

>  <Num_Not_Resolved_Atoms>  (127) 
0.0

$$$$
ATP
     RDKit          3D

  0  0  0  0  0  0  0  0  0  0999 V3000
M  V30 BEGIN CTAB
M  V30 COUNTS 43 45 0 0 0
M  V30 BEGIN ATOM
M  V30 1 O 4.458051 -0.549692 2.184329 0
M  V30 2 C 3.185165 -1.018996 1.888478 0 CFG=1
M  V30 3 C 2.151562 -0.289438 2.717447 0 CFG=1
M  V30 4 O 2.587765 -0.093020 4.026809 0
M  V30 5 C 2.012863 0.994439 1.960220 0 CFG=2
M  V30 6 N 0.621929 1.451657 1.965626 0
M  V30 7 C -0.169403 1.186978 3.037074 0
M  V30 8 N -1.408033 1.704809 2.816585 0
M  V30 9 C -1.383197 2.293131 1.602194 0
M  V30 10 C -0.117365 2.131241 1.079767 0
M  V30 11 N 0.252831 2.597842 -0.119282 0
M  V30 12 C -0.628049 3.265687 -0.885944 0
M  V30 13 N -1.893337 3.456926 -0.423632 0
M  V30 14 C -2.259898 2.982870 0.788144 0
M  V30 15 N -3.585743 3.184843 1.269376 0
M  V30 16 O 2.493981 0.812049 0.696272 0
M  V30 17 C 2.837818 -0.498716 0.511604 0 CFG=2
M  V30 18 C 1.632035 -1.302937 0.044525 0
M  V30 19 O 1.135567 -0.813049 -1.161444 0
M  V30 20 P -0.192912 -1.811328 -1.539116 0 CFG=2 VAL=5
M  V30 21 O -0.479320 -1.766350 -3.016702 0
M  V30 22 O -1.522987 -1.243639 -0.662576 0 CHG=-1 VAL=1
M  V30 23 O 0.116073 -3.404873 -1.019809 0
M  V30 24 P -1.297393 -4.300885 -1.271927 0 CFG=1 VAL=5
M  V30 25 O -2.420463 -3.649929 -0.529018 0
M  V30 26 O -1.638508 -4.216146 -2.928774 0 CHG=-1 VAL=1
M  V30 27 O -1.138965 -5.884115 -0.747270 0
M  V30 28 P -0.201850 -6.050086 0.625565 0
M  V30 29 O -1.055306 -6.187062 1.878940 0
M  V30 30 O 0.793174 -7.414355 0.434730 0 CHG=-1 VAL=1
M  V30 31 O 0.828910 -4.738283 0.902796 0 CHG=-1 VAL=1
M  V30 32 H 4.728577 0.198453 1.612977 0
M  V30 33 H 3.108112 -2.120577 1.951419 0
M  V30 34 H 1.196890 -0.858526 2.756759 0
M  V30 35 H 2.564617 0.853133 4.289095 0
M  V30 36 H 2.658567 1.738405 2.513310 0
M  V30 37 H -0.048996 0.681264 3.985546 0
M  V30 38 H -0.327779 3.642252 -1.854626 0
M  V30 39 H -3.478432 4.162317 1.671853 0
M  V30 40 H -4.518688 2.681523 1.321313 0
M  V30 41 H 3.687934 -0.617775 -0.192358 0
M  V30 42 H 1.866396 -2.364644 -0.082443 0
M  V30 43 H 0.822775 -1.204780 0.790958 0
M  V30 END ATOM
M  V30 BEGIN BOND
M  V30 1 1 1 2
M  V30 2 1 2 3
M  V30 3 1 3 4
M  V30 4 1 3 5
M  V30 5 1 5 6
M  V30 6 1 6 7
M  V30 7 2 7 8
M  V30 8 1 8 9
M  V30 9 2 9 10
M  V30 10 1 10 11
M  V30 11 2 11 12
M  V30 12 1 12 13
M  V30 13 2 13 14
M  V30 14 1 14 15
M  V30 15 1 5 16
M  V30 16 1 16 17
M  V30 17 1 17 18
M  V30 18 1 18 19
M  V30 19 1 19 20
M  V30 20 2 20 21
M  V30 21 1 20 22 CFG=1
M  V30 22 1 20 23
M  V30 23 1 23 24
M  V30 24 2 24 25
M  V30 25 1 24 26 CFG=3
M  V30 26 1 24 27
M  V30 27 1 27 28
M  V30 28 2 28 29
M  V30 29 1 28 30
M  V30 30 1 28 31
M  V30 31 1 17 2
M  V30 32 1 10 6
M  V30 33 1 14 9
M  V30 34 1 1 32
M  V30 35 1 2 33 CFG=3
M  V30 36 1 3 34 CFG=1
M  V30 37 1 4 35
M  V30 38 1 5 36 CFG=1
M  V30 39 1 7 37
M  V30 40 1 12 38
M  V30 41 1 15 39
M  V30 42 1 15 40
M  V30 43 1 17 41 CFG=3
M  V30 44 1 18 42
M  V30 45 1 18 43
M  V30 END BOND
M  V30 END CTAB
M  END
>  <Dataset>  (128) 
PDB

>  <Ligand_Instance>  (128) 
3X2W_ATP_A_403

>  <PDB_ID>  (128) 
3X2W

>  <Standardized_SMILES>  (128) 
[H]O[C@@]1([H])[C@@]([H])(O[H])[C@]([H])(N2C([H])=NC3=C2N=C([H])N=C3N([H])[H])O[C@]1([H])C([H])([H])O[P@](=O)([O-])O[P@@](=O)([O-])OP(=O)([O-])[O-]

>  <Name>  (128) 
ADENOSINE-5'-TRIPHOSPHATE

>  <Pocket>  (128) 
A

>  <ATP_Site>  (128) 
1.0

>  <Peripheral>  (128) 
0.0

>  <Num_H_Atoms_ProtBoundConf>  (128) 
12.0

>  <Num_Resolved_Atoms>  (128) 
31.0

>  <Num_Not_Resolved_Atoms>  (128) 
0.0

$$$$
ATP
     RDKit          3D

  0  0  0  0  0  0  0  0  0  0999 V3000
M  V30 BEGIN CTAB
M  V30 COUNTS 43 45 0 0 0
M  V30 BEGIN ATOM
M  V30 1 O 4.458051 -0.549692 2.184329 0
M  V30 2 C 3.185165 -1.018996 1.888478 0 CFG=1
M  V30 3 C 2.151562 -0.289438 2.717447 0 CFG=1
M  V30 4 O 2.587765 -0.093020 4.026809 0
M  V30 5 C 2.012863 0.994439 1.960220 0 CFG=2
M  V30 6 N 0.621929 1.451657 1.965626 0
M  V30 7 C -0.169403 1.186978 3.037074 0
M  V30 8 N -1.408033 1.704809 2.816585 0
M  V30 9 C -1.383197 2.293131 1.602194 0
M  V30 10 C -0.117365 2.131241 1.079767 0
M  V30 11 N 0.252831 2.597842 -0.119282 0
M  V30 12 C -0.628049 3.265687 -0.885944 0
M  V30 13 N -1.893337 3.456926 -0.423632 0
M  V30 14 C -2.259898 2.982870 0.788144 0
M  V30 15 N -3.585743 3.184843 1.269376 0
M  V30 16 O 2.493981 0.812049 0.696272 0
M  V30 17 C 2.837818 -0.498716 0.511604 0 CFG=2
M  V30 18 C 1.632035 -1.302937 0.044525 0
M  V30 19 O 1.135567 -0.813049 -1.161444 0
M  V30 20 P -0.192912 -1.811328 -1.539116 0 CFG=2 VAL=5
M  V30 21 O -0.479320 -1.766350 -3.016702 0
M  V30 22 O -1.522987 -1.243639 -0.662576 0 CHG=-1 VAL=1
M  V30 23 O 0.116073 -3.404873 -1.019809 0
M  V30 24 P -1.297393 -4.300885 -1.271927 0 CFG=1 VAL=5
M  V30 25 O -2.420463 -3.649929 -0.529018 0
M  V30 26 O -1.638508 -4.216146 -2.928774 0 CHG=-1 VAL=1
M  V30 27 O -1.138965 -5.884115 -0.747270 0
M  V30 28 P -0.201850 -6.050086 0.625565 0
M  V30 29 O -1.055306 -6.187062 1.878940 0
M  V30 30 O 0.793174 -7.414355 0.434730 0 CHG=-1 VAL=1
M  V30 31 O 0.828910 -4.738283 0.902796 0 CHG=-1 VAL=1
M  V30 32 H 4.728577 0.198453 1.612977 0
M  V30 33 H 3.108112 -2.120577 1.951419 0
M  V30 34 H 1.196890 -0.858526 2.756759 0
M  V30 35 H 2.564617 0.853133 4.289095 0
M  V30 36 H 2.658567 1.738405 2.513310 0
M  V30 37 H -0.048996 0.681264 3.985546 0
M  V30 38 H -0.327779 3.642252 -1.854626 0
M  V30 39 H -3.478432 4.162317 1.671853 0
M  V30 40 H -4.518688 2.681523 1.321313 0
M  V30 41 H 3.687934 -0.617775 -0.192358 0
M  V30 42 H 1.866396 -2.364644 -0.082443 0
M  V30 43 H 0.822775 -1.204780 0.790958 0
M  V30 END ATOM
M  V30 BEGIN BOND
M  V30 1 1 1 2
M  V30 2 1 2 3
M  V30 3 1 3 4
M  V30 4 1 3 5
M  V30 5 1 5 6
M  V30 6 1 6 7
M  V30 7 2 7 8
M  V30 8 1 8 9
M  V30 9 2 9 10
M  V30 10 1 10 11
M  V30 11 2 11 12
M  V30 12 1 12 13
M  V30 13 2 13 14
M  V30 14 1 14 15
M  V30 15 1 5 16
M  V30 16 1 16 17
M  V30 17 1 17 18
M  V30 18 1 18 19
M  V30 19 1 19 20
M  V30 20 2 20 21
M  V30 21 1 20 22 CFG=1
M  V30 22 1 20 23
M  V30 23 1 23 24
M  V30 24 2 24 25
M  V30 25 1 24 26 CFG=3
M  V30 26 1 24 27
M  V30 27 1 27 28
M  V30 28 2 28 29
M  V30 29 1 28 30
M  V30 30 1 28 31
M  V30 31 1 17 2
M  V30 32 1 10 6
M  V30 33 1 14 9
M  V30 34 1 1 32
M  V30 35 1 2 33 CFG=3
M  V30 36 1 3 34 CFG=1
M  V30 37 1 4 35
M  V30 38 1 5 36 CFG=1
M  V30 39 1 7 37
M  V30 40 1 12 38
M  V30 41 1 15 39
M  V30 42 1 15 40
M  V30 43 1 17 41 CFG=3
M  V30 44 1 18 42
M  V30 45 1 18 43
M  V30 END BOND
M  V30 END CTAB
M  END
>  <Dataset>  (129) 
PDB

>  <Ligand_Instance>  (129) 
4DH1_ATP_A_402

>  <PDB_ID>  (129) 
4DH1

>  <Standardized_SMILES>  (129) 
[H]O[C@@]1([H])[C@@]([H])(O[H])[C@]([H])(N2C([H])=NC3=C2N=C([H])N=C3N([H])[H])O[C@]1([H])C([H])([H])O[P@](=O)([O-])O[P@@](=O)([O-])OP(=O)([O-])[O-]

>  <Name>  (129) 
ADENOSINE-5'-TRIPHOSPHATE

>  <Pocket>  (129) 
A

>  <ATP_Site>  (129) 
1.0

>  <Peripheral>  (129) 
0.0

>  <Num_H_Atoms_ProtBoundConf>  (129) 
12.0

>  <Num_Resolved_Atoms>  (129) 
31.0

>  <Num_Not_Resolved_Atoms>  (129) 
0.0

$$$$
ATP
     RDKit          3D

  0  0  0  0  0  0  0  0  0  0999 V3000
M  V30 BEGIN CTAB
M  V30 COUNTS 43 45 0 0 0
M  V30 BEGIN ATOM
M  V30 1 O 4.458051 -0.549692 2.184329 0
M  V30 2 C 3.185165 -1.018996 1.888478 0 CFG=1
M  V30 3 C 2.151562 -0.289438 2.717447 0 CFG=1
M  V30 4 O 2.587765 -0.093020 4.026809 0
M  V30 5 C 2.012863 0.994439 1.960220 0 CFG=2
M  V30 6 N 0.621929 1.451657 1.965626 0
M  V30 7 C -0.169403 1.186978 3.037074 0
M  V30 8 N -1.408033 1.704809 2.816585 0
M  V30 9 C -1.383197 2.293131 1.602194 0
M  V30 10 C -0.117365 2.131241 1.079767 0
M  V30 11 N 0.252831 2.597842 -0.119282 0
M  V30 12 C -0.628049 3.265687 -0.885944 0
M  V30 13 N -1.893337 3.456926 -0.423632 0
M  V30 14 C -2.259898 2.982870 0.788144 0
M  V30 15 N -3.585743 3.184843 1.269376 0
M  V30 16 O 2.493981 0.812049 0.696272 0
M  V30 17 C 2.837818 -0.498716 0.511604 0 CFG=2
M  V30 18 C 1.632035 -1.302937 0.044525 0
M  V30 19 O 1.135567 -0.813049 -1.161444 0
M  V30 20 P -0.192912 -1.811328 -1.539116 0 CFG=2 VAL=5
M  V30 21 O -0.479320 -1.766350 -3.016702 0
M  V30 22 O -1.522987 -1.243639 -0.662576 0 CHG=-1 VAL=1
M  V30 23 O 0.116073 -3.404873 -1.019809 0
M  V30 24 P -1.297393 -4.300885 -1.271927 0 CFG=1 VAL=5
M  V30 25 O -2.420463 -3.649929 -0.529018 0
M  V30 26 O -1.638508 -4.216146 -2.928774 0 CHG=-1 VAL=1
M  V30 27 O -1.138965 -5.884115 -0.747270 0
M  V30 28 P -0.201850 -6.050086 0.625565 0
M  V30 29 O -1.055306 -6.187062 1.878940 0
M  V30 30 O 0.793174 -7.414355 0.434730 0 CHG=-1 VAL=1
M  V30 31 O 0.828910 -4.738283 0.902796 0 CHG=-1 VAL=1
M  V30 32 H 4.728577 0.198453 1.612977 0
M  V30 33 H 3.108112 -2.120577 1.951419 0
M  V30 34 H 1.196890 -0.858526 2.756759 0
M  V30 35 H 2.564617 0.853133 4.289095 0
M  V30 36 H 2.658567 1.738405 2.513310 0
M  V30 37 H -0.048996 0.681264 3.985546 0
M  V30 38 H -0.327779 3.642252 -1.854626 0
M  V30 39 H -3.478432 4.162317 1.671853 0
M  V30 40 H -4.518688 2.681523 1.321313 0
M  V30 41 H 3.687934 -0.617775 -0.192358 0
M  V30 42 H 1.866396 -2.364644 -0.082443 0
M  V30 43 H 0.822775 -1.204780 0.790958 0
M  V30 END ATOM
M  V30 BEGIN BOND
M  V30 1 1 1 2
M  V30 2 1 2 3
M  V30 3 1 3 4
M  V30 4 1 3 5
M  V30 5 1 5 6
M  V30 6 1 6 7
M  V30 7 2 7 8
M  V30 8 1 8 9
M  V30 9 2 9 10
M  V30 10 1 10 11
M  V30 11 2 11 12
M  V30 12 1 12 13
M  V30 13 2 13 14
M  V30 14 1 14 15
M  V30 15 1 5 16
M  V30 16 1 16 17
M  V30 17 1 17 18
M  V30 18 1 18 19
M  V30 19 1 19 20
M  V30 20 2 20 21
M  V30 21 1 20 22 CFG=1
M  V30 22 1 20 23
M  V30 23 1 23 24
M  V30 24 2 24 25
M  V30 25 1 24 26 CFG=3
M  V30 26 1 24 27
M  V30 27 1 27 28
M  V30 28 2 28 29
M  V30 29 1 28 30
M  V30 30 1 28 31
M  V30 31 1 17 2
M  V30 32 1 10 6
M  V30 33 1 14 9
M  V30 34 1 1 32
M  V30 35 1 2 33 CFG=3
M  V30 36 1 3 34 CFG=1
M  V30 37 1 4 35
M  V30 38 1 5 36 CFG=1
M  V30 39 1 7 37
M  V30 40 1 12 38
M  V30 41 1 15 39
M  V30 42 1 15 40
M  V30 43 1 17 41 CFG=3
M  V30 44 1 18 42
M  V30 45 1 18 43
M  V30 END BOND
M  V30 END CTAB
M  END
>  <Dataset>  (130) 
PDB

>  <Ligand_Instance>  (130) 
4DH3_ATP_A_403

>  <PDB_ID>  (130) 
4DH3

>  <Standardized_SMILES>  (130) 
[H]O[C@@]1([H])[C@@]([H])(O[H])[C@]([H])(N2C([H])=NC3=C2N=C([H])N=C3N([H])[H])O[C@]1([H])C([H])([H])O[P@](=O)([O-])O[P@@](=O)([O-])OP(=O)([O-])[O-]

>  <Name>  (130) 
ADENOSINE-5'-TRIPHOSPHATE

>  <Pocket>  (130) 
A

>  <ATP_Site>  (130) 
1.0

>  <Peripheral>  (130) 
0.0

>  <Num_H_Atoms_ProtBoundConf>  (130) 
12.0

>  <Num_Resolved_Atoms>  (130) 
31.0

>  <Num_Not_Resolved_Atoms>  (130) 
0.0

$$$$
ATP
     RDKit          3D

  0  0  0  0  0  0  0  0  0  0999 V3000
M  V30 BEGIN CTAB
M  V30 COUNTS 43 45 0 0 0
M  V30 BEGIN ATOM
M  V30 1 O 3.188255 -1.020957 3.641634 0
M  V30 2 C 2.049785 -0.941570 2.851198 0 CFG=1
M  V30 3 C 1.626283 0.512919 2.808569 0 CFG=1
M  V30 4 O 1.999465 1.195389 3.959427 0
M  V30 5 C 2.432755 0.965317 1.601380 0 CFG=2
M  V30 6 N 2.067511 2.283941 1.165361 0
M  V30 7 C 2.755363 3.446299 0.995372 0
M  V30 8 N 1.951334 4.416447 0.560937 0
M  V30 9 C 0.729727 3.864466 0.451676 0
M  V30 10 C 0.778196 2.519373 0.827654 0
M  V30 11 N -0.374838 1.799566 0.778582 0
M  V30 12 C -1.510205 2.394304 0.375875 0
M  V30 13 N -1.553999 3.705930 0.009989 0
M  V30 14 C -0.441920 4.452111 0.043199 0
M  V30 15 N -0.608737 5.795494 -0.357417 0
M  V30 16 O 2.123741 -0.031057 0.705183 0
M  V30 17 C 2.433345 -1.180169 1.408182 0 CFG=2
M  V30 18 C 1.706107 -2.397716 0.905971 0
M  V30 19 O 0.341839 -2.293678 0.973515 0
M  V30 20 P -0.354247 -3.694349 0.393587 0 CFG=1 VAL=5
M  V30 21 O -1.314362 -3.299812 -0.722496 0
M  V30 22 O 0.812324 -4.749842 -0.268654 0 CHG=-1 VAL=1
M  V30 23 O -1.245256 -4.558767 1.510207 0
M  V30 24 P -2.298706 -5.573228 0.625616 0 CFG=2 VAL=5
M  V30 25 O -3.636302 -4.880345 0.612581 0
M  V30 26 O -2.419120 -7.100945 1.344228 0 CHG=-1 VAL=1
M  V30 27 O -1.679875 -5.801830 -0.933552 0
M  V30 28 P -2.868522 -5.999652 -2.096520 0
M  V30 29 O -3.300016 -4.670685 -2.698696 0
M  V30 30 O -2.195683 -6.959338 -3.330175 0 CHG=-1 VAL=1
M  V30 31 O -4.254911 -6.734769 -1.453516 0 CHG=-1 VAL=1
M  V30 32 H 3.671049 -0.140143 3.700450 0
M  V30 33 H 1.241976 -1.608024 3.199914 0
M  V30 34 H 0.550930 0.558192 2.601148 0
M  V30 35 H 2.151830 2.143272 3.674806 0
M  V30 36 H 3.517084 0.870385 1.856814 0
M  V30 37 H 3.826729 3.477269 1.214380 0
M  V30 38 H -2.335747 1.692011 0.391555 0
M  V30 39 H 0.002940 5.802461 -1.214550 0
M  V30 40 H -1.186607 6.558653 0.089389 0
M  V30 41 H 3.529016 -1.316402 1.305827 0
M  V30 42 H 2.069758 -2.600520 -0.132208 0
M  V30 43 H 1.996678 -3.279381 1.512368 0
M  V30 END ATOM
M  V30 BEGIN BOND
M  V30 1 1 1 2
M  V30 2 1 2 3
M  V30 3 1 3 4
M  V30 4 1 3 5
M  V30 5 1 5 6
M  V30 6 1 6 7
M  V30 7 2 7 8
M  V30 8 1 8 9
M  V30 9 2 9 10
M  V30 10 1 10 11
M  V30 11 2 11 12
M  V30 12 1 12 13
M  V30 13 2 13 14
M  V30 14 1 14 15
M  V30 15 1 5 16
M  V30 16 1 16 17
M  V30 17 1 17 18
M  V30 18 1 18 19
M  V30 19 1 19 20
M  V30 20 2 20 21
M  V30 21 1 20 22 CFG=3
M  V30 22 1 20 23
M  V30 23 1 23 24
M  V30 24 2 24 25
M  V30 25 1 24 26 CFG=1
M  V30 26 1 24 27
M  V30 27 1 27 28
M  V30 28 2 28 29
M  V30 29 1 28 30
M  V30 30 1 28 31
M  V30 31 1 17 2
M  V30 32 1 10 6
M  V30 33 1 14 9
M  V30 34 1 1 32
M  V30 35 1 2 33 CFG=1
M  V30 36 1 3 34 CFG=3
M  V30 37 1 4 35
M  V30 38 1 5 36 CFG=1
M  V30 39 1 7 37
M  V30 40 1 12 38
M  V30 41 1 15 39
M  V30 42 1 15 40
M  V30 43 1 17 41 CFG=1
M  V30 44 1 18 42
M  V30 45 1 18 43
M  V30 END BOND
M  V30 END CTAB
M  END
>  <Dataset>  (131) 
PDB

>  <Ligand_Instance>  (131) 
4WB5_ATP_A_401

>  <PDB_ID>  (131) 
4WB5

>  <Standardized_SMILES>  (131) 
[H]O[C@@]1([H])[C@@]([H])(O[H])[C@]([H])(N2C([H])=NC3=C2N=C([H])N=C3N([H])[H])O[C@]1([H])C([H])([H])O[P@@](=O)([O-])O[P@](=O)([O-])OP(=O)([O-])[O-]

>  <Name>  (131) 
ADENOSINE-5'-TRIPHOSPHATE

>  <Pocket>  (131) 
A

>  <ATP_Site>  (131) 
1.0

>  <Peripheral>  (131) 
0.0

>  <Num_H_Atoms_ProtBoundConf>  (131) 
12.0

>  <Num_Resolved_Atoms>  (131) 
31.0

>  <Num_Not_Resolved_Atoms>  (131) 
0.0

$$$$
ATP
     RDKit          3D

  0  0  0  0  0  0  0  0  0  0999 V3000
M  V30 BEGIN CTAB
M  V30 COUNTS 43 45 0 0 0
M  V30 BEGIN ATOM
M  V30 1 O 3.188255 -1.020957 3.641634 0
M  V30 2 C 2.049785 -0.941570 2.851198 0 CFG=1
M  V30 3 C 1.626283 0.512919 2.808569 0 CFG=1
M  V30 4 O 1.999465 1.195389 3.959427 0
M  V30 5 C 2.432755 0.965317 1.601380 0 CFG=2
M  V30 6 N 2.067511 2.283941 1.165361 0
M  V30 7 C 2.755363 3.446299 0.995372 0
M  V30 8 N 1.951334 4.416447 0.560937 0
M  V30 9 C 0.729727 3.864466 0.451676 0
M  V30 10 C 0.778196 2.519373 0.827654 0
M  V30 11 N -0.374838 1.799566 0.778582 0
M  V30 12 C -1.510205 2.394304 0.375875 0
M  V30 13 N -1.553999 3.705930 0.009989 0
M  V30 14 C -0.441920 4.452111 0.043199 0
M  V30 15 N -0.608737 5.795494 -0.357417 0
M  V30 16 O 2.123741 -0.031057 0.705183 0
M  V30 17 C 2.433345 -1.180169 1.408182 0 CFG=2
M  V30 18 C 1.706107 -2.397716 0.905971 0
M  V30 19 O 0.341839 -2.293678 0.973515 0
M  V30 20 P -0.354247 -3.694349 0.393587 0 CFG=1 VAL=5
M  V30 21 O -1.314362 -3.299812 -0.722496 0
M  V30 22 O 0.812324 -4.749842 -0.268654 0 CHG=-1 VAL=1
M  V30 23 O -1.245256 -4.558767 1.510207 0
M  V30 24 P -2.298706 -5.573228 0.625616 0 CFG=2 VAL=5
M  V30 25 O -3.636302 -4.880345 0.612581 0
M  V30 26 O -2.419120 -7.100945 1.344228 0 CHG=-1 VAL=1
M  V30 27 O -1.679875 -5.801830 -0.933552 0
M  V30 28 P -2.868522 -5.999652 -2.096520 0
M  V30 29 O -3.300016 -4.670685 -2.698696 0
M  V30 30 O -2.195683 -6.959338 -3.330175 0 CHG=-1 VAL=1
M  V30 31 O -4.254911 -6.734769 -1.453516 0 CHG=-1 VAL=1
M  V30 32 H 3.671049 -0.140143 3.700450 0
M  V30 33 H 1.241976 -1.608024 3.199914 0
M  V30 34 H 0.550930 0.558192 2.601148 0
M  V30 35 H 2.151830 2.143272 3.674806 0
M  V30 36 H 3.517084 0.870385 1.856814 0
M  V30 37 H 3.826729 3.477269 1.214380 0
M  V30 38 H -2.335747 1.692011 0.391555 0
M  V30 39 H 0.002940 5.802461 -1.214550 0
M  V30 40 H -1.186607 6.558653 0.089389 0
M  V30 41 H 3.529016 -1.316402 1.305827 0
M  V30 42 H 2.069758 -2.600520 -0.132208 0
M  V30 43 H 1.996678 -3.279381 1.512368 0
M  V30 END ATOM
M  V30 BEGIN BOND
M  V30 1 1 1 2
M  V30 2 1 2 3
M  V30 3 1 3 4
M  V30 4 1 3 5
M  V30 5 1 5 6
M  V30 6 1 6 7
M  V30 7 2 7 8
M  V30 8 1 8 9
M  V30 9 2 9 10
M  V30 10 1 10 11
M  V30 11 2 11 12
M  V30 12 1 12 13
M  V30 13 2 13 14
M  V30 14 1 14 15
M  V30 15 1 5 16
M  V30 16 1 16 17
M  V30 17 1 17 18
M  V30 18 1 18 19
M  V30 19 1 19 20
M  V30 20 2 20 21
M  V30 21 1 20 22 CFG=3
M  V30 22 1 20 23
M  V30 23 1 23 24
M  V30 24 2 24 25
M  V30 25 1 24 26 CFG=1
M  V30 26 1 24 27
M  V30 27 1 27 28
M  V30 28 2 28 29
M  V30 29 1 28 30
M  V30 30 1 28 31
M  V30 31 1 17 2
M  V30 32 1 10 6
M  V30 33 1 14 9
M  V30 34 1 1 32
M  V30 35 1 2 33 CFG=1
M  V30 36 1 3 34 CFG=3
M  V30 37 1 4 35
M  V30 38 1 5 36 CFG=1
M  V30 39 1 7 37
M  V30 40 1 12 38
M  V30 41 1 15 39
M  V30 42 1 15 40
M  V30 43 1 17 41 CFG=1
M  V30 44 1 18 42
M  V30 45 1 18 43
M  V30 END BOND
M  V30 END CTAB
M  END
>  <Dataset>  (132) 
PDB

>  <Ligand_Instance>  (132) 
4WB6_ATP_A_401

>  <PDB_ID>  (132) 
4WB6

>  <Standardized_SMILES>  (132) 
[H]O[C@@]1([H])[C@@]([H])(O[H])[C@]([H])(N2C([H])=NC3=C2N=C([H])N=C3N([H])[H])O[C@]1([H])C([H])([H])O[P@@](=O)([O-])O[P@](=O)([O-])OP(=O)([O-])[O-]

>  <Name>  (132) 
ADENOSINE-5'-TRIPHOSPHATE

>  <Pocket>  (132) 
A

>  <ATP_Site>  (132) 
1.0

>  <Peripheral>  (132) 
0.0

>  <Num_H_Atoms_ProtBoundConf>  (132) 
12.0

>  <Num_Resolved_Atoms>  (132) 
31.0

>  <Num_Not_Resolved_Atoms>  (132) 
0.0

$$$$
ATP
     RDKit          3D

  0  0  0  0  0  0  0  0  0  0999 V3000
M  V30 BEGIN CTAB
M  V30 COUNTS 43 45 0 0 0
M  V30 BEGIN ATOM
M  V30 1 O 4.458051 -0.549692 2.184329 0
M  V30 2 C 3.185165 -1.018996 1.888478 0 CFG=1
M  V30 3 C 2.151562 -0.289438 2.717447 0 CFG=1
M  V30 4 O 2.587765 -0.093020 4.026809 0
M  V30 5 C 2.012863 0.994439 1.960220 0 CFG=2
M  V30 6 N 0.621929 1.451657 1.965626 0
M  V30 7 C -0.169403 1.186978 3.037074 0
M  V30 8 N -1.408033 1.704809 2.816585 0
M  V30 9 C -1.383197 2.293131 1.602194 0
M  V30 10 C -0.117365 2.131241 1.079767 0
M  V30 11 N 0.252831 2.597842 -0.119282 0
M  V30 12 C -0.628049 3.265687 -0.885944 0
M  V30 13 N -1.893337 3.456926 -0.423632 0
M  V30 14 C -2.259898 2.982870 0.788144 0
M  V30 15 N -3.585743 3.184843 1.269376 0
M  V30 16 O 2.493981 0.812049 0.696272 0
M  V30 17 C 2.837818 -0.498716 0.511604 0 CFG=2
M  V30 18 C 1.632035 -1.302937 0.044525 0
M  V30 19 O 1.135567 -0.813049 -1.161444 0
M  V30 20 P -0.192912 -1.811328 -1.539116 0 CFG=2 VAL=5
M  V30 21 O -0.479320 -1.766350 -3.016702 0
M  V30 22 O -1.522987 -1.243639 -0.662576 0 CHG=-1 VAL=1
M  V30 23 O 0.116073 -3.404873 -1.019809 0
M  V30 24 P -1.297393 -4.300885 -1.271927 0 CFG=1 VAL=5
M  V30 25 O -2.420463 -3.649929 -0.529018 0
M  V30 26 O -1.638508 -4.216146 -2.928774 0 CHG=-1 VAL=1
M  V30 27 O -1.138965 -5.884115 -0.747270 0
M  V30 28 P -0.201850 -6.050086 0.625565 0
M  V30 29 O -1.055306 -6.187062 1.878940 0
M  V30 30 O 0.793174 -7.414355 0.434730 0 CHG=-1 VAL=1
M  V30 31 O 0.828910 -4.738283 0.902796 0 CHG=-1 VAL=1
M  V30 32 H 4.728577 0.198453 1.612977 0
M  V30 33 H 3.108112 -2.120577 1.951419 0
M  V30 34 H 1.196890 -0.858526 2.756759 0
M  V30 35 H 2.564617 0.853133 4.289095 0
M  V30 36 H 2.658567 1.738405 2.513310 0
M  V30 37 H -0.048996 0.681264 3.985546 0
M  V30 38 H -0.327779 3.642252 -1.854626 0
M  V30 39 H -3.478432 4.162317 1.671853 0
M  V30 40 H -4.518688 2.681523 1.321313 0
M  V30 41 H 3.687934 -0.617775 -0.192358 0
M  V30 42 H 1.866396 -2.364644 -0.082443 0
M  V30 43 H 0.822775 -1.204780 0.790958 0
M  V30 END ATOM
M  V30 BEGIN BOND
M  V30 1 1 1 2
M  V30 2 1 2 3
M  V30 3 1 3 4
M  V30 4 1 3 5
M  V30 5 1 5 6
M  V30 6 1 6 7
M  V30 7 2 7 8
M  V30 8 1 8 9
M  V30 9 2 9 10
M  V30 10 1 10 11
M  V30 11 2 11 12
M  V30 12 1 12 13
M  V30 13 2 13 14
M  V30 14 1 14 15
M  V30 15 1 5 16
M  V30 16 1 16 17
M  V30 17 1 17 18
M  V30 18 1 18 19
M  V30 19 1 19 20
M  V30 20 2 20 21
M  V30 21 1 20 22 CFG=1
M  V30 22 1 20 23
M  V30 23 1 23 24
M  V30 24 2 24 25
M  V30 25 1 24 26 CFG=3
M  V30 26 1 24 27
M  V30 27 1 27 28
M  V30 28 2 28 29
M  V30 29 1 28 30
M  V30 30 1 28 31
M  V30 31 1 17 2
M  V30 32 1 10 6
M  V30 33 1 14 9
M  V30 34 1 1 32
M  V30 35 1 2 33 CFG=3
M  V30 36 1 3 34 CFG=1
M  V30 37 1 4 35
M  V30 38 1 5 36 CFG=1
M  V30 39 1 7 37
M  V30 40 1 12 38
M  V30 41 1 15 39
M  V30 42 1 15 40
M  V30 43 1 17 41 CFG=3
M  V30 44 1 18 42
M  V30 45 1 18 43
M  V30 END BOND
M  V30 END CTAB
M  END
>  <Dataset>  (133) 
PDB

>  <Ligand_Instance>  (133) 
4WB6_ATP_B_401

>  <PDB_ID>  (133) 
4WB6

>  <Standardized_SMILES>  (133) 
[H]O[C@@]1([H])[C@@]([H])(O[H])[C@]([H])(N2C([H])=NC3=C2N=C([H])N=C3N([H])[H])O[C@]1([H])C([H])([H])O[P@](=O)([O-])O[P@@](=O)([O-])OP(=O)([O-])[O-]

>  <Name>  (133) 
ADENOSINE-5'-TRIPHOSPHATE

>  <Pocket>  (133) 
A

>  <ATP_Site>  (133) 
1.0

>  <Peripheral>  (133) 
0.0

>  <Num_H_Atoms_ProtBoundConf>  (133) 
12.0

>  <Num_Resolved_Atoms>  (133) 
31.0

>  <Num_Not_Resolved_Atoms>  (133) 
0.0

$$$$
ATP
     RDKit          3D

  0  0  0  0  0  0  0  0  0  0999 V3000
M  V30 BEGIN CTAB
M  V30 COUNTS 43 45 0 0 0
M  V30 BEGIN ATOM
M  V30 1 O 4.458051 -0.549692 2.184329 0
M  V30 2 C 3.185165 -1.018996 1.888478 0 CFG=1
M  V30 3 C 2.151562 -0.289438 2.717447 0 CFG=1
M  V30 4 O 2.587765 -0.093020 4.026809 0
M  V30 5 C 2.012863 0.994439 1.960220 0 CFG=2
M  V30 6 N 0.621929 1.451657 1.965626 0
M  V30 7 C -0.169403 1.186978 3.037074 0
M  V30 8 N -1.408033 1.704809 2.816585 0
M  V30 9 C -1.383197 2.293131 1.602194 0
M  V30 10 C -0.117365 2.131241 1.079767 0
M  V30 11 N 0.252831 2.597842 -0.119282 0
M  V30 12 C -0.628049 3.265687 -0.885944 0
M  V30 13 N -1.893337 3.456926 -0.423632 0
M  V30 14 C -2.259898 2.982870 0.788144 0
M  V30 15 N -3.585743 3.184843 1.269376 0
M  V30 16 O 2.493981 0.812049 0.696272 0
M  V30 17 C 2.837818 -0.498716 0.511604 0 CFG=2
M  V30 18 C 1.632035 -1.302937 0.044525 0
M  V30 19 O 1.135567 -0.813049 -1.161444 0
M  V30 20 P -0.192912 -1.811328 -1.539116 0 CFG=2 VAL=5
M  V30 21 O -0.479320 -1.766350 -3.016702 0
M  V30 22 O -1.522987 -1.243639 -0.662576 0 CHG=-1 VAL=1
M  V30 23 O 0.116073 -3.404873 -1.019809 0
M  V30 24 P -1.297393 -4.300885 -1.271927 0 CFG=1 VAL=5
M  V30 25 O -2.420463 -3.649929 -0.529018 0
M  V30 26 O -1.638508 -4.216146 -2.928774 0 CHG=-1 VAL=1
M  V30 27 O -1.138965 -5.884115 -0.747270 0
M  V30 28 P -0.201850 -6.050086 0.625565 0
M  V30 29 O -1.055306 -6.187062 1.878940 0
M  V30 30 O 0.793174 -7.414355 0.434730 0 CHG=-1 VAL=1
M  V30 31 O 0.828910 -4.738283 0.902796 0 CHG=-1 VAL=1
M  V30 32 H 4.728577 0.198453 1.612977 0
M  V30 33 H 3.108112 -2.120577 1.951419 0
M  V30 34 H 1.196890 -0.858526 2.756759 0
M  V30 35 H 2.564617 0.853133 4.289095 0
M  V30 36 H 2.658567 1.738405 2.513310 0
M  V30 37 H -0.048996 0.681264 3.985546 0
M  V30 38 H -0.327779 3.642252 -1.854626 0
M  V30 39 H -3.478432 4.162317 1.671853 0
M  V30 40 H -4.518688 2.681523 1.321313 0
M  V30 41 H 3.687934 -0.617775 -0.192358 0
M  V30 42 H 1.866396 -2.364644 -0.082443 0
M  V30 43 H 0.822775 -1.204780 0.790958 0
M  V30 END ATOM
M  V30 BEGIN BOND
M  V30 1 1 1 2
M  V30 2 1 2 3
M  V30 3 1 3 4
M  V30 4 1 3 5
M  V30 5 1 5 6
M  V30 6 1 6 7
M  V30 7 2 7 8
M  V30 8 1 8 9
M  V30 9 2 9 10
M  V30 10 1 10 11
M  V30 11 2 11 12
M  V30 12 1 12 13
M  V30 13 2 13 14
M  V30 14 1 14 15
M  V30 15 1 5 16
M  V30 16 1 16 17
M  V30 17 1 17 18
M  V30 18 1 18 19
M  V30 19 1 19 20
M  V30 20 2 20 21
M  V30 21 1 20 22 CFG=1
M  V30 22 1 20 23
M  V30 23 1 23 24
M  V30 24 2 24 25
M  V30 25 1 24 26 CFG=3
M  V30 26 1 24 27
M  V30 27 1 27 28
M  V30 28 2 28 29
M  V30 29 1 28 30
M  V30 30 1 28 31
M  V30 31 1 17 2
M  V30 32 1 10 6
M  V30 33 1 14 9
M  V30 34 1 1 32
M  V30 35 1 2 33 CFG=3
M  V30 36 1 3 34 CFG=1
M  V30 37 1 4 35
M  V30 38 1 5 36 CFG=1
M  V30 39 1 7 37
M  V30 40 1 12 38
M  V30 41 1 15 39
M  V30 42 1 15 40
M  V30 43 1 17 41 CFG=3
M  V30 44 1 18 42
M  V30 45 1 18 43
M  V30 END BOND
M  V30 END CTAB
M  END
>  <Dataset>  (134) 
PDB

>  <Ligand_Instance>  (134) 
4WB8_ATP_A_401

>  <PDB_ID>  (134) 
4WB8

>  <Standardized_SMILES>  (134) 
[H]O[C@@]1([H])[C@@]([H])(O[H])[C@]([H])(N2C([H])=NC3=C2N=C([H])N=C3N([H])[H])O[C@]1([H])C([H])([H])O[P@](=O)([O-])O[P@@](=O)([O-])OP(=O)([O-])[O-]

>  <Name>  (134) 
ADENOSINE-5'-TRIPHOSPHATE

>  <Pocket>  (134) 
A

>  <ATP_Site>  (134) 
1.0

>  <Peripheral>  (134) 
0.0

>  <Num_H_Atoms_ProtBoundConf>  (134) 
12.0

>  <Num_Resolved_Atoms>  (134) 
31.0

>  <Num_Not_Resolved_Atoms>  (134) 
0.0

$$$$
ATP
     RDKit          3D

  0  0  0  0  0  0  0  0  0  0999 V3000
M  V30 BEGIN CTAB
M  V30 COUNTS 43 45 0 0 0
M  V30 BEGIN ATOM
M  V30 1 O -0.752625 -0.645306 4.167924 0
M  V30 2 C -0.287280 -0.130544 2.954110 0 CFG=1
M  V30 3 C 1.062409 0.529233 3.111287 0 CFG=1
M  V30 4 O 1.561324 0.122486 4.358940 0
M  V30 5 C 1.872256 -0.040373 2.001880 0 CFG=2
M  V30 6 N 2.655174 0.936313 1.279840 0
M  V30 7 C 3.991730 0.959673 1.006836 0
M  V30 8 N 4.294013 2.079590 0.294459 0
M  V30 9 C 3.132703 2.759812 0.122762 0
M  V30 10 C 2.111772 2.057986 0.730550 0
M  V30 11 N 0.896743 2.595565 0.652541 0
M  V30 12 C 0.632245 3.759152 0.024661 0
M  V30 13 N 1.675384 4.415601 -0.560952 0
M  V30 14 C 2.919427 3.954683 -0.533322 0
M  V30 15 N 4.014629 4.638066 -1.144753 0
M  V30 16 O 1.072111 -0.825670 1.194142 0
M  V30 17 C -0.060032 -1.162428 1.908048 0 CFG=2
M  V30 18 C -1.225804 -1.290465 0.946144 0
M  V30 19 O -0.929865 -2.285799 0.016639 0
M  V30 20 P -2.182901 -2.482747 -1.083950 0 CFG=1 VAL=5
M  V30 21 O -3.068741 -1.252515 -1.038359 0
M  V30 22 O -1.501053 -2.653926 -2.621840 0 CHG=-1 VAL=1
M  V30 23 O -3.143446 -3.819388 -0.702905 0
M  V30 24 P -2.682365 -5.196341 -1.552725 0 CFG=1 VAL=5
M  V30 25 O -3.773550 -5.515235 -2.549634 0
M  V30 26 O -1.163857 -5.035839 -2.286062 0 CHG=-1 VAL=1
M  V30 27 O -2.564842 -6.481863 -0.462880 0
M  V30 28 P -1.538508 -6.022836 0.825560 0
M  V30 29 O -1.409002 -7.137029 1.813622 0
M  V30 30 O -0.013140 -5.556214 0.258851 0 CHG=-1 VAL=1
M  V30 31 O -2.263221 -4.702310 1.604378 0 CHG=-1 VAL=1
M  V30 32 H -1.166572 0.112565 4.658125 0
M  V30 33 H -1.067513 0.605920 2.617684 0
M  V30 34 H 0.996559 1.646426 3.086282 0
M  V30 35 H 1.544214 -0.883194 4.330834 0
M  V30 36 H 2.628716 -0.750872 2.436167 0
M  V30 37 H 4.687317 0.189577 1.321370 0
M  V30 38 H -0.378896 4.165997 -0.016597 0
M  V30 39 H 4.706207 4.392080 -1.886147 0
M  V30 40 H 4.089756 5.593472 -0.710248 0
M  V30 41 H 0.077916 -2.153603 2.392832 0
M  V30 42 H -2.126972 -1.528746 1.547643 0
M  V30 43 H -1.347455 -0.340337 0.375052 0
M  V30 END ATOM
M  V30 BEGIN BOND
M  V30 1 1 1 2
M  V30 2 1 2 3
M  V30 3 1 3 4
M  V30 4 1 3 5
M  V30 5 1 5 6
M  V30 6 1 6 7
M  V30 7 2 7 8
M  V30 8 1 8 9
M  V30 9 2 9 10
M  V30 10 1 10 11
M  V30 11 2 11 12
M  V30 12 1 12 13
M  V30 13 2 13 14
M  V30 14 1 14 15
M  V30 15 1 5 16
M  V30 16 1 16 17
M  V30 17 1 17 18
M  V30 18 1 18 19
M  V30 19 1 19 20
M  V30 20 2 20 21
M  V30 21 1 20 22 CFG=3
M  V30 22 1 20 23
M  V30 23 1 23 24
M  V30 24 2 24 25
M  V30 25 1 24 26 CFG=3
M  V30 26 1 24 27
M  V30 27 1 27 28
M  V30 28 2 28 29
M  V30 29 1 28 30
M  V30 30 1 28 31
M  V30 31 1 17 2
M  V30 32 1 10 6
M  V30 33 1 14 9
M  V30 34 1 1 32
M  V30 35 1 2 33 CFG=3
M  V30 36 1 3 34 CFG=1
M  V30 37 1 4 35
M  V30 38 1 5 36 CFG=1
M  V30 39 1 7 37
M  V30 40 1 12 38
M  V30 41 1 15 39
M  V30 42 1 15 40
M  V30 43 1 17 41 CFG=1
M  V30 44 1 18 42
M  V30 45 1 18 43
M  V30 END BOND
M  V30 END CTAB
M  END
>  <Dataset>  (135) 
PDB

>  <Ligand_Instance>  (135) 
4XW5_ATP_A_403

>  <PDB_ID>  (135) 
4XW5

>  <Standardized_SMILES>  (135) 
[H]O[C@@]1([H])[C@@]([H])(O[H])[C@]([H])(N2C([H])=NC3=C2N=C([H])N=C3N([H])[H])O[C@]1([H])C([H])([H])O[P@@](=O)([O-])O[P@@](=O)([O-])OP(=O)([O-])[O-]

>  <Name>  (135) 
ADENOSINE-5'-TRIPHOSPHATE

>  <Pocket>  (135) 
A

>  <ATP_Site>  (135) 
1.0

>  <Peripheral>  (135) 
0.0

>  <Num_H_Atoms_ProtBoundConf>  (135) 
12.0

>  <Num_Resolved_Atoms>  (135) 
31.0

>  <Num_Not_Resolved_Atoms>  (135) 
0.0

$$$$
B4Z
     RDKit          3D

  0  0  0  0  0  0  0  0  0  0999 V3000
M  V30 BEGIN CTAB
M  V30 COUNTS 44 46 0 0 0
M  V30 BEGIN ATOM
M  V30 1 C 0.564975 -3.347619 1.207531 0
M  V30 2 N 1.594141 -4.200335 1.402825 0
M  V30 3 C 2.658572 -4.151168 0.566725 0
M  V30 4 C 2.678678 -3.236701 -0.467550 0
M  V30 5 C 3.748732 -3.152994 -1.346300 0
M  V30 6 C 3.803027 -2.251827 -2.390868 0
M  V30 7 C 2.746816 -1.389333 -2.577200 0
M  V30 8 C 1.643498 -1.421541 -1.731455 0
M  V30 9 S 0.243136 -0.381684 -1.862996 0
M  V30 10 O -0.995251 -1.090217 -2.252061 0
M  V30 11 O 0.547568 0.617762 -2.968067 0
M  V30 12 N 0.058384 0.544343 -0.422628 0
M  V30 13 C 1.172198 1.404126 -0.168863 0
M  V30 14 C 1.048333 2.234598 1.087551 0
M  V30 15 N 0.916551 1.439953 2.291381 0 CHG=1 VAL=4
M  V30 16 C -0.156868 1.878619 3.141922 0
M  V30 17 C -1.435186 1.152516 2.907733 0
M  V30 18 C -1.716789 -0.014957 3.625403 0
M  V30 19 C -2.854070 -0.785982 3.512630 0
M  V30 20 C -3.800717 -0.355757 2.600287 0
M  V30 21 C -3.572054 0.790478 1.866175 0
M  V30 22 C -2.419820 1.540599 2.004133 0
M  V30 23 C 1.639160 -2.341021 -0.703137 0
M  V30 24 C 0.574191 -2.425201 0.172384 0
M  V30 25 H -0.306021 -3.372667 1.874745 0
M  V30 26 H 3.503383 -4.830678 0.704230 0
M  V30 27 H 4.579754 -3.841420 -1.188751 0
M  V30 28 H 4.659409 -2.214932 -3.060634 0
M  V30 29 H 2.709786 -0.650184 -3.374091 0
M  V30 30 H -0.857868 0.995611 -0.377404 0
M  V30 31 H 2.119532 0.863384 -0.172560 0
M  V30 32 H 1.219083 2.133157 -1.005231 0
M  V30 33 H 1.952813 2.877256 1.119337 0
M  V30 34 H 0.184824 2.925513 1.035969 0
M  V30 35 H 1.807243 1.541537 2.825133 0
M  V30 36 H 0.807360 0.423118 2.094669 0
M  V30 37 H 0.124175 1.657217 4.190829 0
M  V30 38 H -0.356390 2.962438 3.053871 0
M  V30 39 H -0.943738 -0.325926 4.339626 0
M  V30 40 H -2.930804 -1.673991 4.143295 0
M  V30 41 H -4.699115 -0.956812 2.505121 0
M  V30 42 H -4.341540 1.090845 1.162209 0
M  V30 43 H -2.231078 2.441239 1.432918 0
M  V30 44 H -0.290131 -1.772182 0.078748 0
M  V30 END ATOM
M  V30 BEGIN BOND
M  V30 1 2 1 2
M  V30 2 1 2 3
M  V30 3 2 3 4
M  V30 4 1 4 5
M  V30 5 2 5 6
M  V30 6 1 6 7
M  V30 7 2 7 8
M  V30 8 1 8 9
M  V30 9 2 9 10
M  V30 10 2 9 11
M  V30 11 1 9 12
M  V30 12 1 12 13
M  V30 13 1 13 14
M  V30 14 1 14 15
M  V30 15 1 15 16
M  V30 16 1 16 17
M  V30 17 2 17 18
M  V30 18 1 18 19
M  V30 19 2 19 20
M  V30 20 1 20 21
M  V30 21 2 21 22
M  V30 22 1 8 23
M  V30 23 2 23 24
M  V30 24 1 24 1
M  V30 25 1 23 4
M  V30 26 1 22 17
M  V30 27 1 1 25
M  V30 28 1 3 26
M  V30 29 1 5 27
M  V30 30 1 6 28
M  V30 31 1 7 29
M  V30 32 1 12 30
M  V30 33 1 13 31
M  V30 34 1 13 32
M  V30 35 1 14 33
M  V30 36 1 14 34
M  V30 37 1 15 35
M  V30 38 1 15 36
M  V30 39 1 16 37
M  V30 40 1 16 38
M  V30 41 1 18 39
M  V30 42 1 19 40
M  V30 43 1 20 41
M  V30 44 1 21 42
M  V30 45 1 22 43
M  V30 46 1 24 44
M  V30 END BOND
M  V30 END CTAB
M  END
>  <Dataset>  (136) 
PDB

>  <Ligand_Instance>  (136) 
6EH3_B4Z_A_401

>  <PDB_ID>  (136) 
6EH3

>  <Standardized_SMILES>  (136) 
[H]C1=NC([H])=C2C([H])=C([H])C([H])=C(S(=O)(=O)N([H])C([H])([H])C([H])([H])[N+]([H])([H])C([H])([H])C3=C([H])C([H])=C([H])C([H])=C3[H])C2=C1[H]

>  <Name>  (136) 
~{N}-[2-[(phenylmethyl)amino]ethyl]isoquinoline-5-sulfonamide

>  <Pocket>  (136) 
A

>  <ATP_Site>  (136) 
1.0

>  <Peripheral>  (136) 
0.0

>  <Num_H_Atoms_ProtBoundConf>  (136) 
20.0

>  <Num_Resolved_Atoms>  (136) 
24.0

>  <Num_Not_Resolved_Atoms>  (136) 
0.0

$$$$
B99
     RDKit          3D

  0  0  0  0  0  0  0  0  0  0999 V3000
M  V30 BEGIN CTAB
M  V30 COUNTS 61 66 0 0 0
M  V30 BEGIN ATOM
M  V30 1 C -0.992645 -2.002106 3.843679 0
M  V30 2 N -0.254154 -1.194495 4.650347 0
M  V30 3 C 0.661212 -0.371933 4.094921 0
M  V30 4 C 1.574192 0.583105 4.677532 0
M  V30 5 C 2.604565 0.210091 5.506237 0
M  V30 6 O 3.248088 1.273211 5.871042 0
M  V30 7 C 2.755298 2.369824 5.366733 0
M  V30 8 C 1.673531 1.971783 4.589658 0
M  V30 9 C 0.796321 -0.398792 2.720319 0
M  V30 10 C 1.725162 0.418364 1.910046 0
M  V30 11 C 3.101365 0.446614 1.997956 0
M  V30 12 C 3.833080 1.261967 1.164253 0
M  V30 13 C 3.244978 2.077679 0.215886 0
M  V30 14 C 1.870015 2.050104 0.127361 0
M  V30 15 C 1.146679 1.233903 0.962818 0
M  V30 16 C 1.565738 2.943411 -0.884052 0
M  V30 17 C 0.161102 3.203835 -1.294351 0
M  V30 18 N 2.713492 3.464385 -1.358869 0
M  V30 19 N 3.725818 2.935299 -0.687875 0
M  V30 20 C 0.033330 -1.229106 1.922251 0
M  V30 21 C -0.894530 -2.066384 2.457770 0
M  V30 22 O -1.800527 -2.990609 2.016031 0
M  V30 23 C -2.041914 -3.403066 0.695422 0
M  V30 24 C -0.888489 -4.085376 0.033534 0 CFG=2
M  V30 25 C -1.160507 -4.406563 -1.396184 0
M  V30 26 C -1.462619 -3.261740 -2.257985 0
M  V30 27 C -0.457170 -2.643526 -2.994558 0
M  V30 28 N -0.939578 -1.585379 -3.698467 0
M  V30 29 C -2.272744 -1.509474 -3.421570 0
M  V30 30 C -3.215411 -0.613113 -3.898997 0
M  V30 31 C -4.512807 -0.796744 -3.446098 0
M  V30 32 C -4.834838 -1.818655 -2.569451 0
M  V30 33 C -3.891438 -2.702378 -2.101615 0
M  V30 34 C -2.587477 -2.533176 -2.543647 0
M  V30 35 N -0.498247 -5.291317 0.777148 0 CHG=1 VAL=4
M  V30 36 H -1.644542 -2.556700 4.513796 0
M  V30 37 H 2.977095 -0.730755 5.901560 0
M  V30 38 H 2.884853 3.437833 5.339120 0
M  V30 39 H 0.929434 2.454744 3.966060 0
M  V30 40 H 3.522736 -0.208433 2.755731 0
M  V30 41 H 4.901532 1.270521 1.247789 0
M  V30 42 H 0.060998 1.256371 0.843439 0
M  V30 43 H -0.525573 3.126844 -0.420710 0
M  V30 44 H 0.110002 4.223236 -1.692373 0
M  V30 45 H -0.104335 2.448250 -2.052231 0
M  V30 46 H 4.717031 3.180015 -0.871189 0
M  V30 47 H 0.076131 -1.291106 0.851433 0
M  V30 48 H -2.197862 -2.436901 0.108106 0
M  V30 49 H -2.981766 -3.963620 0.644534 0
M  V30 50 H 0.006597 -3.441144 0.082466 0
M  V30 51 H -0.315467 -5.002326 -1.803439 0
M  V30 52 H -2.035807 -5.106639 -1.420704 0
M  V30 53 H 0.607960 -2.908845 -3.055784 0
M  V30 54 H -0.421487 -0.944595 -4.328906 0
M  V30 55 H -2.935324 0.162925 -4.573341 0
M  V30 56 H -5.236377 -0.083607 -3.832483 0
M  V30 57 H -5.872905 -1.930701 -2.235559 0
M  V30 58 H -4.090654 -3.510960 -1.422702 0
M  V30 59 H 0.334631 -5.678503 0.312321 0
M  V30 60 H -1.264166 -5.982953 0.803142 0
M  V30 61 H -0.259418 -4.983212 1.728126 0
M  V30 END ATOM
M  V30 BEGIN BOND
M  V30 1 2 1 2
M  V30 2 1 2 3
M  V30 3 1 3 4
M  V30 4 2 4 5
M  V30 5 1 5 6
M  V30 6 1 6 7
M  V30 7 2 7 8
M  V30 8 2 3 9
M  V30 9 1 9 10
M  V30 10 2 10 11
M  V30 11 1 11 12
M  V30 12 2 12 13
M  V30 13 1 13 14
M  V30 14 2 14 15
M  V30 15 1 14 16
M  V30 16 1 16 17
M  V30 17 2 16 18
M  V30 18 1 18 19
M  V30 19 1 9 20
M  V30 20 2 20 21
M  V30 21 1 21 22
M  V30 22 1 22 23
M  V30 23 1 23 24
M  V30 24 1 24 25
M  V30 25 1 25 26
M  V30 26 2 26 27
M  V30 27 1 27 28
M  V30 28 1 28 29
M  V30 29 2 29 30
M  V30 30 1 30 31
M  V30 31 2 31 32
M  V30 32 1 32 33
M  V30 33 2 33 34
M  V30 34 1 24 35
M  V30 35 1 21 1
M  V30 36 1 34 26
M  V30 37 1 8 4
M  V30 38 1 15 10
M  V30 39 1 34 29
M  V30 40 1 19 13
M  V30 41 1 1 36
M  V30 42 1 5 37
M  V30 43 1 7 38
M  V30 44 1 8 39
M  V30 45 1 11 40
M  V30 46 1 12 41
M  V30 47 1 15 42
M  V30 48 1 17 43
M  V30 49 1 17 44
M  V30 50 1 17 45
M  V30 51 1 19 46
M  V30 52 1 20 47
M  V30 53 1 23 48
M  V30 54 1 23 49
M  V30 55 1 24 50 CFG=3
M  V30 56 1 25 51
M  V30 57 1 25 52
M  V30 58 1 27 53
M  V30 59 1 28 54
M  V30 60 1 30 55
M  V30 61 1 31 56
M  V30 62 1 32 57
M  V30 63 1 33 58
M  V30 64 1 35 59
M  V30 65 1 35 60
M  V30 66 1 35 61
M  V30 END BOND
M  V30 END CTAB
M  END
>  <Dataset>  (137) 
PDB

>  <Ligand_Instance>  (137) 
3KKV_B99_A_351

>  <PDB_ID>  (137) 
3KKV

>  <Standardized_SMILES>  (137) 
[H]C1=NC(C2=C([H])OC([H])=C2[H])=C(C2=C([H])C([H])=C3C(=C2[H])C(C([H])([H])[H])=NN3[H])C([H])=C1OC([H])([H])[C@]([H])(C([H])([H])C1=C([H])N([H])C2=C([H])C([H])=C([H])C([H])=C21)[N+]([H])([H])[H]

>  <Name>  (137) 
(2S)-1-{[6-furan-3-yl-5-(3-methyl-2H-indazol-5-yl)pyridin-3-yl]oxy}-3-(1H-indol-3-yl)propan-2-amine

>  <Pocket>  (137) 
A

>  <ATP_Site>  (137) 
1.0

>  <Peripheral>  (137) 
0.0

>  <Num_H_Atoms_ProtBoundConf>  (137) 
26.0

>  <Num_Resolved_Atoms>  (137) 
35.0

>  <Num_Not_Resolved_Atoms>  (137) 
0.0

$$$$
BEZ
     RDKit          3D

  0  0  0  0  0  0  0  0  0  0999 V3000
M  V30 BEGIN CTAB
M  V30 COUNTS 15 15 0 0 0
M  V30 BEGIN ATOM
M  V30 1 O 0.035442 -2.407413 2.286920 0
M  V30 2 C 0.803090 -1.891866 1.232187 0
M  V30 3 O 1.256360 -2.755723 0.437612 0
M  V30 4 C 1.044091 -0.458760 1.087984 0
M  V30 5 C 1.815287 -0.069953 0.009346 0
M  V30 6 C 2.037033 1.305905 -0.114924 0
M  V30 7 C 1.505754 2.201820 0.799276 0
M  V30 8 C 0.742784 1.752326 1.856878 0
M  V30 9 C 0.497827 0.384010 2.016444 0
M  V30 10 H -0.336037 -3.345259 2.309884 0
M  V30 11 H 2.224440 -0.778175 -0.697397 0
M  V30 12 H 2.641759 1.595965 -0.962916 0
M  V30 13 H 1.757011 3.210932 0.577607 0
M  V30 14 H 0.365967 2.504757 2.522497 0
M  V30 15 H -0.100046 0.050272 2.847922 0
M  V30 END ATOM
M  V30 BEGIN BOND
M  V30 1 1 1 2
M  V30 2 2 2 3
M  V30 3 1 2 4
M  V30 4 2 4 5
M  V30 5 1 5 6
M  V30 6 2 6 7
M  V30 7 1 7 8
M  V30 8 2 8 9
M  V30 9 1 9 4
M  V30 10 1 1 10
M  V30 11 1 5 11
M  V30 12 1 6 12
M  V30 13 1 7 13
M  V30 14 1 8 14
M  V30 15 1 9 15
M  V30 END BOND
M  V30 END CTAB
M  END
>  <Dataset>  (138) 
PDB

>  <Ligand_Instance>  (138) 
6SNN_BEZ_A_401

>  <PDB_ID>  (138) 
6SNN

>  <Standardized_SMILES>  (138) 
[H]OC(=O)C1=C([H])C([H])=C([H])C([H])=C1[H]

>  <Name>  (138) 
BENZOIC ACID

>  <Pocket>  (138) 
A

>  <ATP_Site>  (138) 
1.0

>  <Peripheral>  (138) 
1.0

>  <Num_H_Atoms_ProtBoundConf>  (138) 
6.0

>  <Num_Resolved_Atoms>  (138) 
9.0

>  <Num_Not_Resolved_Atoms>  (138) 
0.0

$$$$
BEZ
     RDKit          3D

  0  0  0  0  0  0  0  0  0  0999 V3000
M  V30 BEGIN CTAB
M  V30 COUNTS 14 14 0 0 0
M  V30 BEGIN ATOM
M  V30 1 C -0.286067 0.910865 0.439891 0
M  V30 2 C -0.337089 -0.262360 1.198416 0
M  V30 3 C 0.878588 -0.870147 1.417131 0
M  V30 4 C 2.110589 -0.439680 0.968630 0
M  V30 5 C 3.287464 -1.231506 1.310653 0
M  V30 6 O 3.208643 -2.294411 2.002403 0
M  V30 7 O 4.549396 -0.861287 0.896566 0 CHG=-1 VAL=1
M  V30 8 C 2.111729 0.728880 0.220092 0
M  V30 9 C 0.930589 1.394932 -0.040783 0
M  V30 10 H -1.228259 1.416215 0.248420 0
M  V30 11 H -1.252666 -0.678647 1.593452 0
M  V30 12 H 0.835857 -1.786925 2.010252 0
M  V30 13 H 3.074556 1.069972 -0.133413 0
M  V30 14 H 0.944525 2.303355 -0.624518 0
M  V30 END ATOM
M  V30 BEGIN BOND
M  V30 1 2 1 2
M  V30 2 1 2 3
M  V30 3 2 3 4
M  V30 4 1 4 5
M  V30 5 2 5 6
M  V30 6 1 5 7
M  V30 7 1 4 8
M  V30 8 2 8 9
M  V30 9 1 9 1
M  V30 10 1 1 10
M  V30 11 1 2 11
M  V30 12 1 3 12
M  V30 13 1 8 13
M  V30 14 1 9 14
M  V30 END BOND
M  V30 END CTAB
M  END
>  <Dataset>  (139) 
PDB

>  <Ligand_Instance>  (139) 
6SNN_BEZ_A_402

>  <PDB_ID>  (139) 
6SNN

>  <Standardized_SMILES>  (139) 
[H]C1=C([H])C([H])=C(C(=O)[O-])C([H])=C1[H]

>  <Name>  (139) 
BENZOIC ACID

>  <Pocket>  (139) 
X

>  <ATP_Site>  (139) 
1.0

>  <Peripheral>  (139) 
1.0

>  <Num_H_Atoms_ProtBoundConf>  (139) 
5.0

>  <Num_Resolved_Atoms>  (139) 
9.0

>  <Num_Not_Resolved_Atoms>  (139) 
0.0

$$$$
BJK
     RDKit          3D

  0  0  0  0  0  0  0  0  0  0999 V3000
M  V30 BEGIN CTAB
M  V30 COUNTS 23 23 0 0 0
M  V30 BEGIN ATOM
M  V30 1 O -2.109780 0.302041 2.312235 0
M  V30 2 C -0.958960 0.305164 1.546030 0
M  V30 3 C 0.237338 -0.026313 2.154442 0
M  V30 4 C 1.397184 -0.023035 1.381676 0
M  V30 5 C 2.679400 -0.389761 2.081817 0
M  V30 6 N 2.838680 -1.814760 1.966582 0 CHG=1 VAL=4
M  V30 7 C 1.392335 0.298348 0.035939 0
M  V30 8 C 0.174657 0.623437 -0.531668 0
M  V30 9 C -1.002705 0.632026 0.202760 0
M  V30 10 O -2.249384 0.951978 -0.324322 0
M  V30 11 C -2.320422 1.294741 -1.716458 0
M  V30 12 H -2.215447 -0.394916 3.052494 0
M  V30 13 H 0.271202 -0.284769 3.217073 0
M  V30 14 H 3.534177 0.102732 1.577972 0
M  V30 15 H 2.695004 -0.067426 3.138088 0
M  V30 16 H 2.549972 -2.059715 0.972789 0
M  V30 17 H 2.159163 -2.242866 2.652144 0
M  V30 18 H 3.825406 -2.068954 2.151126 0
M  V30 19 H 2.303881 0.295662 -0.549323 0
M  V30 20 H 0.094797 0.886724 -1.584492 0
M  V30 21 H -1.535170 2.095159 -1.843684 0
M  V30 22 H -3.310694 1.641877 -2.001144 0
M  V30 23 H -1.935989 0.419469 -2.282965 0
M  V30 END ATOM
M  V30 BEGIN BOND
M  V30 1 1 1 2
M  V30 2 2 2 3
M  V30 3 1 3 4
M  V30 4 1 4 5
M  V30 5 1 5 6
M  V30 6 2 4 7
M  V30 7 1 7 8
M  V30 8 2 8 9
M  V30 9 1 9 10
M  V30 10 1 10 11
M  V30 11 1 9 2
M  V30 12 1 1 12
M  V30 13 1 3 13
M  V30 14 1 5 14
M  V30 15 1 5 15
M  V30 16 1 6 16
M  V30 17 1 6 17
M  V30 18 1 6 18
M  V30 19 1 7 19
M  V30 20 1 8 20
M  V30 21 1 11 21
M  V30 22 1 11 22
M  V30 23 1 11 23
M  V30 END BOND
M  V30 END CTAB
M  END
>  <Dataset>  (140) 
PDB

>  <Ligand_Instance>  (140) 
5N1M_BJK_A_403

>  <PDB_ID>  (140) 
5N1M

>  <Standardized_SMILES>  (140) 
[H]OC1=C([H])C(C([H])([H])[N+]([H])([H])[H])=C([H])C([H])=C1OC([H])([H])[H]

>  <Name>  (140) 
(4-methoxy-3-oxidanyl-phenyl)methylazanium

>  <Pocket>  (140) 
A

>  <ATP_Site>  (140) 
1.0

>  <Peripheral>  (140) 
0.0

>  <Num_H_Atoms_ProtBoundConf>  (140) 
12.0

>  <Num_Resolved_Atoms>  (140) 
11.0

>  <Num_Not_Resolved_Atoms>  (140) 
0.0

$$$$
BJN
     RDKit          3D

  0  0  0  0  0  0  0  0  0  0999 V3000
M  V30 BEGIN CTAB
M  V30 COUNTS 20 20 0 0 0
M  V30 BEGIN ATOM
M  V30 1 C -0.859907 -2.690730 -0.158893 0
M  V30 2 N -0.409891 -2.682270 1.117583 0
M  V30 3 C 0.003864 -1.516694 1.689563 0
M  V30 4 C -0.020246 -0.322479 1.000390 0
M  V30 5 C 0.442605 0.906046 1.679536 0
M  V30 6 C 1.925993 1.140412 1.482619 0
M  V30 7 N 2.289774 1.281306 0.104973 0 CHG=1 VAL=4
M  V30 8 C -0.470925 -0.279500 -0.304694 0
M  V30 9 C -0.877611 -1.477722 -0.839610 0
M  V30 10 H -1.180099 -3.612153 -0.591437 0
M  V30 11 H 0.352773 -1.578074 2.714492 0
M  V30 12 H 0.285114 0.887689 2.776456 0
M  V30 13 H -0.094738 1.788192 1.298930 0
M  V30 14 H 2.182972 2.089140 1.992142 0
M  V30 15 H 2.520180 0.304840 1.932211 0
M  V30 16 H 3.332822 1.213688 0.051315 0
M  V30 17 H 1.866947 0.564117 -0.536304 0
M  V30 18 H 2.021257 2.220074 -0.284848 0
M  V30 19 H -0.506670 0.636887 -0.882547 0
M  V30 20 H -1.244120 -1.543888 -1.848441 0
M  V30 END ATOM
M  V30 BEGIN BOND
M  V30 1 2 1 2
M  V30 2 1 2 3
M  V30 3 2 3 4
M  V30 4 1 4 5
M  V30 5 1 5 6
M  V30 6 1 6 7
M  V30 7 1 4 8
M  V30 8 2 8 9
M  V30 9 1 9 1
M  V30 10 1 1 10
M  V30 11 1 3 11
M  V30 12 1 5 12
M  V30 13 1 5 13
M  V30 14 1 6 14
M  V30 15 1 6 15
M  V30 16 1 7 16
M  V30 17 1 7 17
M  V30 18 1 7 18
M  V30 19 1 8 19
M  V30 20 1 9 20
M  V30 END BOND
M  V30 END CTAB
M  END
>  <Dataset>  (141) 
PDB

>  <Ligand_Instance>  (141) 
5N3B_BJN_A_402

>  <PDB_ID>  (141) 
5N3B

>  <Standardized_SMILES>  (141) 
[H]C1=NC([H])=C(C([H])([H])C([H])([H])[N+]([H])([H])[H])C([H])=C1[H]

>  <Name>  (141) 
2-pyridin-3-ylethylazanium

>  <Pocket>  (141) 
A

>  <ATP_Site>  (141) 
1.0

>  <Peripheral>  (141) 
0.0

>  <Num_H_Atoms_ProtBoundConf>  (141) 
11.0

>  <Num_Resolved_Atoms>  (141) 
9.0

>  <Num_Not_Resolved_Atoms>  (141) 
0.0

$$$$
BJQ
     RDKit          3D

  0  0  0  0  0  0  0  0  0  0999 V3000
M  V30 BEGIN CTAB
M  V30 COUNTS 27 27 0 0 0
M  V30 BEGIN ATOM
M  V30 1 C -0.046797 1.130728 3.679809 0
M  V30 2 C 0.676199 -0.063011 3.775524 0
M  V30 3 C 1.231059 -0.637066 2.636182 0
M  V30 4 C 1.090364 -0.054223 1.374732 0
M  V30 5 C 1.746813 -0.797495 0.297442 0
M  V30 6 C 0.861938 -1.839632 -0.303950 0 CFG=1
M  V30 7 C -0.388337 -1.314429 -0.901953 0
M  V30 8 O -0.817973 -1.478846 -2.073586 0
M  V30 9 O -1.354891 -0.533770 -0.311653 0
M  V30 10 C -2.511541 -0.070378 -0.925371 0
M  V30 11 N 1.583984 -2.672573 -1.250816 0 CHG=1 VAL=4
M  V30 12 C 0.381121 1.105426 1.322713 0
M  V30 13 C -0.165224 1.673493 2.433848 0
M  V30 14 H -0.475018 1.571661 4.566041 0
M  V30 15 H 0.769861 -0.491553 4.758984 0
M  V30 16 H 1.775643 -1.568146 2.821497 0
M  V30 17 H 2.684245 -1.290191 0.646432 0
M  V30 18 H 2.002221 -0.060476 -0.512186 0
M  V30 19 H 0.561899 -2.521368 0.544944 0
M  V30 20 H -2.593966 -0.265084 -2.010079 0
M  V30 21 H -2.530248 1.043361 -0.825282 0
M  V30 22 H -3.451751 -0.430302 -0.467236 0
M  V30 23 H 1.841417 -3.606268 -0.836136 0
M  V30 24 H 2.474111 -2.247203 -1.579399 0
M  V30 25 H 0.935262 -2.870926 -2.055526 0
M  V30 26 H 0.289304 1.541618 0.335113 0
M  V30 27 H -0.724034 2.602290 2.338147 0
M  V30 END ATOM
M  V30 BEGIN BOND
M  V30 1 2 1 2
M  V30 2 1 2 3
M  V30 3 2 3 4
M  V30 4 1 4 5
M  V30 5 1 5 6
M  V30 6 1 6 7
M  V30 7 2 7 8
M  V30 8 1 7 9
M  V30 9 1 9 10
M  V30 10 1 6 11
M  V30 11 1 4 12
M  V30 12 2 12 13
M  V30 13 1 13 1
M  V30 14 1 1 14
M  V30 15 1 2 15
M  V30 16 1 3 16
M  V30 17 1 5 17
M  V30 18 1 5 18
M  V30 19 1 6 19 CFG=1
M  V30 20 1 10 20
M  V30 21 1 10 21
M  V30 22 1 10 22
M  V30 23 1 11 23
M  V30 24 1 11 24
M  V30 25 1 11 25
M  V30 26 1 12 26
M  V30 27 1 13 27
M  V30 END BOND
M  V30 END CTAB
M  END
>  <Dataset>  (142) 
PDB

>  <Ligand_Instance>  (142) 
5N3I_BJQ_A_404

>  <PDB_ID>  (142) 
5N3I

>  <Standardized_SMILES>  (142) 
[H]C1=C([H])C([H])=C(C([H])([H])[C@@]([H])(C(=O)OC([H])([H])[H])[N+]([H])([H])[H])C([H])=C1[H]

>  <Name>  (142) 
[(2~{S})-1-methoxy-1-oxidanylidene-3-phenyl-propan-2-yl]azanium

>  <Pocket>  (142) 
X

>  <ATP_Site>  (142) 
0.0

>  <Peripheral>  (142) 
1.0

>  <Num_H_Atoms_ProtBoundConf>  (142) 
14.0

>  <Num_Resolved_Atoms>  (142) 
13.0

>  <Num_Not_Resolved_Atoms>  (142) 
0.0

$$$$
BVZ
     RDKit          3D

  0  0  0  0  0  0  0  0  0  0999 V3000
M  V30 BEGIN CTAB
M  V30 COUNTS 56 59 0 0 0
M  V30 BEGIN ATOM
M  V30 1 R 1.632751 1.840608 3.020558 0 MASS=1 VAL=1
M  V30 2 B 2.051338 1.093487 3.251980 0 CHG=-1 VAL=4
M  V30 3 O 2.635072 1.136432 4.578337 0
M  V30 4 O 1.007631 0.031659 3.230515 0
M  V30 5 C 3.100584 0.648892 2.152589 0
M  V30 6 C 4.019694 -0.333249 2.477131 0
M  V30 7 C 4.921765 -0.710739 1.521190 0
M  V30 8 C 4.960318 -0.158909 0.245800 0
M  V30 9 C 4.004781 0.815976 0.008872 0
M  V30 10 C 3.064485 1.252095 0.912672 0
M  V30 11 C 2.106779 2.292644 0.538933 0
M  V30 12 N 0.760899 1.788131 0.263449 0 CFG=2 CHG=1 VAL=4
M  V30 13 C 0.734975 0.382697 -0.042103 0
M  V30 14 C -0.648731 -0.116518 0.399802 0
M  V30 15 N -1.535184 -0.081664 -0.667774 0
M  V30 16 S -1.911779 -1.619949 -1.301230 0
M  V30 17 O -0.576475 -2.193320 -1.681102 0
M  V30 18 O -2.822570 -1.483284 -2.484165 0
M  V30 19 C -2.677690 -2.492442 -0.001932 0
M  V30 20 C -3.000033 -2.098594 1.277923 0
M  V30 21 C -3.620246 -2.943233 2.170793 0
M  V30 22 C -3.948548 -4.238223 1.812240 0
M  V30 23 C -3.634405 -4.648211 0.538710 0
M  V30 24 C -3.991651 -5.951597 0.252011 0
M  V30 25 N -3.711191 -6.419713 -0.985298 0
M  V30 26 C -3.106250 -5.656208 -1.915064 0
M  V30 27 C -2.764508 -4.369279 -1.601385 0
M  V30 28 C -3.006230 -3.797056 -0.369584 0
M  V30 29 C -1.693523 1.013544 -1.476255 0
M  V30 30 C -0.550563 1.883219 -1.842969 0
M  V30 31 C 0.097892 2.601624 -0.700461 0
M  V30 32 H 2.038996 0.690794 5.218400 0
M  V30 33 H 1.470453 -0.843329 3.164389 0
M  V30 34 H 4.033405 -0.795120 3.453624 0
M  V30 35 H 5.650122 -1.486980 1.774161 0
M  V30 36 H 5.673288 -0.454720 -0.515428 0
M  V30 37 H 4.001724 1.273124 -0.978628 0
M  V30 38 H 2.447252 2.802887 -0.385525 0
M  V30 39 H 2.107214 3.082850 1.321009 0
M  V30 40 H 0.259609 1.945585 1.191738 0
M  V30 41 H 0.807880 0.150674 -1.110138 0
M  V30 42 H 1.534667 -0.190102 0.447329 0
M  V30 43 H -0.469485 -1.177858 0.721918 0
M  V30 44 H -0.970371 0.491932 1.250803 0
M  V30 45 H -2.723361 -1.089196 1.481261 0
M  V30 46 H -3.820449 -2.516579 3.144578 0
M  V30 47 H -4.426390 -4.856307 2.533415 0
M  V30 48 H -4.478310 -6.596855 0.969214 0
M  V30 49 H -2.898064 -6.049958 -2.878568 0
M  V30 50 H -2.277979 -3.749213 -2.342292 0
M  V30 51 H -2.481237 1.686404 -1.052159 0
M  V30 52 H -2.148659 0.670929 -2.451404 0
M  V30 53 H -1.014132 2.715185 -2.458189 0
M  V30 54 H 0.180612 1.444370 -2.553641 0
M  V30 55 H -0.642951 3.299185 -0.239026 0
M  V30 56 H 0.870283 3.277616 -1.168180 0
M  V30 END ATOM
M  V30 BEGIN BOND
M  V30 1 1 1 2
M  V30 2 1 2 3
M  V30 3 1 2 4
M  V30 4 1 2 5
M  V30 5 2 5 6
M  V30 6 1 6 7
M  V30 7 2 7 8
M  V30 8 1 8 9
M  V30 9 2 9 10
M  V30 10 1 10 11
M  V30 11 1 11 12
M  V30 12 1 12 13
M  V30 13 1 13 14
M  V30 14 1 14 15
M  V30 15 1 15 16
M  V30 16 2 16 17
M  V30 17 2 16 18
M  V30 18 1 16 19
M  V30 19 2 19 20
M  V30 20 1 20 21
M  V30 21 2 21 22
M  V30 22 1 22 23
M  V30 23 2 23 24
M  V30 24 1 24 25
M  V30 25 2 25 26
M  V30 26 1 26 27
M  V30 27 2 27 28
M  V30 28 1 15 29
M  V30 29 1 29 30
M  V30 30 1 30 31
M  V30 31 1 10 5
M  V30 32 1 31 12
M  V30 33 1 28 19
M  V30 34 1 28 23
M  V30 35 1 3 32
M  V30 36 1 4 33
M  V30 37 1 6 34
M  V30 38 1 7 35
M  V30 39 1 8 36
M  V30 40 1 9 37
M  V30 41 1 11 38
M  V30 42 1 11 39
M  V30 43 1 12 40 CFG=1
M  V30 44 1 13 41
M  V30 45 1 13 42
M  V30 46 1 14 43
M  V30 47 1 14 44
M  V30 48 1 20 45
M  V30 49 1 21 46
M  V30 50 1 22 47
M  V30 51 1 24 48
M  V30 52 1 26 49
M  V30 53 1 27 50
M  V30 54 1 29 51
M  V30 55 1 29 52
M  V30 56 1 30 53
M  V30 57 1 30 54
M  V30 58 1 31 55
M  V30 59 1 31 56
M  V30 END BOND
M  V30 END CTAB
M  END
>  <Dataset>  (143) 
PDB

>  <Ligand_Instance>  (143) 
6ERT_BVZ_A_401

>  <PDB_ID>  (143) 
6ERT

>  <Standardized_SMILES>  (143) 
[1*][B-](O[H])(O[H])C1=C([H])C([H])=C([H])C([H])=C1C([H])([H])[N@+]1([H])C([H])([H])C([H])([H])N(S(=O)(=O)C2=C([H])C([H])=C([H])C3=C([H])N=C([H])C([H])=C32)C([H])([H])C([H])([H])C1([H])[H]

>  <Name>  (143) 
[2-[(4-isoquinolin-5-ylsulfonyl-1,4-diazepan-1-yl)methyl]phenyl]-tris(oxidanyl)boranuide

>  <Pocket>  (143) 
A

>  <ATP_Site>  (143) 
1.0

>  <Peripheral>  (143) 
0.0

>  <Num_H_Atoms_ProtBoundConf>  (143) 
25.0

>  <Num_Resolved_Atoms>  (143) 
30.0

>  <Num_Not_Resolved_Atoms>  (143) 
1.0

$$$$
CDT
     RDKit          3D

  0  0  0  0  0  0  0  0  0  0999 V3000
M  V30 BEGIN CTAB
M  V30 COUNTS 23 22 0 0 0
M  V30 BEGIN ATOM
M  V30 1 N 2.380454 3.521728 -0.674509 0
M  V30 2 C 1.337237 2.754240 -0.083584 0
M  V30 3 O 0.445815 3.238760 0.639263 0
M  V30 4 N 1.355732 1.372514 -0.360698 0
M  V30 5 C 0.353699 0.433070 0.168225 0 CFG=1
M  V30 6 C -0.288324 -0.123932 -1.073978 0
M  V30 7 O -0.008961 -1.321726 -1.397109 0
M  V30 8 O -1.136132 0.744905 -1.752209 0 CHG=-1 VAL=1
M  V30 9 C 1.132272 -0.598922 0.920411 0
M  V30 10 C 0.294762 -1.674236 1.554038 0
M  V30 11 S -0.890977 -1.052888 2.743329 0
M  V30 12 C -1.849465 -2.420392 3.449840 0
M  V30 13 H 2.017539 4.187957 -1.391743 0
M  V30 14 H 3.418882 3.543182 -0.528495 0
M  V30 15 H 2.087088 0.914514 -0.965267 0
M  V30 16 H -0.371687 0.970613 0.783904 0
M  V30 17 H 1.741339 -0.076665 1.663171 0
M  V30 18 H 1.773641 -1.118356 0.157581 0
M  V30 19 H 1.004188 -2.355443 2.072986 0
M  V30 20 H -0.191955 -2.288620 0.775174 0
M  V30 21 H -1.441803 -2.622681 4.473207 0
M  V30 22 H -2.912817 -2.186535 3.553016 0
M  V30 23 H -1.735881 -3.364245 2.882560 0
M  V30 END ATOM
M  V30 BEGIN BOND
M  V30 1 1 1 2
M  V30 2 2 2 3
M  V30 3 1 2 4
M  V30 4 1 4 5
M  V30 5 1 5 6
M  V30 6 2 6 7
M  V30 7 1 6 8
M  V30 8 1 5 9
M  V30 9 1 9 10
M  V30 10 1 10 11
M  V30 11 1 11 12
M  V30 12 1 1 13
M  V30 13 1 1 14
M  V30 14 1 4 15
M  V30 15 1 5 16 CFG=1
M  V30 16 1 9 17
M  V30 17 1 9 18
M  V30 18 1 10 19
M  V30 19 1 10 20
M  V30 20 1 12 21
M  V30 21 1 12 22
M  V30 22 1 12 23
M  V30 END BOND
M  V30 END CTAB
M  END
>  <Dataset>  (144) 
PDB

>  <Ligand_Instance>  (144) 
5N3R_CDT_A_401

>  <PDB_ID>  (144) 
5N3R

>  <Standardized_SMILES>  (144) 
[H]N([H])C(=O)N([H])[C@@]([H])(C(=O)[O-])C([H])([H])C([H])([H])SC([H])([H])[H]

>  <Name>  (144) 
4-METHYLSULFANYL-2-UREIDO-BUTYRIC ACID

>  <Pocket>  (144) 
F

>  <ATP_Site>  (144) 
0.0

>  <Peripheral>  (144) 
1.0

>  <Num_H_Atoms_ProtBoundConf>  (144) 
11.0

>  <Num_Resolved_Atoms>  (144) 
12.0

>  <Num_Not_Resolved_Atoms>  (144) 
0.0

$$$$
E3Z
     RDKit          3D

  0  0  0  0  0  0  0  0  0  0999 V3000
M  V30 BEGIN CTAB
M  V30 COUNTS 44 46 0 0 0
M  V30 BEGIN ATOM
M  V30 1 C -3.720861 -1.561565 -0.972519 0
M  V30 2 N -3.003164 -1.864039 -2.086213 0
M  V30 3 C -1.661285 -1.819185 -2.027700 0
M  V30 4 N -0.824990 -2.117797 -3.135945 0
M  V30 5 C -0.340562 -1.210289 -4.117367 0
M  V30 6 C -0.717196 0.110214 -3.989573 0
M  V30 7 C -0.215023 0.950675 -4.975265 0
M  V30 8 C 0.600579 0.478344 -6.000247 0
M  V30 9 C 0.933395 -0.870899 -6.056001 0
M  V30 10 C 0.456999 -1.761151 -5.091803 0
M  V30 11 N -1.062067 -1.483952 -0.896156 0
M  V30 12 C -1.652344 -1.165956 0.262449 0
M  V30 13 N -1.064574 -0.801894 1.497451 0
M  V30 14 C 0.321244 -0.695633 1.771770 0
M  V30 15 C 0.757579 -0.331316 3.030814 0
M  V30 16 C 2.072940 -0.204107 3.384570 0
M  V30 17 N 2.563874 0.165538 4.659144 0
M  V30 18 C 1.872598 0.486973 5.854795 0
M  V30 19 O 0.617752 0.456959 5.846398 0
M  V30 20 C 2.459232 0.862677 7.143486 0
M  V30 21 C 1.297695 1.102799 8.104955 0
M  V30 22 C 3.031548 -0.452926 2.431833 0
M  V30 23 C 2.666283 -0.819624 1.159176 0
M  V30 24 C 1.338839 -0.928098 0.872711 0
M  V30 25 C -3.024768 -1.224710 0.157504 0
M  V30 26 Cl -4.032989 -0.850897 1.542798 0
M  V30 27 H -4.794791 -1.602176 -1.035712 0
M  V30 28 H -0.623541 -3.139472 -3.104490 0
M  V30 29 H -1.350737 0.435542 -3.180413 0
M  V30 30 H -0.475507 2.016850 -4.934821 0
M  V30 31 H 0.993493 1.123104 -6.767540 0
M  V30 32 H 1.564314 -1.274206 -6.836967 0
M  V30 33 H 0.698082 -2.806228 -5.110957 0
M  V30 34 H -1.720480 -0.591864 2.280539 0
M  V30 35 H 0.009724 -0.142425 3.755197 0
M  V30 36 H 3.595632 0.241270 4.847270 0
M  V30 37 H 3.129688 1.727580 7.099288 0
M  V30 38 H 3.013362 -0.010604 7.579039 0
M  V30 39 H 0.478151 0.384566 7.930028 0
M  V30 40 H 0.827053 2.109961 7.921946 0
M  V30 41 H 1.722623 1.003159 9.122033 0
M  V30 42 H 4.109480 -0.370066 2.645873 0
M  V30 43 H 3.442279 -1.008119 0.433920 0
M  V30 44 H 1.108327 -1.217833 -0.137713 0
M  V30 END ATOM
M  V30 BEGIN BOND
M  V30 1 2 1 2
M  V30 2 1 2 3
M  V30 3 1 3 4
M  V30 4 1 4 5
M  V30 5 2 5 6
M  V30 6 1 6 7
M  V30 7 2 7 8
M  V30 8 1 8 9
M  V30 9 2 9 10
M  V30 10 2 3 11
M  V30 11 1 11 12
M  V30 12 1 12 13
M  V30 13 1 13 14
M  V30 14 2 14 15
M  V30 15 1 15 16
M  V30 16 1 16 17
M  V30 17 1 17 18
M  V30 18 2 18 19
M  V30 19 1 18 20
M  V30 20 1 20 21
M  V30 21 2 16 22
M  V30 22 1 22 23
M  V30 23 2 23 24
M  V30 24 2 12 25
M  V30 25 1 25 26
M  V30 26 1 25 1
M  V30 27 1 10 5
M  V30 28 1 24 14
M  V30 29 1 1 27
M  V30 30 1 4 28
M  V30 31 1 6 29
M  V30 32 1 7 30
M  V30 33 1 8 31
M  V30 34 1 9 32
M  V30 35 1 10 33
M  V30 36 1 13 34
M  V30 37 1 15 35
M  V30 38 1 17 36
M  V30 39 1 20 37
M  V30 40 1 20 38
M  V30 41 1 21 39
M  V30 42 1 21 40
M  V30 43 1 21 41
M  V30 44 1 22 42
M  V30 45 1 23 43
M  V30 46 1 24 44
M  V30 END BOND
M  V30 END CTAB
M  END
>  <Dataset>  (145) 
PDB

>  <Ligand_Instance>  (145) 
6FRX_E3Z_A_401

>  <PDB_ID>  (145) 
6FRX

>  <Standardized_SMILES>  (145) 
[H]C1=NC(N([H])C2=C([H])C([H])=C([H])C([H])=C2[H])=NC(N([H])C2=C([H])C(N([H])C(=O)C([H])([H])C([H])([H])[H])=C([H])C([H])=C2[H])=C1Cl

>  <Name>  (145) 
~{N}-[3-[(5-chloranyl-2-phenylazanyl-pyrimidin-4-yl)amino]phenyl]prop-2-enamide

>  <Pocket>  (145) 
A

>  <ATP_Site>  (145) 
1.0

>  <Peripheral>  (145) 
0.0

>  <Num_H_Atoms_ProtBoundConf>  (145) 
18.0

>  <Num_Resolved_Atoms>  (145) 
26.0

>  <Num_Not_Resolved_Atoms>  (145) 
0.0

$$$$
E5E
     RDKit          3D

  0  0  0  0  0  0  0  0  0  0999 V3000
M  V30 BEGIN CTAB
M  V30 COUNTS 24 24 0 0 0
M  V30 BEGIN ATOM
M  V30 1 O 3.034360 2.788942 1.942693 0
M  V30 2 C 2.325610 1.633025 1.635752 0
M  V30 3 C 2.158017 0.675324 2.622146 0
M  V30 4 C 1.442410 -0.479389 2.293062 0
M  V30 5 C 0.908263 -0.675698 1.017512 0
M  V30 6 C 0.197748 -1.963483 0.909185 0 CFG=1
M  V30 7 O -0.615267 -2.153896 2.024284 0
M  V30 8 C -0.739395 -2.013509 -0.294390 0
M  V30 9 N -1.739006 -0.977906 -0.205369 0 CHG=1 VAL=4
M  V30 10 C 1.091890 0.296402 0.056240 0
M  V30 11 C 1.797203 1.437900 0.375329 0
M  V30 12 O 1.963700 2.396870 -0.616281 0
M  V30 13 H 2.546489 3.673544 1.899804 0
M  V30 14 H 2.575607 0.839679 3.602562 0
M  V30 15 H 1.361173 -1.177244 3.132663 0
M  V30 16 H 0.867924 -2.841485 0.872138 0
M  V30 17 H -0.983953 -1.267990 2.277763 0
M  V30 18 H -0.182425 -1.878674 -1.228676 0
M  V30 19 H -1.189384 -3.017283 -0.311442 0
M  V30 20 H -1.995559 -0.686997 -1.175073 0
M  V30 21 H -1.395614 -0.159777 0.344141 0
M  V30 22 H -2.587997 -1.365421 0.283583 0
M  V30 23 H 0.655682 0.068180 -0.880453 0
M  V30 24 H 1.354660 2.440628 -1.423161 0
M  V30 END ATOM
M  V30 BEGIN BOND
M  V30 1 1 1 2
M  V30 2 2 2 3
M  V30 3 1 3 4
M  V30 4 2 4 5
M  V30 5 1 5 6
M  V30 6 1 6 7
M  V30 7 1 6 8
M  V30 8 1 8 9
M  V30 9 1 5 10
M  V30 10 2 10 11
M  V30 11 1 11 12
M  V30 12 1 11 2
M  V30 13 1 1 13
M  V30 14 1 3 14
M  V30 15 1 4 15
M  V30 16 1 6 16 CFG=3
M  V30 17 1 7 17
M  V30 18 1 8 18
M  V30 19 1 8 19
M  V30 20 1 9 20
M  V30 21 1 9 21
M  V30 22 1 9 22
M  V30 23 1 10 23
M  V30 24 1 12 24
M  V30 END BOND
M  V30 END CTAB
M  END
>  <Dataset>  (146) 
PDB

>  <Ligand_Instance>  (146) 
5N3L_E5E_A_403

>  <PDB_ID>  (146) 
5N3L

>  <Standardized_SMILES>  (146) 
[H]OC1=C([H])C([H])=C([C@@]([H])(O[H])C([H])([H])[N+]([H])([H])[H])C([H])=C1O[H]

>  <Name>  (146) 
Noradrenaline

>  <Pocket>  (146) 
A

>  <ATP_Site>  (146) 
1.0

>  <Peripheral>  (146) 
0.0

>  <Num_H_Atoms_ProtBoundConf>  (146) 
12.0

>  <Num_Resolved_Atoms>  (146) 
12.0

>  <Num_Not_Resolved_Atoms>  (146) 
0.0

$$$$
E9Q
     RDKit          3D

  0  0  0  0  0  0  0  0  0  0999 V3000
M  V30 BEGIN CTAB
M  V30 COUNTS 24 25 0 0 0
M  V30 BEGIN ATOM
M  V30 1 N 3.079660 -0.379708 4.160629 0
M  V30 2 C 2.101551 0.087680 3.244866 0
M  V30 3 C 1.698570 -0.493411 2.042352 0
M  V30 4 C 2.268641 -1.717042 1.556612 0
M  V30 5 N 2.743866 -2.694181 1.174964 0
M  V30 6 C 0.720496 0.262554 1.434653 0
M  V30 7 N 0.050370 0.018806 0.210268 0
M  V30 8 C -0.963156 0.939490 -0.330661 0
M  V30 9 C -1.251590 0.387729 -1.721134 0
M  V30 10 C -1.084591 -1.092359 -1.449337 0
M  V30 11 C 0.217098 -1.104839 -0.687461 0
M  V30 12 N 0.557103 1.284134 2.287940 0
M  V30 13 N 1.352217 1.187753 3.334759 0
M  V30 14 H 4.117647 -0.246898 4.232050 0
M  V30 15 H 2.522888 -0.956056 4.845592 0
M  V30 16 H -0.491063 1.945133 -0.393091 0
M  V30 17 H -1.900983 0.909190 0.238380 0
M  V30 18 H -0.437345 0.702604 -2.371540 0
M  V30 19 H -2.272194 0.644210 -2.064450 0
M  V30 20 H -1.046220 -1.690707 -2.373491 0
M  V30 21 H -1.901735 -1.380544 -0.774334 0
M  V30 22 H 0.380464 -2.055513 -0.147298 0
M  V30 23 H 1.007041 -0.854854 -1.423594 0
M  V30 24 H 1.383403 1.888574 4.127336 0
M  V30 END ATOM
M  V30 BEGIN BOND
M  V30 1 1 1 2
M  V30 2 2 2 3
M  V30 3 1 3 4
M  V30 4 3 4 5
M  V30 5 1 3 6
M  V30 6 1 6 7
M  V30 7 1 7 8
M  V30 8 1 8 9
M  V30 9 1 9 10
M  V30 10 1 10 11
M  V30 11 2 6 12
M  V30 12 1 12 13
M  V30 13 1 13 2
M  V30 14 1 11 7
M  V30 15 1 1 14
M  V30 16 1 1 15
M  V30 17 1 8 16
M  V30 18 1 8 17
M  V30 19 1 9 18
M  V30 20 1 9 19
M  V30 21 1 10 20
M  V30 22 1 10 21
M  V30 23 1 11 22
M  V30 24 1 11 23
M  V30 25 1 13 24
M  V30 END BOND
M  V30 END CTAB
M  END
>  <Dataset>  (147) 
PDB

>  <Ligand_Instance>  (147) 
5N7P_E9Q_A_401

>  <PDB_ID>  (147) 
5N7P

>  <Standardized_SMILES>  (147) 
[H]N([H])C1=C(C#N)C(N2C([H])([H])C([H])([H])C([H])([H])C2([H])[H])=NN1[H]

>  <Name>  (147) 
5-azanyl-3-pyrrolidin-1-yl-1~{H}-pyrazole-4-carbonitrile

>  <Pocket>  (147) 
A

>  <ATP_Site>  (147) 
1.0

>  <Peripheral>  (147) 
0.0

>  <Num_H_Atoms_ProtBoundConf>  (147) 
11.0

>  <Num_Resolved_Atoms>  (147) 
13.0

>  <Num_Not_Resolved_Atoms>  (147) 
0.0

$$$$
EE4
     RDKit          3D

  0  0  0  0  0  0  0  0  0  0999 V3000
M  V30 BEGIN CTAB
M  V30 COUNTS 69 73 0 0 0
M  V30 BEGIN ATOM
M  V30 1 C 6.979733 4.315920 2.887234 0
M  V30 2 N 7.309761 4.944964 4.028818 0
M  V30 3 N 6.255555 5.625887 4.497568 0
M  V30 4 C 5.197025 5.452580 3.656875 0
M  V30 5 C 3.872351 5.858599 3.556085 0
M  V30 6 C 3.034192 5.488065 2.534341 0
M  V30 7 C 3.501435 4.658613 1.524815 0
M  V30 8 C 2.699854 4.209215 0.394721 0
M  V30 9 O 3.181488 3.393094 -0.447846 0
M  V30 10 N 1.386856 4.563141 0.060936 0
M  V30 11 C 0.625851 4.105180 -1.063596 0 CFG=2
M  V30 12 C 0.628429 5.272385 -2.046758 0
M  V30 13 N -0.498247 5.415504 -2.611693 0
M  V30 14 C -1.430327 4.409801 -2.131882 0
M  V30 15 C -0.823772 3.887195 -0.833406 0 CFG=1
M  V30 16 N -1.183196 2.486971 -0.763944 0
M  V30 17 C -2.098118 1.872713 0.153416 0
M  V30 18 O -2.668583 2.641507 1.004582 0
M  V30 19 C -2.378845 0.435204 0.132285 0
M  V30 20 C -1.725975 -0.468694 -0.711187 0
M  V30 21 C -2.089156 -1.792997 -0.605984 0
M  V30 22 C -3.049213 -2.327124 0.266287 0
M  V30 23 C -3.267701 -3.766500 0.274459 0
M  V30 24 O -4.467916 -4.014621 0.550345 0
M  V30 25 C -2.214400 -4.742806 -0.005549 0
M  V30 26 C -2.374308 -5.993710 -0.552994 0
M  V30 27 O -3.683561 -6.227718 -0.862438 0
M  V30 28 C -4.325887 -7.308401 -1.408316 0
M  V30 29 C -4.284734 -8.604575 -0.661060 0
M  V30 30 C -4.903391 -8.530200 0.721832 0
M  V30 31 C -1.296843 -6.814521 -0.720073 0
M  V30 32 C 0.014801 -6.468340 -0.359822 0
M  V30 33 C 0.161630 -5.193429 0.199396 0
M  V30 34 O 1.405341 -4.857296 0.552515 0
M  V30 35 C 2.657986 -5.322042 0.552684 0
M  V30 36 C -0.934546 -4.325802 0.382135 0
M  V30 37 F -0.534324 -3.160335 0.991678 0
M  V30 38 C -3.670359 -1.398729 1.079274 0
M  V30 39 C -3.328226 -0.062966 0.996894 0
M  V30 40 C 4.807119 4.244919 1.602315 0
M  V30 41 C 5.660780 4.614354 2.628375 0
M  V30 42 H 7.649387 3.687609 2.285254 0
M  V30 43 H 6.080489 6.237375 5.333998 0
M  V30 44 H 3.539061 6.509438 4.378515 0
M  V30 45 H 2.011499 5.821792 2.484127 0
M  V30 46 H 0.904110 5.253386 0.719843 0
M  V30 47 H 1.158572 3.288922 -1.590536 0
M  V30 48 H 1.485113 5.918371 -2.256814 0
M  V30 49 H -2.387956 4.892017 -1.939869 0
M  V30 50 H -1.483640 3.602842 -2.902644 0
M  V30 51 H -1.262173 4.371662 0.042346 0
M  V30 52 H -0.699090 1.906067 -1.480475 0
M  V30 53 H -0.981679 -0.084530 -1.390956 0
M  V30 54 H -1.523742 -2.405536 -1.328194 0
M  V30 55 H -3.852325 -7.515460 -2.405439 0
M  V30 56 H -5.394690 -7.052184 -1.644026 0
M  V30 57 H -4.896216 -9.384658 -1.215218 0
M  V30 58 H -3.308833 -9.062729 -0.531882 0
M  V30 59 H -4.963726 -7.461586 1.016642 0
M  V30 60 H -5.927779 -8.970469 0.702797 0
M  V30 61 H -4.272059 -9.021480 1.496498 0
M  V30 62 H -1.456991 -7.783421 -1.165381 0
M  V30 63 H 0.833031 -7.151348 -0.514264 0
M  V30 64 H 3.117429 -5.195054 -0.472950 0
M  V30 65 H 2.823518 -6.413777 0.763176 0
M  V30 66 H 3.381888 -4.714202 1.196475 0
M  V30 67 H -4.419853 -1.787148 1.759851 0
M  V30 68 H -3.879242 0.585435 1.688933 0
M  V30 69 H 5.186172 3.607884 0.831202 0
M  V30 END ATOM
M  V30 BEGIN BOND
M  V30 1 2 1 2
M  V30 2 1 2 3
M  V30 3 1 3 4
M  V30 4 2 4 5
M  V30 5 1 5 6
M  V30 6 2 6 7
M  V30 7 1 7 8
M  V30 8 2 8 9
M  V30 9 1 8 10
M  V30 10 1 10 11
M  V30 11 1 11 12
M  V30 12 2 12 13
M  V30 13 1 13 14
M  V30 14 1 14 15
M  V30 15 1 15 16
M  V30 16 1 16 17
M  V30 17 2 17 18
M  V30 18 1 17 19
M  V30 19 2 19 20
M  V30 20 1 20 21
M  V30 21 2 21 22
M  V30 22 1 22 23
M  V30 23 2 23 24
M  V30 24 1 23 25
M  V30 25 2 25 26
M  V30 26 1 26 27
M  V30 27 1 27 28
M  V30 28 1 28 29
M  V30 29 1 29 30
M  V30 30 1 26 31
M  V30 31 2 31 32
M  V30 32 1 32 33
M  V30 33 1 33 34
M  V30 34 1 34 35
M  V30 35 2 33 36
M  V30 36 1 36 37
M  V30 37 1 22 38
M  V30 38 2 38 39
M  V30 39 1 7 40
M  V30 40 2 40 41
M  V30 41 1 41 1
M  V30 42 1 41 4
M  V30 43 1 15 11
M  V30 44 1 39 19
M  V30 45 1 36 25
M  V30 46 1 1 42
M  V30 47 1 3 43
M  V30 48 1 5 44
M  V30 49 1 6 45
M  V30 50 1 10 46
M  V30 51 1 11 47 CFG=3
M  V30 52 1 12 48
M  V30 53 1 14 49
M  V30 54 1 14 50
M  V30 55 1 15 51 CFG=1
M  V30 56 1 16 52
M  V30 57 1 20 53
M  V30 58 1 21 54
M  V30 59 1 28 55
M  V30 60 1 28 56
M  V30 61 1 29 57
M  V30 62 1 29 58
M  V30 63 1 30 59
M  V30 64 1 30 60
M  V30 65 1 30 61
M  V30 66 1 31 62
M  V30 67 1 32 63
M  V30 68 1 35 64
M  V30 69 1 35 65
M  V30 70 1 35 66
M  V30 71 1 38 67
M  V30 72 1 39 68
M  V30 73 1 40 69
M  V30 END BOND
M  V30 END CTAB
M  END
>  <Dataset>  (148) 
PDB

>  <Ligand_Instance>  (148) 
6C0U_EE4_A_400

>  <PDB_ID>  (148) 
6C0U

>  <Standardized_SMILES>  (148) 
[H]C1=NN([H])C2=C([H])C([H])=C(C(=O)N([H])[C@]3([H])C([H])=NC([H])([H])[C@@]3([H])N([H])C(=O)C3=C([H])C([H])=C(C(=O)C4=C(OC([H])([H])C([H])([H])C([H])([H])[H])C([H])=C([H])C(OC([H])([H])[H])=C4F)C([H])=C3[H])C([H])=C12

>  <Name>  (148) 
N-[(3R,4R)-4-{[4-(2-fluoro-3-methoxy-6-propoxybenzene-1-carbonyl)benzene-1-carbonyl]amino}pyrrolidin-3-yl]-1H-indazole-5-carboxamide

>  <Pocket>  (148) 
A

>  <ATP_Site>  (148) 
1.0

>  <Peripheral>  (148) 
0.0

>  <Num_H_Atoms_ProtBoundConf>  (148) 
28.0

>  <Num_Resolved_Atoms>  (148) 
41.0

>  <Num_Not_Resolved_Atoms>  (148) 
0.0

$$$$
EMU
     RDKit          3D

  0  0  0  0  0  0  0  0  0  0999 V3000
M  V30 BEGIN CTAB
M  V30 COUNTS 28 30 0 0 0
M  V30 BEGIN ATOM
M  V30 1 C -1.010163 -1.836373 2.901597 0
M  V30 2 N -0.419120 -3.010930 3.194868 0
M  V30 3 C 0.845455 -3.226652 2.830837 0
M  V30 4 C 1.508786 -2.228016 2.160047 0
M  V30 5 N 2.757544 -2.664958 1.897213 0
M  V30 6 C 2.853422 -3.907182 2.398685 0
M  V30 7 N 1.698278 -4.250064 2.964241 0
M  V30 8 C 0.922091 -1.008708 1.845890 0
M  V30 9 N 1.633342 -0.001613 1.156083 0
M  V30 10 C 1.165058 1.299408 0.762992 0
M  V30 11 C 0.018351 1.229524 -0.165004 0
M  V30 12 C -1.333200 1.240908 0.081914 0
M  V30 13 C -2.235479 1.156256 -0.950998 0
M  V30 14 C -1.860916 1.057043 -2.269640 0
M  V30 15 C -0.517459 1.043793 -2.543468 0
M  V30 16 C 0.391463 1.129100 -1.500999 0
M  V30 17 N -0.344756 -0.886707 2.251189 0
M  V30 18 H -2.038174 -1.688032 3.209194 0
M  V30 19 H 3.678417 -4.630266 2.412532 0
M  V30 20 H 1.403897 -5.124619 3.448109 0
M  V30 21 H 2.622598 -0.227461 0.897934 0
M  V30 22 H 0.800768 1.794675 1.694151 0
M  V30 23 H 1.972568 1.915422 0.328464 0
M  V30 24 H -1.579552 1.324969 1.129369 0
M  V30 25 H -3.262409 1.176063 -0.615902 0
M  V30 26 H -2.666659 0.996396 -2.997563 0
M  V30 27 H -0.228534 0.966250 -3.575152 0
M  V30 28 H 1.429987 1.108784 -1.843973 0
M  V30 END ATOM
M  V30 BEGIN BOND
M  V30 1 2 1 2
M  V30 2 1 2 3
M  V30 3 2 3 4
M  V30 4 1 4 5
M  V30 5 2 5 6
M  V30 6 1 6 7
M  V30 7 1 4 8
M  V30 8 1 8 9
M  V30 9 1 9 10
M  V30 10 1 10 11
M  V30 11 2 11 12
M  V30 12 1 12 13
M  V30 13 2 13 14
M  V30 14 1 14 15
M  V30 15 2 15 16
M  V30 16 2 8 17
M  V30 17 1 17 1
M  V30 18 1 7 3
M  V30 19 1 16 11
M  V30 20 1 1 18
M  V30 21 1 6 19
M  V30 22 1 7 20
M  V30 23 1 9 21
M  V30 24 1 10 22
M  V30 25 1 10 23
M  V30 26 1 12 24
M  V30 27 1 13 25
M  V30 28 1 14 26
M  V30 29 1 15 27
M  V30 30 1 16 28
M  V30 END BOND
M  V30 END CTAB
M  END
>  <Dataset>  (149) 
PDB

>  <Ligand_Instance>  (149) 
4YXS_EMU_A_401

>  <PDB_ID>  (149) 
4YXS

>  <Standardized_SMILES>  (149) 
[H]C1=NC2=C(N=C([H])N2[H])C(N([H])C([H])([H])C2=C([H])C([H])=C([H])C([H])=C2[H])=N1

>  <Name>  (149) 
N-BENZYL-9H-PURIN-6-AMINE

>  <Pocket>  (149) 
A

>  <ATP_Site>  (149) 
1.0

>  <Peripheral>  (149) 
0.0

>  <Num_H_Atoms_ProtBoundConf>  (149) 
11.0

>  <Num_Resolved_Atoms>  (149) 
17.0

>  <Num_Not_Resolved_Atoms>  (149) 
0.0

$$$$
F05
     RDKit          3D

  0  0  0  0  0  0  0  0  0  0999 V3000
M  V30 BEGIN CTAB
M  V30 COUNTS 18 19 0 0 0
M  V30 BEGIN ATOM
M  V30 1 C 1.193926 -0.681261 3.110954 0
M  V30 2 C 0.685394 -1.833489 2.505202 0
M  V30 3 C 0.429212 -1.790635 1.149941 0
M  V30 4 C 0.665074 -0.651574 0.412212 0
M  V30 5 C 1.167595 0.453789 1.066817 0
M  V30 6 C 1.446063 0.482000 2.413974 0
M  V30 7 C 1.296162 1.458800 0.017557 0
M  V30 8 N 1.768670 2.796724 0.129966 0
M  V30 9 N 0.925220 1.044312 -1.141978 0
M  V30 10 C 0.476150 -0.347382 -1.046455 0
M  V30 11 H 1.384068 -0.744492 4.169814 0
M  V30 12 H 0.506721 -2.718496 3.101303 0
M  V30 13 H 0.028260 -2.689169 0.655576 0
M  V30 14 H 1.839511 1.373501 2.882605 0
M  V30 15 H 1.270305 3.657411 0.505376 0
M  V30 16 H 2.564206 3.418624 -0.035342 0
M  V30 17 H -0.586577 -0.404412 -1.288803 0
M  V30 18 H 1.128016 -1.000859 -1.649263 0
M  V30 END ATOM
M  V30 BEGIN BOND
M  V30 1 2 1 2
M  V30 2 1 2 3
M  V30 3 2 3 4
M  V30 4 1 4 5
M  V30 5 2 5 6
M  V30 6 1 5 7
M  V30 7 1 7 8
M  V30 8 2 7 9
M  V30 9 1 9 10
M  V30 10 1 6 1
M  V30 11 1 10 4
M  V30 12 1 1 11
M  V30 13 1 2 12
M  V30 14 1 3 13
M  V30 15 1 6 14
M  V30 16 1 8 15
M  V30 17 1 8 16
M  V30 18 1 10 17
M  V30 19 1 10 18
M  V30 END BOND
M  V30 END CTAB
M  END
>  <Dataset>  (150) 
PDB

>  <Ligand_Instance>  (150) 
5N36_F05_A_402

>  <PDB_ID>  (150) 
5N36

>  <Standardized_SMILES>  (150) 
[H]C1=C([H])C([H])=C2C(=C1[H])C(N([H])[H])=NC2([H])[H]

>  <Name>  (150) 
1H-isoindol-3-amine

>  <Pocket>  (150) 
A

>  <ATP_Site>  (150) 
1.0

>  <Peripheral>  (150) 
0.0

>  <Num_H_Atoms_ProtBoundConf>  (150) 
8.0

>  <Num_Resolved_Atoms>  (150) 
10.0

>  <Num_Not_Resolved_Atoms>  (150) 
0.0

$$$$
G96
     RDKit          3D

  0  0  0  0  0  0  0  0  0  0999 V3000
M  V30 BEGIN CTAB
M  V30 COUNTS 62 65 0 0 0
M  V30 BEGIN ATOM
M  V30 1 O 2.847523 -4.541758 0.128419 0
M  V30 2 C 2.484092 -4.228718 1.436020 0
M  V30 3 C 1.777152 -2.928251 1.331344 0
M  V30 4 C 1.191622 -1.873954 1.260112 0
M  V30 5 C 0.490109 -0.621439 1.196098 0
M  V30 6 C 1.187014 0.555111 1.240014 0
M  V30 7 N 2.498664 0.746099 1.340189 0
M  V30 8 C 2.819483 2.047835 1.355448 0
M  V30 9 C 4.201865 2.454144 1.462802 0
M  V30 10 N 5.237628 1.603464 1.505854 0
M  V30 11 O 6.374373 2.201108 1.579286 0
M  V30 12 N 6.166617 3.506062 1.590348 0
M  V30 13 C 4.814205 3.653171 1.518211 0
M  V30 14 N 4.348998 4.957844 1.538109 0
M  V30 15 N 1.639651 2.657376 1.257574 0
M  V30 16 C 1.380859 4.056667 1.178690 0
M  V30 17 C 1.268320 4.678825 2.549397 0
M  V30 18 C 0.608349 1.796523 1.185507 0
M  V30 19 C -0.758827 1.861377 1.080087 0
M  V30 20 C -1.490153 0.673777 1.033646 0
M  V30 21 O -2.863634 0.770187 0.927530 0
M  V30 22 C -3.719676 -0.332675 0.870872 0
M  V30 23 C -3.451027 -1.248959 -0.311398 0 CFG=1
M  V30 24 C -4.490529 -2.344889 -0.287067 0
M  V30 25 C -4.315808 -3.300803 -1.408831 0
M  V30 26 C -4.951169 -3.084421 -2.614146 0
M  V30 27 C -4.829006 -3.935650 -3.695172 0
M  V30 28 C -4.016930 -5.039233 -3.495633 0
M  V30 29 C -3.346342 -5.331416 -2.326933 0
M  V30 30 C -3.521852 -4.422888 -1.283627 0
M  V30 31 N -3.612802 -0.524494 -1.558035 0 CHG=1 VAL=4
M  V30 32 N -0.858340 -0.528355 1.091876 0
M  V30 33 C 3.691656 -4.082997 2.335488 0
M  V30 34 C 1.575951 -5.271935 2.052889 0
M  V30 35 H 2.762416 -5.522797 0.033621 0
M  V30 36 H 3.837591 5.796980 1.842789 0
M  V30 37 H 4.621281 5.677577 0.821659 0
M  V30 38 H 2.087910 4.557885 0.507111 0
M  V30 39 H 0.384445 4.243374 0.625717 0
M  V30 40 H 0.232482 4.566012 2.965961 0
M  V30 41 H 1.920334 4.172217 3.290134 0
M  V30 42 H 1.552503 5.760059 2.569621 0
M  V30 43 H -1.182374 2.855276 1.039453 0
M  V30 44 H -4.758510 0.046764 0.724569 0
M  V30 45 H -3.709880 -0.866961 1.819898 0
M  V30 46 H -2.430279 -1.648192 -0.313540 0
M  V30 47 H -4.378065 -2.909693 0.645085 0
M  V30 48 H -5.480418 -1.854978 -0.312850 0
M  V30 49 H -5.582889 -2.218087 -2.756825 0
M  V30 50 H -5.325096 -3.770746 -4.642774 0
M  V30 51 H -3.886441 -5.747289 -4.324170 0
M  V30 52 H -2.727385 -6.215524 -2.244603 0
M  V30 53 H -3.000034 -4.635580 -0.350374 0
M  V30 54 H -3.353054 -1.187398 -2.323451 0
M  V30 55 H -3.006805 0.315864 -1.588470 0
M  V30 56 H -4.630197 -0.292793 -1.683568 0
M  V30 57 H 4.618728 -3.875660 1.749892 0
M  V30 58 H 3.791516 -4.965728 2.972258 0
M  V30 59 H 3.542057 -3.172313 2.952780 0
M  V30 60 H 1.040226 -5.833267 1.244862 0
M  V30 61 H 0.766698 -4.735916 2.613821 0
M  V30 62 H 2.114023 -5.938058 2.740134 0
M  V30 END ATOM
M  V30 BEGIN BOND
M  V30 1 1 1 2
M  V30 2 1 2 3
M  V30 3 3 3 4
M  V30 4 1 4 5
M  V30 5 2 5 6
M  V30 6 1 6 7
M  V30 7 2 7 8
M  V30 8 1 8 9
M  V30 9 2 9 10
M  V30 10 1 10 11
M  V30 11 1 11 12
M  V30 12 2 12 13
M  V30 13 1 13 14
M  V30 14 1 8 15
M  V30 15 1 15 16
M  V30 16 1 16 17
M  V30 17 1 15 18
M  V30 18 2 18 19
M  V30 19 1 19 20
M  V30 20 1 20 21
M  V30 21 1 21 22
M  V30 22 1 22 23
M  V30 23 1 23 24
M  V30 24 1 24 25
M  V30 25 2 25 26
M  V30 26 1 26 27
M  V30 27 2 27 28
M  V30 28 1 28 29
M  V30 29 2 29 30
M  V30 30 1 23 31
M  V30 31 2 20 32
M  V30 32 1 2 33
M  V30 33 1 2 34
M  V30 34 1 32 5
M  V30 35 1 18 6
M  V30 36 1 30 25
M  V30 37 1 13 9
M  V30 38 1 1 35
M  V30 39 1 14 36
M  V30 40 1 14 37
M  V30 41 1 16 38
M  V30 42 1 16 39
M  V30 43 1 17 40
M  V30 44 1 17 41
M  V30 45 1 17 42
M  V30 46 1 19 43
M  V30 47 1 22 44
M  V30 48 1 22 45
M  V30 49 1 23 46 CFG=1
M  V30 50 1 24 47
M  V30 51 1 24 48
M  V30 52 1 26 49
M  V30 53 1 27 50
M  V30 54 1 28 51
M  V30 55 1 29 52
M  V30 56 1 30 53
M  V30 57 1 31 54
M  V30 58 1 31 55
M  V30 59 1 31 56
M  V30 60 1 33 57
M  V30 61 1 33 58
M  V30 62 1 33 59
M  V30 63 1 34 60
M  V30 64 1 34 61
M  V30 65 1 34 62
M  V30 END BOND
M  V30 END CTAB
M  END
>  <Dataset>  (151) 
PDB

>  <Ligand_Instance>  (151) 
3E8C_G96_A_351

>  <PDB_ID>  (151) 
3E8C

>  <Standardized_SMILES>  (151) 
[H]OC(C#CC1=C2N=C(C3=NON=C3N([H])[H])N(C([H])([H])C([H])([H])[H])C2=C([H])C(OC([H])([H])[C@@]([H])(C([H])([H])C2=C([H])C([H])=C([H])C([H])=C2[H])[N+]([H])([H])[H])=N1)(C([H])([H])[H])C([H])([H])[H]

>  <Name>  (151) 
4-[2-(4-amino-1,2,5-oxadiazol-3-yl)-6-{[(2R)-2-amino-3-phenylpropyl]oxy}-1-ethyl-1H-imidazo[4,5-c]pyridin-4-yl]-2-methylbut-3-yn-2-ol

>  <Pocket>  (151) 
A, B

>  <ATP_Site>  (151) 
1.0

>  <Peripheral>  (151) 
0.0

>  <Num_H_Atoms_ProtBoundConf>  (151) 
28.0

>  <Num_Resolved_Atoms>  (151) 
34.0

>  <Num_Not_Resolved_Atoms>  (151) 
0.0

$$$$
G96
     RDKit          3D

  0  0  0  0  0  0  0  0  0  0999 V3000
M  V30 BEGIN CTAB
M  V30 COUNTS 62 65 0 0 0
M  V30 BEGIN ATOM
M  V30 1 O 2.847523 -4.541758 0.128419 0
M  V30 2 C 2.484092 -4.228718 1.436020 0
M  V30 3 C 1.777152 -2.928251 1.331344 0
M  V30 4 C 1.191622 -1.873954 1.260112 0
M  V30 5 C 0.490109 -0.621439 1.196098 0
M  V30 6 C 1.187014 0.555111 1.240014 0
M  V30 7 N 2.498664 0.746099 1.340189 0
M  V30 8 C 2.819483 2.047835 1.355448 0
M  V30 9 C 4.201865 2.454144 1.462802 0
M  V30 10 N 5.237628 1.603464 1.505854 0
M  V30 11 O 6.374373 2.201108 1.579286 0
M  V30 12 N 6.166617 3.506062 1.590348 0
M  V30 13 C 4.814205 3.653171 1.518211 0
M  V30 14 N 4.348998 4.957844 1.538109 0
M  V30 15 N 1.639651 2.657376 1.257574 0
M  V30 16 C 1.380859 4.056667 1.178690 0
M  V30 17 C 1.268320 4.678825 2.549397 0
M  V30 18 C 0.608349 1.796523 1.185507 0
M  V30 19 C -0.758827 1.861377 1.080087 0
M  V30 20 C -1.490153 0.673777 1.033646 0
M  V30 21 O -2.863634 0.770187 0.927530 0
M  V30 22 C -3.719676 -0.332675 0.870872 0
M  V30 23 C -3.451027 -1.248959 -0.311398 0 CFG=1
M  V30 24 C -4.490529 -2.344889 -0.287067 0
M  V30 25 C -4.315808 -3.300803 -1.408831 0
M  V30 26 C -4.951169 -3.084421 -2.614146 0
M  V30 27 C -4.829006 -3.935650 -3.695172 0
M  V30 28 C -4.016930 -5.039233 -3.495633 0
M  V30 29 C -3.346342 -5.331416 -2.326933 0
M  V30 30 C -3.521852 -4.422888 -1.283627 0
M  V30 31 N -3.612802 -0.524494 -1.558035 0 CHG=1 VAL=4
M  V30 32 N -0.858340 -0.528355 1.091876 0
M  V30 33 C 3.691656 -4.082997 2.335488 0
M  V30 34 C 1.575951 -5.271935 2.052889 0
M  V30 35 H 2.762416 -5.522797 0.033621 0
M  V30 36 H 3.837591 5.796980 1.842789 0
M  V30 37 H 4.621281 5.677577 0.821659 0
M  V30 38 H 2.087910 4.557885 0.507111 0
M  V30 39 H 0.384445 4.243374 0.625717 0
M  V30 40 H 0.232482 4.566012 2.965961 0
M  V30 41 H 1.920334 4.172217 3.290134 0
M  V30 42 H 1.552503 5.760059 2.569621 0
M  V30 43 H -1.182374 2.855276 1.039453 0
M  V30 44 H -4.758510 0.046764 0.724569 0
M  V30 45 H -3.709880 -0.866961 1.819898 0
M  V30 46 H -2.430279 -1.648192 -0.313540 0
M  V30 47 H -4.378065 -2.909693 0.645085 0
M  V30 48 H -5.480418 -1.854978 -0.312850 0
M  V30 49 H -5.582889 -2.218087 -2.756825 0
M  V30 50 H -5.325096 -3.770746 -4.642774 0
M  V30 51 H -3.886441 -5.747289 -4.324170 0
M  V30 52 H -2.727385 -6.215524 -2.244603 0
M  V30 53 H -3.000034 -4.635580 -0.350374 0
M  V30 54 H -3.353054 -1.187398 -2.323451 0
M  V30 55 H -3.006805 0.315864 -1.588470 0
M  V30 56 H -4.630197 -0.292793 -1.683568 0
M  V30 57 H 4.618728 -3.875660 1.749892 0
M  V30 58 H 3.791516 -4.965728 2.972258 0
M  V30 59 H 3.542057 -3.172313 2.952780 0
M  V30 60 H 1.040226 -5.833267 1.244862 0
M  V30 61 H 0.766698 -4.735916 2.613821 0
M  V30 62 H 2.114023 -5.938058 2.740134 0
M  V30 END ATOM
M  V30 BEGIN BOND
M  V30 1 1 1 2
M  V30 2 1 2 3
M  V30 3 3 3 4
M  V30 4 1 4 5
M  V30 5 2 5 6
M  V30 6 1 6 7
M  V30 7 2 7 8
M  V30 8 1 8 9
M  V30 9 2 9 10
M  V30 10 1 10 11
M  V30 11 1 11 12
M  V30 12 2 12 13
M  V30 13 1 13 14
M  V30 14 1 8 15
M  V30 15 1 15 16
M  V30 16 1 16 17
M  V30 17 1 15 18
M  V30 18 2 18 19
M  V30 19 1 19 20
M  V30 20 1 20 21
M  V30 21 1 21 22
M  V30 22 1 22 23
M  V30 23 1 23 24
M  V30 24 1 24 25
M  V30 25 2 25 26
M  V30 26 1 26 27
M  V30 27 2 27 28
M  V30 28 1 28 29
M  V30 29 2 29 30
M  V30 30 1 23 31
M  V30 31 2 20 32
M  V30 32 1 2 33
M  V30 33 1 2 34
M  V30 34 1 32 5
M  V30 35 1 18 6
M  V30 36 1 30 25
M  V30 37 1 13 9
M  V30 38 1 1 35
M  V30 39 1 14 36
M  V30 40 1 14 37
M  V30 41 1 16 38
M  V30 42 1 16 39
M  V30 43 1 17 40
M  V30 44 1 17 41
M  V30 45 1 17 42
M  V30 46 1 19 43
M  V30 47 1 22 44
M  V30 48 1 22 45
M  V30 49 1 23 46 CFG=1
M  V30 50 1 24 47
M  V30 51 1 24 48
M  V30 52 1 26 49
M  V30 53 1 27 50
M  V30 54 1 28 51
M  V30 55 1 29 52
M  V30 56 1 30 53
M  V30 57 1 31 54
M  V30 58 1 31 55
M  V30 59 1 31 56
M  V30 60 1 33 57
M  V30 61 1 33 58
M  V30 62 1 33 59
M  V30 63 1 34 60
M  V30 64 1 34 61
M  V30 65 1 34 62
M  V30 END BOND
M  V30 END CTAB
M  END
>  <Dataset>  (152) 
PDB

>  <Ligand_Instance>  (152) 
3E8C_G96_B_351

>  <PDB_ID>  (152) 
3E8C

>  <Standardized_SMILES>  (152) 
[H]OC(C#CC1=C2N=C(C3=NON=C3N([H])[H])N(C([H])([H])C([H])([H])[H])C2=C([H])C(OC([H])([H])[C@@]([H])(C([H])([H])C2=C([H])C([H])=C([H])C([H])=C2[H])[N+]([H])([H])[H])=N1)(C([H])([H])[H])C([H])([H])[H]

>  <Name>  (152) 
4-[2-(4-amino-1,2,5-oxadiazol-3-yl)-6-{[(2R)-2-amino-3-phenylpropyl]oxy}-1-ethyl-1H-imidazo[4,5-c]pyridin-4-yl]-2-methylbut-3-yn-2-ol

>  <Pocket>  (152) 
A, B

>  <ATP_Site>  (152) 
1.0

>  <Peripheral>  (152) 
0.0

>  <Num_H_Atoms_ProtBoundConf>  (152) 
28.0

>  <Num_Resolved_Atoms>  (152) 
34.0

>  <Num_Not_Resolved_Atoms>  (152) 
0.0

$$$$
G96
     RDKit          3D

  0  0  0  0  0  0  0  0  0  0999 V3000
M  V30 BEGIN CTAB
M  V30 COUNTS 62 65 0 0 0
M  V30 BEGIN ATOM
M  V30 1 O 2.847523 -4.541758 0.128419 0
M  V30 2 C 2.484092 -4.228718 1.436020 0
M  V30 3 C 1.777152 -2.928251 1.331344 0
M  V30 4 C 1.191622 -1.873954 1.260112 0
M  V30 5 C 0.490109 -0.621439 1.196098 0
M  V30 6 C 1.187014 0.555111 1.240014 0
M  V30 7 N 2.498664 0.746099 1.340189 0
M  V30 8 C 2.819483 2.047835 1.355448 0
M  V30 9 C 4.201865 2.454144 1.462802 0
M  V30 10 N 5.237628 1.603464 1.505854 0
M  V30 11 O 6.374373 2.201108 1.579286 0
M  V30 12 N 6.166617 3.506062 1.590348 0
M  V30 13 C 4.814205 3.653171 1.518211 0
M  V30 14 N 4.348998 4.957844 1.538109 0
M  V30 15 N 1.639651 2.657376 1.257574 0
M  V30 16 C 1.380859 4.056667 1.178690 0
M  V30 17 C 1.268320 4.678825 2.549397 0
M  V30 18 C 0.608349 1.796523 1.185507 0
M  V30 19 C -0.758827 1.861377 1.080087 0
M  V30 20 C -1.490153 0.673777 1.033646 0
M  V30 21 O -2.863634 0.770187 0.927530 0
M  V30 22 C -3.719676 -0.332675 0.870872 0
M  V30 23 C -3.451027 -1.248959 -0.311398 0 CFG=1
M  V30 24 C -4.490529 -2.344889 -0.287067 0
M  V30 25 C -4.315808 -3.300803 -1.408831 0
M  V30 26 C -4.951169 -3.084421 -2.614146 0
M  V30 27 C -4.829006 -3.935650 -3.695172 0
M  V30 28 C -4.016930 -5.039233 -3.495633 0
M  V30 29 C -3.346342 -5.331416 -2.326933 0
M  V30 30 C -3.521852 -4.422888 -1.283627 0
M  V30 31 N -3.612802 -0.524494 -1.558035 0 CHG=1 VAL=4
M  V30 32 N -0.858340 -0.528355 1.091876 0
M  V30 33 C 3.691656 -4.082997 2.335488 0
M  V30 34 C 1.575951 -5.271935 2.052889 0
M  V30 35 H 2.762416 -5.522797 0.033621 0
M  V30 36 H 3.837591 5.796980 1.842789 0
M  V30 37 H 4.621281 5.677577 0.821659 0
M  V30 38 H 2.087910 4.557885 0.507111 0
M  V30 39 H 0.384445 4.243374 0.625717 0
M  V30 40 H 0.232482 4.566012 2.965961 0
M  V30 41 H 1.920334 4.172217 3.290134 0
M  V30 42 H 1.552503 5.760059 2.569621 0
M  V30 43 H -1.182374 2.855276 1.039453 0
M  V30 44 H -4.758510 0.046764 0.724569 0
M  V30 45 H -3.709880 -0.866961 1.819898 0
M  V30 46 H -2.430279 -1.648192 -0.313540 0
M  V30 47 H -4.378065 -2.909693 0.645085 0
M  V30 48 H -5.480418 -1.854978 -0.312850 0
M  V30 49 H -5.582889 -2.218087 -2.756825 0
M  V30 50 H -5.325096 -3.770746 -4.642774 0
M  V30 51 H -3.886441 -5.747289 -4.324170 0
M  V30 52 H -2.727385 -6.215524 -2.244603 0
M  V30 53 H -3.000034 -4.635580 -0.350374 0
M  V30 54 H -3.353054 -1.187398 -2.323451 0
M  V30 55 H -3.006805 0.315864 -1.588470 0
M  V30 56 H -4.630197 -0.292793 -1.683568 0
M  V30 57 H 4.618728 -3.875660 1.749892 0
M  V30 58 H 3.791516 -4.965728 2.972258 0
M  V30 59 H 3.542057 -3.172313 2.952780 0
M  V30 60 H 1.040226 -5.833267 1.244862 0
M  V30 61 H 0.766698 -4.735916 2.613821 0
M  V30 62 H 2.114023 -5.938058 2.740134 0
M  V30 END ATOM
M  V30 BEGIN BOND
M  V30 1 1 1 2
M  V30 2 1 2 3
M  V30 3 3 3 4
M  V30 4 1 4 5
M  V30 5 2 5 6
M  V30 6 1 6 7
M  V30 7 2 7 8
M  V30 8 1 8 9
M  V30 9 2 9 10
M  V30 10 1 10 11
M  V30 11 1 11 12
M  V30 12 2 12 13
M  V30 13 1 13 14
M  V30 14 1 8 15
M  V30 15 1 15 16
M  V30 16 1 16 17
M  V30 17 1 15 18
M  V30 18 2 18 19
M  V30 19 1 19 20
M  V30 20 1 20 21
M  V30 21 1 21 22
M  V30 22 1 22 23
M  V30 23 1 23 24
M  V30 24 1 24 25
M  V30 25 2 25 26
M  V30 26 1 26 27
M  V30 27 2 27 28
M  V30 28 1 28 29
M  V30 29 2 29 30
M  V30 30 1 23 31
M  V30 31 2 20 32
M  V30 32 1 2 33
M  V30 33 1 2 34
M  V30 34 1 32 5
M  V30 35 1 18 6
M  V30 36 1 30 25
M  V30 37 1 13 9
M  V30 38 1 1 35
M  V30 39 1 14 36
M  V30 40 1 14 37
M  V30 41 1 16 38
M  V30 42 1 16 39
M  V30 43 1 17 40
M  V30 44 1 17 41
M  V30 45 1 17 42
M  V30 46 1 19 43
M  V30 47 1 22 44
M  V30 48 1 22 45
M  V30 49 1 23 46 CFG=1
M  V30 50 1 24 47
M  V30 51 1 24 48
M  V30 52 1 26 49
M  V30 53 1 27 50
M  V30 54 1 28 51
M  V30 55 1 29 52
M  V30 56 1 30 53
M  V30 57 1 31 54
M  V30 58 1 31 55
M  V30 59 1 31 56
M  V30 60 1 33 57
M  V30 61 1 33 58
M  V30 62 1 33 59
M  V30 63 1 34 60
M  V30 64 1 34 61
M  V30 65 1 34 62
M  V30 END BOND
M  V30 END CTAB
M  END
>  <Dataset>  (153) 
PDB

>  <Ligand_Instance>  (153) 
3E8C_G96_C_351

>  <PDB_ID>  (153) 
3E8C

>  <Standardized_SMILES>  (153) 
[H]OC(C#CC1=C2N=C(C3=NON=C3N([H])[H])N(C([H])([H])C([H])([H])[H])C2=C([H])C(OC([H])([H])[C@@]([H])(C([H])([H])C2=C([H])C([H])=C([H])C([H])=C2[H])[N+]([H])([H])[H])=N1)(C([H])([H])[H])C([H])([H])[H]

>  <Name>  (153) 
4-[2-(4-amino-1,2,5-oxadiazol-3-yl)-6-{[(2R)-2-amino-3-phenylpropyl]oxy}-1-ethyl-1H-imidazo[4,5-c]pyridin-4-yl]-2-methylbut-3-yn-2-ol

>  <Pocket>  (153) 
A, B

>  <ATP_Site>  (153) 
1.0

>  <Peripheral>  (153) 
0.0

>  <Num_H_Atoms_ProtBoundConf>  (153) 
28.0

>  <Num_Resolved_Atoms>  (153) 
34.0

>  <Num_Not_Resolved_Atoms>  (153) 
0.0

$$$$
G96
     RDKit          3D

  0  0  0  0  0  0  0  0  0  0999 V3000
M  V30 BEGIN CTAB
M  V30 COUNTS 62 65 0 0 0
M  V30 BEGIN ATOM
M  V30 1 O 2.847523 -4.541758 0.128419 0
M  V30 2 C 2.484092 -4.228718 1.436020 0
M  V30 3 C 1.777152 -2.928251 1.331344 0
M  V30 4 C 1.191622 -1.873954 1.260112 0
M  V30 5 C 0.490109 -0.621439 1.196098 0
M  V30 6 C 1.187014 0.555111 1.240014 0
M  V30 7 N 2.498664 0.746099 1.340189 0
M  V30 8 C 2.819483 2.047835 1.355448 0
M  V30 9 C 4.201865 2.454144 1.462802 0
M  V30 10 N 5.237628 1.603464 1.505854 0
M  V30 11 O 6.374373 2.201108 1.579286 0
M  V30 12 N 6.166617 3.506062 1.590348 0
M  V30 13 C 4.814205 3.653171 1.518211 0
M  V30 14 N 4.348998 4.957844 1.538109 0
M  V30 15 N 1.639651 2.657376 1.257574 0
M  V30 16 C 1.380859 4.056667 1.178690 0
M  V30 17 C 1.268320 4.678825 2.549397 0
M  V30 18 C 0.608349 1.796523 1.185507 0
M  V30 19 C -0.758827 1.861377 1.080087 0
M  V30 20 C -1.490153 0.673777 1.033646 0
M  V30 21 O -2.863634 0.770187 0.927530 0
M  V30 22 C -3.719676 -0.332675 0.870872 0
M  V30 23 C -3.451027 -1.248959 -0.311398 0 CFG=1
M  V30 24 C -4.490529 -2.344889 -0.287067 0
M  V30 25 C -4.315808 -3.300803 -1.408831 0
M  V30 26 C -4.951169 -3.084421 -2.614146 0
M  V30 27 C -4.829006 -3.935650 -3.695172 0
M  V30 28 C -4.016930 -5.039233 -3.495633 0
M  V30 29 C -3.346342 -5.331416 -2.326933 0
M  V30 30 C -3.521852 -4.422888 -1.283627 0
M  V30 31 N -3.612802 -0.524494 -1.558035 0 CHG=1 VAL=4
M  V30 32 N -0.858340 -0.528355 1.091876 0
M  V30 33 C 3.691656 -4.082997 2.335488 0
M  V30 34 C 1.575951 -5.271935 2.052889 0
M  V30 35 H 2.762416 -5.522797 0.033621 0
M  V30 36 H 3.837591 5.796980 1.842789 0
M  V30 37 H 4.621281 5.677577 0.821659 0
M  V30 38 H 2.087910 4.557885 0.507111 0
M  V30 39 H 0.384445 4.243374 0.625717 0
M  V30 40 H 0.232482 4.566012 2.965961 0
M  V30 41 H 1.920334 4.172217 3.290134 0
M  V30 42 H 1.552503 5.760059 2.569621 0
M  V30 43 H -1.182374 2.855276 1.039453 0
M  V30 44 H -4.758510 0.046764 0.724569 0
M  V30 45 H -3.709880 -0.866961 1.819898 0
M  V30 46 H -2.430279 -1.648192 -0.313540 0
M  V30 47 H -4.378065 -2.909693 0.645085 0
M  V30 48 H -5.480418 -1.854978 -0.312850 0
M  V30 49 H -5.582889 -2.218087 -2.756825 0
M  V30 50 H -5.325096 -3.770746 -4.642774 0
M  V30 51 H -3.886441 -5.747289 -4.324170 0
M  V30 52 H -2.727385 -6.215524 -2.244603 0
M  V30 53 H -3.000034 -4.635580 -0.350374 0
M  V30 54 H -3.353054 -1.187398 -2.323451 0
M  V30 55 H -3.006805 0.315864 -1.588470 0
M  V30 56 H -4.630197 -0.292793 -1.683568 0
M  V30 57 H 4.618728 -3.875660 1.749892 0
M  V30 58 H 3.791516 -4.965728 2.972258 0
M  V30 59 H 3.542057 -3.172313 2.952780 0
M  V30 60 H 1.040226 -5.833267 1.244862 0
M  V30 61 H 0.766698 -4.735916 2.613821 0
M  V30 62 H 2.114023 -5.938058 2.740134 0
M  V30 END ATOM
M  V30 BEGIN BOND
M  V30 1 1 1 2
M  V30 2 1 2 3
M  V30 3 3 3 4
M  V30 4 1 4 5
M  V30 5 2 5 6
M  V30 6 1 6 7
M  V30 7 2 7 8
M  V30 8 1 8 9
M  V30 9 2 9 10
M  V30 10 1 10 11
M  V30 11 1 11 12
M  V30 12 2 12 13
M  V30 13 1 13 14
M  V30 14 1 8 15
M  V30 15 1 15 16
M  V30 16 1 16 17
M  V30 17 1 15 18
M  V30 18 2 18 19
M  V30 19 1 19 20
M  V30 20 1 20 21
M  V30 21 1 21 22
M  V30 22 1 22 23
M  V30 23 1 23 24
M  V30 24 1 24 25
M  V30 25 2 25 26
M  V30 26 1 26 27
M  V30 27 2 27 28
M  V30 28 1 28 29
M  V30 29 2 29 30
M  V30 30 1 23 31
M  V30 31 2 20 32
M  V30 32 1 2 33
M  V30 33 1 2 34
M  V30 34 1 32 5
M  V30 35 1 18 6
M  V30 36 1 30 25
M  V30 37 1 13 9
M  V30 38 1 1 35
M  V30 39 1 14 36
M  V30 40 1 14 37
M  V30 41 1 16 38
M  V30 42 1 16 39
M  V30 43 1 17 40
M  V30 44 1 17 41
M  V30 45 1 17 42
M  V30 46 1 19 43
M  V30 47 1 22 44
M  V30 48 1 22 45
M  V30 49 1 23 46 CFG=1
M  V30 50 1 24 47
M  V30 51 1 24 48
M  V30 52 1 26 49
M  V30 53 1 27 50
M  V30 54 1 28 51
M  V30 55 1 29 52
M  V30 56 1 30 53
M  V30 57 1 31 54
M  V30 58 1 31 55
M  V30 59 1 31 56
M  V30 60 1 33 57
M  V30 61 1 33 58
M  V30 62 1 33 59
M  V30 63 1 34 60
M  V30 64 1 34 61
M  V30 65 1 34 62
M  V30 END BOND
M  V30 END CTAB
M  END
>  <Dataset>  (154) 
PDB

>  <Ligand_Instance>  (154) 
3E8C_G96_D_351

>  <PDB_ID>  (154) 
3E8C

>  <Standardized_SMILES>  (154) 
[H]OC(C#CC1=C2N=C(C3=NON=C3N([H])[H])N(C([H])([H])C([H])([H])[H])C2=C([H])C(OC([H])([H])[C@@]([H])(C([H])([H])C2=C([H])C([H])=C([H])C([H])=C2[H])[N+]([H])([H])[H])=N1)(C([H])([H])[H])C([H])([H])[H]

>  <Name>  (154) 
4-[2-(4-amino-1,2,5-oxadiazol-3-yl)-6-{[(2R)-2-amino-3-phenylpropyl]oxy}-1-ethyl-1H-imidazo[4,5-c]pyridin-4-yl]-2-methylbut-3-yn-2-ol

>  <Pocket>  (154) 
A, B

>  <ATP_Site>  (154) 
1.0

>  <Peripheral>  (154) 
0.0

>  <Num_H_Atoms_ProtBoundConf>  (154) 
28.0

>  <Num_Resolved_Atoms>  (154) 
34.0

>  <Num_Not_Resolved_Atoms>  (154) 
0.0

$$$$
G96
     RDKit          3D

  0  0  0  0  0  0  0  0  0  0999 V3000
M  V30 BEGIN CTAB
M  V30 COUNTS 62 65 0 0 0
M  V30 BEGIN ATOM
M  V30 1 O 2.847523 -4.541758 0.128419 0
M  V30 2 C 2.484092 -4.228718 1.436020 0
M  V30 3 C 1.777152 -2.928251 1.331344 0
M  V30 4 C 1.191622 -1.873954 1.260112 0
M  V30 5 C 0.490109 -0.621439 1.196098 0
M  V30 6 C 1.187014 0.555111 1.240014 0
M  V30 7 N 2.498664 0.746099 1.340189 0
M  V30 8 C 2.819483 2.047835 1.355448 0
M  V30 9 C 4.201865 2.454144 1.462802 0
M  V30 10 N 5.237628 1.603464 1.505854 0
M  V30 11 O 6.374373 2.201108 1.579286 0
M  V30 12 N 6.166617 3.506062 1.590348 0
M  V30 13 C 4.814205 3.653171 1.518211 0
M  V30 14 N 4.348998 4.957844 1.538109 0
M  V30 15 N 1.639651 2.657376 1.257574 0
M  V30 16 C 1.380859 4.056667 1.178690 0
M  V30 17 C 1.268320 4.678825 2.549397 0
M  V30 18 C 0.608349 1.796523 1.185507 0
M  V30 19 C -0.758827 1.861377 1.080087 0
M  V30 20 C -1.490153 0.673777 1.033646 0
M  V30 21 O -2.863634 0.770187 0.927530 0
M  V30 22 C -3.719676 -0.332675 0.870872 0
M  V30 23 C -3.451027 -1.248959 -0.311398 0 CFG=1
M  V30 24 C -4.490529 -2.344889 -0.287067 0
M  V30 25 C -4.315808 -3.300803 -1.408831 0
M  V30 26 C -4.951169 -3.084421 -2.614146 0
M  V30 27 C -4.829006 -3.935650 -3.695172 0
M  V30 28 C -4.016930 -5.039233 -3.495633 0
M  V30 29 C -3.346342 -5.331416 -2.326933 0
M  V30 30 C -3.521852 -4.422888 -1.283627 0
M  V30 31 N -3.612802 -0.524494 -1.558035 0 CHG=1 VAL=4
M  V30 32 N -0.858340 -0.528355 1.091876 0
M  V30 33 C 3.691656 -4.082997 2.335488 0
M  V30 34 C 1.575951 -5.271935 2.052889 0
M  V30 35 H 2.762416 -5.522797 0.033621 0
M  V30 36 H 3.837591 5.796980 1.842789 0
M  V30 37 H 4.621281 5.677577 0.821659 0
M  V30 38 H 2.087910 4.557885 0.507111 0
M  V30 39 H 0.384445 4.243374 0.625717 0
M  V30 40 H 0.232482 4.566012 2.965961 0
M  V30 41 H 1.920334 4.172217 3.290134 0
M  V30 42 H 1.552503 5.760059 2.569621 0
M  V30 43 H -1.182374 2.855276 1.039453 0
M  V30 44 H -4.758510 0.046764 0.724569 0
M  V30 45 H -3.709880 -0.866961 1.819898 0
M  V30 46 H -2.430279 -1.648192 -0.313540 0
M  V30 47 H -4.378065 -2.909693 0.645085 0
M  V30 48 H -5.480418 -1.854978 -0.312850 0
M  V30 49 H -5.582889 -2.218087 -2.756825 0
M  V30 50 H -5.325096 -3.770746 -4.642774 0
M  V30 51 H -3.886441 -5.747289 -4.324170 0
M  V30 52 H -2.727385 -6.215524 -2.244603 0
M  V30 53 H -3.000034 -4.635580 -0.350374 0
M  V30 54 H -3.353054 -1.187398 -2.323451 0
M  V30 55 H -3.006805 0.315864 -1.588470 0
M  V30 56 H -4.630197 -0.292793 -1.683568 0
M  V30 57 H 4.618728 -3.875660 1.749892 0
M  V30 58 H 3.791516 -4.965728 2.972258 0
M  V30 59 H 3.542057 -3.172313 2.952780 0
M  V30 60 H 1.040226 -5.833267 1.244862 0
M  V30 61 H 0.766698 -4.735916 2.613821 0
M  V30 62 H 2.114023 -5.938058 2.740134 0
M  V30 END ATOM
M  V30 BEGIN BOND
M  V30 1 1 1 2
M  V30 2 1 2 3
M  V30 3 3 3 4
M  V30 4 1 4 5
M  V30 5 2 5 6
M  V30 6 1 6 7
M  V30 7 2 7 8
M  V30 8 1 8 9
M  V30 9 2 9 10
M  V30 10 1 10 11
M  V30 11 1 11 12
M  V30 12 2 12 13
M  V30 13 1 13 14
M  V30 14 1 8 15
M  V30 15 1 15 16
M  V30 16 1 16 17
M  V30 17 1 15 18
M  V30 18 2 18 19
M  V30 19 1 19 20
M  V30 20 1 20 21
M  V30 21 1 21 22
M  V30 22 1 22 23
M  V30 23 1 23 24
M  V30 24 1 24 25
M  V30 25 2 25 26
M  V30 26 1 26 27
M  V30 27 2 27 28
M  V30 28 1 28 29
M  V30 29 2 29 30
M  V30 30 1 23 31
M  V30 31 2 20 32
M  V30 32 1 2 33
M  V30 33 1 2 34
M  V30 34 1 32 5
M  V30 35 1 18 6
M  V30 36 1 30 25
M  V30 37 1 13 9
M  V30 38 1 1 35
M  V30 39 1 14 36
M  V30 40 1 14 37
M  V30 41 1 16 38
M  V30 42 1 16 39
M  V30 43 1 17 40
M  V30 44 1 17 41
M  V30 45 1 17 42
M  V30 46 1 19 43
M  V30 47 1 22 44
M  V30 48 1 22 45
M  V30 49 1 23 46 CFG=1
M  V30 50 1 24 47
M  V30 51 1 24 48
M  V30 52 1 26 49
M  V30 53 1 27 50
M  V30 54 1 28 51
M  V30 55 1 29 52
M  V30 56 1 30 53
M  V30 57 1 31 54
M  V30 58 1 31 55
M  V30 59 1 31 56
M  V30 60 1 33 57
M  V30 61 1 33 58
M  V30 62 1 33 59
M  V30 63 1 34 60
M  V30 64 1 34 61
M  V30 65 1 34 62
M  V30 END BOND
M  V30 END CTAB
M  END
>  <Dataset>  (155) 
PDB

>  <Ligand_Instance>  (155) 
3E8C_G96_E_351

>  <PDB_ID>  (155) 
3E8C

>  <Standardized_SMILES>  (155) 
[H]OC(C#CC1=C2N=C(C3=NON=C3N([H])[H])N(C([H])([H])C([H])([H])[H])C2=C([H])C(OC([H])([H])[C@@]([H])(C([H])([H])C2=C([H])C([H])=C([H])C([H])=C2[H])[N+]([H])([H])[H])=N1)(C([H])([H])[H])C([H])([H])[H]

>  <Name>  (155) 
4-[2-(4-amino-1,2,5-oxadiazol-3-yl)-6-{[(2R)-2-amino-3-phenylpropyl]oxy}-1-ethyl-1H-imidazo[4,5-c]pyridin-4-yl]-2-methylbut-3-yn-2-ol

>  <Pocket>  (155) 
A, B

>  <ATP_Site>  (155) 
1.0

>  <Peripheral>  (155) 
0.0

>  <Num_H_Atoms_ProtBoundConf>  (155) 
28.0

>  <Num_Resolved_Atoms>  (155) 
34.0

>  <Num_Not_Resolved_Atoms>  (155) 
0.0

$$$$
G96
     RDKit          3D

  0  0  0  0  0  0  0  0  0  0999 V3000
M  V30 BEGIN CTAB
M  V30 COUNTS 62 65 0 0 0
M  V30 BEGIN ATOM
M  V30 1 O 2.847523 -4.541758 0.128419 0
M  V30 2 C 2.484092 -4.228718 1.436020 0
M  V30 3 C 1.777152 -2.928251 1.331344 0
M  V30 4 C 1.191622 -1.873954 1.260112 0
M  V30 5 C 0.490109 -0.621439 1.196098 0
M  V30 6 C 1.187014 0.555111 1.240014 0
M  V30 7 N 2.498664 0.746099 1.340189 0
M  V30 8 C 2.819483 2.047835 1.355448 0
M  V30 9 C 4.201865 2.454144 1.462802 0
M  V30 10 N 5.237628 1.603464 1.505854 0
M  V30 11 O 6.374373 2.201108 1.579286 0
M  V30 12 N 6.166617 3.506062 1.590348 0
M  V30 13 C 4.814205 3.653171 1.518211 0
M  V30 14 N 4.348998 4.957844 1.538109 0
M  V30 15 N 1.639651 2.657376 1.257574 0
M  V30 16 C 1.380859 4.056667 1.178690 0
M  V30 17 C 1.268320 4.678825 2.549397 0
M  V30 18 C 0.608349 1.796523 1.185507 0
M  V30 19 C -0.758827 1.861377 1.080087 0
M  V30 20 C -1.490153 0.673777 1.033646 0
M  V30 21 O -2.863634 0.770187 0.927530 0
M  V30 22 C -3.719676 -0.332675 0.870872 0
M  V30 23 C -3.451027 -1.248959 -0.311398 0 CFG=1
M  V30 24 C -4.490529 -2.344889 -0.287067 0
M  V30 25 C -4.315808 -3.300803 -1.408831 0
M  V30 26 C -4.951169 -3.084421 -2.614146 0
M  V30 27 C -4.829006 -3.935650 -3.695172 0
M  V30 28 C -4.016930 -5.039233 -3.495633 0
M  V30 29 C -3.346342 -5.331416 -2.326933 0
M  V30 30 C -3.521852 -4.422888 -1.283627 0
M  V30 31 N -3.612802 -0.524494 -1.558035 0 CHG=1 VAL=4
M  V30 32 N -0.858340 -0.528355 1.091876 0
M  V30 33 C 3.691656 -4.082997 2.335488 0
M  V30 34 C 1.575951 -5.271935 2.052889 0
M  V30 35 H 2.762416 -5.522797 0.033621 0
M  V30 36 H 3.837591 5.796980 1.842789 0
M  V30 37 H 4.621281 5.677577 0.821659 0
M  V30 38 H 2.087910 4.557885 0.507111 0
M  V30 39 H 0.384445 4.243374 0.625717 0
M  V30 40 H 0.232482 4.566012 2.965961 0
M  V30 41 H 1.920334 4.172217 3.290134 0
M  V30 42 H 1.552503 5.760059 2.569621 0
M  V30 43 H -1.182374 2.855276 1.039453 0
M  V30 44 H -4.758510 0.046764 0.724569 0
M  V30 45 H -3.709880 -0.866961 1.819898 0
M  V30 46 H -2.430279 -1.648192 -0.313540 0
M  V30 47 H -4.378065 -2.909693 0.645085 0
M  V30 48 H -5.480418 -1.854978 -0.312850 0
M  V30 49 H -5.582889 -2.218087 -2.756825 0
M  V30 50 H -5.325096 -3.770746 -4.642774 0
M  V30 51 H -3.886441 -5.747289 -4.324170 0
M  V30 52 H -2.727385 -6.215524 -2.244603 0
M  V30 53 H -3.000034 -4.635580 -0.350374 0
M  V30 54 H -3.353054 -1.187398 -2.323451 0
M  V30 55 H -3.006805 0.315864 -1.588470 0
M  V30 56 H -4.630197 -0.292793 -1.683568 0
M  V30 57 H 4.618728 -3.875660 1.749892 0
M  V30 58 H 3.791516 -4.965728 2.972258 0
M  V30 59 H 3.542057 -3.172313 2.952780 0
M  V30 60 H 1.040226 -5.833267 1.244862 0
M  V30 61 H 0.766698 -4.735916 2.613821 0
M  V30 62 H 2.114023 -5.938058 2.740134 0
M  V30 END ATOM
M  V30 BEGIN BOND
M  V30 1 1 1 2
M  V30 2 1 2 3
M  V30 3 3 3 4
M  V30 4 1 4 5
M  V30 5 2 5 6
M  V30 6 1 6 7
M  V30 7 2 7 8
M  V30 8 1 8 9
M  V30 9 2 9 10
M  V30 10 1 10 11
M  V30 11 1 11 12
M  V30 12 2 12 13
M  V30 13 1 13 14
M  V30 14 1 8 15
M  V30 15 1 15 16
M  V30 16 1 16 17
M  V30 17 1 15 18
M  V30 18 2 18 19
M  V30 19 1 19 20
M  V30 20 1 20 21
M  V30 21 1 21 22
M  V30 22 1 22 23
M  V30 23 1 23 24
M  V30 24 1 24 25
M  V30 25 2 25 26
M  V30 26 1 26 27
M  V30 27 2 27 28
M  V30 28 1 28 29
M  V30 29 2 29 30
M  V30 30 1 23 31
M  V30 31 2 20 32
M  V30 32 1 2 33
M  V30 33 1 2 34
M  V30 34 1 32 5
M  V30 35 1 18 6
M  V30 36 1 30 25
M  V30 37 1 13 9
M  V30 38 1 1 35
M  V30 39 1 14 36
M  V30 40 1 14 37
M  V30 41 1 16 38
M  V30 42 1 16 39
M  V30 43 1 17 40
M  V30 44 1 17 41
M  V30 45 1 17 42
M  V30 46 1 19 43
M  V30 47 1 22 44
M  V30 48 1 22 45
M  V30 49 1 23 46 CFG=1
M  V30 50 1 24 47
M  V30 51 1 24 48
M  V30 52 1 26 49
M  V30 53 1 27 50
M  V30 54 1 28 51
M  V30 55 1 29 52
M  V30 56 1 30 53
M  V30 57 1 31 54
M  V30 58 1 31 55
M  V30 59 1 31 56
M  V30 60 1 33 57
M  V30 61 1 33 58
M  V30 62 1 33 59
M  V30 63 1 34 60
M  V30 64 1 34 61
M  V30 65 1 34 62
M  V30 END BOND
M  V30 END CTAB
M  END
>  <Dataset>  (156) 
PDB

>  <Ligand_Instance>  (156) 
3E8C_G96_F_351

>  <PDB_ID>  (156) 
3E8C

>  <Standardized_SMILES>  (156) 
[H]OC(C#CC1=C2N=C(C3=NON=C3N([H])[H])N(C([H])([H])C([H])([H])[H])C2=C([H])C(OC([H])([H])[C@@]([H])(C([H])([H])C2=C([H])C([H])=C([H])C([H])=C2[H])[N+]([H])([H])[H])=N1)(C([H])([H])[H])C([H])([H])[H]

>  <Name>  (156) 
4-[2-(4-amino-1,2,5-oxadiazol-3-yl)-6-{[(2R)-2-amino-3-phenylpropyl]oxy}-1-ethyl-1H-imidazo[4,5-c]pyridin-4-yl]-2-methylbut-3-yn-2-ol

>  <Pocket>  (156) 
A, B

>  <ATP_Site>  (156) 
1.0

>  <Peripheral>  (156) 
0.0

>  <Num_H_Atoms_ProtBoundConf>  (156) 
28.0

>  <Num_Resolved_Atoms>  (156) 
34.0

>  <Num_Not_Resolved_Atoms>  (156) 
0.0

$$$$
G98
     RDKit          3D

  0  0  0  0  0  0  0  0  0  0999 V3000
M  V30 BEGIN CTAB
M  V30 COUNTS 62 65 0 0 0
M  V30 BEGIN ATOM
M  V30 1 O 4.662918 -4.008679 3.881011 0
M  V30 2 C 3.507100 -4.571200 3.384953 0
M  V30 3 C 2.690611 -3.594614 2.642678 0
M  V30 4 C 2.018590 -2.795457 2.039620 0
M  V30 5 C 1.210319 -1.862535 1.307245 0
M  V30 6 C 1.603682 -0.547869 1.376980 0
M  V30 7 N 2.593061 0.090096 1.986556 0
M  V30 8 C 2.548416 1.408629 1.742195 0
M  V30 9 C 3.556574 2.265534 2.331898 0
M  V30 10 N 4.588130 1.829537 3.072917 0
M  V30 11 O 5.383776 2.751188 3.476282 0
M  V30 12 N 4.929730 3.884181 3.024900 0
M  V30 13 C 3.814441 3.604806 2.324908 0
M  V30 14 N 3.103682 4.654955 1.744897 0
M  V30 15 N 1.490854 1.583667 0.949951 0
M  V30 16 C 1.030380 2.791996 0.364271 0
M  V30 17 C 0.089167 3.601601 1.228988 0
M  V30 18 C 0.890676 0.409547 0.708773 0
M  V30 19 C -0.203493 0.011041 -0.013625 0
M  V30 20 C -0.612695 -1.288177 -0.097241 0
M  V30 21 O -1.660473 -1.881376 -0.754726 0
M  V30 22 C -2.548129 -1.111685 -1.520199 0 CFG=2
M  V30 23 C -3.887163 -1.256854 -0.888688 0
M  V30 24 C -4.733045 -0.179496 -0.669973 0
M  V30 25 C -5.965840 -0.350494 -0.081961 0
M  V30 26 C -6.380288 -1.612975 0.302022 0
M  V30 27 C -5.572115 -2.688862 0.100254 0
M  V30 28 C -4.341921 -2.510136 -0.487756 0
M  V30 29 C -2.565652 -1.556149 -2.967630 0
M  V30 30 C -3.512270 -0.742239 -3.806390 0
M  V30 31 N -3.450418 -1.250294 -5.165774 0 CHG=1 VAL=4
M  V30 32 N 0.112710 -2.212788 0.574541 0
M  V30 33 C 3.935644 -5.618542 2.360938 0
M  V30 34 C 2.724876 -5.278089 4.441251 0
M  V30 35 H 4.431559 -3.431266 4.649096 0
M  V30 36 H 3.256393 5.382079 1.010543 0
M  V30 37 H 3.197085 5.402140 1.023048 0
M  V30 38 H 1.831610 3.424123 -0.006512 0
M  V30 39 H 0.372737 2.503026 -0.548861 0
M  V30 40 H 0.550678 3.564792 2.260134 0
M  V30 41 H -0.900266 3.131571 1.332301 0
M  V30 42 H 0.065985 4.657882 0.967355 0
M  V30 43 H -0.770527 0.728418 -0.537867 0
M  V30 44 H -2.315691 -0.033302 -1.537122 0
M  V30 45 H -4.398846 0.809142 -0.975026 0
M  V30 46 H -6.637604 0.492252 0.093728 0
M  V30 47 H -7.333714 -1.749776 0.757476 0
M  V30 48 H -5.910129 -3.666655 0.405562 0
M  V30 49 H -3.737639 -3.409027 -0.623915 0
M  V30 50 H -1.543504 -1.330679 -3.364036 0
M  V30 51 H -2.724633 -2.627847 -3.104459 0
M  V30 52 H -4.553111 -0.775493 -3.436050 0
M  V30 53 H -3.199129 0.320059 -3.833641 0
M  V30 54 H -3.055275 -2.214893 -5.184340 0
M  V30 55 H -2.869080 -0.639147 -5.784894 0
M  V30 56 H -4.423560 -1.259074 -5.548534 0
M  V30 57 H 3.046660 -6.100215 1.946108 0
M  V30 58 H 4.485997 -6.395431 2.963379 0
M  V30 59 H 4.593627 -5.177246 1.605473 0
M  V30 60 H 2.987445 -6.369334 4.459840 0
M  V30 61 H 1.628437 -5.144201 4.344138 0
M  V30 62 H 3.071474 -4.882404 5.436720 0
M  V30 END ATOM
M  V30 BEGIN BOND
M  V30 1 1 1 2
M  V30 2 1 2 3
M  V30 3 3 3 4
M  V30 4 1 4 5
M  V30 5 2 5 6
M  V30 6 1 6 7
M  V30 7 2 7 8
M  V30 8 1 8 9
M  V30 9 2 9 10
M  V30 10 1 10 11
M  V30 11 1 11 12
M  V30 12 2 12 13
M  V30 13 1 13 14
M  V30 14 1 8 15
M  V30 15 1 15 16
M  V30 16 1 16 17
M  V30 17 1 15 18
M  V30 18 2 18 19
M  V30 19 1 19 20
M  V30 20 1 20 21
M  V30 21 1 21 22
M  V30 22 1 22 23
M  V30 23 2 23 24
M  V30 24 1 24 25
M  V30 25 2 25 26
M  V30 26 1 26 27
M  V30 27 2 27 28
M  V30 28 1 22 29
M  V30 29 1 29 30
M  V30 30 1 30 31
M  V30 31 2 20 32
M  V30 32 1 2 33
M  V30 33 1 2 34
M  V30 34 1 32 5
M  V30 35 1 18 6
M  V30 36 1 28 23
M  V30 37 1 13 9
M  V30 38 1 1 35
M  V30 39 1 14 36
M  V30 40 1 14 37
M  V30 41 1 16 38
M  V30 42 1 16 39
M  V30 43 1 17 40
M  V30 44 1 17 41
M  V30 45 1 17 42
M  V30 46 1 19 43
M  V30 47 1 22 44 CFG=3
M  V30 48 1 24 45
M  V30 49 1 25 46
M  V30 50 1 26 47
M  V30 51 1 27 48
M  V30 52 1 28 49
M  V30 53 1 29 50
M  V30 54 1 29 51
M  V30 55 1 30 52
M  V30 56 1 30 53
M  V30 57 1 31 54
M  V30 58 1 31 55
M  V30 59 1 31 56
M  V30 60 1 33 57
M  V30 61 1 33 58
M  V30 62 1 33 59
M  V30 63 1 34 60
M  V30 64 1 34 61
M  V30 65 1 34 62
M  V30 END BOND
M  V30 END CTAB
M  END
>  <Dataset>  (157) 
PDB

>  <Ligand_Instance>  (157) 
3E8E_G98_A_351

>  <PDB_ID>  (157) 
3E8E

>  <Standardized_SMILES>  (157) 
[H]OC(C#CC1=C2N=C(C3=NON=C3N([H])[H])N(C([H])([H])C([H])([H])[H])C2=C([H])C(O[C@]([H])(C2=C([H])C([H])=C([H])C([H])=C2[H])C([H])([H])C([H])([H])[N+]([H])([H])[H])=N1)(C([H])([H])[H])C([H])([H])[H]

>  <Name>  (157) 
4-[2-(4-amino-2,5-dihydro-1,2,5-oxadiazol-3-yl)-6-{[(1S)-3-amino-1-phenylpropyl]oxy}-1-ethyl-1H-imidazo[4,5-c]pyridin-4-yl]-2-methylbut-3-yn-2-ol

>  <Pocket>  (157) 
A, B

>  <ATP_Site>  (157) 
1.0

>  <Peripheral>  (157) 
0.0

>  <Num_H_Atoms_ProtBoundConf>  (157) 
28.0

>  <Num_Resolved_Atoms>  (157) 
34.0

>  <Num_Not_Resolved_Atoms>  (157) 
0.0

$$$$
G98
     RDKit          3D

  0  0  0  0  0  0  0  0  0  0999 V3000
M  V30 BEGIN CTAB
M  V30 COUNTS 62 65 0 0 0
M  V30 BEGIN ATOM
M  V30 1 O 4.662918 -4.008679 3.881011 0
M  V30 2 C 3.507100 -4.571200 3.384953 0
M  V30 3 C 2.690611 -3.594614 2.642678 0
M  V30 4 C 2.018590 -2.795457 2.039620 0
M  V30 5 C 1.210319 -1.862535 1.307245 0
M  V30 6 C 1.603682 -0.547869 1.376980 0
M  V30 7 N 2.593061 0.090096 1.986556 0
M  V30 8 C 2.548416 1.408629 1.742195 0
M  V30 9 C 3.556574 2.265534 2.331898 0
M  V30 10 N 4.588130 1.829537 3.072917 0
M  V30 11 O 5.383776 2.751188 3.476282 0
M  V30 12 N 4.929730 3.884181 3.024900 0
M  V30 13 C 3.814441 3.604806 2.324908 0
M  V30 14 N 3.103682 4.654955 1.744897 0
M  V30 15 N 1.490854 1.583667 0.949951 0
M  V30 16 C 1.030380 2.791996 0.364271 0
M  V30 17 C 0.089167 3.601601 1.228988 0
M  V30 18 C 0.890676 0.409547 0.708773 0
M  V30 19 C -0.203493 0.011041 -0.013625 0
M  V30 20 C -0.612695 -1.288177 -0.097241 0
M  V30 21 O -1.660473 -1.881376 -0.754726 0
M  V30 22 C -2.548129 -1.111685 -1.520199 0 CFG=2
M  V30 23 C -3.887163 -1.256854 -0.888688 0
M  V30 24 C -4.733045 -0.179496 -0.669973 0
M  V30 25 C -5.965840 -0.350494 -0.081961 0
M  V30 26 C -6.380288 -1.612975 0.302022 0
M  V30 27 C -5.572115 -2.688862 0.100254 0
M  V30 28 C -4.341921 -2.510136 -0.487756 0
M  V30 29 C -2.565652 -1.556149 -2.967630 0
M  V30 30 C -3.512270 -0.742239 -3.806390 0
M  V30 31 N -3.450418 -1.250294 -5.165774 0 CHG=1 VAL=4
M  V30 32 N 0.112710 -2.212788 0.574541 0
M  V30 33 C 3.935644 -5.618542 2.360938 0
M  V30 34 C 2.724876 -5.278089 4.441251 0
M  V30 35 H 4.431559 -3.431266 4.649096 0
M  V30 36 H 3.256393 5.382079 1.010543 0
M  V30 37 H 3.197085 5.402140 1.023048 0
M  V30 38 H 1.831610 3.424123 -0.006512 0
M  V30 39 H 0.372737 2.503026 -0.548861 0
M  V30 40 H 0.550678 3.564792 2.260134 0
M  V30 41 H -0.900266 3.131571 1.332301 0
M  V30 42 H 0.065985 4.657882 0.967355 0
M  V30 43 H -0.770527 0.728418 -0.537867 0
M  V30 44 H -2.315691 -0.033302 -1.537122 0
M  V30 45 H -4.398846 0.809142 -0.975026 0
M  V30 46 H -6.637604 0.492252 0.093728 0
M  V30 47 H -7.333714 -1.749776 0.757476 0
M  V30 48 H -5.910129 -3.666655 0.405562 0
M  V30 49 H -3.737639 -3.409027 -0.623915 0
M  V30 50 H -1.543504 -1.330679 -3.364036 0
M  V30 51 H -2.724633 -2.627847 -3.104459 0
M  V30 52 H -4.553111 -0.775493 -3.436050 0
M  V30 53 H -3.199129 0.320059 -3.833641 0
M  V30 54 H -3.055275 -2.214893 -5.184340 0
M  V30 55 H -2.869080 -0.639147 -5.784894 0
M  V30 56 H -4.423560 -1.259074 -5.548534 0
M  V30 57 H 3.046660 -6.100215 1.946108 0
M  V30 58 H 4.485997 -6.395431 2.963379 0
M  V30 59 H 4.593627 -5.177246 1.605473 0
M  V30 60 H 2.987445 -6.369334 4.459840 0
M  V30 61 H 1.628437 -5.144201 4.344138 0
M  V30 62 H 3.071474 -4.882404 5.436720 0
M  V30 END ATOM
M  V30 BEGIN BOND
M  V30 1 1 1 2
M  V30 2 1 2 3
M  V30 3 3 3 4
M  V30 4 1 4 5
M  V30 5 2 5 6
M  V30 6 1 6 7
M  V30 7 2 7 8
M  V30 8 1 8 9
M  V30 9 2 9 10
M  V30 10 1 10 11
M  V30 11 1 11 12
M  V30 12 2 12 13
M  V30 13 1 13 14
M  V30 14 1 8 15
M  V30 15 1 15 16
M  V30 16 1 16 17
M  V30 17 1 15 18
M  V30 18 2 18 19
M  V30 19 1 19 20
M  V30 20 1 20 21
M  V30 21 1 21 22
M  V30 22 1 22 23
M  V30 23 2 23 24
M  V30 24 1 24 25
M  V30 25 2 25 26
M  V30 26 1 26 27
M  V30 27 2 27 28
M  V30 28 1 22 29
M  V30 29 1 29 30
M  V30 30 1 30 31
M  V30 31 2 20 32
M  V30 32 1 2 33
M  V30 33 1 2 34
M  V30 34 1 32 5
M  V30 35 1 18 6
M  V30 36 1 28 23
M  V30 37 1 13 9
M  V30 38 1 1 35
M  V30 39 1 14 36
M  V30 40 1 14 37
M  V30 41 1 16 38
M  V30 42 1 16 39
M  V30 43 1 17 40
M  V30 44 1 17 41
M  V30 45 1 17 42
M  V30 46 1 19 43
M  V30 47 1 22 44 CFG=3
M  V30 48 1 24 45
M  V30 49 1 25 46
M  V30 50 1 26 47
M  V30 51 1 27 48
M  V30 52 1 28 49
M  V30 53 1 29 50
M  V30 54 1 29 51
M  V30 55 1 30 52
M  V30 56 1 30 53
M  V30 57 1 31 54
M  V30 58 1 31 55
M  V30 59 1 31 56
M  V30 60 1 33 57
M  V30 61 1 33 58
M  V30 62 1 33 59
M  V30 63 1 34 60
M  V30 64 1 34 61
M  V30 65 1 34 62
M  V30 END BOND
M  V30 END CTAB
M  END
>  <Dataset>  (158) 
PDB

>  <Ligand_Instance>  (158) 
3E8E_G98_B_351

>  <PDB_ID>  (158) 
3E8E

>  <Standardized_SMILES>  (158) 
[H]OC(C#CC1=C2N=C(C3=NON=C3N([H])[H])N(C([H])([H])C([H])([H])[H])C2=C([H])C(O[C@]([H])(C2=C([H])C([H])=C([H])C([H])=C2[H])C([H])([H])C([H])([H])[N+]([H])([H])[H])=N1)(C([H])([H])[H])C([H])([H])[H]

>  <Name>  (158) 
4-[2-(4-amino-2,5-dihydro-1,2,5-oxadiazol-3-yl)-6-{[(1S)-3-amino-1-phenylpropyl]oxy}-1-ethyl-1H-imidazo[4,5-c]pyridin-4-yl]-2-methylbut-3-yn-2-ol

>  <Pocket>  (158) 
A, B

>  <ATP_Site>  (158) 
1.0

>  <Peripheral>  (158) 
0.0

>  <Num_H_Atoms_ProtBoundConf>  (158) 
28.0

>  <Num_Resolved_Atoms>  (158) 
34.0

>  <Num_Not_Resolved_Atoms>  (158) 
0.0

$$$$
G98
     RDKit          3D

  0  0  0  0  0  0  0  0  0  0999 V3000
M  V30 BEGIN CTAB
M  V30 COUNTS 62 65 0 0 0
M  V30 BEGIN ATOM
M  V30 1 O 4.662918 -4.008679 3.881011 0
M  V30 2 C 3.507100 -4.571200 3.384953 0
M  V30 3 C 2.690611 -3.594614 2.642678 0
M  V30 4 C 2.018590 -2.795457 2.039620 0
M  V30 5 C 1.210319 -1.862535 1.307245 0
M  V30 6 C 1.603682 -0.547869 1.376980 0
M  V30 7 N 2.593061 0.090096 1.986556 0
M  V30 8 C 2.548416 1.408629 1.742195 0
M  V30 9 C 3.556574 2.265534 2.331898 0
M  V30 10 N 4.588130 1.829537 3.072917 0
M  V30 11 O 5.383776 2.751188 3.476282 0
M  V30 12 N 4.929730 3.884181 3.024900 0
M  V30 13 C 3.814441 3.604806 2.324908 0
M  V30 14 N 3.103682 4.654955 1.744897 0
M  V30 15 N 1.490854 1.583667 0.949951 0
M  V30 16 C 1.030380 2.791996 0.364271 0
M  V30 17 C 0.089167 3.601601 1.228988 0
M  V30 18 C 0.890676 0.409547 0.708773 0
M  V30 19 C -0.203493 0.011041 -0.013625 0
M  V30 20 C -0.612695 -1.288177 -0.097241 0
M  V30 21 O -1.660473 -1.881376 -0.754726 0
M  V30 22 C -2.548129 -1.111685 -1.520199 0 CFG=2
M  V30 23 C -3.887163 -1.256854 -0.888688 0
M  V30 24 C -4.733045 -0.179496 -0.669973 0
M  V30 25 C -5.965840 -0.350494 -0.081961 0
M  V30 26 C -6.380288 -1.612975 0.302022 0
M  V30 27 C -5.572115 -2.688862 0.100254 0
M  V30 28 C -4.341921 -2.510136 -0.487756 0
M  V30 29 C -2.565652 -1.556149 -2.967630 0
M  V30 30 C -3.512270 -0.742239 -3.806390 0
M  V30 31 N -3.450418 -1.250294 -5.165774 0 CHG=1 VAL=4
M  V30 32 N 0.112710 -2.212788 0.574541 0
M  V30 33 C 3.935644 -5.618542 2.360938 0
M  V30 34 C 2.724876 -5.278089 4.441251 0
M  V30 35 H 4.431559 -3.431266 4.649096 0
M  V30 36 H 3.256393 5.382079 1.010543 0
M  V30 37 H 3.197085 5.402140 1.023048 0
M  V30 38 H 1.831610 3.424123 -0.006512 0
M  V30 39 H 0.372737 2.503026 -0.548861 0
M  V30 40 H 0.550678 3.564792 2.260134 0
M  V30 41 H -0.900266 3.131571 1.332301 0
M  V30 42 H 0.065985 4.657882 0.967355 0
M  V30 43 H -0.770527 0.728418 -0.537867 0
M  V30 44 H -2.315691 -0.033302 -1.537122 0
M  V30 45 H -4.398846 0.809142 -0.975026 0
M  V30 46 H -6.637604 0.492252 0.093728 0
M  V30 47 H -7.333714 -1.749776 0.757476 0
M  V30 48 H -5.910129 -3.666655 0.405562 0
M  V30 49 H -3.737639 -3.409027 -0.623915 0
M  V30 50 H -1.543504 -1.330679 -3.364036 0
M  V30 51 H -2.724633 -2.627847 -3.104459 0
M  V30 52 H -4.553111 -0.775493 -3.436050 0
M  V30 53 H -3.199129 0.320059 -3.833641 0
M  V30 54 H -3.055275 -2.214893 -5.184340 0
M  V30 55 H -2.869080 -0.639147 -5.784894 0
M  V30 56 H -4.423560 -1.259074 -5.548534 0
M  V30 57 H 3.046660 -6.100215 1.946108 0
M  V30 58 H 4.485997 -6.395431 2.963379 0
M  V30 59 H 4.593627 -5.177246 1.605473 0
M  V30 60 H 2.987445 -6.369334 4.459840 0
M  V30 61 H 1.628437 -5.144201 4.344138 0
M  V30 62 H 3.071474 -4.882404 5.436720 0
M  V30 END ATOM
M  V30 BEGIN BOND
M  V30 1 1 1 2
M  V30 2 1 2 3
M  V30 3 3 3 4
M  V30 4 1 4 5
M  V30 5 2 5 6
M  V30 6 1 6 7
M  V30 7 2 7 8
M  V30 8 1 8 9
M  V30 9 2 9 10
M  V30 10 1 10 11
M  V30 11 1 11 12
M  V30 12 2 12 13
M  V30 13 1 13 14
M  V30 14 1 8 15
M  V30 15 1 15 16
M  V30 16 1 16 17
M  V30 17 1 15 18
M  V30 18 2 18 19
M  V30 19 1 19 20
M  V30 20 1 20 21
M  V30 21 1 21 22
M  V30 22 1 22 23
M  V30 23 2 23 24
M  V30 24 1 24 25
M  V30 25 2 25 26
M  V30 26 1 26 27
M  V30 27 2 27 28
M  V30 28 1 22 29
M  V30 29 1 29 30
M  V30 30 1 30 31
M  V30 31 2 20 32
M  V30 32 1 2 33
M  V30 33 1 2 34
M  V30 34 1 32 5
M  V30 35 1 18 6
M  V30 36 1 28 23
M  V30 37 1 13 9
M  V30 38 1 1 35
M  V30 39 1 14 36
M  V30 40 1 14 37
M  V30 41 1 16 38
M  V30 42 1 16 39
M  V30 43 1 17 40
M  V30 44 1 17 41
M  V30 45 1 17 42
M  V30 46 1 19 43
M  V30 47 1 22 44 CFG=3
M  V30 48 1 24 45
M  V30 49 1 25 46
M  V30 50 1 26 47
M  V30 51 1 27 48
M  V30 52 1 28 49
M  V30 53 1 29 50
M  V30 54 1 29 51
M  V30 55 1 30 52
M  V30 56 1 30 53
M  V30 57 1 31 54
M  V30 58 1 31 55
M  V30 59 1 31 56
M  V30 60 1 33 57
M  V30 61 1 33 58
M  V30 62 1 33 59
M  V30 63 1 34 60
M  V30 64 1 34 61
M  V30 65 1 34 62
M  V30 END BOND
M  V30 END CTAB
M  END
>  <Dataset>  (159) 
PDB

>  <Ligand_Instance>  (159) 
3E8E_G98_E_351

>  <PDB_ID>  (159) 
3E8E

>  <Standardized_SMILES>  (159) 
[H]OC(C#CC1=C2N=C(C3=NON=C3N([H])[H])N(C([H])([H])C([H])([H])[H])C2=C([H])C(O[C@]([H])(C2=C([H])C([H])=C([H])C([H])=C2[H])C([H])([H])C([H])([H])[N+]([H])([H])[H])=N1)(C([H])([H])[H])C([H])([H])[H]

>  <Name>  (159) 
4-[2-(4-amino-2,5-dihydro-1,2,5-oxadiazol-3-yl)-6-{[(1S)-3-amino-1-phenylpropyl]oxy}-1-ethyl-1H-imidazo[4,5-c]pyridin-4-yl]-2-methylbut-3-yn-2-ol

>  <Pocket>  (159) 
A, B

>  <ATP_Site>  (159) 
1.0

>  <Peripheral>  (159) 
0.0

>  <Num_H_Atoms_ProtBoundConf>  (159) 
28.0

>  <Num_Resolved_Atoms>  (159) 
34.0

>  <Num_Not_Resolved_Atoms>  (159) 
0.0

$$$$
G98
     RDKit          3D

  0  0  0  0  0  0  0  0  0  0999 V3000
M  V30 BEGIN CTAB
M  V30 COUNTS 62 65 0 0 0
M  V30 BEGIN ATOM
M  V30 1 O 4.662918 -4.008679 3.881011 0
M  V30 2 C 3.507100 -4.571200 3.384953 0
M  V30 3 C 2.690611 -3.594614 2.642678 0
M  V30 4 C 2.018590 -2.795457 2.039620 0
M  V30 5 C 1.210319 -1.862535 1.307245 0
M  V30 6 C 1.603682 -0.547869 1.376980 0
M  V30 7 N 2.593061 0.090096 1.986556 0
M  V30 8 C 2.548416 1.408629 1.742195 0
M  V30 9 C 3.556574 2.265534 2.331898 0
M  V30 10 N 4.588130 1.829537 3.072917 0
M  V30 11 O 5.383776 2.751188 3.476282 0
M  V30 12 N 4.929730 3.884181 3.024900 0
M  V30 13 C 3.814441 3.604806 2.324908 0
M  V30 14 N 3.103682 4.654955 1.744897 0
M  V30 15 N 1.490854 1.583667 0.949951 0
M  V30 16 C 1.030380 2.791996 0.364271 0
M  V30 17 C 0.089167 3.601601 1.228988 0
M  V30 18 C 0.890676 0.409547 0.708773 0
M  V30 19 C -0.203493 0.011041 -0.013625 0
M  V30 20 C -0.612695 -1.288177 -0.097241 0
M  V30 21 O -1.660473 -1.881376 -0.754726 0
M  V30 22 C -2.548129 -1.111685 -1.520199 0 CFG=2
M  V30 23 C -3.887163 -1.256854 -0.888688 0
M  V30 24 C -4.733045 -0.179496 -0.669973 0
M  V30 25 C -5.965840 -0.350494 -0.081961 0
M  V30 26 C -6.380288 -1.612975 0.302022 0
M  V30 27 C -5.572115 -2.688862 0.100254 0
M  V30 28 C -4.341921 -2.510136 -0.487756 0
M  V30 29 C -2.565652 -1.556149 -2.967630 0
M  V30 30 C -3.512270 -0.742239 -3.806390 0
M  V30 31 N -3.450418 -1.250294 -5.165774 0 CHG=1 VAL=4
M  V30 32 N 0.112710 -2.212788 0.574541 0
M  V30 33 C 3.935644 -5.618542 2.360938 0
M  V30 34 C 2.724876 -5.278089 4.441251 0
M  V30 35 H 4.431559 -3.431266 4.649096 0
M  V30 36 H 3.256393 5.382079 1.010543 0
M  V30 37 H 3.197085 5.402140 1.023048 0
M  V30 38 H 1.831610 3.424123 -0.006512 0
M  V30 39 H 0.372737 2.503026 -0.548861 0
M  V30 40 H 0.550678 3.564792 2.260134 0
M  V30 41 H -0.900266 3.131571 1.332301 0
M  V30 42 H 0.065985 4.657882 0.967355 0
M  V30 43 H -0.770527 0.728418 -0.537867 0
M  V30 44 H -2.315691 -0.033302 -1.537122 0
M  V30 45 H -4.398846 0.809142 -0.975026 0
M  V30 46 H -6.637604 0.492252 0.093728 0
M  V30 47 H -7.333714 -1.749776 0.757476 0
M  V30 48 H -5.910129 -3.666655 0.405562 0
M  V30 49 H -3.737639 -3.409027 -0.623915 0
M  V30 50 H -1.543504 -1.330679 -3.364036 0
M  V30 51 H -2.724633 -2.627847 -3.104459 0
M  V30 52 H -4.553111 -0.775493 -3.436050 0
M  V30 53 H -3.199129 0.320059 -3.833641 0
M  V30 54 H -3.055275 -2.214893 -5.184340 0
M  V30 55 H -2.869080 -0.639147 -5.784894 0
M  V30 56 H -4.423560 -1.259074 -5.548534 0
M  V30 57 H 3.046660 -6.100215 1.946108 0
M  V30 58 H 4.485997 -6.395431 2.963379 0
M  V30 59 H 4.593627 -5.177246 1.605473 0
M  V30 60 H 2.987445 -6.369334 4.459840 0
M  V30 61 H 1.628437 -5.144201 4.344138 0
M  V30 62 H 3.071474 -4.882404 5.436720 0
M  V30 END ATOM
M  V30 BEGIN BOND
M  V30 1 1 1 2
M  V30 2 1 2 3
M  V30 3 3 3 4
M  V30 4 1 4 5
M  V30 5 2 5 6
M  V30 6 1 6 7
M  V30 7 2 7 8
M  V30 8 1 8 9
M  V30 9 2 9 10
M  V30 10 1 10 11
M  V30 11 1 11 12
M  V30 12 2 12 13
M  V30 13 1 13 14
M  V30 14 1 8 15
M  V30 15 1 15 16
M  V30 16 1 16 17
M  V30 17 1 15 18
M  V30 18 2 18 19
M  V30 19 1 19 20
M  V30 20 1 20 21
M  V30 21 1 21 22
M  V30 22 1 22 23
M  V30 23 2 23 24
M  V30 24 1 24 25
M  V30 25 2 25 26
M  V30 26 1 26 27
M  V30 27 2 27 28
M  V30 28 1 22 29
M  V30 29 1 29 30
M  V30 30 1 30 31
M  V30 31 2 20 32
M  V30 32 1 2 33
M  V30 33 1 2 34
M  V30 34 1 32 5
M  V30 35 1 18 6
M  V30 36 1 28 23
M  V30 37 1 13 9
M  V30 38 1 1 35
M  V30 39 1 14 36
M  V30 40 1 14 37
M  V30 41 1 16 38
M  V30 42 1 16 39
M  V30 43 1 17 40
M  V30 44 1 17 41
M  V30 45 1 17 42
M  V30 46 1 19 43
M  V30 47 1 22 44 CFG=3
M  V30 48 1 24 45
M  V30 49 1 25 46
M  V30 50 1 26 47
M  V30 51 1 27 48
M  V30 52 1 28 49
M  V30 53 1 29 50
M  V30 54 1 29 51
M  V30 55 1 30 52
M  V30 56 1 30 53
M  V30 57 1 31 54
M  V30 58 1 31 55
M  V30 59 1 31 56
M  V30 60 1 33 57
M  V30 61 1 33 58
M  V30 62 1 33 59
M  V30 63 1 34 60
M  V30 64 1 34 61
M  V30 65 1 34 62
M  V30 END BOND
M  V30 END CTAB
M  END
>  <Dataset>  (160) 
PDB

>  <Ligand_Instance>  (160) 
3E8E_G98_I_351

>  <PDB_ID>  (160) 
3E8E

>  <Standardized_SMILES>  (160) 
[H]OC(C#CC1=C2N=C(C3=NON=C3N([H])[H])N(C([H])([H])C([H])([H])[H])C2=C([H])C(O[C@]([H])(C2=C([H])C([H])=C([H])C([H])=C2[H])C([H])([H])C([H])([H])[N+]([H])([H])[H])=N1)(C([H])([H])[H])C([H])([H])[H]

>  <Name>  (160) 
4-[2-(4-amino-2,5-dihydro-1,2,5-oxadiazol-3-yl)-6-{[(1S)-3-amino-1-phenylpropyl]oxy}-1-ethyl-1H-imidazo[4,5-c]pyridin-4-yl]-2-methylbut-3-yn-2-ol

>  <Pocket>  (160) 
A, B

>  <ATP_Site>  (160) 
1.0

>  <Peripheral>  (160) 
0.0

>  <Num_H_Atoms_ProtBoundConf>  (160) 
28.0

>  <Num_Resolved_Atoms>  (160) 
34.0

>  <Num_Not_Resolved_Atoms>  (160) 
0.0

$$$$
G98
     RDKit          3D

  0  0  0  0  0  0  0  0  0  0999 V3000
M  V30 BEGIN CTAB
M  V30 COUNTS 62 65 0 0 0
M  V30 BEGIN ATOM
M  V30 1 O 4.662918 -4.008679 3.881011 0
M  V30 2 C 3.507100 -4.571200 3.384953 0
M  V30 3 C 2.690611 -3.594614 2.642678 0
M  V30 4 C 2.018590 -2.795457 2.039620 0
M  V30 5 C 1.210319 -1.862535 1.307245 0
M  V30 6 C 1.603682 -0.547869 1.376980 0
M  V30 7 N 2.593061 0.090096 1.986556 0
M  V30 8 C 2.548416 1.408629 1.742195 0
M  V30 9 C 3.556574 2.265534 2.331898 0
M  V30 10 N 4.588130 1.829537 3.072917 0
M  V30 11 O 5.383776 2.751188 3.476282 0
M  V30 12 N 4.929730 3.884181 3.024900 0
M  V30 13 C 3.814441 3.604806 2.324908 0
M  V30 14 N 3.103682 4.654955 1.744897 0
M  V30 15 N 1.490854 1.583667 0.949951 0
M  V30 16 C 1.030380 2.791996 0.364271 0
M  V30 17 C 0.089167 3.601601 1.228988 0
M  V30 18 C 0.890676 0.409547 0.708773 0
M  V30 19 C -0.203493 0.011041 -0.013625 0
M  V30 20 C -0.612695 -1.288177 -0.097241 0
M  V30 21 O -1.660473 -1.881376 -0.754726 0
M  V30 22 C -2.548129 -1.111685 -1.520199 0 CFG=2
M  V30 23 C -3.887163 -1.256854 -0.888688 0
M  V30 24 C -4.733045 -0.179496 -0.669973 0
M  V30 25 C -5.965840 -0.350494 -0.081961 0
M  V30 26 C -6.380288 -1.612975 0.302022 0
M  V30 27 C -5.572115 -2.688862 0.100254 0
M  V30 28 C -4.341921 -2.510136 -0.487756 0
M  V30 29 C -2.565652 -1.556149 -2.967630 0
M  V30 30 C -3.512270 -0.742239 -3.806390 0
M  V30 31 N -3.450418 -1.250294 -5.165774 0 CHG=1 VAL=4
M  V30 32 N 0.112710 -2.212788 0.574541 0
M  V30 33 C 3.935644 -5.618542 2.360938 0
M  V30 34 C 2.724876 -5.278089 4.441251 0
M  V30 35 H 4.431559 -3.431266 4.649096 0
M  V30 36 H 3.256393 5.382079 1.010543 0
M  V30 37 H 3.197085 5.402140 1.023048 0
M  V30 38 H 1.831610 3.424123 -0.006512 0
M  V30 39 H 0.372737 2.503026 -0.548861 0
M  V30 40 H 0.550678 3.564792 2.260134 0
M  V30 41 H -0.900266 3.131571 1.332301 0
M  V30 42 H 0.065985 4.657882 0.967355 0
M  V30 43 H -0.770527 0.728418 -0.537867 0
M  V30 44 H -2.315691 -0.033302 -1.537122 0
M  V30 45 H -4.398846 0.809142 -0.975026 0
M  V30 46 H -6.637604 0.492252 0.093728 0
M  V30 47 H -7.333714 -1.749776 0.757476 0
M  V30 48 H -5.910129 -3.666655 0.405562 0
M  V30 49 H -3.737639 -3.409027 -0.623915 0
M  V30 50 H -1.543504 -1.330679 -3.364036 0
M  V30 51 H -2.724633 -2.627847 -3.104459 0
M  V30 52 H -4.553111 -0.775493 -3.436050 0
M  V30 53 H -3.199129 0.320059 -3.833641 0
M  V30 54 H -3.055275 -2.214893 -5.184340 0
M  V30 55 H -2.869080 -0.639147 -5.784894 0
M  V30 56 H -4.423560 -1.259074 -5.548534 0
M  V30 57 H 3.046660 -6.100215 1.946108 0
M  V30 58 H 4.485997 -6.395431 2.963379 0
M  V30 59 H 4.593627 -5.177246 1.605473 0
M  V30 60 H 2.987445 -6.369334 4.459840 0
M  V30 61 H 1.628437 -5.144201 4.344138 0
M  V30 62 H 3.071474 -4.882404 5.436720 0
M  V30 END ATOM
M  V30 BEGIN BOND
M  V30 1 1 1 2
M  V30 2 1 2 3
M  V30 3 3 3 4
M  V30 4 1 4 5
M  V30 5 2 5 6
M  V30 6 1 6 7
M  V30 7 2 7 8
M  V30 8 1 8 9
M  V30 9 2 9 10
M  V30 10 1 10 11
M  V30 11 1 11 12
M  V30 12 2 12 13
M  V30 13 1 13 14
M  V30 14 1 8 15
M  V30 15 1 15 16
M  V30 16 1 16 17
M  V30 17 1 15 18
M  V30 18 2 18 19
M  V30 19 1 19 20
M  V30 20 1 20 21
M  V30 21 1 21 22
M  V30 22 1 22 23
M  V30 23 2 23 24
M  V30 24 1 24 25
M  V30 25 2 25 26
M  V30 26 1 26 27
M  V30 27 2 27 28
M  V30 28 1 22 29
M  V30 29 1 29 30
M  V30 30 1 30 31
M  V30 31 2 20 32
M  V30 32 1 2 33
M  V30 33 1 2 34
M  V30 34 1 32 5
M  V30 35 1 18 6
M  V30 36 1 28 23
M  V30 37 1 13 9
M  V30 38 1 1 35
M  V30 39 1 14 36
M  V30 40 1 14 37
M  V30 41 1 16 38
M  V30 42 1 16 39
M  V30 43 1 17 40
M  V30 44 1 17 41
M  V30 45 1 17 42
M  V30 46 1 19 43
M  V30 47 1 22 44 CFG=3
M  V30 48 1 24 45
M  V30 49 1 25 46
M  V30 50 1 26 47
M  V30 51 1 27 48
M  V30 52 1 28 49
M  V30 53 1 29 50
M  V30 54 1 29 51
M  V30 55 1 30 52
M  V30 56 1 30 53
M  V30 57 1 31 54
M  V30 58 1 31 55
M  V30 59 1 31 56
M  V30 60 1 33 57
M  V30 61 1 33 58
M  V30 62 1 33 59
M  V30 63 1 34 60
M  V30 64 1 34 61
M  V30 65 1 34 62
M  V30 END BOND
M  V30 END CTAB
M  END
>  <Dataset>  (161) 
PDB

>  <Ligand_Instance>  (161) 
3E8E_G98_L_351

>  <PDB_ID>  (161) 
3E8E

>  <Standardized_SMILES>  (161) 
[H]OC(C#CC1=C2N=C(C3=NON=C3N([H])[H])N(C([H])([H])C([H])([H])[H])C2=C([H])C(O[C@]([H])(C2=C([H])C([H])=C([H])C([H])=C2[H])C([H])([H])C([H])([H])[N+]([H])([H])[H])=N1)(C([H])([H])[H])C([H])([H])[H]

>  <Name>  (161) 
4-[2-(4-amino-2,5-dihydro-1,2,5-oxadiazol-3-yl)-6-{[(1S)-3-amino-1-phenylpropyl]oxy}-1-ethyl-1H-imidazo[4,5-c]pyridin-4-yl]-2-methylbut-3-yn-2-ol

>  <Pocket>  (161) 
A, B

>  <ATP_Site>  (161) 
1.0

>  <Peripheral>  (161) 
0.0

>  <Num_H_Atoms_ProtBoundConf>  (161) 
28.0

>  <Num_Resolved_Atoms>  (161) 
34.0

>  <Num_Not_Resolved_Atoms>  (161) 
0.0

$$$$
G98
     RDKit          3D

  0  0  0  0  0  0  0  0  0  0999 V3000
M  V30 BEGIN CTAB
M  V30 COUNTS 62 65 0 0 0
M  V30 BEGIN ATOM
M  V30 1 O 4.662918 -4.008679 3.881011 0
M  V30 2 C 3.507100 -4.571200 3.384953 0
M  V30 3 C 2.690611 -3.594614 2.642678 0
M  V30 4 C 2.018590 -2.795457 2.039620 0
M  V30 5 C 1.210319 -1.862535 1.307245 0
M  V30 6 C 1.603682 -0.547869 1.376980 0
M  V30 7 N 2.593061 0.090096 1.986556 0
M  V30 8 C 2.548416 1.408629 1.742195 0
M  V30 9 C 3.556574 2.265534 2.331898 0
M  V30 10 N 4.588130 1.829537 3.072917 0
M  V30 11 O 5.383776 2.751188 3.476282 0
M  V30 12 N 4.929730 3.884181 3.024900 0
M  V30 13 C 3.814441 3.604806 2.324908 0
M  V30 14 N 3.103682 4.654955 1.744897 0
M  V30 15 N 1.490854 1.583667 0.949951 0
M  V30 16 C 1.030380 2.791996 0.364271 0
M  V30 17 C 0.089167 3.601601 1.228988 0
M  V30 18 C 0.890676 0.409547 0.708773 0
M  V30 19 C -0.203493 0.011041 -0.013625 0
M  V30 20 C -0.612695 -1.288177 -0.097241 0
M  V30 21 O -1.660473 -1.881376 -0.754726 0
M  V30 22 C -2.548129 -1.111685 -1.520199 0 CFG=2
M  V30 23 C -3.887163 -1.256854 -0.888688 0
M  V30 24 C -4.733045 -0.179496 -0.669973 0
M  V30 25 C -5.965840 -0.350494 -0.081961 0
M  V30 26 C -6.380288 -1.612975 0.302022 0
M  V30 27 C -5.572115 -2.688862 0.100254 0
M  V30 28 C -4.341921 -2.510136 -0.487756 0
M  V30 29 C -2.565652 -1.556149 -2.967630 0
M  V30 30 C -3.512270 -0.742239 -3.806390 0
M  V30 31 N -3.450418 -1.250294 -5.165774 0 CHG=1 VAL=4
M  V30 32 N 0.112710 -2.212788 0.574541 0
M  V30 33 C 3.935644 -5.618542 2.360938 0
M  V30 34 C 2.724876 -5.278089 4.441251 0
M  V30 35 H 4.431559 -3.431266 4.649096 0
M  V30 36 H 3.256393 5.382079 1.010543 0
M  V30 37 H 3.197085 5.402140 1.023048 0
M  V30 38 H 1.831610 3.424123 -0.006512 0
M  V30 39 H 0.372737 2.503026 -0.548861 0
M  V30 40 H 0.550678 3.564792 2.260134 0
M  V30 41 H -0.900266 3.131571 1.332301 0
M  V30 42 H 0.065985 4.657882 0.967355 0
M  V30 43 H -0.770527 0.728418 -0.537867 0
M  V30 44 H -2.315691 -0.033302 -1.537122 0
M  V30 45 H -4.398846 0.809142 -0.975026 0
M  V30 46 H -6.637604 0.492252 0.093728 0
M  V30 47 H -7.333714 -1.749776 0.757476 0
M  V30 48 H -5.910129 -3.666655 0.405562 0
M  V30 49 H -3.737639 -3.409027 -0.623915 0
M  V30 50 H -1.543504 -1.330679 -3.364036 0
M  V30 51 H -2.724633 -2.627847 -3.104459 0
M  V30 52 H -4.553111 -0.775493 -3.436050 0
M  V30 53 H -3.199129 0.320059 -3.833641 0
M  V30 54 H -3.055275 -2.214893 -5.184340 0
M  V30 55 H -2.869080 -0.639147 -5.784894 0
M  V30 56 H -4.423560 -1.259074 -5.548534 0
M  V30 57 H 3.046660 -6.100215 1.946108 0
M  V30 58 H 4.485997 -6.395431 2.963379 0
M  V30 59 H 4.593627 -5.177246 1.605473 0
M  V30 60 H 2.987445 -6.369334 4.459840 0
M  V30 61 H 1.628437 -5.144201 4.344138 0
M  V30 62 H 3.071474 -4.882404 5.436720 0
M  V30 END ATOM
M  V30 BEGIN BOND
M  V30 1 1 1 2
M  V30 2 1 2 3
M  V30 3 3 3 4
M  V30 4 1 4 5
M  V30 5 2 5 6
M  V30 6 1 6 7
M  V30 7 2 7 8
M  V30 8 1 8 9
M  V30 9 2 9 10
M  V30 10 1 10 11
M  V30 11 1 11 12
M  V30 12 2 12 13
M  V30 13 1 13 14
M  V30 14 1 8 15
M  V30 15 1 15 16
M  V30 16 1 16 17
M  V30 17 1 15 18
M  V30 18 2 18 19
M  V30 19 1 19 20
M  V30 20 1 20 21
M  V30 21 1 21 22
M  V30 22 1 22 23
M  V30 23 2 23 24
M  V30 24 1 24 25
M  V30 25 2 25 26
M  V30 26 1 26 27
M  V30 27 2 27 28
M  V30 28 1 22 29
M  V30 29 1 29 30
M  V30 30 1 30 31
M  V30 31 2 20 32
M  V30 32 1 2 33
M  V30 33 1 2 34
M  V30 34 1 32 5
M  V30 35 1 18 6
M  V30 36 1 28 23
M  V30 37 1 13 9
M  V30 38 1 1 35
M  V30 39 1 14 36
M  V30 40 1 14 37
M  V30 41 1 16 38
M  V30 42 1 16 39
M  V30 43 1 17 40
M  V30 44 1 17 41
M  V30 45 1 17 42
M  V30 46 1 19 43
M  V30 47 1 22 44 CFG=3
M  V30 48 1 24 45
M  V30 49 1 25 46
M  V30 50 1 26 47
M  V30 51 1 27 48
M  V30 52 1 28 49
M  V30 53 1 29 50
M  V30 54 1 29 51
M  V30 55 1 30 52
M  V30 56 1 30 53
M  V30 57 1 31 54
M  V30 58 1 31 55
M  V30 59 1 31 56
M  V30 60 1 33 57
M  V30 61 1 33 58
M  V30 62 1 33 59
M  V30 63 1 34 60
M  V30 64 1 34 61
M  V30 65 1 34 62
M  V30 END BOND
M  V30 END CTAB
M  END
>  <Dataset>  (162) 
PDB

>  <Ligand_Instance>  (162) 
3E8E_G98_P_351

>  <PDB_ID>  (162) 
3E8E

>  <Standardized_SMILES>  (162) 
[H]OC(C#CC1=C2N=C(C3=NON=C3N([H])[H])N(C([H])([H])C([H])([H])[H])C2=C([H])C(O[C@]([H])(C2=C([H])C([H])=C([H])C([H])=C2[H])C([H])([H])C([H])([H])[N+]([H])([H])[H])=N1)(C([H])([H])[H])C([H])([H])[H]

>  <Name>  (162) 
4-[2-(4-amino-2,5-dihydro-1,2,5-oxadiazol-3-yl)-6-{[(1S)-3-amino-1-phenylpropyl]oxy}-1-ethyl-1H-imidazo[4,5-c]pyridin-4-yl]-2-methylbut-3-yn-2-ol

>  <Pocket>  (162) 
A, B

>  <ATP_Site>  (162) 
1.0

>  <Peripheral>  (162) 
0.0

>  <Num_H_Atoms_ProtBoundConf>  (162) 
28.0

>  <Num_Resolved_Atoms>  (162) 
34.0

>  <Num_Not_Resolved_Atoms>  (162) 
0.0

$$$$
GAB
     RDKit          3D

  0  0  0  0  0  0  0  0  0  0999 V3000
M  V30 BEGIN CTAB
M  V30 COUNTS 17 17 0 0 0
M  V30 BEGIN ATOM
M  V30 1 O -0.846027 -2.204246 1.009631 0
M  V30 2 C 0.169528 -1.763513 1.867250 0
M  V30 3 O 0.467721 -2.456404 2.874188 0
M  V30 4 C 0.870833 -0.515449 1.592882 0
M  V30 5 C 1.865079 -0.118571 2.464172 0
M  V30 6 C 2.513512 1.066745 2.181708 0
M  V30 7 C 2.229397 1.867865 1.092998 0
M  V30 8 C 1.221795 1.418982 0.252861 0
M  V30 9 N 0.820513 2.152370 -0.919258 0
M  V30 10 C 0.526529 0.227522 0.482755 0
M  V30 11 H -1.266797 -3.136228 1.141169 0
M  V30 12 H 2.172347 -0.671411 3.353683 0
M  V30 13 H 3.296507 1.400764 2.848148 0
M  V30 14 H 2.720283 2.783609 0.862233 0
M  V30 15 H 0.168071 2.832034 -0.508452 0
M  V30 16 H 1.041897 2.113051 -1.922934 0
M  V30 17 H -0.254238 -0.090065 -0.196008 0
M  V30 END ATOM
M  V30 BEGIN BOND
M  V30 1 1 1 2
M  V30 2 2 2 3
M  V30 3 1 2 4
M  V30 4 2 4 5
M  V30 5 1 5 6
M  V30 6 2 6 7
M  V30 7 1 7 8
M  V30 8 1 8 9
M  V30 9 2 8 10
M  V30 10 1 10 4
M  V30 11 1 1 11
M  V30 12 1 5 12
M  V30 13 1 6 13
M  V30 14 1 7 14
M  V30 15 1 9 15
M  V30 16 1 9 16
M  V30 17 1 10 17
M  V30 END BOND
M  V30 END CTAB
M  END
>  <Dataset>  (163) 
PDB

>  <Ligand_Instance>  (163) 
6SPU_GAB_A_405

>  <PDB_ID>  (163) 
6SPU

>  <Standardized_SMILES>  (163) 
[H]OC(=O)C1=C([H])C([H])=C([H])C(N([H])[H])=C1[H]

>  <Name>  (163) 
3-AMINOBENZOIC ACID

>  <Pocket>  (163) 
A

>  <ATP_Site>  (163) 
1.0

>  <Peripheral>  (163) 
0.0

>  <Num_H_Atoms_ProtBoundConf>  (163) 
7.0

>  <Num_Resolved_Atoms>  (163) 
10.0

>  <Num_Not_Resolved_Atoms>  (163) 
0.0

$$$$
GGB
     RDKit          3D

  0  0  0  0  0  0  0  0  0  0999 V3000
M  V30 BEGIN CTAB
M  V30 COUNTS 13 12 0 0 0
M  V30 BEGIN ATOM
M  V30 1 H 0.712941 -2.353584 2.711928 0
M  V30 2 N 1.302327 -1.791756 2.054023 0
M  V30 3 C 0.977432 -0.620907 1.615714 0
M  V30 4 N -0.227617 0.053170 1.974741 0
M  V30 5 N 1.890939 0.031387 0.714215 0
M  V30 6 O 2.580850 -0.726137 -0.200427 0
M  V30 7 C 1.928932 -0.469364 -1.416948 0
M  V30 8 H -0.386815 0.133173 3.015680 0
M  V30 9 H -0.949614 0.464979 1.318381 0
M  V30 10 H 2.006490 1.086449 0.782079 0
M  V30 11 H 1.160094 -1.259152 -1.653956 0
M  V30 12 H 2.690966 -0.460270 -2.212431 0
M  V30 13 H 1.355744 0.485716 -1.402853 0
M  V30 END ATOM
M  V30 BEGIN BOND
M  V30 1 1 1 2
M  V30 2 2 2 3
M  V30 3 1 3 4
M  V30 4 1 3 5
M  V30 5 1 5 6
M  V30 6 1 6 7
M  V30 7 1 4 8
M  V30 8 1 4 9
M  V30 9 1 5 10
M  V30 10 1 7 11
M  V30 11 1 7 12
M  V30 12 1 7 13
M  V30 END BOND
M  V30 END CTAB
M  END
>  <Dataset>  (164) 
PDB

>  <Ligand_Instance>  (164) 
5N3K_GGB_A_401

>  <PDB_ID>  (164) 
5N3K

>  <Standardized_SMILES>  (164) 
[H]/N=C(\N([H])[H])N([H])OC([H])([H])[H]

>  <Name>  (164) 
L-CANAVANINE

>  <Pocket>  (164) 
X

>  <ATP_Site>  (164) 
0.0

>  <Peripheral>  (164) 
1.0

>  <Num_H_Atoms_ProtBoundConf>  (164) 
7.0

>  <Num_Resolved_Atoms>  (164) 
6.0

>  <Num_Not_Resolved_Atoms>  (164) 
6.0

$$$$
GVG
     RDKit          3D

  0  0  0  0  0  0  0  0  0  0999 V3000
M  V30 BEGIN CTAB
M  V30 COUNTS 22 23 0 0 0
M  V30 BEGIN ATOM
M  V30 1 C 0.925350 -1.697921 2.431947 0
M  V30 2 N 1.651177 -1.522023 3.533420 0
M  V30 3 N 1.963577 -0.258508 3.668191 0
M  V30 4 C 1.426572 0.404710 2.626635 0
M  V30 5 C 1.569660 1.859184 2.438186 0
M  V30 6 C 0.750772 -0.475827 1.805829 0
M  V30 7 C 0.029519 -0.197592 0.581914 0
M  V30 8 C 0.306276 -1.109077 -0.442392 0
M  V30 9 C -0.273256 -1.028302 -1.690885 0
M  V30 10 C -1.170189 -0.005690 -1.956802 0
M  V30 11 C -1.444490 0.892666 -0.950938 0
M  V30 12 C -0.865210 0.811243 0.295744 0
M  V30 13 H 0.515299 -2.635342 2.049073 0
M  V30 14 H 2.542549 0.089424 4.487503 0
M  V30 15 H 1.215913 2.240882 1.488364 0
M  V30 16 H 0.995999 2.349481 3.276850 0
M  V30 17 H 2.633956 2.175643 2.609130 0
M  V30 18 H 0.997926 -1.959376 -0.351944 0
M  V30 19 H -0.081070 -1.710437 -2.493491 0
M  V30 20 H -1.637928 0.076504 -2.932911 0
M  V30 21 H -2.134707 1.715534 -1.088857 0
M  V30 22 H -1.031169 1.477240 1.131691 0
M  V30 END ATOM
M  V30 BEGIN BOND
M  V30 1 2 1 2
M  V30 2 1 2 3
M  V30 3 1 3 4
M  V30 4 1 4 5
M  V30 5 2 4 6
M  V30 6 1 6 7
M  V30 7 2 7 8
M  V30 8 1 8 9
M  V30 9 2 9 10
M  V30 10 1 10 11
M  V30 11 2 11 12
M  V30 12 1 6 1
M  V30 13 1 12 7
M  V30 14 1 1 13
M  V30 15 1 3 14
M  V30 16 1 5 15
M  V30 17 1 5 16
M  V30 18 1 5 17
M  V30 19 1 8 18
M  V30 20 1 9 19
M  V30 21 1 10 20
M  V30 22 1 11 21
M  V30 23 1 12 22
M  V30 END BOND
M  V30 END CTAB
M  END
>  <Dataset>  (165) 
PDB

>  <Ligand_Instance>  (165) 
2UW3_GVG_A_1351

>  <PDB_ID>  (165) 
2UW3

>  <Standardized_SMILES>  (165) 
[H]C1=NN([H])C(C([H])([H])[H])=C1C1=C([H])C([H])=C([H])C([H])=C1[H]

>  <Name>  (165) 
3-METHYL-4-PHENYL-1H-PYRAZOLE

>  <Pocket>  (165) 
A

>  <ATP_Site>  (165) 
1.0

>  <Peripheral>  (165) 
0.0

>  <Num_H_Atoms_ProtBoundConf>  (165) 
10.0

>  <Num_Resolved_Atoms>  (165) 
12.0

>  <Num_Not_Resolved_Atoms>  (165) 
0.0

$$$$
GVN
     RDKit          3D

  0  0  0  0  0  0  0  0  0  0999 V3000
M  V30 BEGIN CTAB
M  V30 COUNTS 38 40 0 0 0
M  V30 BEGIN ATOM
M  V30 1 C -2.152362 -4.165473 3.003250 0
M  V30 2 N -2.026743 -5.012764 4.051433 0
M  V30 3 N -0.821832 -4.930304 4.564884 0
M  V30 4 C -0.062251 -4.039261 3.913405 0
M  V30 5 C -0.902607 -3.542241 2.910876 0
M  V30 6 C -0.536281 -2.532569 1.922803 0
M  V30 7 C 0.806542 -2.511992 1.530166 0
M  V30 8 C 1.209836 -1.576226 0.596825 0
M  V30 9 C 0.344622 -0.658725 0.033415 0
M  V30 10 C 0.769618 0.351200 -0.970508 0 CFG=2
M  V30 11 C 1.185351 1.572685 -0.251328 0
M  V30 12 C 2.519784 1.716220 0.140452 0
M  V30 13 C 2.939117 2.858657 0.819559 0
M  V30 14 C 2.031661 3.867764 1.113914 0
M  V30 15 Cl 2.491092 5.341752 1.970475 0
M  V30 16 C 0.691239 3.756696 0.737185 0
M  V30 17 C 0.332087 2.606587 0.068567 0
M  V30 18 C -0.284730 0.638547 -2.014333 0
M  V30 19 N -0.634526 -0.557159 -2.760701 0 CHG=1 VAL=4
M  V30 20 C -0.986666 -0.696493 0.437901 0
M  V30 21 C -1.430228 -1.631362 1.381657 0
M  V30 22 H -2.999042 -3.979573 2.359065 0
M  V30 23 H -0.513311 -5.497194 5.379894 0
M  V30 24 H 0.971433 -3.729593 4.076239 0
M  V30 25 H 1.561538 -3.179647 1.905295 0
M  V30 26 H 2.246494 -1.535444 0.271712 0
M  V30 27 H 1.663729 -0.025175 -1.546618 0
M  V30 28 H 3.249321 0.926070 -0.085338 0
M  V30 29 H 3.973816 3.004031 1.140549 0
M  V30 30 H -0.021305 4.537193 0.962234 0
M  V30 31 H -0.709274 2.539000 -0.214620 0
M  V30 32 H -1.190569 1.111856 -1.588451 0
M  V30 33 H 0.189199 1.338737 -2.733377 0
M  V30 34 H 0.150209 -0.953067 -3.282689 0
M  V30 35 H -1.379953 -0.311603 -3.448594 0
M  V30 36 H -1.000531 -1.247929 -2.056762 0
M  V30 37 H -1.735835 -0.002714 0.038440 0
M  V30 38 H -2.463920 -1.671621 1.705305 0
M  V30 END ATOM
M  V30 BEGIN BOND
M  V30 1 2 1 2
M  V30 2 1 2 3
M  V30 3 1 3 4
M  V30 4 2 4 5
M  V30 5 1 5 6
M  V30 6 2 6 7
M  V30 7 1 7 8
M  V30 8 2 8 9
M  V30 9 1 9 10
M  V30 10 1 10 11
M  V30 11 2 11 12
M  V30 12 1 12 13
M  V30 13 2 13 14
M  V30 14 1 14 15
M  V30 15 1 14 16
M  V30 16 2 16 17
M  V30 17 1 10 18
M  V30 18 1 18 19
M  V30 19 1 9 20
M  V30 20 2 20 21
M  V30 21 1 5 1
M  V30 22 1 21 6
M  V30 23 1 17 11
M  V30 24 1 1 22
M  V30 25 1 3 23
M  V30 26 1 4 24
M  V30 27 1 7 25
M  V30 28 1 8 26
M  V30 29 1 10 27 CFG=3
M  V30 30 1 12 28
M  V30 31 1 13 29
M  V30 32 1 16 30
M  V30 33 1 17 31
M  V30 34 1 18 32
M  V30 35 1 18 33
M  V30 36 1 19 34
M  V30 37 1 19 35
M  V30 38 1 19 36
M  V30 39 1 20 37
M  V30 40 1 21 38
M  V30 END BOND
M  V30 END CTAB
M  END
>  <Dataset>  (166) 
PDB

>  <Ligand_Instance>  (166) 
2UW5_GVN_A_1351

>  <PDB_ID>  (166) 
2UW5

>  <Standardized_SMILES>  (166) 
[H]C1=NN([H])C([H])=C1C1=C([H])C([H])=C([C@]([H])(C2=C([H])C([H])=C(Cl)C([H])=C2[H])C([H])([H])[N+]([H])([H])[H])C([H])=C1[H]

>  <Name>  (166) 
(2R)-2-(4-CHLOROPHENYL)-2-[4-(1H-PYRAZOL-4-YL)PHENYL]ETHANAMINE

>  <Pocket>  (166) 
A

>  <ATP_Site>  (166) 
1.0

>  <Peripheral>  (166) 
0.0

>  <Num_H_Atoms_ProtBoundConf>  (166) 
17.0

>  <Num_Resolved_Atoms>  (166) 
21.0

>  <Num_Not_Resolved_Atoms>  (166) 
0.0

$$$$
GVQ
     RDKit          3D

  0  0  0  0  0  0  0  0  0  0999 V3000
M  V30 BEGIN CTAB
M  V30 COUNTS 31 32 0 0 0
M  V30 BEGIN ATOM
M  V30 1 C -3.039793 0.251890 2.863617 0
M  V30 2 C -1.816065 0.412416 3.497587 0
M  V30 3 C -0.693684 -0.144224 2.906793 0
M  V30 4 C -0.721434 -0.860554 1.705467 0
M  V30 5 C 0.535350 -1.423457 1.144474 0 CFG=2
M  V30 6 C 1.129425 -0.418931 0.267322 0
M  V30 7 C 2.033659 0.569746 0.607960 0
M  V30 8 C 2.507308 1.453364 -0.347971 0
M  V30 9 C 2.113225 1.397481 -1.659521 0
M  V30 10 Cl 2.730023 2.530122 -2.848480 0
M  V30 11 C 1.212539 0.422582 -2.029524 0
M  V30 12 C 0.744881 -0.461208 -1.050484 0
M  V30 13 C 0.341947 -2.771243 0.552590 0
M  V30 14 N 1.584144 -3.294792 0.013619 0 CHG=1 VAL=4
M  V30 15 C -1.950586 -0.997445 1.109232 0
M  V30 16 C -3.089135 -0.451685 1.677066 0
M  V30 17 H -3.955244 0.663418 3.274726 0
M  V30 18 H -1.742677 0.957521 4.427409 0
M  V30 19 H 0.278469 -0.041398 3.369311 0
M  V30 20 H 1.242350 -1.543433 2.013441 0
M  V30 21 H 2.325749 0.584257 1.663488 0
M  V30 22 H 3.214307 2.204331 -0.013202 0
M  V30 23 H 0.911301 0.387981 -3.057272 0
M  V30 24 H 0.046092 -1.188295 -1.428341 0
M  V30 25 H -0.489765 -2.836145 -0.174057 0
M  V30 26 H 0.052115 -3.463872 1.372006 0
M  V30 27 H 2.168318 -2.554723 -0.429145 0
M  V30 28 H 1.407640 -4.085540 -0.653903 0
M  V30 29 H 2.135562 -3.686480 0.804992 0
M  V30 30 H -2.030183 -1.544864 0.173689 0
M  V30 31 H -4.031204 -0.591132 1.162578 0
M  V30 END ATOM
M  V30 BEGIN BOND
M  V30 1 2 1 2
M  V30 2 1 2 3
M  V30 3 2 3 4
M  V30 4 1 4 5
M  V30 5 1 5 6
M  V30 6 2 6 7
M  V30 7 1 7 8
M  V30 8 2 8 9
M  V30 9 1 9 10
M  V30 10 1 9 11
M  V30 11 2 11 12
M  V30 12 1 5 13
M  V30 13 1 13 14
M  V30 14 1 4 15
M  V30 15 2 15 16
M  V30 16 1 16 1
M  V30 17 1 12 6
M  V30 18 1 1 17
M  V30 19 1 2 18
M  V30 20 1 3 19
M  V30 21 1 5 20 CFG=1
M  V30 22 1 7 21
M  V30 23 1 8 22
M  V30 24 1 11 23
M  V30 25 1 12 24
M  V30 26 1 13 25
M  V30 27 1 13 26
M  V30 28 1 14 27
M  V30 29 1 14 28
M  V30 30 1 14 29
M  V30 31 1 15 30
M  V30 32 1 16 31
M  V30 END BOND
M  V30 END CTAB
M  END
>  <Dataset>  (167) 
PDB

>  <Ligand_Instance>  (167) 
2UW8_GVQ_A_1351

>  <PDB_ID>  (167) 
2UW8

>  <Standardized_SMILES>  (167) 
[H]C1=C([H])C([H])=C([C@]([H])(C2=C([H])C([H])=C(Cl)C([H])=C2[H])C([H])([H])[N+]([H])([H])[H])C([H])=C1[H]

>  <Name>  (167) 
(2R)-2-(4-CHLOROPHENYL)-2-PHENYLETHANAMINE

>  <Pocket>  (167) 
A

>  <ATP_Site>  (167) 
1.0

>  <Peripheral>  (167) 
0.0

>  <Num_H_Atoms_ProtBoundConf>  (167) 
15.0

>  <Num_Resolved_Atoms>  (167) 
16.0

>  <Num_Not_Resolved_Atoms>  (167) 
0.0

$$$$
H52
     RDKit          3D

  0  0  0  0  0  0  0  0  0  0999 V3000
M  V30 BEGIN CTAB
M  V30 COUNTS 44 46 0 0 0
M  V30 BEGIN ATOM
M  V30 1 C -3.166072 -2.281252 1.496413 0
M  V30 2 N -3.369180 -3.537080 1.991914 0
M  V30 3 C -2.392286 -4.439904 1.820929 0
M  V30 4 C -1.245087 -4.075051 1.166679 0
M  V30 5 C -0.298880 -5.054605 1.016599 0
M  V30 6 C 0.870870 -4.777470 0.362798 0
M  V30 7 C 0.989445 -3.463109 -0.106591 0
M  V30 8 C 0.090491 -2.333472 -0.024916 0
M  V30 9 S 0.606433 -0.867022 -0.675064 0
M  V30 10 O 0.275812 -0.633325 -2.158157 0
M  V30 11 O 2.072828 -1.165273 -1.061215 0
M  V30 12 N 0.957150 0.517724 0.164957 0
M  V30 13 C 0.306022 1.688026 -0.184358 0
M  V30 14 C -0.145103 2.601029 0.937349 0
M  V30 15 C 0.929908 3.637669 1.142430 0
M  V30 16 N 2.236697 2.998541 1.096972 0 CHG=1 VAL=4
M  V30 17 C 2.142393 1.787473 1.855993 0
M  V30 18 C 2.043983 0.526033 1.050852 0 CFG=2
M  V30 19 C 3.382467 0.191690 0.502181 0
M  V30 20 C -0.989886 -2.838956 0.654285 0
M  V30 21 C -2.004743 -1.936927 0.841872 0
M  V30 22 C -1.890468 -0.581475 0.340401 0
M  V30 23 H -3.982895 -1.606312 1.664897 0
M  V30 24 H -2.526235 -5.420607 2.195917 0
M  V30 25 H -0.459261 -6.042964 1.407018 0
M  V30 26 H 1.596508 -5.548322 0.252710 0
M  V30 27 H 1.980181 -3.410702 -0.607454 0
M  V30 28 H 0.956799 2.361718 -0.864721 0
M  V30 29 H -0.559716 1.518780 -0.840166 0
M  V30 30 H -0.444242 2.093910 1.850947 0
M  V30 31 H -1.048217 3.175343 0.603238 0
M  V30 32 H 0.826389 4.429298 0.370780 0
M  V30 33 H 0.764519 4.070704 2.141044 0
M  V30 34 H 2.875941 3.695221 1.586518 0
M  V30 35 H 2.635323 2.892136 0.161597 0
M  V30 36 H 3.128236 1.703579 2.407438 0
M  V30 37 H 1.399791 1.874819 2.671236 0
M  V30 38 H 1.837003 -0.277476 1.823172 0
M  V30 39 H 4.152795 0.708770 1.113862 0
M  V30 40 H 3.644957 -0.897349 0.637155 0
M  V30 41 H 3.562172 0.553362 -0.529278 0
M  V30 42 H -2.989109 -0.223199 0.285850 0
M  V30 43 H -1.758487 -0.471559 -0.734502 0
M  V30 44 H -1.597363 0.186767 1.048008 0
M  V30 END ATOM
M  V30 BEGIN BOND
M  V30 1 2 1 2
M  V30 2 1 2 3
M  V30 3 2 3 4
M  V30 4 1 4 5
M  V30 5 2 5 6
M  V30 6 1 6 7
M  V30 7 2 7 8
M  V30 8 1 8 9
M  V30 9 2 9 10
M  V30 10 2 9 11
M  V30 11 1 9 12
M  V30 12 1 12 13
M  V30 13 1 13 14
M  V30 14 1 14 15
M  V30 15 1 15 16
M  V30 16 1 16 17
M  V30 17 1 17 18
M  V30 18 1 18 19
M  V30 19 1 8 20
M  V30 20 2 20 21
M  V30 21 1 21 22
M  V30 22 1 21 1
M  V30 23 1 20 4
M  V30 24 1 18 12
M  V30 25 1 1 23
M  V30 26 1 3 24
M  V30 27 1 5 25
M  V30 28 1 6 26
M  V30 29 1 7 27
M  V30 30 1 13 28
M  V30 31 1 13 29
M  V30 32 1 14 30
M  V30 33 1 14 31
M  V30 34 1 15 32
M  V30 35 1 15 33
M  V30 36 1 16 34
M  V30 37 1 16 35
M  V30 38 1 17 36
M  V30 39 1 17 37
M  V30 40 1 18 38 CFG=1
M  V30 41 1 19 39
M  V30 42 1 19 40
M  V30 43 1 19 41
M  V30 44 1 22 42
M  V30 45 1 22 43
M  V30 46 1 22 44
M  V30 END BOND
M  V30 END CTAB
M  END
>  <Dataset>  (168) 
PDB

>  <Ligand_Instance>  (168) 
2GNH_H52_A_501

>  <PDB_ID>  (168) 
2GNH

>  <Standardized_SMILES>  (168) 
[H]C1=NC([H])=C2C([H])=C([H])C([H])=C(S(=O)(=O)N3C([H])([H])C([H])([H])C([H])([H])[N+]([H])([H])C([H])([H])[C@]3([H])C([H])([H])[H])C2=C1C([H])([H])[H]

>  <Name>  (168) 
(S)-2-METHYL-1-[(4-METHYL-5-ISOQUINOLINE)SULFONYL]-HOMOPIPERAZINE

>  <Pocket>  (168) 
A

>  <ATP_Site>  (168) 
1.0

>  <Peripheral>  (168) 
1.0

>  <Num_H_Atoms_ProtBoundConf>  (168) 
22.0

>  <Num_Resolved_Atoms>  (168) 
22.0

>  <Num_Not_Resolved_Atoms>  (168) 
0.0

$$$$
H52
     RDKit          3D

  0  0  0  0  0  0  0  0  0  0999 V3000
M  V30 BEGIN CTAB
M  V30 COUNTS 44 46 0 0 0
M  V30 BEGIN ATOM
M  V30 1 C -3.166072 -2.281252 1.496413 0
M  V30 2 N -3.369180 -3.537080 1.991914 0
M  V30 3 C -2.392286 -4.439904 1.820929 0
M  V30 4 C -1.245087 -4.075051 1.166679 0
M  V30 5 C -0.298880 -5.054605 1.016599 0
M  V30 6 C 0.870870 -4.777470 0.362798 0
M  V30 7 C 0.989445 -3.463109 -0.106591 0
M  V30 8 C 0.090491 -2.333472 -0.024916 0
M  V30 9 S 0.606433 -0.867022 -0.675064 0
M  V30 10 O 0.275812 -0.633325 -2.158157 0
M  V30 11 O 2.072828 -1.165273 -1.061215 0
M  V30 12 N 0.957150 0.517724 0.164957 0
M  V30 13 C 0.306022 1.688026 -0.184358 0
M  V30 14 C -0.145103 2.601029 0.937349 0
M  V30 15 C 0.929908 3.637669 1.142430 0
M  V30 16 N 2.236697 2.998541 1.096972 0 CHG=1 VAL=4
M  V30 17 C 2.142393 1.787473 1.855993 0
M  V30 18 C 2.043983 0.526033 1.050852 0 CFG=2
M  V30 19 C 3.382467 0.191690 0.502181 0
M  V30 20 C -0.989886 -2.838956 0.654285 0
M  V30 21 C -2.004743 -1.936927 0.841872 0
M  V30 22 C -1.890468 -0.581475 0.340401 0
M  V30 23 H -3.982895 -1.606312 1.664897 0
M  V30 24 H -2.526235 -5.420607 2.195917 0
M  V30 25 H -0.459261 -6.042964 1.407018 0
M  V30 26 H 1.596508 -5.548322 0.252710 0
M  V30 27 H 1.980181 -3.410702 -0.607454 0
M  V30 28 H 0.956799 2.361718 -0.864721 0
M  V30 29 H -0.559716 1.518780 -0.840166 0
M  V30 30 H -0.444242 2.093910 1.850947 0
M  V30 31 H -1.048217 3.175343 0.603238 0
M  V30 32 H 0.826389 4.429298 0.370780 0
M  V30 33 H 0.764519 4.070704 2.141044 0
M  V30 34 H 2.875941 3.695221 1.586518 0
M  V30 35 H 2.635323 2.892136 0.161597 0
M  V30 36 H 3.128236 1.703579 2.407438 0
M  V30 37 H 1.399791 1.874819 2.671236 0
M  V30 38 H 1.837003 -0.277476 1.823172 0
M  V30 39 H 4.152795 0.708770 1.113862 0
M  V30 40 H 3.644957 -0.897349 0.637155 0
M  V30 41 H 3.562172 0.553362 -0.529278 0
M  V30 42 H -2.989109 -0.223199 0.285850 0
M  V30 43 H -1.758487 -0.471559 -0.734502 0
M  V30 44 H -1.597363 0.186767 1.048008 0
M  V30 END ATOM
M  V30 BEGIN BOND
M  V30 1 2 1 2
M  V30 2 1 2 3
M  V30 3 2 3 4
M  V30 4 1 4 5
M  V30 5 2 5 6
M  V30 6 1 6 7
M  V30 7 2 7 8
M  V30 8 1 8 9
M  V30 9 2 9 10
M  V30 10 2 9 11
M  V30 11 1 9 12
M  V30 12 1 12 13
M  V30 13 1 13 14
M  V30 14 1 14 15
M  V30 15 1 15 16
M  V30 16 1 16 17
M  V30 17 1 17 18
M  V30 18 1 18 19
M  V30 19 1 8 20
M  V30 20 2 20 21
M  V30 21 1 21 22
M  V30 22 1 21 1
M  V30 23 1 20 4
M  V30 24 1 18 12
M  V30 25 1 1 23
M  V30 26 1 3 24
M  V30 27 1 5 25
M  V30 28 1 6 26
M  V30 29 1 7 27
M  V30 30 1 13 28
M  V30 31 1 13 29
M  V30 32 1 14 30
M  V30 33 1 14 31
M  V30 34 1 15 32
M  V30 35 1 15 33
M  V30 36 1 16 34
M  V30 37 1 16 35
M  V30 38 1 17 36
M  V30 39 1 17 37
M  V30 40 1 18 38 CFG=1
M  V30 41 1 19 39
M  V30 42 1 19 40
M  V30 43 1 19 41
M  V30 44 1 22 42
M  V30 45 1 22 43
M  V30 46 1 22 44
M  V30 END BOND
M  V30 END CTAB
M  END
>  <Dataset>  (169) 
PDB

>  <Ligand_Instance>  (169) 
2GNH_H52_A_502

>  <PDB_ID>  (169) 
2GNH

>  <Standardized_SMILES>  (169) 
[H]C1=NC([H])=C2C([H])=C([H])C([H])=C(S(=O)(=O)N3C([H])([H])C([H])([H])C([H])([H])[N+]([H])([H])C([H])([H])[C@]3([H])C([H])([H])[H])C2=C1C([H])([H])[H]

>  <Name>  (169) 
(S)-2-METHYL-1-[(4-METHYL-5-ISOQUINOLINE)SULFONYL]-HOMOPIPERAZINE

>  <Pocket>  (169) 
X

>  <ATP_Site>  (169) 
1.0

>  <Peripheral>  (169) 
1.0

>  <Num_H_Atoms_ProtBoundConf>  (169) 
22.0

>  <Num_Resolved_Atoms>  (169) 
22.0

>  <Num_Not_Resolved_Atoms>  (169) 
0.0

$$$$
H52
     RDKit          3D

  0  0  0  0  0  0  0  0  0  0999 V3000
M  V30 BEGIN CTAB
M  V30 COUNTS 44 46 0 0 0
M  V30 BEGIN ATOM
M  V30 1 C -3.166072 -2.281252 1.496413 0
M  V30 2 N -3.369180 -3.537080 1.991914 0
M  V30 3 C -2.392286 -4.439904 1.820929 0
M  V30 4 C -1.245087 -4.075051 1.166679 0
M  V30 5 C -0.298880 -5.054605 1.016599 0
M  V30 6 C 0.870870 -4.777470 0.362798 0
M  V30 7 C 0.989445 -3.463109 -0.106591 0
M  V30 8 C 0.090491 -2.333472 -0.024916 0
M  V30 9 S 0.606433 -0.867022 -0.675064 0
M  V30 10 O 0.275812 -0.633325 -2.158157 0
M  V30 11 O 2.072828 -1.165273 -1.061215 0
M  V30 12 N 0.957150 0.517724 0.164957 0
M  V30 13 C 0.306022 1.688026 -0.184358 0
M  V30 14 C -0.145103 2.601029 0.937349 0
M  V30 15 C 0.929908 3.637669 1.142430 0
M  V30 16 N 2.236697 2.998541 1.096972 0 CHG=1 VAL=4
M  V30 17 C 2.142393 1.787473 1.855993 0
M  V30 18 C 2.043983 0.526033 1.050852 0 CFG=2
M  V30 19 C 3.382467 0.191690 0.502181 0
M  V30 20 C -0.989886 -2.838956 0.654285 0
M  V30 21 C -2.004743 -1.936927 0.841872 0
M  V30 22 C -1.890468 -0.581475 0.340401 0
M  V30 23 H -3.982895 -1.606312 1.664897 0
M  V30 24 H -2.526235 -5.420607 2.195917 0
M  V30 25 H -0.459261 -6.042964 1.407018 0
M  V30 26 H 1.596508 -5.548322 0.252710 0
M  V30 27 H 1.980181 -3.410702 -0.607454 0
M  V30 28 H 0.956799 2.361718 -0.864721 0
M  V30 29 H -0.559716 1.518780 -0.840166 0
M  V30 30 H -0.444242 2.093910 1.850947 0
M  V30 31 H -1.048217 3.175343 0.603238 0
M  V30 32 H 0.826389 4.429298 0.370780 0
M  V30 33 H 0.764519 4.070704 2.141044 0
M  V30 34 H 2.875941 3.695221 1.586518 0
M  V30 35 H 2.635323 2.892136 0.161597 0
M  V30 36 H 3.128236 1.703579 2.407438 0
M  V30 37 H 1.399791 1.874819 2.671236 0
M  V30 38 H 1.837003 -0.277476 1.823172 0
M  V30 39 H 4.152795 0.708770 1.113862 0
M  V30 40 H 3.644957 -0.897349 0.637155 0
M  V30 41 H 3.562172 0.553362 -0.529278 0
M  V30 42 H -2.989109 -0.223199 0.285850 0
M  V30 43 H -1.758487 -0.471559 -0.734502 0
M  V30 44 H -1.597363 0.186767 1.048008 0
M  V30 END ATOM
M  V30 BEGIN BOND
M  V30 1 2 1 2
M  V30 2 1 2 3
M  V30 3 2 3 4
M  V30 4 1 4 5
M  V30 5 2 5 6
M  V30 6 1 6 7
M  V30 7 2 7 8
M  V30 8 1 8 9
M  V30 9 2 9 10
M  V30 10 2 9 11
M  V30 11 1 9 12
M  V30 12 1 12 13
M  V30 13 1 13 14
M  V30 14 1 14 15
M  V30 15 1 15 16
M  V30 16 1 16 17
M  V30 17 1 17 18
M  V30 18 1 18 19
M  V30 19 1 8 20
M  V30 20 2 20 21
M  V30 21 1 21 22
M  V30 22 1 21 1
M  V30 23 1 20 4
M  V30 24 1 18 12
M  V30 25 1 1 23
M  V30 26 1 3 24
M  V30 27 1 5 25
M  V30 28 1 6 26
M  V30 29 1 7 27
M  V30 30 1 13 28
M  V30 31 1 13 29
M  V30 32 1 14 30
M  V30 33 1 14 31
M  V30 34 1 15 32
M  V30 35 1 15 33
M  V30 36 1 16 34
M  V30 37 1 16 35
M  V30 38 1 17 36
M  V30 39 1 17 37
M  V30 40 1 18 38 CFG=1
M  V30 41 1 19 39
M  V30 42 1 19 40
M  V30 43 1 19 41
M  V30 44 1 22 42
M  V30 45 1 22 43
M  V30 46 1 22 44
M  V30 END BOND
M  V30 END CTAB
M  END
>  <Dataset>  (170) 
PDB

>  <Ligand_Instance>  (170) 
2GNL_H52_A_501

>  <PDB_ID>  (170) 
2GNL

>  <Standardized_SMILES>  (170) 
[H]C1=NC([H])=C2C([H])=C([H])C([H])=C(S(=O)(=O)N3C([H])([H])C([H])([H])C([H])([H])[N+]([H])([H])C([H])([H])[C@]3([H])C([H])([H])[H])C2=C1C([H])([H])[H]

>  <Name>  (170) 
(S)-2-METHYL-1-[(4-METHYL-5-ISOQUINOLINE)SULFONYL]-HOMOPIPERAZINE

>  <Pocket>  (170) 
A

>  <ATP_Site>  (170) 
1.0

>  <Peripheral>  (170) 
0.0

>  <Num_H_Atoms_ProtBoundConf>  (170) 
22.0

>  <Num_Resolved_Atoms>  (170) 
22.0

>  <Num_Not_Resolved_Atoms>  (170) 
0.0

$$$$
H52
     RDKit          3D

  0  0  0  0  0  0  0  0  0  0999 V3000
M  V30 BEGIN CTAB
M  V30 COUNTS 44 46 0 0 0
M  V30 BEGIN ATOM
M  V30 1 C -3.166072 -2.281252 1.496413 0
M  V30 2 N -3.369180 -3.537080 1.991914 0
M  V30 3 C -2.392286 -4.439904 1.820929 0
M  V30 4 C -1.245087 -4.075051 1.166679 0
M  V30 5 C -0.298880 -5.054605 1.016599 0
M  V30 6 C 0.870870 -4.777470 0.362798 0
M  V30 7 C 0.989445 -3.463109 -0.106591 0
M  V30 8 C 0.090491 -2.333472 -0.024916 0
M  V30 9 S 0.606433 -0.867022 -0.675064 0
M  V30 10 O 0.275812 -0.633325 -2.158157 0
M  V30 11 O 2.072828 -1.165273 -1.061215 0
M  V30 12 N 0.957150 0.517724 0.164957 0
M  V30 13 C 0.306022 1.688026 -0.184358 0
M  V30 14 C -0.145103 2.601029 0.937349 0
M  V30 15 C 0.929908 3.637669 1.142430 0
M  V30 16 N 2.236697 2.998541 1.096972 0 CHG=1 VAL=4
M  V30 17 C 2.142393 1.787473 1.855993 0
M  V30 18 C 2.043983 0.526033 1.050852 0 CFG=2
M  V30 19 C 3.382467 0.191690 0.502181 0
M  V30 20 C -0.989886 -2.838956 0.654285 0
M  V30 21 C -2.004743 -1.936927 0.841872 0
M  V30 22 C -1.890468 -0.581475 0.340401 0
M  V30 23 H -3.982895 -1.606312 1.664897 0
M  V30 24 H -2.526235 -5.420607 2.195917 0
M  V30 25 H -0.459261 -6.042964 1.407018 0
M  V30 26 H 1.596508 -5.548322 0.252710 0
M  V30 27 H 1.980181 -3.410702 -0.607454 0
M  V30 28 H 0.956799 2.361718 -0.864721 0
M  V30 29 H -0.559716 1.518780 -0.840166 0
M  V30 30 H -0.444242 2.093910 1.850947 0
M  V30 31 H -1.048217 3.175343 0.603238 0
M  V30 32 H 0.826389 4.429298 0.370780 0
M  V30 33 H 0.764519 4.070704 2.141044 0
M  V30 34 H 2.875941 3.695221 1.586518 0
M  V30 35 H 2.635323 2.892136 0.161597 0
M  V30 36 H 3.128236 1.703579 2.407438 0
M  V30 37 H 1.399791 1.874819 2.671236 0
M  V30 38 H 1.837003 -0.277476 1.823172 0
M  V30 39 H 4.152795 0.708770 1.113862 0
M  V30 40 H 3.644957 -0.897349 0.637155 0
M  V30 41 H 3.562172 0.553362 -0.529278 0
M  V30 42 H -2.989109 -0.223199 0.285850 0
M  V30 43 H -1.758487 -0.471559 -0.734502 0
M  V30 44 H -1.597363 0.186767 1.048008 0
M  V30 END ATOM
M  V30 BEGIN BOND
M  V30 1 2 1 2
M  V30 2 1 2 3
M  V30 3 2 3 4
M  V30 4 1 4 5
M  V30 5 2 5 6
M  V30 6 1 6 7
M  V30 7 2 7 8
M  V30 8 1 8 9
M  V30 9 2 9 10
M  V30 10 2 9 11
M  V30 11 1 9 12
M  V30 12 1 12 13
M  V30 13 1 13 14
M  V30 14 1 14 15
M  V30 15 1 15 16
M  V30 16 1 16 17
M  V30 17 1 17 18
M  V30 18 1 18 19
M  V30 19 1 8 20
M  V30 20 2 20 21
M  V30 21 1 21 22
M  V30 22 1 21 1
M  V30 23 1 20 4
M  V30 24 1 18 12
M  V30 25 1 1 23
M  V30 26 1 3 24
M  V30 27 1 5 25
M  V30 28 1 6 26
M  V30 29 1 7 27
M  V30 30 1 13 28
M  V30 31 1 13 29
M  V30 32 1 14 30
M  V30 33 1 14 31
M  V30 34 1 15 32
M  V30 35 1 15 33
M  V30 36 1 16 34
M  V30 37 1 16 35
M  V30 38 1 17 36
M  V30 39 1 17 37
M  V30 40 1 18 38 CFG=1
M  V30 41 1 19 39
M  V30 42 1 19 40
M  V30 43 1 19 41
M  V30 44 1 22 42
M  V30 45 1 22 43
M  V30 46 1 22 44
M  V30 END BOND
M  V30 END CTAB
M  END
>  <Dataset>  (171) 
PDB

>  <Ligand_Instance>  (171) 
5M6V_H52_A_401

>  <PDB_ID>  (171) 
5M6V

>  <Standardized_SMILES>  (171) 
[H]C1=NC([H])=C2C([H])=C([H])C([H])=C(S(=O)(=O)N3C([H])([H])C([H])([H])C([H])([H])[N+]([H])([H])C([H])([H])[C@]3([H])C([H])([H])[H])C2=C1C([H])([H])[H]

>  <Name>  (171) 
(S)-2-METHYL-1-[(4-METHYL-5-ISOQUINOLINE)SULFONYL]-HOMOPIPERAZINE

>  <Pocket>  (171) 
A

>  <ATP_Site>  (171) 
1.0

>  <Peripheral>  (171) 
0.0

>  <Num_H_Atoms_ProtBoundConf>  (171) 
22.0

>  <Num_Resolved_Atoms>  (171) 
22.0

>  <Num_Not_Resolved_Atoms>  (171) 
0.0

$$$$
HBD
     RDKit          3D

  0  0  0  0  0  0  0  0  0  0999 V3000
M  V30 BEGIN CTAB
M  V30 COUNTS 17 17 0 0 0
M  V30 BEGIN ATOM
M  V30 1 O -0.872605 -0.970196 -1.502265 0
M  V30 2 C -0.057108 -0.430686 -0.490381 0
M  V30 3 C -0.611937 -0.287184 0.758338 0
M  V30 4 C 0.193327 0.243338 1.749103 0
M  V30 5 C 1.506586 0.607013 1.462027 0
M  V30 6 C 2.435932 1.173246 2.430771 0
M  V30 7 O 3.636283 1.505046 2.166300 0
M  V30 8 N 2.171415 1.443792 3.792735 0
M  V30 9 C 2.006620 0.437587 0.184500 0
M  V30 10 C 1.234471 -0.089054 -0.833578 0
M  V30 11 H -0.869829 -1.981939 -1.591362 0
M  V30 12 H -1.618251 -0.565229 0.980703 0
M  V30 13 H -0.154666 0.393672 2.761223 0
M  V30 14 H 2.436867 2.304659 4.305976 0
M  V30 15 H 1.663050 0.651464 4.231540 0
M  V30 16 H 3.024155 0.710480 -0.071659 0
M  V30 17 H 1.592640 -0.238954 -1.856946 0
M  V30 END ATOM
M  V30 BEGIN BOND
M  V30 1 1 1 2
M  V30 2 2 2 3
M  V30 3 1 3 4
M  V30 4 2 4 5
M  V30 5 1 5 6
M  V30 6 2 6 7
M  V30 7 1 6 8
M  V30 8 1 5 9
M  V30 9 2 9 10
M  V30 10 1 10 2
M  V30 11 1 1 11
M  V30 12 1 3 12
M  V30 13 1 4 13
M  V30 14 1 8 14
M  V30 15 1 8 15
M  V30 16 1 9 16
M  V30 17 1 10 17
M  V30 END BOND
M  V30 END CTAB
M  END
>  <Dataset>  (172) 
PDB

>  <Ligand_Instance>  (172) 
5N3S_HBD_A_401

>  <PDB_ID>  (172) 
5N3S

>  <Standardized_SMILES>  (172) 
[H]OC1=C([H])C([H])=C(C(=O)N([H])[H])C([H])=C1[H]

>  <Name>  (172) 
4-HYDROXYBENZAMIDE

>  <Pocket>  (172) 
A

>  <ATP_Site>  (172) 
1.0

>  <Peripheral>  (172) 
0.0

>  <Num_H_Atoms_ProtBoundConf>  (172) 
7.0

>  <Num_Resolved_Atoms>  (172) 
10.0

>  <Num_Not_Resolved_Atoms>  (172) 
0.0

$$$$
I5G
     RDKit          3D

  0  0  0  0  0  0  0  0  0  0999 V3000
M  V30 BEGIN CTAB
M  V30 COUNTS 53 56 0 0 0
M  V30 BEGIN ATOM
M  V30 1 O 1.912587 2.455993 -3.489973 0
M  V30 2 C 0.869007 1.812154 -2.851863 0 CFG=1
M  V30 3 C 1.419475 1.001902 -1.670651 0
M  V30 4 C 0.772979 1.701040 -0.522882 0 CFG=2
M  V30 5 C 0.765837 0.951391 0.769735 0 CFG=2
M  V30 6 C 2.198310 0.696633 1.140036 0
M  V30 7 C 2.955326 -0.313539 0.586795 0
M  V30 8 C 4.272318 -0.531998 0.940368 0
M  V30 9 C 4.869397 0.281893 1.881401 0
M  V30 10 C 6.240371 0.122525 2.307672 0
M  V30 11 N 7.344855 -0.026050 2.648590 0
M  V30 12 C 4.158921 1.309273 2.468473 0
M  V30 13 Cl 4.812038 2.415686 3.682722 0
M  V30 14 C 2.846726 1.482734 2.078368 0
M  V30 15 N 0.032135 -0.278320 0.720198 0
M  V30 16 C -1.071706 -0.560701 1.559759 0
M  V30 17 O -1.294424 0.412704 2.329904 0
M  V30 18 C -1.905243 -1.744310 1.627966 0
M  V30 19 C -2.926247 -1.752389 2.552032 0
M  V30 20 C -3.772850 -2.825273 2.696658 0
M  V30 21 C -4.774994 -2.766696 3.642452 0
M  V30 22 C -5.645228 -3.830699 3.813779 0
M  V30 23 N -5.493854 -4.937560 3.030755 0
M  V30 24 C -4.525791 -5.002237 2.112372 0
M  V30 25 Cl -4.353897 -6.438105 1.118759 0
M  V30 26 C -3.655547 -3.962052 1.927165 0
M  V30 27 C -2.641627 -3.981411 0.993540 0
M  V30 28 C -1.812994 -2.887896 0.877295 0
M  V30 29 O -0.811531 -2.955738 -0.073270 0
M  V30 30 C -0.587563 -4.046148 -0.913008 0
M  V30 31 N -0.509588 2.140674 -0.978267 0 CHG=1 VAL=4
M  V30 32 C -0.138062 2.787562 -2.240955 0
M  V30 33 H 1.706293 2.446986 -4.472596 0
M  V30 34 H 0.283392 1.189327 -3.549314 0
M  V30 35 H 1.066161 -0.035608 -1.826087 0
M  V30 36 H 2.516182 1.092962 -1.632447 0
M  V30 37 H 1.374782 2.634395 -0.335261 0
M  V30 38 H 0.361339 1.635930 1.537051 0
M  V30 39 H 2.509614 -0.961980 -0.150393 0
M  V30 40 H 4.852923 -1.336720 0.490375 0
M  V30 41 H 2.253150 2.280598 2.517132 0
M  V30 42 H 0.310260 -1.005511 0.043161 0
M  V30 43 H -3.088346 -0.893670 3.200182 0
M  V30 44 H -4.917622 -1.884826 4.286399 0
M  V30 45 H -6.425388 -3.738019 4.577495 0
M  V30 46 H -2.501023 -4.846584 0.361299 0
M  V30 47 H -0.201908 -4.900000 -0.286267 0
M  V30 48 H -1.529028 -4.441816 -1.384306 0
M  V30 49 H 0.172566 -3.841851 -1.668367 0
M  V30 50 H -1.152642 1.368374 -1.229739 0
M  V30 51 H -0.893547 2.827468 -0.307860 0
M  V30 52 H 0.359965 3.746269 -1.993545 0
M  V30 53 H -1.020192 2.919256 -2.875237 0
M  V30 END ATOM
M  V30 BEGIN BOND
M  V30 1 1 1 2
M  V30 2 1 2 3
M  V30 3 1 3 4
M  V30 4 1 4 5
M  V30 5 1 5 6
M  V30 6 2 6 7
M  V30 7 1 7 8
M  V30 8 2 8 9
M  V30 9 1 9 10
M  V30 10 3 10 11
M  V30 11 1 9 12
M  V30 12 1 12 13
M  V30 13 2 12 14
M  V30 14 1 5 15
M  V30 15 1 15 16
M  V30 16 2 16 17
M  V30 17 1 16 18
M  V30 18 2 18 19
M  V30 19 1 19 20
M  V30 20 2 20 21
M  V30 21 1 21 22
M  V30 22 2 22 23
M  V30 23 1 23 24
M  V30 24 1 24 25
M  V30 25 2 24 26
M  V30 26 1 26 27
M  V30 27 2 27 28
M  V30 28 1 28 29
M  V30 29 1 29 30
M  V30 30 1 4 31
M  V30 31 1 31 32
M  V30 32 1 32 2
M  V30 33 1 14 6
M  V30 34 1 28 18
M  V30 35 1 26 20
M  V30 36 1 1 33
M  V30 37 1 2 34 CFG=3
M  V30 38 1 3 35
M  V30 39 1 3 36
M  V30 40 1 4 37 CFG=1
M  V30 41 1 5 38 CFG=1
M  V30 42 1 7 39
M  V30 43 1 8 40
M  V30 44 1 14 41
M  V30 45 1 15 42
M  V30 46 1 19 43
M  V30 47 1 21 44
M  V30 48 1 22 45
M  V30 49 1 27 46
M  V30 50 1 30 47
M  V30 51 1 30 48
M  V30 52 1 30 49
M  V30 53 1 31 50
M  V30 54 1 31 51
M  V30 55 1 32 52
M  V30 56 1 32 53
M  V30 END BOND
M  V30 END CTAB
M  END
>  <Dataset>  (173) 
PDB

>  <Ligand_Instance>  (173) 
7Y1G_I5G_A_500

>  <PDB_ID>  (173) 
7Y1G

>  <Standardized_SMILES>  (173) 
[H]O[C@@]1([H])C([H])([H])[C@]([H])([C@]([H])(C2=C([H])C([H])=C(C#N)C(Cl)=C2[H])N([H])C(=O)C2=C([H])C3=C([H])C([H])=NC(Cl)=C3C([H])=C2OC([H])([H])[H])[N+]([H])([H])C1([H])[H]

>  <Name>  (173) 
1-chloranyl-~{N}-[(~{S})-(3-chloranyl-4-cyano-phenyl)-[(2~{R},4~{S})-4-oxidanylpyrrolidin-2-yl]methyl]-7-methoxy-isoquinoline-6-carboxamide

>  <Pocket>  (173) 
A

>  <ATP_Site>  (173) 
1.0

>  <Peripheral>  (173) 
0.0

>  <Num_H_Atoms_ProtBoundConf>  (173) 
21.0

>  <Num_Resolved_Atoms>  (173) 
32.0

>  <Num_Not_Resolved_Atoms>  (173) 
0.0

$$$$
I5G
     RDKit          3D

  0  0  0  0  0  0  0  0  0  0999 V3000
M  V30 BEGIN CTAB
M  V30 COUNTS 53 56 0 0 0
M  V30 BEGIN ATOM
M  V30 1 O 1.912587 2.455993 -3.489973 0
M  V30 2 C 0.869007 1.812154 -2.851863 0 CFG=1
M  V30 3 C 1.419475 1.001902 -1.670651 0
M  V30 4 C 0.772979 1.701040 -0.522882 0 CFG=2
M  V30 5 C 0.765837 0.951391 0.769735 0 CFG=2
M  V30 6 C 2.198310 0.696633 1.140036 0
M  V30 7 C 2.955326 -0.313539 0.586795 0
M  V30 8 C 4.272318 -0.531998 0.940368 0
M  V30 9 C 4.869397 0.281893 1.881401 0
M  V30 10 C 6.240371 0.122525 2.307672 0
M  V30 11 N 7.344855 -0.026050 2.648590 0
M  V30 12 C 4.158921 1.309273 2.468473 0
M  V30 13 Cl 4.812038 2.415686 3.682722 0
M  V30 14 C 2.846726 1.482734 2.078368 0
M  V30 15 N 0.032135 -0.278320 0.720198 0
M  V30 16 C -1.071706 -0.560701 1.559759 0
M  V30 17 O -1.294424 0.412704 2.329904 0
M  V30 18 C -1.905243 -1.744310 1.627966 0
M  V30 19 C -2.926247 -1.752389 2.552032 0
M  V30 20 C -3.772850 -2.825273 2.696658 0
M  V30 21 C -4.774994 -2.766696 3.642452 0
M  V30 22 C -5.645228 -3.830699 3.813779 0
M  V30 23 N -5.493854 -4.937560 3.030755 0
M  V30 24 C -4.525791 -5.002237 2.112372 0
M  V30 25 Cl -4.353897 -6.438105 1.118759 0
M  V30 26 C -3.655547 -3.962052 1.927165 0
M  V30 27 C -2.641627 -3.981411 0.993540 0
M  V30 28 C -1.812994 -2.887896 0.877295 0
M  V30 29 O -0.811531 -2.955738 -0.073270 0
M  V30 30 C -0.587563 -4.046148 -0.913008 0
M  V30 31 N -0.509588 2.140674 -0.978267 0 CHG=1 VAL=4
M  V30 32 C -0.138062 2.787562 -2.240955 0
M  V30 33 H 1.706293 2.446986 -4.472596 0
M  V30 34 H 0.283392 1.189327 -3.549314 0
M  V30 35 H 1.066161 -0.035608 -1.826087 0
M  V30 36 H 2.516182 1.092962 -1.632447 0
M  V30 37 H 1.374782 2.634395 -0.335261 0
M  V30 38 H 0.361339 1.635930 1.537051 0
M  V30 39 H 2.509614 -0.961980 -0.150393 0
M  V30 40 H 4.852923 -1.336720 0.490375 0
M  V30 41 H 2.253150 2.280598 2.517132 0
M  V30 42 H 0.310260 -1.005511 0.043161 0
M  V30 43 H -3.088346 -0.893670 3.200182 0
M  V30 44 H -4.917622 -1.884826 4.286399 0
M  V30 45 H -6.425388 -3.738019 4.577495 0
M  V30 46 H -2.501023 -4.846584 0.361299 0
M  V30 47 H -0.201908 -4.900000 -0.286267 0
M  V30 48 H -1.529028 -4.441816 -1.384306 0
M  V30 49 H 0.172566 -3.841851 -1.668367 0
M  V30 50 H -1.152642 1.368374 -1.229739 0
M  V30 51 H -0.893547 2.827468 -0.307860 0
M  V30 52 H 0.359965 3.746269 -1.993545 0
M  V30 53 H -1.020192 2.919256 -2.875237 0
M  V30 END ATOM
M  V30 BEGIN BOND
M  V30 1 1 1 2
M  V30 2 1 2 3
M  V30 3 1 3 4
M  V30 4 1 4 5
M  V30 5 1 5 6
M  V30 6 2 6 7
M  V30 7 1 7 8
M  V30 8 2 8 9
M  V30 9 1 9 10
M  V30 10 3 10 11
M  V30 11 1 9 12
M  V30 12 1 12 13
M  V30 13 2 12 14
M  V30 14 1 5 15
M  V30 15 1 15 16
M  V30 16 2 16 17
M  V30 17 1 16 18
M  V30 18 2 18 19
M  V30 19 1 19 20
M  V30 20 2 20 21
M  V30 21 1 21 22
M  V30 22 2 22 23
M  V30 23 1 23 24
M  V30 24 1 24 25
M  V30 25 2 24 26
M  V30 26 1 26 27
M  V30 27 2 27 28
M  V30 28 1 28 29
M  V30 29 1 29 30
M  V30 30 1 4 31
M  V30 31 1 31 32
M  V30 32 1 32 2
M  V30 33 1 14 6
M  V30 34 1 28 18
M  V30 35 1 26 20
M  V30 36 1 1 33
M  V30 37 1 2 34 CFG=3
M  V30 38 1 3 35
M  V30 39 1 3 36
M  V30 40 1 4 37 CFG=1
M  V30 41 1 5 38 CFG=1
M  V30 42 1 7 39
M  V30 43 1 8 40
M  V30 44 1 14 41
M  V30 45 1 15 42
M  V30 46 1 19 43
M  V30 47 1 21 44
M  V30 48 1 22 45
M  V30 49 1 27 46
M  V30 50 1 30 47
M  V30 51 1 30 48
M  V30 52 1 30 49
M  V30 53 1 31 50
M  V30 54 1 31 51
M  V30 55 1 32 52
M  V30 56 1 32 53
M  V30 END BOND
M  V30 END CTAB
M  END
>  <Dataset>  (174) 
PDB

>  <Ligand_Instance>  (174) 
7Y1G_I5G_B_401

>  <PDB_ID>  (174) 
7Y1G

>  <Standardized_SMILES>  (174) 
[H]O[C@@]1([H])C([H])([H])[C@]([H])([C@]([H])(C2=C([H])C([H])=C(C#N)C(Cl)=C2[H])N([H])C(=O)C2=C([H])C3=C([H])C([H])=NC(Cl)=C3C([H])=C2OC([H])([H])[H])[N+]([H])([H])C1([H])[H]

>  <Name>  (174) 
1-chloranyl-~{N}-[(~{S})-(3-chloranyl-4-cyano-phenyl)-[(2~{R},4~{S})-4-oxidanylpyrrolidin-2-yl]methyl]-7-methoxy-isoquinoline-6-carboxamide

>  <Pocket>  (174) 
A

>  <ATP_Site>  (174) 
1.0

>  <Peripheral>  (174) 
0.0

>  <Num_H_Atoms_ProtBoundConf>  (174) 
21.0

>  <Num_Resolved_Atoms>  (174) 
32.0

>  <Num_Not_Resolved_Atoms>  (174) 
0.0

$$$$
I5S
     RDKit          3D

  0  0  0  0  0  0  0  0  0  0999 V3000
M  V30 BEGIN CTAB
M  V30 COUNTS 51 53 0 0 0
M  V30 BEGIN ATOM
M  V30 1 C 2.430045 -1.887397 2.947708 0
M  V30 2 N 1.539992 -2.879155 3.015358 0
M  V30 3 C 0.957297 -3.426990 1.941667 0
M  V30 4 C 1.267172 -2.891339 0.702521 0
M  V30 5 C 0.798536 -3.476951 -0.422213 0
M  V30 6 C 0.946950 -2.826045 -1.611021 0
M  V30 7 C 1.540399 -1.602237 -1.648278 0
M  V30 8 C 2.161204 -1.024125 -0.549114 0
M  V30 9 S 2.718643 0.669501 -0.619110 0
M  V30 10 O 4.141347 0.743863 -0.125022 0
M  V30 11 O 2.696501 1.082017 -2.019919 0
M  V30 12 N 1.674926 1.673198 0.342317 0
M  V30 13 C 2.453012 2.391133 1.311947 0
M  V30 14 C 1.725333 2.587958 2.604405 0
M  V30 15 N 0.317673 2.483685 2.557661 0 CHG=1 VAL=4
M  V30 16 C -0.222997 1.162113 2.342500 0
M  V30 17 C -1.440702 1.353478 1.432168 0
M  V30 18 O -2.147882 0.176507 1.336330 0
M  V30 19 C -2.648836 0.077876 0.038678 0
M  V30 20 C -3.002732 -1.347728 -0.222923 0
M  V30 21 C -3.467470 -2.157572 0.787450 0
M  V30 22 C -3.644720 -3.515678 0.541486 0
M  V30 23 C -3.364273 -3.997168 -0.723924 0
M  V30 24 Cl -3.392349 -5.731375 -0.996967 0
M  V30 25 C -2.963499 -3.186987 -1.749938 0
M  V30 26 C -2.785173 -1.836952 -1.490146 0
M  V30 27 C 2.088022 -1.783296 0.624003 0
M  V30 28 C 2.710746 -1.318629 1.719577 0
M  V30 29 H 2.739033 -1.422427 3.863428 0
M  V30 30 H 0.410067 -4.341520 1.995041 0
M  V30 31 H 0.429086 -4.513716 -0.379978 0
M  V30 32 H 0.670942 -3.358793 -2.513091 0
M  V30 33 H 1.616423 -1.103013 -2.609100 0
M  V30 34 H 1.216641 2.405250 -0.334346 0
M  V30 35 H 2.687056 3.447492 0.868729 0
M  V30 36 H 3.413266 1.936892 1.428567 0
M  V30 37 H 2.005407 3.542006 3.054585 0
M  V30 38 H 2.120472 1.803820 3.364795 0
M  V30 39 H -0.061343 3.192584 1.900470 0
M  V30 40 H -0.040799 2.779711 3.514893 0
M  V30 41 H 0.509121 0.448106 1.913281 0
M  V30 42 H -0.612010 0.677107 3.256736 0
M  V30 43 H -1.133029 1.743968 0.422507 0
M  V30 44 H -2.021721 2.164875 1.909202 0
M  V30 45 H -3.479898 0.751434 -0.149788 0
M  V30 46 H -1.814456 0.371369 -0.651333 0
M  V30 47 H -3.587485 -1.796291 1.799883 0
M  V30 48 H -3.908745 -4.186775 1.355806 0
M  V30 49 H -2.660870 -3.570769 -2.719508 0
M  V30 50 H -2.630488 -1.172939 -2.323066 0
M  V30 51 H 3.293865 -0.436786 1.689748 0
M  V30 END ATOM
M  V30 BEGIN BOND
M  V30 1 2 1 2
M  V30 2 1 2 3
M  V30 3 2 3 4
M  V30 4 1 4 5
M  V30 5 2 5 6
M  V30 6 1 6 7
M  V30 7 2 7 8
M  V30 8 1 8 9
M  V30 9 2 9 10
M  V30 10 2 9 11
M  V30 11 1 9 12
M  V30 12 1 12 13
M  V30 13 1 13 14
M  V30 14 1 14 15
M  V30 15 1 15 16
M  V30 16 1 16 17
M  V30 17 1 17 18
M  V30 18 1 18 19
M  V30 19 1 19 20
M  V30 20 2 20 21
M  V30 21 1 21 22
M  V30 22 2 22 23
M  V30 23 1 23 24
M  V30 24 1 23 25
M  V30 25 2 25 26
M  V30 26 1 8 27
M  V30 27 2 27 28
M  V30 28 1 28 1
M  V30 29 1 27 4
M  V30 30 1 26 20
M  V30 31 1 1 29
M  V30 32 1 3 30
M  V30 33 1 5 31
M  V30 34 1 6 32
M  V30 35 1 7 33
M  V30 36 1 12 34
M  V30 37 1 13 35
M  V30 38 1 13 36
M  V30 39 1 14 37
M  V30 40 1 14 38
M  V30 41 1 15 39
M  V30 42 1 15 40
M  V30 43 1 16 41
M  V30 44 1 16 42
M  V30 45 1 17 43
M  V30 46 1 17 44
M  V30 47 1 19 45
M  V30 48 1 19 46
M  V30 49 1 21 47
M  V30 50 1 22 48
M  V30 51 1 25 49
M  V30 52 1 26 50
M  V30 53 1 28 51
M  V30 END BOND
M  V30 END CTAB
M  END
>  <Dataset>  (175) 
PDB

>  <Ligand_Instance>  (175) 
2JDT_I5S_A_1351

>  <PDB_ID>  (175) 
2JDT

>  <Standardized_SMILES>  (175) 
[H]C1=NC([H])=C2C([H])=C([H])C([H])=C(S(=O)(=O)N([H])C([H])([H])C([H])([H])[N+]([H])([H])C([H])([H])C([H])([H])OC([H])([H])C3=C([H])C([H])=C(Cl)C([H])=C3[H])C2=C1[H]

>  <Name>  (175) 
ISOQUINOLINE-5-SULFONIC ACID (2-(2-(4-CHLOROBENZYLOXY)ETHYLAMINO)ETHYL)AMIDE

>  <Pocket>  (175) 
A

>  <ATP_Site>  (175) 
1.0

>  <Peripheral>  (175) 
0.0

>  <Num_H_Atoms_ProtBoundConf>  (175) 
23.0

>  <Num_Resolved_Atoms>  (175) 
28.0

>  <Num_Not_Resolved_Atoms>  (175) 
0.0

$$$$
IPH
     RDKit          3D

  0  0  0  0  0  0  0  0  0  0999 V3000
M  V30 BEGIN CTAB
M  V30 COUNTS 13 13 0 0 0
M  V30 BEGIN ATOM
M  V30 1 O -0.454142 -1.483578 2.110497 0
M  V30 2 C 0.479580 -0.914396 1.251783 0
M  V30 3 C 0.127632 -0.886484 -0.088635 0
M  V30 4 C 1.046102 -0.324565 -0.947294 0
M  V30 5 C 2.250248 0.185169 -0.515252 0
M  V30 6 C 2.591455 0.152360 0.823725 0
M  V30 7 C 1.669811 -0.413983 1.702388 0
M  V30 8 H -1.087098 -0.899565 2.655535 0
M  V30 9 H -0.805620 -1.272334 -0.486694 0
M  V30 10 H 0.864439 -0.258777 -1.991873 0
M  V30 11 H 2.950263 0.615989 -1.187223 0
M  V30 12 H 3.504859 0.529840 1.214471 0
M  V30 13 H 1.905136 -0.455971 2.758720 0
M  V30 END ATOM
M  V30 BEGIN BOND
M  V30 1 1 1 2
M  V30 2 2 2 3
M  V30 3 1 3 4
M  V30 4 2 4 5
M  V30 5 1 5 6
M  V30 6 2 6 7
M  V30 7 1 7 2
M  V30 8 1 1 8
M  V30 9 1 3 9
M  V30 10 1 4 10
M  V30 11 1 5 11
M  V30 12 1 6 12
M  V30 13 1 7 13
M  V30 END BOND
M  V30 END CTAB
M  END
>  <Dataset>  (176) 
PDB

>  <Ligand_Instance>  (176) 
3NX8_IPH_A_351

>  <PDB_ID>  (176) 
3NX8

>  <Standardized_SMILES>  (176) 
[H]OC1=C([H])C([H])=C([H])C([H])=C1[H]

>  <Name>  (176) 
PHENOL

>  <Pocket>  (176) 
A

>  <ATP_Site>  (176) 
1.0

>  <Peripheral>  (176) 
1.0

>  <Num_H_Atoms_ProtBoundConf>  (176) 
6.0

>  <Num_Resolved_Atoms>  (176) 
7.0

>  <Num_Not_Resolved_Atoms>  (176) 
0.0

$$$$
IPH
     RDKit          3D

  0  0  0  0  0  0  0  0  0  0999 V3000
M  V30 BEGIN CTAB
M  V30 COUNTS 13 13 0 0 0
M  V30 BEGIN ATOM
M  V30 1 O -0.454142 -1.483578 2.110497 0
M  V30 2 C 0.479580 -0.914396 1.251783 0
M  V30 3 C 0.127632 -0.886484 -0.088635 0
M  V30 4 C 1.046102 -0.324565 -0.947294 0
M  V30 5 C 2.250248 0.185169 -0.515252 0
M  V30 6 C 2.591455 0.152360 0.823725 0
M  V30 7 C 1.669811 -0.413983 1.702388 0
M  V30 8 H -1.087098 -0.899565 2.655535 0
M  V30 9 H -0.805620 -1.272334 -0.486694 0
M  V30 10 H 0.864439 -0.258777 -1.991873 0
M  V30 11 H 2.950263 0.615989 -1.187223 0
M  V30 12 H 3.504859 0.529840 1.214471 0
M  V30 13 H 1.905136 -0.455971 2.758720 0
M  V30 END ATOM
M  V30 BEGIN BOND
M  V30 1 1 1 2
M  V30 2 2 2 3
M  V30 3 1 3 4
M  V30 4 2 4 5
M  V30 5 1 5 6
M  V30 6 2 6 7
M  V30 7 1 7 2
M  V30 8 1 1 8
M  V30 9 1 3 9
M  V30 10 1 4 10
M  V30 11 1 5 11
M  V30 12 1 6 12
M  V30 13 1 7 13
M  V30 END BOND
M  V30 END CTAB
M  END
>  <Dataset>  (177) 
PDB

>  <Ligand_Instance>  (177) 
3NX8_IPH_A_352

>  <PDB_ID>  (177) 
3NX8

>  <Standardized_SMILES>  (177) 
[H]OC1=C([H])C([H])=C([H])C([H])=C1[H]

>  <Name>  (177) 
PHENOL

>  <Pocket>  (177) 
X

>  <ATP_Site>  (177) 
1.0

>  <Peripheral>  (177) 
1.0

>  <Num_H_Atoms_ProtBoundConf>  (177) 
6.0

>  <Num_Resolved_Atoms>  (177) 
7.0

>  <Num_Not_Resolved_Atoms>  (177) 
0.0

$$$$
IPH
     RDKit          3D

  0  0  0  0  0  0  0  0  0  0999 V3000
M  V30 BEGIN CTAB
M  V30 COUNTS 13 13 0 0 0
M  V30 BEGIN ATOM
M  V30 1 O -0.454142 -1.483578 2.110497 0
M  V30 2 C 0.479580 -0.914396 1.251783 0
M  V30 3 C 0.127632 -0.886484 -0.088635 0
M  V30 4 C 1.046102 -0.324565 -0.947294 0
M  V30 5 C 2.250248 0.185169 -0.515252 0
M  V30 6 C 2.591455 0.152360 0.823725 0
M  V30 7 C 1.669811 -0.413983 1.702388 0
M  V30 8 H -1.087098 -0.899565 2.655535 0
M  V30 9 H -0.805620 -1.272334 -0.486694 0
M  V30 10 H 0.864439 -0.258777 -1.991873 0
M  V30 11 H 2.950263 0.615989 -1.187223 0
M  V30 12 H 3.504859 0.529840 1.214471 0
M  V30 13 H 1.905136 -0.455971 2.758720 0
M  V30 END ATOM
M  V30 BEGIN BOND
M  V30 1 1 1 2
M  V30 2 2 2 3
M  V30 3 1 3 4
M  V30 4 2 4 5
M  V30 5 1 5 6
M  V30 6 2 6 7
M  V30 7 1 7 2
M  V30 8 1 1 8
M  V30 9 1 3 9
M  V30 10 1 4 10
M  V30 11 1 5 11
M  V30 12 1 6 12
M  V30 13 1 7 13
M  V30 END BOND
M  V30 END CTAB
M  END
>  <Dataset>  (178) 
PDB

>  <Ligand_Instance>  (178) 
3NX8_IPH_A_353

>  <PDB_ID>  (178) 
3NX8

>  <Standardized_SMILES>  (178) 
[H]OC1=C([H])C([H])=C([H])C([H])=C1[H]

>  <Name>  (178) 
PHENOL

>  <Pocket>  (178) 
F

>  <ATP_Site>  (178) 
1.0

>  <Peripheral>  (178) 
1.0

>  <Num_H_Atoms_ProtBoundConf>  (178) 
6.0

>  <Num_Resolved_Atoms>  (178) 
7.0

>  <Num_Not_Resolved_Atoms>  (178) 
0.0

$$$$
IPH
     RDKit          3D

  0  0  0  0  0  0  0  0  0  0999 V3000
M  V30 BEGIN CTAB
M  V30 COUNTS 13 13 0 0 0
M  V30 BEGIN ATOM
M  V30 1 O -0.454142 -1.483578 2.110497 0
M  V30 2 C 0.479580 -0.914396 1.251783 0
M  V30 3 C 0.127632 -0.886484 -0.088635 0
M  V30 4 C 1.046102 -0.324565 -0.947294 0
M  V30 5 C 2.250248 0.185169 -0.515252 0
M  V30 6 C 2.591455 0.152360 0.823725 0
M  V30 7 C 1.669811 -0.413983 1.702388 0
M  V30 8 H -1.087098 -0.899565 2.655535 0
M  V30 9 H -0.805620 -1.272334 -0.486694 0
M  V30 10 H 0.864439 -0.258777 -1.991873 0
M  V30 11 H 2.950263 0.615989 -1.187223 0
M  V30 12 H 3.504859 0.529840 1.214471 0
M  V30 13 H 1.905136 -0.455971 2.758720 0
M  V30 END ATOM
M  V30 BEGIN BOND
M  V30 1 1 1 2
M  V30 2 2 2 3
M  V30 3 1 3 4
M  V30 4 2 4 5
M  V30 5 1 5 6
M  V30 6 2 6 7
M  V30 7 1 7 2
M  V30 8 1 1 8
M  V30 9 1 3 9
M  V30 10 1 4 10
M  V30 11 1 5 11
M  V30 12 1 6 12
M  V30 13 1 7 13
M  V30 END BOND
M  V30 END CTAB
M  END
>  <Dataset>  (179) 
PDB

>  <Ligand_Instance>  (179) 
6Z44_IPH_A_401

>  <PDB_ID>  (179) 
6Z44

>  <Standardized_SMILES>  (179) 
[H]OC1=C([H])C([H])=C([H])C([H])=C1[H]

>  <Name>  (179) 
PHENOL

>  <Pocket>  (179) 
A

>  <ATP_Site>  (179) 
1.0

>  <Peripheral>  (179) 
0.0

>  <Num_H_Atoms_ProtBoundConf>  (179) 
6.0

>  <Num_Resolved_Atoms>  (179) 
7.0

>  <Num_Not_Resolved_Atoms>  (179) 
0.0

$$$$
IQB
     RDKit          3D

  0  0  0  0  0  0  0  0  0  0999 V3000
M  V30 BEGIN CTAB
M  V30 COUNTS 48 50 0 0 0
M  V30 BEGIN ATOM
M  V30 1 C 1.497704 -3.762850 0.287566 0
M  V30 2 N 2.645787 -4.490648 0.266808 0
M  V30 3 C 3.765924 -3.981937 -0.276434 0
M  V30 4 C 3.833633 -2.722876 -0.836348 0
M  V30 5 C 4.975077 -2.188357 -1.396903 0
M  V30 6 C 5.029591 -0.927092 -1.953980 0
M  V30 7 C 3.855296 -0.189507 -1.929814 0
M  V30 8 C 2.669753 -0.665007 -1.381792 0
M  V30 9 S 1.190382 0.244480 -1.342804 0
M  V30 10 O 0.111194 -0.281737 -2.202187 0
M  V30 11 O 1.519306 1.643099 -1.849627 0
M  V30 12 N 0.650993 0.488729 0.299583 0
M  V30 13 C 1.640516 1.247569 1.039201 0
M  V30 14 C 1.244799 1.498395 2.467121 0
M  V30 15 N 0.018597 2.239539 2.599870 0 CHG=1 VAL=4
M  V30 16 C -0.936287 1.555995 3.482665 0
M  V30 17 C -1.789728 0.599860 2.732980 0
M  V30 18 C -3.107125 0.643607 2.645552 0
M  V30 19 C -3.919485 -0.306445 1.903843 0
M  V30 20 C -3.394004 -1.366134 1.204829 0
M  V30 21 C -4.237814 -2.212030 0.533721 0
M  V30 22 C -5.606737 -2.092254 0.495492 0
M  V30 23 Br -6.759738 -3.278860 -0.443143 0
M  V30 24 C -6.117713 -1.024584 1.201430 0
M  V30 25 C -5.287320 -0.159850 1.884580 0
M  V30 26 C 2.668589 -1.947359 -0.831145 0
M  V30 27 C 1.545182 -2.506600 -0.265267 0
M  V30 28 H 0.577034 -4.140059 0.716524 0
M  V30 29 H 4.672023 -4.603407 -0.272616 0
M  V30 30 H 5.882551 -2.800676 -1.397422 0
M  V30 31 H 5.945293 -0.544296 -2.383959 0
M  V30 32 H 3.844980 0.814805 -2.357810 0
M  V30 33 H -0.239488 1.031467 0.282140 0
M  V30 34 H 1.877977 2.216371 0.556851 0
M  V30 35 H 2.580749 0.632450 1.085227 0
M  V30 36 H 1.092641 0.530743 2.986744 0
M  V30 37 H 2.060278 2.056963 2.956910 0
M  V30 38 H -0.400824 2.496318 1.687847 0
M  V30 39 H 0.200626 3.167879 3.087650 0
M  V30 40 H -1.563503 2.300306 4.013482 0
M  V30 41 H -0.303841 0.981558 4.198332 0
M  V30 42 H -1.259325 -0.175820 2.234676 0
M  V30 43 H -3.572170 1.459933 3.178475 0
M  V30 44 H -2.332939 -1.537338 1.179343 0
M  V30 45 H -3.784995 -3.050113 -0.015836 0
M  V30 46 H -7.192169 -0.822672 1.247373 0
M  V30 47 H -5.707767 0.677925 2.436737 0
M  V30 48 H 0.660524 -1.916693 -0.261740 0
M  V30 END ATOM
M  V30 BEGIN BOND
M  V30 1 2 1 2
M  V30 2 1 2 3
M  V30 3 2 3 4
M  V30 4 1 4 5
M  V30 5 2 5 6
M  V30 6 1 6 7
M  V30 7 2 7 8
M  V30 8 1 8 9
M  V30 9 2 9 10
M  V30 10 2 9 11
M  V30 11 1 9 12
M  V30 12 1 12 13
M  V30 13 1 13 14
M  V30 14 1 14 15
M  V30 15 1 15 16
M  V30 16 1 16 17
M  V30 17 2 17 18
M  V30 18 1 18 19
M  V30 19 2 19 20
M  V30 20 1 20 21
M  V30 21 2 21 22
M  V30 22 1 22 23
M  V30 23 1 22 24
M  V30 24 2 24 25
M  V30 25 1 8 26
M  V30 26 2 26 27
M  V30 27 1 27 1
M  V30 28 1 26 4
M  V30 29 1 25 19
M  V30 30 1 1 28
M  V30 31 1 3 29
M  V30 32 1 5 30
M  V30 33 1 6 31
M  V30 34 1 7 32
M  V30 35 1 12 33
M  V30 36 1 13 34
M  V30 37 1 13 35
M  V30 38 1 14 36
M  V30 39 1 14 37
M  V30 40 1 15 38
M  V30 41 1 15 39
M  V30 42 1 16 40
M  V30 43 1 16 41
M  V30 44 1 17 42
M  V30 45 1 18 43
M  V30 46 1 20 44
M  V30 47 1 21 45
M  V30 48 1 24 46
M  V30 49 1 25 47
M  V30 50 1 27 48
M  V30 END BOND
M  V30 END CTAB
M  END
>  <Dataset>  (180) 
PDB

>  <Ligand_Instance>  (180) 
3VQH_IQB_A_401

>  <PDB_ID>  (180) 
3VQH

>  <Standardized_SMILES>  (180) 
[H]C1=NC([H])=C2C([H])=C([H])C([H])=C(S(=O)(=O)N([H])C([H])([H])C([H])([H])[N+]([H])([H])C([H])([H])/C([H])=C(\[H])C3=C([H])C([H])=C(Br)C([H])=C3[H])C2=C1[H]

>  <Name>  (180) 
N-[2-(4-BROMOCINNAMYLAMINO)ETHYL]-5-ISOQUINOLINE SULFONAMIDE

>  <Pocket>  (180) 
A

>  <ATP_Site>  (180) 
1.0

>  <Peripheral>  (180) 
0.0

>  <Num_H_Atoms_ProtBoundConf>  (180) 
21.0

>  <Num_Resolved_Atoms>  (180) 
27.0

>  <Num_Not_Resolved_Atoms>  (180) 
0.0

$$$$
IQP
     RDKit          3D

  0  0  0  0  0  0  0  0  0  0999 V3000
M  V30 BEGIN CTAB
M  V30 COUNTS 38 40 0 0 0
M  V30 BEGIN ATOM
M  V30 1 C -1.806493 -1.420815 3.556273 0
M  V30 2 N -1.733037 -2.585746 4.261620 0
M  V30 3 C -1.067367 -3.654766 3.740958 0
M  V30 4 C -0.452723 -3.587898 2.493335 0
M  V30 5 C 0.200221 -4.667403 1.942048 0
M  V30 6 C 0.781937 -4.596110 0.696482 0
M  V30 7 C 0.668652 -3.386050 0.048526 0
M  V30 8 C 0.031697 -2.214748 0.503532 0
M  V30 9 S 0.057420 -0.764664 -0.406490 0
M  V30 10 O 0.601047 -1.151030 -1.790957 0
M  V30 11 O -1.323200 -0.278054 -0.802519 0
M  V30 12 N 1.080691 0.430488 0.122832 0
M  V30 13 C 1.001675 1.061473 1.368530 0
M  V30 14 C 0.038138 2.229096 1.410892 0
M  V30 15 N -0.453786 2.669521 0.161840 0 CHG=1 VAL=4
M  V30 16 C 0.325465 2.441265 -0.999296 0
M  V30 17 C 1.426452 1.440806 -0.851586 0 CFG=2
M  V30 18 C 1.949320 0.928149 -2.140369 0
M  V30 19 C -0.501680 -2.443575 1.758576 0
M  V30 20 C -1.186835 -1.388125 2.324007 0
M  V30 21 H -2.334064 -0.567349 3.963429 0
M  V30 22 H -0.980400 -4.609788 4.266212 0
M  V30 23 H 0.272005 -5.602119 2.477388 0
M  V30 24 H 1.289544 -5.417301 0.252347 0
M  V30 25 H 1.142493 -3.353708 -0.947372 0
M  V30 26 H 0.985132 0.433172 2.277547 0
M  V30 27 H 2.017221 1.579746 1.486989 0
M  V30 28 H 0.429507 3.086868 1.993892 0
M  V30 29 H -0.852751 1.872616 2.005969 0
M  V30 30 H -1.452107 2.348373 -0.037346 0
M  V30 31 H -0.595675 3.727915 0.219264 0
M  V30 32 H 0.829212 3.383918 -1.371752 0
M  V30 33 H -0.334365 2.167189 -1.877272 0
M  V30 34 H 2.281116 1.999503 -0.361780 0
M  V30 35 H 2.637900 1.715547 -2.561109 0
M  V30 36 H 1.190938 0.785566 -2.935817 0
M  V30 37 H 2.592825 0.043387 -1.965215 0
M  V30 38 H -1.281404 -0.476481 1.798571 0
M  V30 END ATOM
M  V30 BEGIN BOND
M  V30 1 2 1 2
M  V30 2 1 2 3
M  V30 3 2 3 4
M  V30 4 1 4 5
M  V30 5 2 5 6
M  V30 6 1 6 7
M  V30 7 2 7 8
M  V30 8 1 8 9
M  V30 9 2 9 10
M  V30 10 2 9 11
M  V30 11 1 9 12
M  V30 12 1 12 13
M  V30 13 1 13 14
M  V30 14 1 14 15
M  V30 15 1 15 16
M  V30 16 1 16 17
M  V30 17 1 17 18
M  V30 18 1 8 19
M  V30 19 2 19 20
M  V30 20 1 20 1
M  V30 21 1 19 4
M  V30 22 1 17 12
M  V30 23 1 1 21
M  V30 24 1 3 22
M  V30 25 1 5 23
M  V30 26 1 6 24
M  V30 27 1 7 25
M  V30 28 1 13 26
M  V30 29 1 13 27
M  V30 30 1 14 28
M  V30 31 1 14 29
M  V30 32 1 15 30
M  V30 33 1 15 31
M  V30 34 1 16 32
M  V30 35 1 16 33
M  V30 36 1 17 34 CFG=1
M  V30 37 1 18 35
M  V30 38 1 18 36
M  V30 39 1 18 37
M  V30 40 1 20 38
M  V30 END BOND
M  V30 END CTAB
M  END
>  <Dataset>  (181) 
PDB

>  <Ligand_Instance>  (181) 
5LCU_IQP_A_401

>  <PDB_ID>  (181) 
5LCU

>  <Standardized_SMILES>  (181) 
[H]C1=NC([H])=C2C([H])=C([H])C([H])=C(S(=O)(=O)N3C([H])([H])C([H])([H])[N+]([H])([H])C([H])([H])[C@]3([H])C([H])([H])[H])C2=C1[H]

>  <Name>  (181) 
1-(5-ISOQUINOLINESULFONYL)-2-METHYLPIPERAZINE

>  <Pocket>  (181) 
A

>  <ATP_Site>  (181) 
1.0

>  <Peripheral>  (181) 
0.0

>  <Num_H_Atoms_ProtBoundConf>  (181) 
18.0

>  <Num_Resolved_Atoms>  (181) 
20.0

>  <Num_Not_Resolved_Atoms>  (181) 
0.0

$$$$
IQU
     RDKit          3D

  0  0  0  0  0  0  0  0  0  0999 V3000
M  V30 BEGIN CTAB
M  V30 COUNTS 31 32 0 0 0
M  V30 BEGIN ATOM
M  V30 1 C 1.137249 -3.378018 1.308501 0
M  V30 2 N 1.989880 -3.542361 2.353073 0
M  V30 3 C 2.700596 -2.484020 2.791919 0
M  V30 4 C 2.622107 -1.208696 2.240792 0
M  V30 5 C 3.355320 -0.156567 2.695201 0
M  V30 6 C 3.235606 1.057786 2.106402 0
M  V30 7 C 2.357022 1.167205 1.054066 0
M  V30 8 C 1.559703 0.141124 0.516922 0
M  V30 9 S 0.467883 0.460002 -0.806730 0
M  V30 10 O 0.931055 -0.321895 -2.008066 0
M  V30 11 O 0.674918 1.916948 -1.206210 0
M  V30 12 N -1.164729 0.293657 -0.474418 0
M  V30 13 C -1.936362 -0.679401 -1.133134 0
M  V30 14 C -3.370926 -0.536497 -0.580351 0
M  V30 15 N -3.367065 -0.759532 0.857792 0 CHG=1 VAL=4
M  V30 16 C 1.757963 -1.044453 1.183821 0
M  V30 17 C 1.045446 -2.122981 0.749247 0
M  V30 18 H 0.547293 -4.194847 0.921719 0
M  V30 19 H 3.380434 -2.645528 3.635567 0
M  V30 20 H 4.017807 -0.337794 3.526026 0
M  V30 21 H 3.795383 1.921744 2.430188 0
M  V30 22 H 2.277346 2.164579 0.591998 0
M  V30 23 H -1.727877 1.157403 -0.358370 0
M  V30 24 H -1.667402 -1.729466 -1.052230 0
M  V30 25 H -2.054092 -0.493554 -2.239754 0
M  V30 26 H -3.778526 0.470982 -0.753431 0
M  V30 27 H -4.015889 -1.337224 -1.019240 0
M  V30 28 H -4.283004 -1.052178 1.212140 0
M  V30 29 H -2.585291 -1.404686 1.141486 0
M  V30 30 H -3.136108 0.166365 1.295982 0
M  V30 31 H 0.388896 -2.012411 -0.065443 0
M  V30 END ATOM
M  V30 BEGIN BOND
M  V30 1 2 1 2
M  V30 2 1 2 3
M  V30 3 2 3 4
M  V30 4 1 4 5
M  V30 5 2 5 6
M  V30 6 1 6 7
M  V30 7 2 7 8
M  V30 8 1 8 9
M  V30 9 2 9 10
M  V30 10 2 9 11
M  V30 11 1 9 12
M  V30 12 1 12 13
M  V30 13 1 13 14
M  V30 14 1 14 15
M  V30 15 1 8 16
M  V30 16 2 16 17
M  V30 17 1 17 1
M  V30 18 1 16 4
M  V30 19 1 1 18
M  V30 20 1 3 19
M  V30 21 1 5 20
M  V30 22 1 6 21
M  V30 23 1 7 22
M  V30 24 1 12 23
M  V30 25 1 13 24
M  V30 26 1 13 25
M  V30 27 1 14 26
M  V30 28 1 14 27
M  V30 29 1 15 28
M  V30 30 1 15 29
M  V30 31 1 15 30
M  V30 32 1 17 31
M  V30 END BOND
M  V30 END CTAB
M  END
>  <Dataset>  (182) 
PDB

>  <Ligand_Instance>  (182) 
5M0B_IQU_A_401

>  <PDB_ID>  (182) 
5M0B

>  <Standardized_SMILES>  (182) 
[H]C1=NC([H])=C2C([H])=C([H])C([H])=C(S(=O)(=O)N([H])C([H])([H])C([H])([H])[N+]([H])([H])[H])C2=C1[H]

>  <Name>  (182) 
N-(2-AMINOETHYL)ISOQUINOLINE-5-SULFONAMIDE

>  <Pocket>  (182) 
A

>  <ATP_Site>  (182) 
1.0

>  <Peripheral>  (182) 
0.0

>  <Num_H_Atoms_ProtBoundConf>  (182) 
14.0

>  <Num_Resolved_Atoms>  (182) 
17.0

>  <Num_Not_Resolved_Atoms>  (182) 
0.0

$$$$
IQU
     RDKit          3D

  0  0  0  0  0  0  0  0  0  0999 V3000
M  V30 BEGIN CTAB
M  V30 COUNTS 31 32 0 0 0
M  V30 BEGIN ATOM
M  V30 1 C 1.137249 -3.378018 1.308501 0
M  V30 2 N 1.989880 -3.542361 2.353073 0
M  V30 3 C 2.700596 -2.484020 2.791919 0
M  V30 4 C 2.622107 -1.208696 2.240792 0
M  V30 5 C 3.355320 -0.156567 2.695201 0
M  V30 6 C 3.235606 1.057786 2.106402 0
M  V30 7 C 2.357022 1.167205 1.054066 0
M  V30 8 C 1.559703 0.141124 0.516922 0
M  V30 9 S 0.467883 0.460002 -0.806730 0
M  V30 10 O 0.931055 -0.321895 -2.008066 0
M  V30 11 O 0.674918 1.916948 -1.206210 0
M  V30 12 N -1.164729 0.293657 -0.474418 0
M  V30 13 C -1.936362 -0.679401 -1.133134 0
M  V30 14 C -3.370926 -0.536497 -0.580351 0
M  V30 15 N -3.367065 -0.759532 0.857792 0 CHG=1 VAL=4
M  V30 16 C 1.757963 -1.044453 1.183821 0
M  V30 17 C 1.045446 -2.122981 0.749247 0
M  V30 18 H 0.547293 -4.194847 0.921719 0
M  V30 19 H 3.380434 -2.645528 3.635567 0
M  V30 20 H 4.017807 -0.337794 3.526026 0
M  V30 21 H 3.795383 1.921744 2.430188 0
M  V30 22 H 2.277346 2.164579 0.591998 0
M  V30 23 H -1.727877 1.157403 -0.358370 0
M  V30 24 H -1.667402 -1.729466 -1.052230 0
M  V30 25 H -2.054092 -0.493554 -2.239754 0
M  V30 26 H -3.778526 0.470982 -0.753431 0
M  V30 27 H -4.015889 -1.337224 -1.019240 0
M  V30 28 H -4.283004 -1.052178 1.212140 0
M  V30 29 H -2.585291 -1.404686 1.141486 0
M  V30 30 H -3.136108 0.166365 1.295982 0
M  V30 31 H 0.388896 -2.012411 -0.065443 0
M  V30 END ATOM
M  V30 BEGIN BOND
M  V30 1 2 1 2
M  V30 2 1 2 3
M  V30 3 2 3 4
M  V30 4 1 4 5
M  V30 5 2 5 6
M  V30 6 1 6 7
M  V30 7 2 7 8
M  V30 8 1 8 9
M  V30 9 2 9 10
M  V30 10 2 9 11
M  V30 11 1 9 12
M  V30 12 1 12 13
M  V30 13 1 13 14
M  V30 14 1 14 15
M  V30 15 1 8 16
M  V30 16 2 16 17
M  V30 17 1 17 1
M  V30 18 1 16 4
M  V30 19 1 1 18
M  V30 20 1 3 19
M  V30 21 1 5 20
M  V30 22 1 6 21
M  V30 23 1 7 22
M  V30 24 1 12 23
M  V30 25 1 13 24
M  V30 26 1 13 25
M  V30 27 1 14 26
M  V30 28 1 14 27
M  V30 29 1 15 28
M  V30 30 1 15 29
M  V30 31 1 15 30
M  V30 32 1 17 31
M  V30 END BOND
M  V30 END CTAB
M  END
>  <Dataset>  (183) 
PDB

>  <Ligand_Instance>  (183) 
6YNB_IQU_A_401

>  <PDB_ID>  (183) 
6YNB

>  <Standardized_SMILES>  (183) 
[H]C1=NC([H])=C2C([H])=C([H])C([H])=C(S(=O)(=O)N([H])C([H])([H])C([H])([H])[N+]([H])([H])[H])C2=C1[H]

>  <Name>  (183) 
N-(2-AMINOETHYL)ISOQUINOLINE-5-SULFONAMIDE

>  <Pocket>  (183) 
A

>  <ATP_Site>  (183) 
1.0

>  <Peripheral>  (183) 
0.0

>  <Num_H_Atoms_ProtBoundConf>  (183) 
14.0

>  <Num_Resolved_Atoms>  (183) 
17.0

>  <Num_Not_Resolved_Atoms>  (183) 
0.0

$$$$
ISQ
     RDKit          3D

  0  0  0  0  0  0  0  0  0  0999 V3000
M  V30 BEGIN CTAB
M  V30 COUNTS 17 18 0 0 0
M  V30 BEGIN ATOM
M  V30 1 C -0.744409 -1.172683 -0.078020 0
M  V30 2 N -1.124888 -1.309037 1.210016 0
M  V30 3 C -0.405538 -0.664395 2.173183 0
M  V30 4 C 0.671431 0.089191 1.756904 0
M  V30 5 C 1.446224 0.768786 2.664853 0
M  V30 6 C 2.530783 1.543718 2.386530 0
M  V30 7 C 2.878404 1.649573 1.045335 0
M  V30 8 C 2.136159 0.987872 0.081906 0
M  V30 9 C 1.047425 0.218564 0.436904 0
M  V30 10 C 0.316929 -0.435194 -0.533580 0
M  V30 11 H -1.352364 -1.708750 -0.814804 0
M  V30 12 H -0.644381 -0.722126 3.226228 0
M  V30 13 H 1.183817 0.694265 3.724790 0
M  V30 14 H 3.126557 2.068023 3.099920 0
M  V30 15 H 3.709390 2.222893 0.652718 0
M  V30 16 H 2.365668 1.037353 -0.983123 0
M  V30 17 H 0.575742 -0.360997 -1.572736 0
M  V30 END ATOM
M  V30 BEGIN BOND
M  V30 1 2 1 2
M  V30 2 1 2 3
M  V30 3 2 3 4
M  V30 4 1 4 5
M  V30 5 2 5 6
M  V30 6 1 6 7
M  V30 7 2 7 8
M  V30 8 1 8 9
M  V30 9 2 9 10
M  V30 10 1 10 1
M  V30 11 1 9 4
M  V30 12 1 1 11
M  V30 13 1 3 12
M  V30 14 1 5 13
M  V30 15 1 6 14
M  V30 16 1 7 15
M  V30 17 1 8 16
M  V30 18 1 10 17
M  V30 END BOND
M  V30 END CTAB
M  END
>  <Dataset>  (184) 
PDB

>  <Ligand_Instance>  (184) 
6F14_ISQ_A_401

>  <PDB_ID>  (184) 
6F14

>  <Standardized_SMILES>  (184) 
[H]C1=NC([H])=C2C([H])=C([H])C([H])=C([H])C2=C1[H]

>  <Name>  (184) 
ISOQUINOLINE

>  <Pocket>  (184) 
A

>  <ATP_Site>  (184) 
1.0

>  <Peripheral>  (184) 
0.0

>  <Num_H_Atoms_ProtBoundConf>  (184) 
7.0

>  <Num_Resolved_Atoms>  (184) 
10.0

>  <Num_Not_Resolved_Atoms>  (184) 
0.0

$$$$
ISQ
     RDKit          3D

  0  0  0  0  0  0  0  0  0  0999 V3000
M  V30 BEGIN CTAB
M  V30 COUNTS 17 18 0 0 0
M  V30 BEGIN ATOM
M  V30 1 C -0.744409 -1.172683 -0.078020 0
M  V30 2 N -1.124888 -1.309037 1.210016 0
M  V30 3 C -0.405538 -0.664395 2.173183 0
M  V30 4 C 0.671431 0.089191 1.756904 0
M  V30 5 C 1.446224 0.768786 2.664853 0
M  V30 6 C 2.530783 1.543718 2.386530 0
M  V30 7 C 2.878404 1.649573 1.045335 0
M  V30 8 C 2.136159 0.987872 0.081906 0
M  V30 9 C 1.047425 0.218564 0.436904 0
M  V30 10 C 0.316929 -0.435194 -0.533580 0
M  V30 11 H -1.352364 -1.708750 -0.814804 0
M  V30 12 H -0.644381 -0.722126 3.226228 0
M  V30 13 H 1.183817 0.694265 3.724790 0
M  V30 14 H 3.126557 2.068023 3.099920 0
M  V30 15 H 3.709390 2.222893 0.652718 0
M  V30 16 H 2.365668 1.037353 -0.983123 0
M  V30 17 H 0.575742 -0.360997 -1.572736 0
M  V30 END ATOM
M  V30 BEGIN BOND
M  V30 1 2 1 2
M  V30 2 1 2 3
M  V30 3 2 3 4
M  V30 4 1 4 5
M  V30 5 2 5 6
M  V30 6 1 6 7
M  V30 7 2 7 8
M  V30 8 1 8 9
M  V30 9 2 9 10
M  V30 10 1 10 1
M  V30 11 1 9 4
M  V30 12 1 1 11
M  V30 13 1 3 12
M  V30 14 1 5 13
M  V30 15 1 6 14
M  V30 16 1 7 15
M  V30 17 1 8 16
M  V30 18 1 10 17
M  V30 END BOND
M  V30 END CTAB
M  END
>  <Dataset>  (185) 
PDB

>  <Ligand_Instance>  (185) 
6YPP_ISQ_A_401

>  <PDB_ID>  (185) 
6YPP

>  <Standardized_SMILES>  (185) 
[H]C1=NC([H])=C2C([H])=C([H])C([H])=C([H])C2=C1[H]

>  <Name>  (185) 
ISOQUINOLINE

>  <Pocket>  (185) 
A

>  <ATP_Site>  (185) 
1.0

>  <Peripheral>  (185) 
0.0

>  <Num_H_Atoms_ProtBoundConf>  (185) 
7.0

>  <Num_Resolved_Atoms>  (185) 
10.0

>  <Num_Not_Resolved_Atoms>  (185) 
0.0

$$$$
J0G
     RDKit          3D

  0  0  0  0  0  0  0  0  0  0999 V3000
M  V30 BEGIN CTAB
M  V30 COUNTS 56 58 0 0 0
M  V30 BEGIN ATOM
M  V30 1 C 3.365814 -6.187141 1.731727 0
M  V30 2 N 4.547646 -5.907747 2.321549 0
M  V30 3 C 4.937609 -4.614081 2.465298 0
M  V30 4 C 4.140044 -3.560815 2.014657 0
M  V30 5 C 2.924937 -3.827597 1.407371 0
M  V30 6 C 2.150031 -2.682701 0.964389 0
M  V30 7 C 2.185623 -1.477405 1.621488 0
M  V30 8 C 1.452111 -0.391490 1.201242 0
M  V30 9 C 0.653337 -0.484867 0.097911 0
M  V30 10 C -0.108728 0.673934 -0.330801 0
M  V30 11 O -0.889175 0.906756 -1.269992 0
M  V30 12 N -0.045908 1.893034 0.393325 0
M  V30 13 C -0.714684 3.130836 0.128918 0 CFG=1
M  V30 14 C -1.669276 3.322907 1.281439 0
M  V30 15 C -1.855584 4.495927 1.982896 0
M  V30 16 C -2.773562 4.519976 3.021876 0
M  V30 17 C -3.503491 3.386147 3.364181 0
M  V30 18 C -3.330058 2.213636 2.677320 0
M  V30 19 O -4.070090 1.097550 3.037908 0
M  V30 20 C -3.933180 -0.154376 2.358759 0
M  V30 21 C -2.416863 2.223440 1.657594 0
M  V30 22 C 0.179971 4.329257 0.043199 0
M  V30 23 C 0.577669 -1.668221 -0.600878 0
M  V30 24 N -0.221929 -1.870946 -1.758736 0
M  V30 25 C -0.230180 -3.143350 -2.413473 0
M  V30 26 C -1.118993 -3.199365 -3.610487 0
M  V30 27 N -1.091932 -4.502079 -4.236110 0 CHG=1 VAL=4
M  V30 28 C 1.337672 -2.730098 -0.133639 0
M  V30 29 C 2.553509 -5.148855 1.274152 0
M  V30 30 H 3.073088 -7.213886 1.626097 0
M  V30 31 H 5.898962 -4.499094 2.951001 0
M  V30 32 H 4.580741 -2.569005 2.197434 0
M  V30 33 H 2.838315 -1.444483 2.502085 0
M  V30 34 H 1.594769 0.468144 1.824921 0
M  V30 35 H 0.534477 2.058267 1.271124 0
M  V30 36 H -1.344225 3.108368 -0.785913 0
M  V30 37 H -1.267741 5.329145 1.674308 0
M  V30 38 H -2.873833 5.485582 3.538654 0
M  V30 39 H -4.204104 3.454208 4.178009 0
M  V30 40 H -2.887743 -0.389030 2.152562 0
M  V30 41 H -4.581551 -0.137961 1.457488 0
M  V30 42 H -4.341707 -0.962227 3.006662 0
M  V30 43 H -2.298459 1.270687 1.125488 0
M  V30 44 H 0.631748 4.615077 1.005129 0
M  V30 45 H -0.465206 5.187953 -0.247177 0
M  V30 46 H 0.915540 4.188529 -0.764025 0
M  V30 47 H -0.834400 -1.165592 -2.211552 0
M  V30 48 H -0.514908 -3.980353 -1.744560 0
M  V30 49 H 0.817928 -3.397204 -2.736940 0
M  V30 50 H -0.956983 -2.366866 -4.323765 0
M  V30 51 H -2.176856 -3.048162 -3.244996 0
M  V30 52 H -1.611373 -4.398760 -5.148836 0
M  V30 53 H -1.697867 -5.139247 -3.644497 0
M  V30 54 H -0.132384 -4.870177 -4.353596 0
M  V30 55 H 1.294593 -3.686955 -0.673007 0
M  V30 56 H 1.600343 -5.345088 0.797666 0
M  V30 END ATOM
M  V30 BEGIN BOND
M  V30 1 2 1 2
M  V30 2 1 2 3
M  V30 3 2 3 4
M  V30 4 1 4 5
M  V30 5 1 5 6
M  V30 6 2 6 7
M  V30 7 1 7 8
M  V30 8 2 8 9
M  V30 9 1 9 10
M  V30 10 2 10 11
M  V30 11 1 10 12
M  V30 12 1 12 13
M  V30 13 1 13 14
M  V30 14 2 14 15
M  V30 15 1 15 16
M  V30 16 2 16 17
M  V30 17 1 17 18
M  V30 18 1 18 19
M  V30 19 1 19 20
M  V30 20 2 18 21
M  V30 21 1 13 22
M  V30 22 1 9 23
M  V30 23 1 23 24
M  V30 24 1 24 25
M  V30 25 1 25 26
M  V30 26 1 26 27
M  V30 27 2 23 28
M  V30 28 2 5 29
M  V30 29 1 29 1
M  V30 30 1 28 6
M  V30 31 1 21 14
M  V30 32 1 1 30
M  V30 33 1 3 31
M  V30 34 1 4 32
M  V30 35 1 7 33
M  V30 36 1 8 34
M  V30 37 1 12 35
M  V30 38 1 13 36 CFG=3
M  V30 39 1 15 37
M  V30 40 1 16 38
M  V30 41 1 17 39
M  V30 42 1 20 40
M  V30 43 1 20 41
M  V30 44 1 20 42
M  V30 45 1 21 43
M  V30 46 1 22 44
M  V30 47 1 22 45
M  V30 48 1 22 46
M  V30 49 1 24 47
M  V30 50 1 25 48
M  V30 51 1 25 49
M  V30 52 1 26 50
M  V30 53 1 26 51
M  V30 54 1 27 52
M  V30 55 1 27 53
M  V30 56 1 27 54
M  V30 57 1 28 55
M  V30 58 1 29 56
M  V30 END BOND
M  V30 END CTAB
M  END
>  <Dataset>  (186) 
PDB

>  <Ligand_Instance>  (186) 
6E99_J0G_A_601

>  <PDB_ID>  (186) 
6E99

>  <Standardized_SMILES>  (186) 
[H]C1=NC([H])=C([H])C(C2=C([H])C([H])=C(C(=O)N([H])[C@@]([H])(C3=C([H])C([H])=C([H])C(OC([H])([H])[H])=C3[H])C([H])([H])[H])C(N([H])C([H])([H])C([H])([H])[N+]([H])([H])[H])=C2[H])=C1[H]

>  <Name>  (186) 
2-[(2-aminoethyl)amino]-N-[(1R)-1-(3-methoxyphenyl)ethyl]-4-(pyridin-4-yl)benzamide

>  <Pocket>  (186) 
A

>  <ATP_Site>  (186) 
1.0

>  <Peripheral>  (186) 
0.0

>  <Num_H_Atoms_ProtBoundConf>  (186) 
27.0

>  <Num_Resolved_Atoms>  (186) 
29.0

>  <Num_Not_Resolved_Atoms>  (186) 
0.0

$$$$
J0P
     RDKit          3D

  0  0  0  0  0  0  0  0  0  0999 V3000
M  V30 BEGIN CTAB
M  V30 COUNTS 44 47 0 0 0
M  V30 BEGIN ATOM
M  V30 1 C -0.488483 -7.399197 -0.979689 0
M  V30 2 N 0.342819 -8.067179 -0.153049 0
M  V30 3 C 1.261738 -7.441113 0.604268 0
M  V30 4 C 1.316546 -6.055989 0.494898 0
M  V30 5 C 0.483326 -5.340605 -0.338867 0
M  V30 6 C 0.630441 -3.890619 -0.371850 0
M  V30 7 C -0.499674 -3.141551 -0.623026 0
M  V30 8 C -0.427229 -1.750065 -0.667536 0
M  V30 9 C 0.776390 -1.109142 -0.460713 0
M  V30 10 C 0.993676 0.336338 -0.479057 0
M  V30 11 O 2.142584 0.854792 -0.283189 0
M  V30 12 N -0.024602 1.294680 -0.710940 0
M  V30 13 C 0.184735 2.722046 -0.730467 0
M  V30 14 C 0.717320 3.258160 0.551567 0
M  V30 15 C 2.060477 3.617270 0.647970 0
M  V30 16 C 2.617568 4.118279 1.795697 0
M  V30 17 C 1.836550 4.286447 2.925528 0
M  V30 18 C 0.501920 3.925568 2.816736 0
M  V30 19 C -0.065805 3.423469 1.673631 0
M  V30 20 O -1.410486 3.080870 1.629848 0
M  V30 21 C -2.250829 3.204738 2.778109 0
M  V30 22 C -1.454166 3.279994 4.065456 0
M  V30 23 O -0.299485 4.085295 3.935704 0
M  V30 24 C 1.879437 -1.899989 -0.213057 0
M  V30 25 C 1.849055 -3.277557 -0.160896 0
M  V30 26 C -0.437491 -6.015716 -1.092267 0
M  V30 27 H -1.230642 -7.926622 -1.589051 0
M  V30 28 H 1.918880 -8.004548 1.262006 0
M  V30 29 H 2.052047 -5.563131 1.102111 0
M  V30 30 H -1.506365 -3.530158 -0.802392 0
M  V30 31 H -1.280563 -1.131386 -0.859573 0
M  V30 32 H -0.990856 0.880887 -0.876252 0
M  V30 33 H -0.788044 3.209924 -0.949397 0
M  V30 34 H 0.866021 2.979027 -1.573599 0
M  V30 35 H 2.756333 3.526116 -0.179217 0
M  V30 36 H 3.669231 4.398888 1.869714 0
M  V30 37 H 2.290967 4.681478 3.819251 0
M  V30 38 H -2.873832 4.111907 2.690815 0
M  V30 39 H -2.908026 2.318340 2.782085 0
M  V30 40 H -2.105994 3.763926 4.836356 0
M  V30 41 H -1.205635 2.268243 4.449862 0
M  V30 42 H 2.857948 -1.433801 -0.042606 0
M  V30 43 H 2.740498 -3.858071 0.036537 0
M  V30 44 H -1.100414 -5.461062 -1.753874 0
M  V30 END ATOM
M  V30 BEGIN BOND
M  V30 1 2 1 2
M  V30 2 1 2 3
M  V30 3 2 3 4
M  V30 4 1 4 5
M  V30 5 1 5 6
M  V30 6 2 6 7
M  V30 7 1 7 8
M  V30 8 2 8 9
M  V30 9 1 9 10
M  V30 10 2 10 11
M  V30 11 1 10 12
M  V30 12 1 12 13
M  V30 13 1 13 14
M  V30 14 2 14 15
M  V30 15 1 15 16
M  V30 16 2 16 17
M  V30 17 1 17 18
M  V30 18 2 18 19
M  V30 19 1 19 20
M  V30 20 1 20 21
M  V30 21 1 21 22
M  V30 22 1 22 23
M  V30 23 1 9 24
M  V30 24 2 24 25
M  V30 25 2 5 26
M  V30 26 1 26 1
M  V30 27 1 25 6
M  V30 28 1 19 14
M  V30 29 1 23 18
M  V30 30 1 1 27
M  V30 31 1 3 28
M  V30 32 1 4 29
M  V30 33 1 7 30
M  V30 34 1 8 31
M  V30 35 1 12 32
M  V30 36 1 13 33
M  V30 37 1 13 34
M  V30 38 1 15 35
M  V30 39 1 16 36
M  V30 40 1 17 37
M  V30 41 1 21 38
M  V30 42 1 21 39
M  V30 43 1 22 40
M  V30 44 1 22 41
M  V30 45 1 24 42
M  V30 46 1 25 43
M  V30 47 1 26 44
M  V30 END BOND
M  V30 END CTAB
M  END
>  <Dataset>  (187) 
PDB

>  <Ligand_Instance>  (187) 
6E9L_J0P_A_401

>  <PDB_ID>  (187) 
6E9L

>  <Standardized_SMILES>  (187) 
[H]C1=NC([H])=C([H])C(C2=C([H])C([H])=C(C(=O)N([H])C([H])([H])C3=C([H])C([H])=C([H])C4=C3OC([H])([H])C([H])([H])O4)C([H])=C2[H])=C1[H]

>  <Name>  (187) 
N-[(2,3-dihydro-1,4-benzodioxin-5-yl)methyl]-4-(pyridin-4-yl)benzamide

>  <Pocket>  (187) 
A

>  <ATP_Site>  (187) 
1.0

>  <Peripheral>  (187) 
0.0

>  <Num_H_Atoms_ProtBoundConf>  (187) 
18.0

>  <Num_Resolved_Atoms>  (187) 
26.0

>  <Num_Not_Resolved_Atoms>  (187) 
0.0

$$$$
J4B
     RDKit          3D

  0  0  0  0  0  0  0  0  0  0999 V3000
M  V30 BEGIN CTAB
M  V30 COUNTS 44 45 0 0 0
M  V30 BEGIN ATOM
M  V30 1 O -0.072775 -5.268150 4.348337 0
M  V30 2 C 0.545971 -4.354056 3.515187 0
M  V30 3 C 1.330489 -4.663473 2.445074 0
M  V30 4 C 1.915734 -3.693212 1.658072 0
M  V30 5 C 1.697483 -2.365116 1.967517 0
M  V30 6 C 2.371342 -1.439003 1.059078 0
M  V30 7 O 3.473898 -0.834487 1.015481 0
M  V30 8 N 1.533947 -1.168623 -0.063547 0
M  V30 9 N 1.611050 -0.387958 -1.236588 0
M  V30 10 C 1.121263 0.941093 -1.090880 0
M  V30 11 O 0.642472 1.435723 -0.013531 0
M  V30 12 C 1.059925 2.016235 -2.128263 0 CFG=1
M  V30 13 O 1.565700 1.545911 -3.339775 0
M  V30 14 C -0.390181 2.370016 -2.369723 0
M  V30 15 C -1.025788 3.521728 -1.937587 0
M  V30 16 C -2.363519 3.683998 -2.249008 0
M  V30 17 F -2.972020 4.825904 -1.814119 0
M  V30 18 C -3.058569 2.724109 -2.974489 0
M  V30 19 C -2.403427 1.564572 -3.405050 0
M  V30 20 F -3.109309 0.626117 -4.122387 0
M  V30 21 C -1.080154 1.410775 -3.093355 0
M  V30 22 C 0.905178 -2.030618 3.048525 0
M  V30 23 C 0.735678 -0.570436 3.295437 0
M  V30 24 C 1.983539 0.005546 3.928303 0
M  V30 25 C 0.325905 -3.011028 3.827168 0
M  V30 26 C -0.520700 -2.619250 4.981882 0
M  V30 27 H -0.837732 -5.861387 4.061980 0
M  V30 28 H 1.467824 -5.715413 2.248545 0
M  V30 29 H 2.529111 -4.036932 0.820335 0
M  V30 30 H 0.565203 -1.546254 -0.268098 0
M  V30 31 H 1.962124 -0.602813 -2.197953 0
M  V30 32 H 1.639654 2.871112 -1.781712 0
M  V30 33 H 2.375114 2.071253 -3.600414 0
M  V30 34 H -0.412187 4.210703 -1.382605 0
M  V30 35 H -4.110810 2.861186 -3.214294 0
M  V30 36 H -0.621098 0.487095 -3.454971 0
M  V30 37 H -0.109060 -0.341826 3.976197 0
M  V30 38 H 0.503290 -0.017365 2.362888 0
M  V30 39 H 1.731204 0.638898 4.778517 0
M  V30 40 H 2.651991 -0.831465 4.274376 0
M  V30 41 H 2.560923 0.600530 3.181850 0
M  V30 42 H -1.154500 -3.521920 5.231995 0
M  V30 43 H 0.099677 -2.362117 5.869768 0
M  V30 44 H -1.265974 -1.840423 4.719424 0
M  V30 END ATOM
M  V30 BEGIN BOND
M  V30 1 1 1 2
M  V30 2 2 2 3
M  V30 3 1 3 4
M  V30 4 2 4 5
M  V30 5 1 5 6
M  V30 6 2 6 7
M  V30 7 1 6 8
M  V30 8 1 8 9
M  V30 9 1 9 10
M  V30 10 2 10 11
M  V30 11 1 10 12
M  V30 12 1 12 13
M  V30 13 1 12 14
M  V30 14 2 14 15
M  V30 15 1 15 16
M  V30 16 1 16 17
M  V30 17 2 16 18
M  V30 18 1 18 19
M  V30 19 1 19 20
M  V30 20 2 19 21
M  V30 21 1 5 22
M  V30 22 1 22 23
M  V30 23 1 23 24
M  V30 24 2 22 25
M  V30 25 1 25 26
M  V30 26 1 25 2
M  V30 27 1 21 14
M  V30 28 1 1 27
M  V30 29 1 3 28
M  V30 30 1 4 29
M  V30 31 1 8 30
M  V30 32 1 9 31
M  V30 33 1 12 32 CFG=1
M  V30 34 1 13 33
M  V30 35 1 15 34
M  V30 36 1 18 35
M  V30 37 1 21 36
M  V30 38 1 23 37
M  V30 39 1 23 38
M  V30 40 1 24 39
M  V30 41 1 24 40
M  V30 42 1 24 41
M  V30 43 1 26 42
M  V30 44 1 26 43
M  V30 45 1 26 44
M  V30 END BOND
M  V30 END CTAB
M  END
>  <Dataset>  (188) 
PDB

>  <Ligand_Instance>  (188) 
6QJ7_J4B_A_401

>  <PDB_ID>  (188) 
6QJ7

>  <Standardized_SMILES>  (188) 
[H]OC1=C([H])C([H])=C(C(=O)N([H])N([H])C(=O)[C@@]([H])(O[H])C2=C([H])C(F)=C([H])C(F)=C2[H])C(C([H])([H])C([H])([H])[H])=C1C([H])([H])[H]

>  <Name>  (188) 
~{N}'-[(2~{S})-2-[3,5-bis(fluoranyl)phenyl]-2-oxidanyl-ethanoyl]-2-ethyl-3-methyl-4-oxidanyl-benzohydrazide

>  <Pocket>  (188) 
A

>  <ATP_Site>  (188) 
1.0

>  <Peripheral>  (188) 
0.0

>  <Num_H_Atoms_ProtBoundConf>  (188) 
18.0

>  <Num_Resolved_Atoms>  (188) 
26.0

>  <Num_Not_Resolved_Atoms>  (188) 
0.0

$$$$
L15
     RDKit          3D

  0  0  0  0  0  0  0  0  0  0999 V3000
M  V30 BEGIN CTAB
M  V30 COUNTS 31 32 0 0 0
M  V30 BEGIN ATOM
M  V30 1 C 1.886958 -0.262188 3.825413 0
M  V30 2 N 1.880407 -0.734167 5.107012 0
M  V30 3 N 0.799953 -1.467218 5.283250 0
M  V30 4 C 0.069372 -1.501808 4.139561 0
M  V30 5 C -1.194367 -2.155391 3.787465 0
M  V30 6 C 0.732478 -0.745423 3.191961 0
M  V30 7 C 0.522025 -0.372076 1.812694 0
M  V30 8 C 1.562104 -0.427805 0.874059 0
M  V30 9 C 1.363995 -0.071370 -0.445915 0
M  V30 10 C 0.142492 0.352546 -0.897121 0
M  V30 11 C -0.156627 0.750425 -2.282273 0
M  V30 12 C -0.614357 -0.443722 -3.088660 0
M  V30 13 N 0.411141 -1.447905 -3.112100 0 CHG=1 VAL=4
M  V30 14 C -0.901129 0.415672 0.013476 0
M  V30 15 C -0.714395 0.061943 1.334627 0
M  V30 16 H 2.700651 0.363929 3.489829 0
M  V30 17 H 0.476017 -1.982681 6.145964 0
M  V30 18 H -1.164376 -2.634332 2.772972 0
M  V30 19 H -1.281764 -3.040073 4.482560 0
M  V30 20 H -2.105506 -1.582958 3.989176 0
M  V30 21 H 2.532428 -0.761483 1.219286 0
M  V30 22 H 2.174888 -0.125513 -1.131326 0
M  V30 23 H -0.951048 1.518328 -2.347055 0
M  V30 24 H 0.752471 1.133535 -2.815086 0
M  V30 25 H -1.544478 -0.889027 -2.680803 0
M  V30 26 H -0.854218 -0.134699 -4.124319 0
M  V30 27 H 0.277638 -2.084821 -3.941972 0
M  V30 28 H 0.379195 -2.058469 -2.263025 0
M  V30 29 H 1.370801 -1.043565 -3.198379 0
M  V30 30 H -1.884559 0.739226 -0.272902 0
M  V30 31 H -1.513552 0.106779 2.047098 0
M  V30 END ATOM
M  V30 BEGIN BOND
M  V30 1 2 1 2
M  V30 2 1 2 3
M  V30 3 1 3 4
M  V30 4 1 4 5
M  V30 5 2 4 6
M  V30 6 1 6 7
M  V30 7 2 7 8
M  V30 8 1 8 9
M  V30 9 2 9 10
M  V30 10 1 10 11
M  V30 11 1 11 12
M  V30 12 1 12 13
M  V30 13 1 10 14
M  V30 14 2 14 15
M  V30 15 1 6 1
M  V30 16 1 15 7
M  V30 17 1 1 16
M  V30 18 1 3 17
M  V30 19 1 5 18
M  V30 20 1 5 19
M  V30 21 1 5 20
M  V30 22 1 8 21
M  V30 23 1 9 22
M  V30 24 1 11 23
M  V30 25 1 11 24
M  V30 26 1 12 25
M  V30 27 1 12 26
M  V30 28 1 13 27
M  V30 29 1 13 28
M  V30 30 1 13 29
M  V30 31 1 14 30
M  V30 32 1 15 31
M  V30 END BOND
M  V30 END CTAB
M  END
>  <Dataset>  (189) 
PDB

>  <Ligand_Instance>  (189) 
2UW4_L15_A_1351

>  <PDB_ID>  (189) 
2UW4

>  <Standardized_SMILES>  (189) 
[H]C1=NN([H])C(C([H])([H])[H])=C1C1=C([H])C([H])=C(C([H])([H])C([H])([H])[N+]([H])([H])[H])C([H])=C1[H]

>  <Name>  (189) 
2-[4-(3-METHYL-1H-PYRAZOL-4-YL)PHENYL]ETHANAMINE

>  <Pocket>  (189) 
A

>  <ATP_Site>  (189) 
1.0

>  <Peripheral>  (189) 
0.0

>  <Num_H_Atoms_ProtBoundConf>  (189) 
16.0

>  <Num_Resolved_Atoms>  (189) 
15.0

>  <Num_Not_Resolved_Atoms>  (189) 
0.0

$$$$
L20
     RDKit          3D

  0  0  0  0  0  0  0  0  0  0999 V3000
M  V30 BEGIN CTAB
M  V30 COUNTS 54 58 0 0 0
M  V30 BEGIN ATOM
M  V30 1 C 1.566964 -2.468779 1.264729 0
M  V30 2 N 2.567178 -2.023078 2.087406 0
M  V30 3 C 3.022542 -0.762678 1.960217 0
M  V30 4 C 2.478563 0.068293 1.003292 0
M  V30 5 C 2.863149 1.457262 0.740378 0
M  V30 6 C 2.818058 2.099758 -0.480320 0
M  V30 7 C 3.227897 3.424137 -0.526968 0
M  V30 8 C 3.665625 4.078123 0.606050 0
M  V30 9 C 3.711056 3.430909 1.835289 0
M  V30 10 C 3.305246 2.113638 1.891108 0
M  V30 11 C 4.187782 4.348070 2.748664 0
M  V30 12 C 4.406492 4.105234 4.199914 0
M  V30 13 N 4.422189 5.503570 2.101862 0
M  V30 14 N 4.108980 5.349565 0.804758 0
M  V30 15 C 1.473069 -0.399201 0.185262 0
M  V30 16 C 0.977739 -1.662057 0.272860 0
M  V30 17 O 0.038105 -2.430424 -0.334447 0
M  V30 18 C -0.850775 -2.195831 -1.351579 0
M  V30 19 C -1.829127 -1.109930 -1.029092 0 CFG=2
M  V30 20 C -2.702357 -1.368084 0.172039 0
M  V30 21 C -3.572047 -2.552558 0.076318 0
M  V30 22 C -4.900593 -2.390333 -0.350187 0
M  V30 23 N -5.564405 -3.554503 -0.424627 0
M  V30 24 C -4.722277 -4.528083 -0.056322 0
M  V30 25 C -4.792517 -5.895546 0.084087 0
M  V30 26 C -3.686676 -6.601855 0.513952 0
M  V30 27 C -2.476566 -5.976183 0.818674 0
M  V30 28 C -2.428599 -4.619275 0.671998 0
M  V30 29 C -3.527838 -3.912546 0.242949 0
M  V30 30 N -2.728829 -0.886393 -2.192774 0 CHG=1 VAL=4
M  V30 31 H 1.371957 -3.513282 1.558498 0
M  V30 32 H 3.802508 -0.336999 2.565122 0
M  V30 33 H 2.462351 1.510848 -1.312463 0
M  V30 34 H 3.187812 3.916583 -1.488563 0
M  V30 35 H 3.372348 1.689784 2.878770 0
M  V30 36 H 3.935225 4.863454 4.837385 0
M  V30 37 H 5.510003 4.021201 4.390123 0
M  V30 38 H 3.983051 3.124959 4.507876 0
M  V30 39 H 4.170597 6.046692 0.022509 0
M  V30 40 H 0.989181 0.150550 -0.587935 0
M  V30 41 H -1.436779 -3.115929 -1.577336 0
M  V30 42 H -0.356915 -1.945955 -2.324099 0
M  V30 43 H -1.306307 -0.159274 -0.850813 0
M  V30 44 H -3.317577 -0.471199 0.429737 0
M  V30 45 H -2.034425 -1.495668 1.077681 0
M  V30 46 H -5.432090 -1.477363 -0.614823 0
M  V30 47 H -6.541282 -3.748551 -0.703887 0
M  V30 48 H -5.732775 -6.364728 -0.153888 0
M  V30 49 H -3.840640 -7.679109 0.592925 0
M  V30 50 H -1.639888 -6.585929 1.152932 0
M  V30 51 H -1.497703 -4.159327 0.922795 0
M  V30 52 H -3.511405 -1.568005 -2.191200 0
M  V30 53 H -3.141084 0.067367 -2.165848 0
M  V30 54 H -2.163234 -0.934797 -3.092287 0
M  V30 END ATOM
M  V30 BEGIN BOND
M  V30 1 2 1 2
M  V30 2 1 2 3
M  V30 3 2 3 4
M  V30 4 1 4 5
M  V30 5 2 5 6
M  V30 6 1 6 7
M  V30 7 2 7 8
M  V30 8 1 8 9
M  V30 9 2 9 10
M  V30 10 1 9 11
M  V30 11 1 11 12
M  V30 12 2 11 13
M  V30 13 1 13 14
M  V30 14 1 4 15
M  V30 15 2 15 16
M  V30 16 1 16 17
M  V30 17 1 17 18
M  V30 18 1 18 19
M  V30 19 1 19 20
M  V30 20 1 20 21
M  V30 21 2 21 22
M  V30 22 1 22 23
M  V30 23 1 23 24
M  V30 24 2 24 25
M  V30 25 1 25 26
M  V30 26 2 26 27
M  V30 27 1 27 28
M  V30 28 2 28 29
M  V30 29 1 19 30
M  V30 30 1 16 1
M  V30 31 1 29 21
M  V30 32 1 10 5
M  V30 33 1 29 24
M  V30 34 1 14 8
M  V30 35 1 1 31
M  V30 36 1 3 32
M  V30 37 1 6 33
M  V30 38 1 7 34
M  V30 39 1 10 35
M  V30 40 1 12 36
M  V30 41 1 12 37
M  V30 42 1 12 38
M  V30 43 1 14 39
M  V30 44 1 15 40
M  V30 45 1 18 41
M  V30 46 1 18 42
M  V30 47 1 19 43 CFG=1
M  V30 48 1 20 44
M  V30 49 1 20 45
M  V30 50 1 22 46
M  V30 51 1 23 47
M  V30 52 1 25 48
M  V30 53 1 26 49
M  V30 54 1 27 50
M  V30 55 1 28 51
M  V30 56 1 30 52
M  V30 57 1 30 53
M  V30 58 1 30 54
M  V30 END BOND
M  V30 END CTAB
M  END
>  <Dataset>  (190) 
PDB

>  <Ligand_Instance>  (190) 
2JDS_L20_A_1351

>  <PDB_ID>  (190) 
2JDS

>  <Standardized_SMILES>  (190) 
[H]C1=NC([H])=C(C2=C([H])C([H])=C3C(=C2[H])C(C([H])([H])[H])=NN3[H])C([H])=C1OC([H])([H])[C@]([H])(C([H])([H])C1=C([H])N([H])C2=C([H])C([H])=C([H])C([H])=C21)[N+]([H])([H])[H]

>  <Name>  (190) 
(2S)-1-(1H-INDOL-3-YL)-3-{[5-(3-METHYL-1H-INDAZOL-5-YL)PYRIDIN-3-YL]OXY}PROPAN-2-AMINE

>  <Pocket>  (190) 
A

>  <ATP_Site>  (190) 
1.0

>  <Peripheral>  (190) 
0.0

>  <Num_H_Atoms_ProtBoundConf>  (190) 
24.0

>  <Num_Resolved_Atoms>  (190) 
30.0

>  <Num_Not_Resolved_Atoms>  (190) 
0.0

$$$$
L20
     RDKit          3D

  0  0  0  0  0  0  0  0  0  0999 V3000
M  V30 BEGIN CTAB
M  V30 COUNTS 54 58 0 0 0
M  V30 BEGIN ATOM
M  V30 1 C 1.566964 -2.468779 1.264729 0
M  V30 2 N 2.567178 -2.023078 2.087406 0
M  V30 3 C 3.022542 -0.762678 1.960217 0
M  V30 4 C 2.478563 0.068293 1.003292 0
M  V30 5 C 2.863149 1.457262 0.740378 0
M  V30 6 C 2.818058 2.099758 -0.480320 0
M  V30 7 C 3.227897 3.424137 -0.526968 0
M  V30 8 C 3.665625 4.078123 0.606050 0
M  V30 9 C 3.711056 3.430909 1.835289 0
M  V30 10 C 3.305246 2.113638 1.891108 0
M  V30 11 C 4.187782 4.348070 2.748664 0
M  V30 12 C 4.406492 4.105234 4.199914 0
M  V30 13 N 4.422189 5.503570 2.101862 0
M  V30 14 N 4.108980 5.349565 0.804758 0
M  V30 15 C 1.473069 -0.399201 0.185262 0
M  V30 16 C 0.977739 -1.662057 0.272860 0
M  V30 17 O 0.038105 -2.430424 -0.334447 0
M  V30 18 C -0.850775 -2.195831 -1.351579 0
M  V30 19 C -1.829127 -1.109930 -1.029092 0 CFG=2
M  V30 20 C -2.702357 -1.368084 0.172039 0
M  V30 21 C -3.572047 -2.552558 0.076318 0
M  V30 22 C -4.900593 -2.390333 -0.350187 0
M  V30 23 N -5.564405 -3.554503 -0.424627 0
M  V30 24 C -4.722277 -4.528083 -0.056322 0
M  V30 25 C -4.792517 -5.895546 0.084087 0
M  V30 26 C -3.686676 -6.601855 0.513952 0
M  V30 27 C -2.476566 -5.976183 0.818674 0
M  V30 28 C -2.428599 -4.619275 0.671998 0
M  V30 29 C -3.527838 -3.912546 0.242949 0
M  V30 30 N -2.728829 -0.886393 -2.192774 0 CHG=1 VAL=4
M  V30 31 H 1.371957 -3.513282 1.558498 0
M  V30 32 H 3.802508 -0.336999 2.565122 0
M  V30 33 H 2.462351 1.510848 -1.312463 0
M  V30 34 H 3.187812 3.916583 -1.488563 0
M  V30 35 H 3.372348 1.689784 2.878770 0
M  V30 36 H 3.935225 4.863454 4.837385 0
M  V30 37 H 5.510003 4.021201 4.390123 0
M  V30 38 H 3.983051 3.124959 4.507876 0
M  V30 39 H 4.170597 6.046692 0.022509 0
M  V30 40 H 0.989181 0.150550 -0.587935 0
M  V30 41 H -1.436779 -3.115929 -1.577336 0
M  V30 42 H -0.356915 -1.945955 -2.324099 0
M  V30 43 H -1.306307 -0.159274 -0.850813 0
M  V30 44 H -3.317577 -0.471199 0.429737 0
M  V30 45 H -2.034425 -1.495668 1.077681 0
M  V30 46 H -5.432090 -1.477363 -0.614823 0
M  V30 47 H -6.541282 -3.748551 -0.703887 0
M  V30 48 H -5.732775 -6.364728 -0.153888 0
M  V30 49 H -3.840640 -7.679109 0.592925 0
M  V30 50 H -1.639888 -6.585929 1.152932 0
M  V30 51 H -1.497703 -4.159327 0.922795 0
M  V30 52 H -3.511405 -1.568005 -2.191200 0
M  V30 53 H -3.141084 0.067367 -2.165848 0
M  V30 54 H -2.163234 -0.934797 -3.092287 0
M  V30 END ATOM
M  V30 BEGIN BOND
M  V30 1 2 1 2
M  V30 2 1 2 3
M  V30 3 2 3 4
M  V30 4 1 4 5
M  V30 5 2 5 6
M  V30 6 1 6 7
M  V30 7 2 7 8
M  V30 8 1 8 9
M  V30 9 2 9 10
M  V30 10 1 9 11
M  V30 11 1 11 12
M  V30 12 2 11 13
M  V30 13 1 13 14
M  V30 14 1 4 15
M  V30 15 2 15 16
M  V30 16 1 16 17
M  V30 17 1 17 18
M  V30 18 1 18 19
M  V30 19 1 19 20
M  V30 20 1 20 21
M  V30 21 2 21 22
M  V30 22 1 22 23
M  V30 23 1 23 24
M  V30 24 2 24 25
M  V30 25 1 25 26
M  V30 26 2 26 27
M  V30 27 1 27 28
M  V30 28 2 28 29
M  V30 29 1 19 30
M  V30 30 1 16 1
M  V30 31 1 29 21
M  V30 32 1 10 5
M  V30 33 1 29 24
M  V30 34 1 14 8
M  V30 35 1 1 31
M  V30 36 1 3 32
M  V30 37 1 6 33
M  V30 38 1 7 34
M  V30 39 1 10 35
M  V30 40 1 12 36
M  V30 41 1 12 37
M  V30 42 1 12 38
M  V30 43 1 14 39
M  V30 44 1 15 40
M  V30 45 1 18 41
M  V30 46 1 18 42
M  V30 47 1 19 43 CFG=1
M  V30 48 1 20 44
M  V30 49 1 20 45
M  V30 50 1 22 46
M  V30 51 1 23 47
M  V30 52 1 25 48
M  V30 53 1 26 49
M  V30 54 1 27 50
M  V30 55 1 28 51
M  V30 56 1 30 52
M  V30 57 1 30 53
M  V30 58 1 30 54
M  V30 END BOND
M  V30 END CTAB
M  END
>  <Dataset>  (191) 
PDB

>  <Ligand_Instance>  (191) 
2JDV_L20_A_1351

>  <PDB_ID>  (191) 
2JDV

>  <Standardized_SMILES>  (191) 
[H]C1=NC([H])=C(C2=C([H])C([H])=C3C(=C2[H])C(C([H])([H])[H])=NN3[H])C([H])=C1OC([H])([H])[C@]([H])(C([H])([H])C1=C([H])N([H])C2=C([H])C([H])=C([H])C([H])=C21)[N+]([H])([H])[H]

>  <Name>  (191) 
(2S)-1-(1H-INDOL-3-YL)-3-{[5-(3-METHYL-1H-INDAZOL-5-YL)PYRIDIN-3-YL]OXY}PROPAN-2-AMINE

>  <Pocket>  (191) 
A

>  <ATP_Site>  (191) 
1.0

>  <Peripheral>  (191) 
0.0

>  <Num_H_Atoms_ProtBoundConf>  (191) 
24.0

>  <Num_Resolved_Atoms>  (191) 
30.0

>  <Num_Not_Resolved_Atoms>  (191) 
0.0

$$$$
L20
     RDKit          3D

  0  0  0  0  0  0  0  0  0  0999 V3000
M  V30 BEGIN CTAB
M  V30 COUNTS 54 58 0 0 0
M  V30 BEGIN ATOM
M  V30 1 C 1.566964 -2.468779 1.264729 0
M  V30 2 N 2.567178 -2.023078 2.087406 0
M  V30 3 C 3.022542 -0.762678 1.960217 0
M  V30 4 C 2.478563 0.068293 1.003292 0
M  V30 5 C 2.863149 1.457262 0.740378 0
M  V30 6 C 2.818058 2.099758 -0.480320 0
M  V30 7 C 3.227897 3.424137 -0.526968 0
M  V30 8 C 3.665625 4.078123 0.606050 0
M  V30 9 C 3.711056 3.430909 1.835289 0
M  V30 10 C 3.305246 2.113638 1.891108 0
M  V30 11 C 4.187782 4.348070 2.748664 0
M  V30 12 C 4.406492 4.105234 4.199914 0
M  V30 13 N 4.422189 5.503570 2.101862 0
M  V30 14 N 4.108980 5.349565 0.804758 0
M  V30 15 C 1.473069 -0.399201 0.185262 0
M  V30 16 C 0.977739 -1.662057 0.272860 0
M  V30 17 O 0.038105 -2.430424 -0.334447 0
M  V30 18 C -0.850775 -2.195831 -1.351579 0
M  V30 19 C -1.829127 -1.109930 -1.029092 0 CFG=2
M  V30 20 C -2.702357 -1.368084 0.172039 0
M  V30 21 C -3.572047 -2.552558 0.076318 0
M  V30 22 C -4.900593 -2.390333 -0.350187 0
M  V30 23 N -5.564405 -3.554503 -0.424627 0
M  V30 24 C -4.722277 -4.528083 -0.056322 0
M  V30 25 C -4.792517 -5.895546 0.084087 0
M  V30 26 C -3.686676 -6.601855 0.513952 0
M  V30 27 C -2.476566 -5.976183 0.818674 0
M  V30 28 C -2.428599 -4.619275 0.671998 0
M  V30 29 C -3.527838 -3.912546 0.242949 0
M  V30 30 N -2.728829 -0.886393 -2.192774 0 CHG=1 VAL=4
M  V30 31 H 1.371957 -3.513282 1.558498 0
M  V30 32 H 3.802508 -0.336999 2.565122 0
M  V30 33 H 2.462351 1.510848 -1.312463 0
M  V30 34 H 3.187812 3.916583 -1.488563 0
M  V30 35 H 3.372348 1.689784 2.878770 0
M  V30 36 H 3.935225 4.863454 4.837385 0
M  V30 37 H 5.510003 4.021201 4.390123 0
M  V30 38 H 3.983051 3.124959 4.507876 0
M  V30 39 H 4.170597 6.046692 0.022509 0
M  V30 40 H 0.989181 0.150550 -0.587935 0
M  V30 41 H -1.436779 -3.115929 -1.577336 0
M  V30 42 H -0.356915 -1.945955 -2.324099 0
M  V30 43 H -1.306307 -0.159274 -0.850813 0
M  V30 44 H -3.317577 -0.471199 0.429737 0
M  V30 45 H -2.034425 -1.495668 1.077681 0
M  V30 46 H -5.432090 -1.477363 -0.614823 0
M  V30 47 H -6.541282 -3.748551 -0.703887 0
M  V30 48 H -5.732775 -6.364728 -0.153888 0
M  V30 49 H -3.840640 -7.679109 0.592925 0
M  V30 50 H -1.639888 -6.585929 1.152932 0
M  V30 51 H -1.497703 -4.159327 0.922795 0
M  V30 52 H -3.511405 -1.568005 -2.191200 0
M  V30 53 H -3.141084 0.067367 -2.165848 0
M  V30 54 H -2.163234 -0.934797 -3.092287 0
M  V30 END ATOM
M  V30 BEGIN BOND
M  V30 1 2 1 2
M  V30 2 1 2 3
M  V30 3 2 3 4
M  V30 4 1 4 5
M  V30 5 2 5 6
M  V30 6 1 6 7
M  V30 7 2 7 8
M  V30 8 1 8 9
M  V30 9 2 9 10
M  V30 10 1 9 11
M  V30 11 1 11 12
M  V30 12 2 11 13
M  V30 13 1 13 14
M  V30 14 1 4 15
M  V30 15 2 15 16
M  V30 16 1 16 17
M  V30 17 1 17 18
M  V30 18 1 18 19
M  V30 19 1 19 20
M  V30 20 1 20 21
M  V30 21 2 21 22
M  V30 22 1 22 23
M  V30 23 1 23 24
M  V30 24 2 24 25
M  V30 25 1 25 26
M  V30 26 2 26 27
M  V30 27 1 27 28
M  V30 28 2 28 29
M  V30 29 1 19 30
M  V30 30 1 16 1
M  V30 31 1 29 21
M  V30 32 1 10 5
M  V30 33 1 29 24
M  V30 34 1 14 8
M  V30 35 1 1 31
M  V30 36 1 3 32
M  V30 37 1 6 33
M  V30 38 1 7 34
M  V30 39 1 10 35
M  V30 40 1 12 36
M  V30 41 1 12 37
M  V30 42 1 12 38
M  V30 43 1 14 39
M  V30 44 1 15 40
M  V30 45 1 18 41
M  V30 46 1 18 42
M  V30 47 1 19 43 CFG=1
M  V30 48 1 20 44
M  V30 49 1 20 45
M  V30 50 1 22 46
M  V30 51 1 23 47
M  V30 52 1 25 48
M  V30 53 1 26 49
M  V30 54 1 27 50
M  V30 55 1 28 51
M  V30 56 1 30 52
M  V30 57 1 30 53
M  V30 58 1 30 54
M  V30 END BOND
M  V30 END CTAB
M  END
>  <Dataset>  (192) 
PDB

>  <Ligand_Instance>  (192) 
2UZU_L20_E_1351

>  <PDB_ID>  (192) 
2UZU

>  <Standardized_SMILES>  (192) 
[H]C1=NC([H])=C(C2=C([H])C([H])=C3C(=C2[H])C(C([H])([H])[H])=NN3[H])C([H])=C1OC([H])([H])[C@]([H])(C([H])([H])C1=C([H])N([H])C2=C([H])C([H])=C([H])C([H])=C21)[N+]([H])([H])[H]

>  <Name>  (192) 
(2S)-1-(1H-INDOL-3-YL)-3-{[5-(3-METHYL-1H-INDAZOL-5-YL)PYRIDIN-3-YL]OXY}PROPAN-2-AMINE

>  <Pocket>  (192) 
A

>  <ATP_Site>  (192) 
1.0

>  <Peripheral>  (192) 
0.0

>  <Num_H_Atoms_ProtBoundConf>  (192) 
24.0

>  <Num_Resolved_Atoms>  (192) 
30.0

>  <Num_Not_Resolved_Atoms>  (192) 
0.0

$$$$
L9L
     RDKit          3D

  0  0  0  0  0  0  0  0  0  0999 V3000
M  V30 BEGIN CTAB
M  V30 COUNTS 50 53 0 0 0
M  V30 BEGIN ATOM
M  V30 1 C 1.264628 2.540280 0.693460 0
M  V30 2 C 2.116900 1.566770 0.392422 0
M  V30 3 C 3.458239 1.630075 -0.349119 0
M  V30 4 C 3.854545 2.857013 -0.832004 0
M  V30 5 C 5.077382 2.848309 -1.469587 0
M  V30 6 C 5.814052 1.691937 -1.594440 0
M  V30 7 C 5.330733 0.510369 -1.076348 0
M  V30 8 C 4.103742 0.419565 -0.415027 0
M  V30 9 C 6.339401 -0.576991 -1.347572 0
M  V30 10 C 7.431316 0.077186 -2.075242 0
M  V30 11 O 8.493312 -0.414856 -2.526409 0
M  V30 12 N 7.078537 1.449214 -2.199623 0
M  V30 13 S 1.345187 0.128486 1.080395 0
M  V30 14 C -0.136545 1.164784 1.721967 0
M  V30 15 N -1.229099 0.453877 2.452134 0
M  V30 16 C -2.527319 0.405462 1.870090 0
M  V30 17 C -2.633853 -0.178194 0.505382 0 CFG=2
M  V30 18 C -2.165450 -1.613423 0.443891 0
M  V30 19 C -2.933006 -2.522598 1.315835 0
M  V30 20 C -4.057230 -3.094385 0.710718 0
M  V30 21 C -4.866057 -3.970193 1.424071 0
M  V30 22 C -4.617915 -4.316356 2.725563 0
M  V30 23 C -5.517671 -5.255776 3.430460 0
M  V30 24 F -4.848752 -6.412305 3.803090 0
M  V30 25 F -6.106085 -4.727296 4.554987 0
M  V30 26 F -6.547008 -5.634790 2.567004 0
M  V30 27 C -3.520576 -3.755195 3.310318 0
M  V30 28 C -2.701764 -2.893119 2.649338 0
M  V30 29 N -1.946253 0.549813 -0.534478 0 CHG=1 VAL=4
M  V30 30 N 0.193480 2.168950 1.357848 0
M  V30 31 H 1.467079 3.582511 0.391680 0
M  V30 32 H 3.223179 3.724354 -0.696902 0
M  V30 33 H 5.449093 3.791592 -1.876956 0
M  V30 34 H 3.684570 -0.480921 0.005971 0
M  V30 35 H 6.711481 -0.967761 -0.376081 0
M  V30 36 H 5.903233 -1.420650 -1.918469 0
M  V30 37 H 7.648259 2.203033 -2.665653 0
M  V30 38 H -0.914155 0.052901 3.344382 0
M  V30 39 H -3.135239 -0.272720 2.542436 0
M  V30 40 H -3.019539 1.384870 1.967043 0
M  V30 41 H -3.735394 -0.111532 0.242769 0
M  V30 42 H -2.145545 -2.040474 -0.574060 0
M  V30 43 H -1.089491 -1.616341 0.782664 0
M  V30 44 H -4.371839 -2.904169 -0.323587 0
M  V30 45 H -5.740266 -4.412870 0.946374 0
M  V30 46 H -3.272293 -3.991362 4.339081 0
M  V30 47 H -1.809611 -2.402319 3.040686 0
M  V30 48 H -2.500087 0.392010 -1.428553 0
M  V30 49 H -1.007606 0.170981 -0.762155 0
M  V30 50 H -1.991183 1.580814 -0.400526 0
M  V30 END ATOM
M  V30 BEGIN BOND
M  V30 1 2 1 2
M  V30 2 1 2 3
M  V30 3 2 3 4
M  V30 4 1 4 5
M  V30 5 2 5 6
M  V30 6 1 6 7
M  V30 7 2 7 8
M  V30 8 1 7 9
M  V30 9 1 9 10
M  V30 10 2 10 11
M  V30 11 1 10 12
M  V30 12 1 2 13
M  V30 13 1 13 14
M  V30 14 1 14 15
M  V30 15 1 15 16
M  V30 16 1 16 17
M  V30 17 1 17 18
M  V30 18 1 18 19
M  V30 19 2 19 20
M  V30 20 1 20 21
M  V30 21 2 21 22
M  V30 22 1 22 23
M  V30 23 1 23 24
M  V30 24 1 23 25
M  V30 25 1 23 26
M  V30 26 1 22 27
M  V30 27 2 27 28
M  V30 28 1 17 29
M  V30 29 2 14 30
M  V30 30 1 30 1
M  V30 31 1 8 3
M  V30 32 1 28 19
M  V30 33 1 12 6
M  V30 34 1 1 31
M  V30 35 1 4 32
M  V30 36 1 5 33
M  V30 37 1 8 34
M  V30 38 1 9 35
M  V30 39 1 9 36
M  V30 40 1 12 37
M  V30 41 1 15 38
M  V30 42 1 16 39
M  V30 43 1 16 40
M  V30 44 1 17 41 CFG=3
M  V30 45 1 18 42
M  V30 46 1 18 43
M  V30 47 1 20 44
M  V30 48 1 21 45
M  V30 49 1 27 46
M  V30 50 1 28 47
M  V30 51 1 29 48
M  V30 52 1 29 49
M  V30 53 1 29 50
M  V30 END BOND
M  V30 END CTAB
M  END
>  <Dataset>  (193) 
PDB

>  <Ligand_Instance>  (193) 
3L9L_L9L_A_351

>  <PDB_ID>  (193) 
3L9L

>  <Standardized_SMILES>  (193) 
[H]C1=C(C2=C([H])C([H])=C3C(=C2[H])C([H])([H])C(=O)N3[H])SC(N([H])C([H])([H])[C@]([H])(C([H])([H])C2=C([H])C([H])=C(C(F)(F)F)C([H])=C2[H])[N+]([H])([H])[H])=N1

>  <Name>  (193) 
5-[2-({(2S)-2-amino-3-[4-(trifluoromethyl)phenyl]propyl}amino)-1,3-thiazol-5-yl]-1,3-dihydro-2H-indol-2-one

>  <Pocket>  (193) 
A

>  <ATP_Site>  (193) 
1.0

>  <Peripheral>  (193) 
0.0

>  <Num_H_Atoms_ProtBoundConf>  (193) 
20.0

>  <Num_Resolved_Atoms>  (193) 
30.0

>  <Num_Not_Resolved_Atoms>  (193) 
0.0

$$$$
L9L
     RDKit          3D

  0  0  0  0  0  0  0  0  0  0999 V3000
M  V30 BEGIN CTAB
M  V30 COUNTS 50 53 0 0 0
M  V30 BEGIN ATOM
M  V30 1 C 1.264628 2.540280 0.693460 0
M  V30 2 C 2.116900 1.566770 0.392422 0
M  V30 3 C 3.458239 1.630075 -0.349119 0
M  V30 4 C 3.854545 2.857013 -0.832004 0
M  V30 5 C 5.077382 2.848309 -1.469587 0
M  V30 6 C 5.814052 1.691937 -1.594440 0
M  V30 7 C 5.330733 0.510369 -1.076348 0
M  V30 8 C 4.103742 0.419565 -0.415027 0
M  V30 9 C 6.339401 -0.576991 -1.347572 0
M  V30 10 C 7.431316 0.077186 -2.075242 0
M  V30 11 O 8.493312 -0.414856 -2.526409 0
M  V30 12 N 7.078537 1.449214 -2.199623 0
M  V30 13 S 1.345187 0.128486 1.080395 0
M  V30 14 C -0.136545 1.164784 1.721967 0
M  V30 15 N -1.229099 0.453877 2.452134 0
M  V30 16 C -2.527319 0.405462 1.870090 0
M  V30 17 C -2.633853 -0.178194 0.505382 0 CFG=2
M  V30 18 C -2.165450 -1.613423 0.443891 0
M  V30 19 C -2.933006 -2.522598 1.315835 0
M  V30 20 C -4.057230 -3.094385 0.710718 0
M  V30 21 C -4.866057 -3.970193 1.424071 0
M  V30 22 C -4.617915 -4.316356 2.725563 0
M  V30 23 C -5.517671 -5.255776 3.430460 0
M  V30 24 F -4.848752 -6.412305 3.803090 0
M  V30 25 F -6.106085 -4.727296 4.554987 0
M  V30 26 F -6.547008 -5.634790 2.567004 0
M  V30 27 C -3.520576 -3.755195 3.310318 0
M  V30 28 C -2.701764 -2.893119 2.649338 0
M  V30 29 N -1.946253 0.549813 -0.534478 0 CHG=1 VAL=4
M  V30 30 N 0.193480 2.168950 1.357848 0
M  V30 31 H 1.467079 3.582511 0.391680 0
M  V30 32 H 3.223179 3.724354 -0.696902 0
M  V30 33 H 5.449093 3.791592 -1.876956 0
M  V30 34 H 3.684570 -0.480921 0.005971 0
M  V30 35 H 6.711481 -0.967761 -0.376081 0
M  V30 36 H 5.903233 -1.420650 -1.918469 0
M  V30 37 H 7.648259 2.203033 -2.665653 0
M  V30 38 H -0.914155 0.052901 3.344382 0
M  V30 39 H -3.135239 -0.272720 2.542436 0
M  V30 40 H -3.019539 1.384870 1.967043 0
M  V30 41 H -3.735394 -0.111532 0.242769 0
M  V30 42 H -2.145545 -2.040474 -0.574060 0
M  V30 43 H -1.089491 -1.616341 0.782664 0
M  V30 44 H -4.371839 -2.904169 -0.323587 0
M  V30 45 H -5.740266 -4.412870 0.946374 0
M  V30 46 H -3.272293 -3.991362 4.339081 0
M  V30 47 H -1.809611 -2.402319 3.040686 0
M  V30 48 H -2.500087 0.392010 -1.428553 0
M  V30 49 H -1.007606 0.170981 -0.762155 0
M  V30 50 H -1.991183 1.580814 -0.400526 0
M  V30 END ATOM
M  V30 BEGIN BOND
M  V30 1 2 1 2
M  V30 2 1 2 3
M  V30 3 2 3 4
M  V30 4 1 4 5
M  V30 5 2 5 6
M  V30 6 1 6 7
M  V30 7 2 7 8
M  V30 8 1 7 9
M  V30 9 1 9 10
M  V30 10 2 10 11
M  V30 11 1 10 12
M  V30 12 1 2 13
M  V30 13 1 13 14
M  V30 14 1 14 15
M  V30 15 1 15 16
M  V30 16 1 16 17
M  V30 17 1 17 18
M  V30 18 1 18 19
M  V30 19 2 19 20
M  V30 20 1 20 21
M  V30 21 2 21 22
M  V30 22 1 22 23
M  V30 23 1 23 24
M  V30 24 1 23 25
M  V30 25 1 23 26
M  V30 26 1 22 27
M  V30 27 2 27 28
M  V30 28 1 17 29
M  V30 29 2 14 30
M  V30 30 1 30 1
M  V30 31 1 8 3
M  V30 32 1 28 19
M  V30 33 1 12 6
M  V30 34 1 1 31
M  V30 35 1 4 32
M  V30 36 1 5 33
M  V30 37 1 8 34
M  V30 38 1 9 35
M  V30 39 1 9 36
M  V30 40 1 12 37
M  V30 41 1 15 38
M  V30 42 1 16 39
M  V30 43 1 16 40
M  V30 44 1 17 41 CFG=3
M  V30 45 1 18 42
M  V30 46 1 18 43
M  V30 47 1 20 44
M  V30 48 1 21 45
M  V30 49 1 27 46
M  V30 50 1 28 47
M  V30 51 1 29 48
M  V30 52 1 29 49
M  V30 53 1 29 50
M  V30 END BOND
M  V30 END CTAB
M  END
>  <Dataset>  (194) 
PDB

>  <Ligand_Instance>  (194) 
3L9L_L9L_B_351

>  <PDB_ID>  (194) 
3L9L

>  <Standardized_SMILES>  (194) 
[H]C1=C(C2=C([H])C([H])=C3C(=C2[H])C([H])([H])C(=O)N3[H])SC(N([H])C([H])([H])[C@]([H])(C([H])([H])C2=C([H])C([H])=C(C(F)(F)F)C([H])=C2[H])[N+]([H])([H])[H])=N1

>  <Name>  (194) 
5-[2-({(2S)-2-amino-3-[4-(trifluoromethyl)phenyl]propyl}amino)-1,3-thiazol-5-yl]-1,3-dihydro-2H-indol-2-one

>  <Pocket>  (194) 
A

>  <ATP_Site>  (194) 
1.0

>  <Peripheral>  (194) 
0.0

>  <Num_H_Atoms_ProtBoundConf>  (194) 
20.0

>  <Num_Resolved_Atoms>  (194) 
30.0

>  <Num_Not_Resolved_Atoms>  (194) 
0.0

$$$$
L9M
     RDKit          3D

  0  0  0  0  0  0  0  0  0  0999 V3000
M  V30 BEGIN CTAB
M  V30 COUNTS 50 53 0 0 0
M  V30 BEGIN ATOM
M  V30 1 C -0.532756 -3.778378 -0.863265 0
M  V30 2 C -1.562140 -2.959925 -0.456137 0
M  V30 3 C -2.256743 -2.152020 -1.330839 0
M  V30 4 C -3.364296 -1.243981 -1.010929 0
M  V30 5 C -2.850788 0.159205 -0.656613 0 CFG=1
M  V30 6 C -2.087638 0.756866 -1.794773 0
M  V30 7 N -1.593306 2.083211 -1.484516 0
M  V30 8 C -0.617991 2.397224 -0.429388 0
M  V30 9 N -0.031947 3.266889 0.092405 0
M  V30 10 N 0.812191 3.133850 1.054171 0
M  V30 11 C 1.146620 2.161349 1.574814 0
M  V30 12 C 2.071665 1.635450 2.685099 0
M  V30 13 C 2.755981 2.632933 3.298572 0
M  V30 14 C 3.608034 2.232797 4.307980 0
M  V30 15 C 3.740759 0.887186 4.657062 0
M  V30 16 C 2.995630 -0.073939 3.970280 0
M  V30 17 C 2.141409 0.300384 2.962413 0
M  V30 18 C 3.327807 -1.294707 4.522846 0
M  V30 19 C 2.717757 -2.576806 4.034587 0
M  V30 20 N 4.234529 -1.065225 5.499012 0
M  V30 21 N 4.479135 0.236733 5.577090 0
M  V30 22 S 0.085998 0.944597 0.576491 0
M  V30 23 N -4.001631 0.995207 -0.360210 0 CHG=1 VAL=4
M  V30 24 C -1.869945 -2.196183 -2.668042 0
M  V30 25 C -0.835340 -3.025800 -3.045626 0
M  V30 26 C -0.131623 -3.838825 -2.184044 0
M  V30 27 C 0.956747 -4.684781 -2.699606 0
M  V30 28 H -0.001138 -4.408629 -0.140566 0
M  V30 29 H -1.883024 -2.908838 0.588955 0
M  V30 30 H -4.052086 -1.162885 -1.854915 0
M  V30 31 H -3.943115 -1.588775 -0.118987 0
M  V30 32 H -2.237111 0.021897 0.251896 0
M  V30 33 H -1.158049 0.114492 -1.894882 0
M  V30 34 H -2.604229 0.732994 -2.747488 0
M  V30 35 H -1.830891 2.992841 -1.931036 0
M  V30 36 H 2.652704 3.673924 3.027767 0
M  V30 37 H 4.177357 3.002026 4.827566 0
M  V30 38 H 1.545943 -0.409410 2.404931 0
M  V30 39 H 1.611677 -2.496616 3.991880 0
M  V30 40 H 3.046215 -2.794668 2.985663 0
M  V30 41 H 3.053716 -3.434996 4.641360 0
M  V30 42 H 5.140069 0.699813 6.244375 0
M  V30 43 H -3.663887 1.987793 -0.275809 0
M  V30 44 H -4.658557 0.977308 -1.165214 0
M  V30 45 H -4.498697 0.680819 0.506763 0
M  V30 46 H -2.373962 -1.584127 -3.418576 0
M  V30 47 H -0.558781 -3.036908 -4.094295 0
M  V30 48 H 1.315484 -4.248385 -3.660675 0
M  V30 49 H 0.683726 -5.742901 -2.861364 0
M  V30 50 H 1.800038 -4.641519 -1.966917 0
M  V30 END ATOM
M  V30 BEGIN BOND
M  V30 1 2 1 2
M  V30 2 1 2 3
M  V30 3 1 3 4
M  V30 4 1 4 5
M  V30 5 1 5 6
M  V30 6 1 6 7
M  V30 7 1 7 8
M  V30 8 2 8 9
M  V30 9 1 9 10
M  V30 10 2 10 11
M  V30 11 1 11 12
M  V30 12 2 12 13
M  V30 13 1 13 14
M  V30 14 2 14 15
M  V30 15 1 15 16
M  V30 16 2 16 17
M  V30 17 1 16 18
M  V30 18 1 18 19
M  V30 19 2 18 20
M  V30 20 1 20 21
M  V30 21 1 11 22
M  V30 22 1 5 23
M  V30 23 2 3 24
M  V30 24 1 24 25
M  V30 25 2 25 26
M  V30 26 1 26 27
M  V30 27 1 26 1
M  V30 28 1 22 8
M  V30 29 1 17 12
M  V30 30 1 21 15
M  V30 31 1 1 28
M  V30 32 1 2 29
M  V30 33 1 4 30
M  V30 34 1 4 31
M  V30 35 1 5 32 CFG=1
M  V30 36 1 6 33
M  V30 37 1 6 34
M  V30 38 1 7 35
M  V30 39 1 13 36
M  V30 40 1 14 37
M  V30 41 1 17 38
M  V30 42 1 19 39
M  V30 43 1 19 40
M  V30 44 1 19 41
M  V30 45 1 21 42
M  V30 46 1 23 43
M  V30 47 1 23 44
M  V30 48 1 23 45
M  V30 49 1 24 46
M  V30 50 1 25 47
M  V30 51 1 27 48
M  V30 52 1 27 49
M  V30 53 1 27 50
M  V30 END BOND
M  V30 END CTAB
M  END
>  <Dataset>  (195) 
PDB

>  <Ligand_Instance>  (195) 
3L9M_L9M_A_351

>  <PDB_ID>  (195) 
3L9M

>  <Standardized_SMILES>  (195) 
[H]C1=C([H])C(C([H])([H])[C@@]([H])(C([H])([H])N([H])C2=NN=C(C3=C([H])C([H])=C4C(=C3[H])C(C([H])([H])[H])=NN4[H])S2)[N+]([H])([H])[H])=C([H])C([H])=C1C([H])([H])[H]

>  <Name>  (195) 
(2S)-N~1~-[5-(3-methyl-1H-indazol-5-yl)-1,3,4-thiadiazol-2-yl]-3-(4-methylphenyl)propane-1,2-diamine

>  <Pocket>  (195) 
A

>  <ATP_Site>  (195) 
1.0

>  <Peripheral>  (195) 
0.0

>  <Num_H_Atoms_ProtBoundConf>  (195) 
23.0

>  <Num_Resolved_Atoms>  (195) 
27.0

>  <Num_Not_Resolved_Atoms>  (195) 
0.0

$$$$
L9M
     RDKit          3D

  0  0  0  0  0  0  0  0  0  0999 V3000
M  V30 BEGIN CTAB
M  V30 COUNTS 50 53 0 0 0
M  V30 BEGIN ATOM
M  V30 1 C -0.532756 -3.778378 -0.863265 0
M  V30 2 C -1.562140 -2.959925 -0.456137 0
M  V30 3 C -2.256743 -2.152020 -1.330839 0
M  V30 4 C -3.364296 -1.243981 -1.010929 0
M  V30 5 C -2.850788 0.159205 -0.656613 0 CFG=1
M  V30 6 C -2.087638 0.756866 -1.794773 0
M  V30 7 N -1.593306 2.083211 -1.484516 0
M  V30 8 C -0.617991 2.397224 -0.429388 0
M  V30 9 N -0.031947 3.266889 0.092405 0
M  V30 10 N 0.812191 3.133850 1.054171 0
M  V30 11 C 1.146620 2.161349 1.574814 0
M  V30 12 C 2.071665 1.635450 2.685099 0
M  V30 13 C 2.755981 2.632933 3.298572 0
M  V30 14 C 3.608034 2.232797 4.307980 0
M  V30 15 C 3.740759 0.887186 4.657062 0
M  V30 16 C 2.995630 -0.073939 3.970280 0
M  V30 17 C 2.141409 0.300384 2.962413 0
M  V30 18 C 3.327807 -1.294707 4.522846 0
M  V30 19 C 2.717757 -2.576806 4.034587 0
M  V30 20 N 4.234529 -1.065225 5.499012 0
M  V30 21 N 4.479135 0.236733 5.577090 0
M  V30 22 S 0.085998 0.944597 0.576491 0
M  V30 23 N -4.001631 0.995207 -0.360210 0 CHG=1 VAL=4
M  V30 24 C -1.869945 -2.196183 -2.668042 0
M  V30 25 C -0.835340 -3.025800 -3.045626 0
M  V30 26 C -0.131623 -3.838825 -2.184044 0
M  V30 27 C 0.956747 -4.684781 -2.699606 0
M  V30 28 H -0.001138 -4.408629 -0.140566 0
M  V30 29 H -1.883024 -2.908838 0.588955 0
M  V30 30 H -4.052086 -1.162885 -1.854915 0
M  V30 31 H -3.943115 -1.588775 -0.118987 0
M  V30 32 H -2.237111 0.021897 0.251896 0
M  V30 33 H -1.158049 0.114492 -1.894882 0
M  V30 34 H -2.604229 0.732994 -2.747488 0
M  V30 35 H -1.830891 2.992841 -1.931036 0
M  V30 36 H 2.652704 3.673924 3.027767 0
M  V30 37 H 4.177357 3.002026 4.827566 0
M  V30 38 H 1.545943 -0.409410 2.404931 0
M  V30 39 H 1.611677 -2.496616 3.991880 0
M  V30 40 H 3.046215 -2.794668 2.985663 0
M  V30 41 H 3.053716 -3.434996 4.641360 0
M  V30 42 H 5.140069 0.699813 6.244375 0
M  V30 43 H -3.663887 1.987793 -0.275809 0
M  V30 44 H -4.658557 0.977308 -1.165214 0
M  V30 45 H -4.498697 0.680819 0.506763 0
M  V30 46 H -2.373962 -1.584127 -3.418576 0
M  V30 47 H -0.558781 -3.036908 -4.094295 0
M  V30 48 H 1.315484 -4.248385 -3.660675 0
M  V30 49 H 0.683726 -5.742901 -2.861364 0
M  V30 50 H 1.800038 -4.641519 -1.966917 0
M  V30 END ATOM
M  V30 BEGIN BOND
M  V30 1 2 1 2
M  V30 2 1 2 3
M  V30 3 1 3 4
M  V30 4 1 4 5
M  V30 5 1 5 6
M  V30 6 1 6 7
M  V30 7 1 7 8
M  V30 8 2 8 9
M  V30 9 1 9 10
M  V30 10 2 10 11
M  V30 11 1 11 12
M  V30 12 2 12 13
M  V30 13 1 13 14
M  V30 14 2 14 15
M  V30 15 1 15 16
M  V30 16 2 16 17
M  V30 17 1 16 18
M  V30 18 1 18 19
M  V30 19 2 18 20
M  V30 20 1 20 21
M  V30 21 1 11 22
M  V30 22 1 5 23
M  V30 23 2 3 24
M  V30 24 1 24 25
M  V30 25 2 25 26
M  V30 26 1 26 27
M  V30 27 1 26 1
M  V30 28 1 22 8
M  V30 29 1 17 12
M  V30 30 1 21 15
M  V30 31 1 1 28
M  V30 32 1 2 29
M  V30 33 1 4 30
M  V30 34 1 4 31
M  V30 35 1 5 32 CFG=1
M  V30 36 1 6 33
M  V30 37 1 6 34
M  V30 38 1 7 35
M  V30 39 1 13 36
M  V30 40 1 14 37
M  V30 41 1 17 38
M  V30 42 1 19 39
M  V30 43 1 19 40
M  V30 44 1 19 41
M  V30 45 1 21 42
M  V30 46 1 23 43
M  V30 47 1 23 44
M  V30 48 1 23 45
M  V30 49 1 24 46
M  V30 50 1 25 47
M  V30 51 1 27 48
M  V30 52 1 27 49
M  V30 53 1 27 50
M  V30 END BOND
M  V30 END CTAB
M  END
>  <Dataset>  (196) 
PDB

>  <Ligand_Instance>  (196) 
3L9M_L9M_B_351

>  <PDB_ID>  (196) 
3L9M

>  <Standardized_SMILES>  (196) 
[H]C1=C([H])C(C([H])([H])[C@@]([H])(C([H])([H])N([H])C2=NN=C(C3=C([H])C([H])=C4C(=C3[H])C(C([H])([H])[H])=NN4[H])S2)[N+]([H])([H])[H])=C([H])C([H])=C1C([H])([H])[H]

>  <Name>  (196) 
(2S)-N~1~-[5-(3-methyl-1H-indazol-5-yl)-1,3,4-thiadiazol-2-yl]-3-(4-methylphenyl)propane-1,2-diamine

>  <Pocket>  (196) 
A

>  <ATP_Site>  (196) 
1.0

>  <Peripheral>  (196) 
0.0

>  <Num_H_Atoms_ProtBoundConf>  (196) 
23.0

>  <Num_Resolved_Atoms>  (196) 
27.0

>  <Num_Not_Resolved_Atoms>  (196) 
0.0

$$$$
L9N
     RDKit          3D

  0  0  0  0  0  0  0  0  0  0999 V3000
M  V30 BEGIN CTAB
M  V30 COUNTS 47 50 0 0 0
M  V30 BEGIN ATOM
M  V30 1 C 0.773587 -6.637424 2.961566 0
M  V30 2 N 1.685926 -7.443226 3.540001 0
M  V30 3 N 2.876773 -7.038944 3.127835 0
M  V30 4 C 2.749545 -5.990142 2.296535 0
M  V30 5 C 3.658287 -5.216820 1.609423 0
M  V30 6 C 3.302686 -4.164501 0.792198 0
M  V30 7 C 1.953358 -3.900190 0.680147 0
M  V30 8 C 1.500325 -2.762064 -0.198546 0
M  V30 9 N 1.919358 -1.912000 -0.910699 0
M  V30 10 N 1.197168 -1.052062 -1.546382 0
M  V30 11 C 0.047340 -0.956740 -1.537571 0
M  V30 12 N -0.838046 -0.042319 -2.198481 0
M  V30 13 C -1.469397 1.236339 -1.994516 0
M  V30 14 C -0.566958 2.392769 -1.794815 0 CFG=2
M  V30 15 C 0.347366 2.371209 -0.626874 0
M  V30 16 C -0.308346 2.305501 0.690117 0
M  V30 17 C -0.660409 1.214255 1.452549 0
M  V30 18 C -1.279813 1.309359 2.678235 0
M  V30 19 C -1.587518 2.536152 3.219692 0
M  V30 20 C -2.253835 2.590007 4.541002 0
M  V30 21 C -1.271633 3.684805 2.526196 0
M  V30 22 C -0.652693 3.519344 1.305333 0
M  V30 23 N -1.408441 3.575857 -1.670173 0 CHG=1 VAL=4
M  V30 24 S -0.357075 -2.392531 -0.357496 0
M  V30 25 C 1.021802 -4.652994 1.352504 0
M  V30 26 C 1.401962 -5.701728 2.165039 0
M  V30 27 H -0.289498 -6.697588 3.088420 0
M  V30 28 H 3.786260 -7.466772 3.403481 0
M  V30 29 H 4.733378 -5.389175 1.668036 0
M  V30 30 H 3.933832 -3.520813 0.229540 0
M  V30 31 H -1.035542 -0.550654 -3.114749 0
M  V30 32 H -2.231158 1.150167 -1.159940 0
M  V30 33 H -2.112032 1.487744 -2.882533 0
M  V30 34 H 0.017748 2.531547 -2.732881 0
M  V30 35 H 0.920253 3.345352 -0.659538 0
M  V30 36 H 1.163583 1.605113 -0.717725 0
M  V30 37 H -0.409721 0.261069 1.014549 0
M  V30 38 H -1.509158 0.379139 3.187253 0
M  V30 39 H -3.333521 2.324218 4.392987 0
M  V30 40 H -2.249890 3.627462 4.945696 0
M  V30 41 H -1.825861 1.905883 5.287815 0
M  V30 42 H -1.490421 4.660206 2.905412 0
M  V30 43 H -0.412666 4.452870 0.776189 0
M  V30 44 H -0.784091 4.396133 -1.592582 0
M  V30 45 H -2.054592 3.636048 -2.497381 0
M  V30 46 H -1.954220 3.494499 -0.791506 0
M  V30 47 H -0.053914 -4.448631 1.268236 0
M  V30 END ATOM
M  V30 BEGIN BOND
M  V30 1 2 1 2
M  V30 2 1 2 3
M  V30 3 1 3 4
M  V30 4 2 4 5
M  V30 5 1 5 6
M  V30 6 2 6 7
M  V30 7 1 7 8
M  V30 8 2 8 9
M  V30 9 1 9 10
M  V30 10 2 10 11
M  V30 11 1 11 12
M  V30 12 1 12 13
M  V30 13 1 13 14
M  V30 14 1 14 15
M  V30 15 1 15 16
M  V30 16 2 16 17
M  V30 17 1 17 18
M  V30 18 2 18 19
M  V30 19 1 19 20
M  V30 20 1 19 21
M  V30 21 2 21 22
M  V30 22 1 14 23
M  V30 23 1 11 24
M  V30 24 1 7 25
M  V30 25 2 25 26
M  V30 26 1 26 1
M  V30 27 1 26 4
M  V30 28 1 24 8
M  V30 29 1 22 16
M  V30 30 1 1 27
M  V30 31 1 3 28
M  V30 32 1 5 29
M  V30 33 1 6 30
M  V30 34 1 12 31
M  V30 35 1 13 32
M  V30 36 1 13 33
M  V30 37 1 14 34 CFG=3
M  V30 38 1 15 35
M  V30 39 1 15 36
M  V30 40 1 17 37
M  V30 41 1 18 38
M  V30 42 1 20 39
M  V30 43 1 20 40
M  V30 44 1 20 41
M  V30 45 1 21 42
M  V30 46 1 22 43
M  V30 47 1 23 44
M  V30 48 1 23 45
M  V30 49 1 23 46
M  V30 50 1 25 47
M  V30 END BOND
M  V30 END CTAB
M  END
>  <Dataset>  (197) 
PDB

>  <Ligand_Instance>  (197) 
3L9N_L9N_A_351

>  <PDB_ID>  (197) 
3L9N

>  <Standardized_SMILES>  (197) 
[H]C1=NN([H])C2=C([H])C([H])=C(C3=NN=C(N([H])C([H])([H])[C@]([H])(C([H])([H])C4=C([H])C([H])=C(C([H])([H])[H])C([H])=C4[H])[N+]([H])([H])[H])S3)C([H])=C12

>  <Name>  (197) 
(2S)-N~1~-[5-(1H-indazol-5-yl)-1,3,4-thiadiazol-2-yl]-3-(4-methylphenyl)propane-1,2-diamine

>  <Pocket>  (197) 
A

>  <ATP_Site>  (197) 
1.0

>  <Peripheral>  (197) 
0.0

>  <Num_H_Atoms_ProtBoundConf>  (197) 
21.0

>  <Num_Resolved_Atoms>  (197) 
26.0

>  <Num_Not_Resolved_Atoms>  (197) 
0.0

$$$$
LL1
     RDKit          3D

  0  0  0  0  0  0  0  0  0  0999 V3000
M  V30 BEGIN CTAB
M  V30 COUNTS 24 26 0 0 0
M  V30 BEGIN ATOM
M  V30 1 C 2.292995 -0.748191 3.840990 0
M  V30 2 N 1.827499 -1.849641 4.446055 0
M  V30 3 C 0.976201 -2.679762 3.840547 0
M  V30 4 C 0.573967 -2.381242 2.555813 0
M  V30 5 C 1.030484 -1.243230 1.878852 0
M  V30 6 C 0.619065 -0.905404 0.517811 0
M  V30 7 N 0.576092 -1.825405 -0.469557 0
M  V30 8 N 0.173865 -1.272177 -1.602866 0
M  V30 9 C -0.056033 0.035655 -1.373237 0
M  V30 10 C -0.482838 1.071218 -2.179021 0
M  V30 11 C -0.617626 2.332980 -1.606543 0
M  V30 12 C -0.338351 2.544877 -0.292340 0
M  V30 13 C 0.091536 1.537628 0.550930 0
M  V30 14 C 0.218646 0.294427 -0.036093 0
M  V30 15 C 1.910542 -0.420856 2.556556 0
M  V30 16 H 2.984278 -0.109540 4.383930 0
M  V30 17 H 0.582450 -3.583434 4.311842 0
M  V30 18 H -0.124648 -3.015469 1.990945 0
M  V30 19 H 0.067333 -1.798354 -2.498266 0
M  V30 20 H -0.682017 0.818105 -3.206567 0
M  V30 21 H -0.955480 3.085620 -2.303748 0
M  V30 22 H -0.455969 3.540972 0.114346 0
M  V30 23 H 0.317797 1.688845 1.597473 0
M  V30 24 H 2.322351 0.474125 2.136160 0
M  V30 END ATOM
M  V30 BEGIN BOND
M  V30 1 2 1 2
M  V30 2 1 2 3
M  V30 3 2 3 4
M  V30 4 1 4 5
M  V30 5 1 5 6
M  V30 6 2 6 7
M  V30 7 1 7 8
M  V30 8 1 8 9
M  V30 9 2 9 10
M  V30 10 1 10 11
M  V30 11 2 11 12
M  V30 12 1 12 13
M  V30 13 2 13 14
M  V30 14 2 5 15
M  V30 15 1 15 1
M  V30 16 1 14 6
M  V30 17 1 14 9
M  V30 18 1 1 16
M  V30 19 1 3 17
M  V30 20 1 4 18
M  V30 21 1 8 19
M  V30 22 1 10 20
M  V30 23 1 11 21
M  V30 24 1 12 22
M  V30 25 1 13 23
M  V30 26 1 15 24
M  V30 END BOND
M  V30 END CTAB
M  END
>  <Dataset>  (198) 
PDB

>  <Ligand_Instance>  (198) 
3DNE_LL1_A_351

>  <PDB_ID>  (198) 
3DNE

>  <Standardized_SMILES>  (198) 
[H]C1=NC([H])=C([H])C(C2=NN([H])C3=C([H])C([H])=C([H])C([H])=C23)=C1[H]

>  <Name>  (198) 
3-pyridin-4-yl-1H-indazole

>  <Pocket>  (198) 
A

>  <ATP_Site>  (198) 
1.0

>  <Peripheral>  (198) 
0.0

>  <Num_H_Atoms_ProtBoundConf>  (198) 
9.0

>  <Num_Resolved_Atoms>  (198) 
15.0

>  <Num_Not_Resolved_Atoms>  (198) 
0.0

$$$$
LL2
     RDKit          3D

  0  0  0  0  0  0  0  0  0  0999 V3000
M  V30 BEGIN CTAB
M  V30 COUNTS 23 24 0 0 0
M  V30 BEGIN ATOM
M  V30 1 C -0.058810 2.150927 1.444208 0
M  V30 2 C 0.949254 1.288963 1.217462 0
M  V30 3 C 1.397583 0.057314 2.006357 0
M  V30 4 C 0.702793 -1.157744 1.530300 0
M  V30 5 C 1.329906 -1.850683 0.509989 0
M  V30 6 C 0.695044 -2.997581 0.045249 0
M  V30 7 C -0.506455 -3.469360 0.542129 0
M  V30 8 C -1.117925 -2.754381 1.568856 0
M  V30 9 C -0.495476 -1.600610 2.048250 0
M  V30 10 S 1.712729 1.903393 -0.281662 0
M  V30 11 C 0.444227 3.347339 -0.372688 0
M  V30 12 N 0.366537 4.382408 -1.369836 0
M  V30 13 N -0.154364 3.109683 0.547020 0
M  V30 14 H -0.716200 2.022922 2.314946 0
M  V30 15 H 2.503230 -0.030365 1.856529 0
M  V30 16 H 1.262534 0.277103 3.072681 0
M  V30 17 H 2.273269 -1.537284 0.073660 0
M  V30 18 H 1.207677 -3.534568 -0.764936 0
M  V30 19 H -0.953033 -4.378982 0.131864 0
M  V30 20 H -2.059325 -3.102770 1.975391 0
M  V30 21 H -0.941219 -1.020404 2.844536 0
M  V30 22 H -0.568809 4.404014 -1.833097 0
M  V30 23 H 1.241479 4.967508 -1.498094 0
M  V30 END ATOM
M  V30 BEGIN BOND
M  V30 1 2 1 2
M  V30 2 1 2 3
M  V30 3 1 3 4
M  V30 4 2 4 5
M  V30 5 1 5 6
M  V30 6 2 6 7
M  V30 7 1 7 8
M  V30 8 2 8 9
M  V30 9 1 2 10
M  V30 10 1 10 11
M  V30 11 1 11 12
M  V30 12 2 11 13
M  V30 13 1 13 1
M  V30 14 1 9 4
M  V30 15 1 1 14
M  V30 16 1 3 15
M  V30 17 1 3 16
M  V30 18 1 5 17
M  V30 19 1 6 18
M  V30 20 1 7 19
M  V30 21 1 8 20
M  V30 22 1 9 21
M  V30 23 1 12 22
M  V30 24 1 12 23
M  V30 END BOND
M  V30 END CTAB
M  END
>  <Dataset>  (199) 
PDB

>  <Ligand_Instance>  (199) 
3DND_LL2_A_351

>  <PDB_ID>  (199) 
3DND

>  <Standardized_SMILES>  (199) 
[H]C1=C(C([H])([H])C2=C([H])C([H])=C([H])C([H])=C2[H])SC(N([H])[H])=N1

>  <Name>  (199) 
5-benzyl-1,3-thiazol-2-amine

>  <Pocket>  (199) 
A

>  <ATP_Site>  (199) 
1.0

>  <Peripheral>  (199) 
0.0

>  <Num_H_Atoms_ProtBoundConf>  (199) 
10.0

>  <Num_Resolved_Atoms>  (199) 
13.0

>  <Num_Not_Resolved_Atoms>  (199) 
0.0

$$$$
LQ2
     RDKit          3D

  0  0  0  0  0  0  0  0  0  0999 V3000
M  V30 BEGIN CTAB
M  V30 COUNTS 18 18 0 0 0
M  V30 BEGIN ATOM
M  V30 1 C 0.381157 1.607949 0.166503 0
M  V30 2 C 0.805065 1.422196 1.465053 0
M  V30 3 C 1.260104 0.208431 1.915760 0
M  V30 4 C 1.701446 0.034065 3.285552 0
M  V30 5 O 1.672249 1.002255 4.084534 0
M  V30 6 N 2.166677 -1.213114 3.740656 0
M  V30 7 C 1.279528 -0.829702 1.017876 0
M  V30 8 C 0.864817 -0.710424 -0.310578 0
M  V30 9 C 0.418191 0.526743 -0.710323 0
M  V30 10 C -0.000193 0.581684 -2.111445 0
M  V30 11 O 0.017616 -0.375501 -2.939577 0
M  V30 12 O -0.495738 1.586465 -2.897304 0 CHG=-1 VAL=1
M  V30 13 H 0.020416 2.530296 -0.227871 0
M  V30 14 H 0.781075 2.241757 2.143905 0
M  V30 15 H 2.795177 -1.267519 4.580409 0
M  V30 16 H 1.972684 -2.153379 3.349423 0
M  V30 17 H 1.637306 -1.791607 1.365239 0
M  V30 18 H 0.910401 -1.577202 -0.958355 0
M  V30 END ATOM
M  V30 BEGIN BOND
M  V30 1 2 1 2
M  V30 2 1 2 3
M  V30 3 1 3 4
M  V30 4 2 4 5
M  V30 5 1 4 6
M  V30 6 2 3 7
M  V30 7 1 7 8
M  V30 8 2 8 9
M  V30 9 1 9 10
M  V30 10 2 10 11
M  V30 11 1 10 12
M  V30 12 1 9 1
M  V30 13 1 1 13
M  V30 14 1 2 14
M  V30 15 1 6 15
M  V30 16 1 6 16
M  V30 17 1 7 17
M  V30 18 1 8 18
M  V30 END BOND
M  V30 END CTAB
M  END
>  <Dataset>  (200) 
PDB

>  <Ligand_Instance>  (200) 
6SOX_LQ2_A_401

>  <PDB_ID>  (200) 
6SOX

>  <Standardized_SMILES>  (200) 
[H]C1=C([H])C(C(=O)N([H])[H])=C([H])C([H])=C1C(=O)[O-]

>  <Name>  (200) 
4-aminocarbonylbenzoic acid

>  <Pocket>  (200) 
A

>  <ATP_Site>  (200) 
1.0

>  <Peripheral>  (200) 
0.0

>  <Num_H_Atoms_ProtBoundConf>  (200) 
6.0

>  <Num_Resolved_Atoms>  (200) 
12.0

>  <Num_Not_Resolved_Atoms>  (200) 
0.0

$$$$
LR5
     RDKit          3D

  0  0  0  0  0  0  0  0  0  0999 V3000
M  V30 BEGIN CTAB
M  V30 COUNTS 19 19 0 0 0
M  V30 BEGIN ATOM
M  V30 1 C 0.094186 -0.635271 0.264268 0
M  V30 2 C 1.046614 -1.373955 0.936947 0
M  V30 3 C 2.029507 -0.811475 1.723763 0
M  V30 4 C 3.003442 -1.716266 2.401195 0
M  V30 5 F 4.154261 -0.968773 2.577027 0
M  V30 6 F 2.467462 -2.105655 3.609197 0
M  V30 7 F 3.326218 -2.807818 1.613215 0
M  V30 8 C 2.045106 0.568687 1.832125 0
M  V30 9 C 1.099834 1.337051 1.166967 0
M  V30 10 C 0.110562 0.745988 0.373293 0
M  V30 11 C -0.801294 1.698106 -0.253673 0
M  V30 12 O -0.773769 2.950345 -0.144914 0
M  V30 13 N -1.792727 1.062615 -1.052524 0
M  V30 14 H -0.687924 -1.019946 -0.357414 0
M  V30 15 H 0.960610 -2.453855 0.796033 0
M  V30 16 H 2.812181 1.019967 2.447096 0
M  V30 17 H 1.176321 2.409420 1.300107 0
M  V30 18 H -1.682909 0.549500 -1.965636 0
M  V30 19 H -2.789183 0.842962 -1.136144 0
M  V30 END ATOM
M  V30 BEGIN BOND
M  V30 1 2 1 2
M  V30 2 1 2 3
M  V30 3 1 3 4
M  V30 4 1 4 5
M  V30 5 1 4 6
M  V30 6 1 4 7
M  V30 7 2 3 8
M  V30 8 1 8 9
M  V30 9 2 9 10
M  V30 10 1 10 11
M  V30 11 2 11 12
M  V30 12 1 11 13
M  V30 13 1 10 1
M  V30 14 1 1 14
M  V30 15 1 2 15
M  V30 16 1 8 16
M  V30 17 1 9 17
M  V30 18 1 13 18
M  V30 19 1 13 19
M  V30 END BOND
M  V30 END CTAB
M  END
>  <Dataset>  (201) 
PDB

>  <Ligand_Instance>  (201) 
6SPS_LR5_A_403

>  <PDB_ID>  (201) 
6SPS

>  <Standardized_SMILES>  (201) 
[H]C1=C([H])C(C(F)(F)F)=C([H])C([H])=C1C(=O)N([H])[H]

>  <Name>  (201) 
4-(trifluoromethyl)benzamide

>  <Pocket>  (201) 
A

>  <ATP_Site>  (201) 
1.0

>  <Peripheral>  (201) 
0.0

>  <Num_H_Atoms_ProtBoundConf>  (201) 
6.0

>  <Num_Resolved_Atoms>  (201) 
13.0

>  <Num_Not_Resolved_Atoms>  (201) 
0.0

$$$$
LR8
     RDKit          3D

  0  0  0  0  0  0  0  0  0  0999 V3000
M  V30 BEGIN CTAB
M  V30 COUNTS 28 29 0 0 0
M  V30 BEGIN ATOM
M  V30 1 C 1.444214 -0.624290 2.777970 0
M  V30 2 C 1.480162 -2.003189 2.781663 0
M  V30 3 C 2.229429 -2.706323 3.817359 0
M  V30 4 O 2.470801 -3.904040 4.117820 0
M  V30 5 N 2.921938 -1.970931 4.821927 0
M  V30 6 C 0.851993 -2.822178 1.865185 0
M  V30 7 C 0.121389 -2.234355 0.851929 0
M  V30 8 C 0.080035 -0.856291 0.840558 0
M  V30 9 N -0.639813 -0.112259 -0.152158 0
M  V30 10 C -0.711942 1.337896 -0.204639 0
M  V30 11 C -0.162812 1.786916 -1.532854 0
M  V30 12 O -0.576217 0.984272 -2.580891 0
M  V30 13 C -1.702832 0.232655 -2.257581 0
M  V30 14 C -1.378125 -0.801781 -1.219975 0
M  V30 15 N 0.716467 -0.115239 1.766061 0
M  V30 16 H 1.939259 -0.011685 3.499103 0
M  V30 17 H 3.768481 -1.387203 5.011795 0
M  V30 18 H 3.763976 -1.387572 5.019800 0
M  V30 19 H 0.906195 -3.890942 1.905304 0
M  V30 20 H -0.412087 -2.759658 0.079425 0
M  V30 21 H -0.030835 1.696449 0.611324 0
M  V30 22 H -1.737833 1.715128 -0.040231 0
M  V30 23 H -0.576070 2.800460 -1.738962 0
M  V30 24 H 0.937541 1.898659 -1.486885 0
M  V30 25 H -2.428124 0.930961 -1.818131 0
M  V30 26 H -2.136430 -0.195098 -3.180039 0
M  V30 27 H -0.649578 -1.567520 -1.591679 0
M  V30 28 H -2.283579 -1.285828 -0.860590 0
M  V30 END ATOM
M  V30 BEGIN BOND
M  V30 1 2 1 2
M  V30 2 1 2 3
M  V30 3 2 3 4
M  V30 4 1 3 5
M  V30 5 1 2 6
M  V30 6 2 6 7
M  V30 7 1 7 8
M  V30 8 1 8 9
M  V30 9 1 9 10
M  V30 10 1 10 11
M  V30 11 1 11 12
M  V30 12 1 12 13
M  V30 13 1 13 14
M  V30 14 2 8 15
M  V30 15 1 15 1
M  V30 16 1 14 9
M  V30 17 1 1 16
M  V30 18 1 5 17
M  V30 19 1 5 18
M  V30 20 1 6 19
M  V30 21 1 7 20
M  V30 22 1 10 21
M  V30 23 1 10 22
M  V30 24 1 11 23
M  V30 25 1 11 24
M  V30 26 1 13 25
M  V30 27 1 13 26
M  V30 28 1 14 27
M  V30 29 1 14 28
M  V30 END BOND
M  V30 END CTAB
M  END
>  <Dataset>  (202) 
PDB

>  <Ligand_Instance>  (202) 
6SPY_LR8_A_401

>  <PDB_ID>  (202) 
6SPY

>  <Standardized_SMILES>  (202) 
[H]C1=C(C(=O)N([H])[H])C([H])=C([H])C(N2C([H])([H])C([H])([H])OC([H])([H])C2([H])[H])=N1

>  <Name>  (202) 
6-morpholin-4-ylpyridine-3-carboxamide

>  <Pocket>  (202) 
A

>  <ATP_Site>  (202) 
1.0

>  <Peripheral>  (202) 
0.0

>  <Num_H_Atoms_ProtBoundConf>  (202) 
13.0

>  <Num_Resolved_Atoms>  (202) 
15.0

>  <Num_Not_Resolved_Atoms>  (202) 
0.0

$$$$
LRT
     RDKit          3D

  0  0  0  0  0  0  0  0  0  0999 V3000
M  V30 BEGIN CTAB
M  V30 COUNTS 40 42 0 0 0
M  V30 BEGIN ATOM
M  V30 1 C -0.315043 -2.726899 4.657255 0
M  V30 2 C 0.012250 -2.010546 3.530594 0
M  V30 3 C -0.868689 -1.222412 2.824830 0
M  V30 4 C -0.487177 -0.511242 1.680284 0
M  V30 5 S 1.186065 -0.690754 1.222560 0
M  V30 6 O 2.042382 -0.202558 2.355522 0
M  V30 7 O 1.542664 -2.119374 0.910064 0
M  V30 8 N 1.463939 0.216971 -0.214123 0
M  V30 9 C 0.674028 -0.246820 -1.319169 0
M  V30 10 C 1.474438 -0.873610 -2.413815 0
M  V30 11 C 2.405802 0.061343 -3.123125 0
M  V30 12 N 2.405331 1.408180 -2.644796 0 CHG=1 VAL=4
M  V30 13 C 3.055494 1.576516 -1.362862 0
M  V30 14 C 2.865675 0.333978 -0.525171 0
M  V30 15 C -1.485298 0.230400 1.086837 0
M  V30 16 C -2.760865 0.252696 1.604375 0
M  V30 17 C -3.127689 -0.449557 2.730423 0
M  V30 18 C -2.141825 -1.196992 3.337236 0
M  V30 19 C -2.516317 -1.898888 4.464284 0
M  V30 20 N -3.847179 -1.839753 4.955184 0
M  V30 21 N -1.599679 -2.648367 5.101626 0
M  V30 22 H 0.391515 -3.341335 5.199044 0
M  V30 23 H 1.032623 -2.109235 3.225327 0
M  V30 24 H 0.158126 0.626419 -1.763038 0
M  V30 25 H -0.041640 -1.010454 -0.957400 0
M  V30 26 H 1.990405 -1.811300 -2.094082 0
M  V30 27 H 0.726901 -1.236246 -3.170026 0
M  V30 28 H 3.462234 -0.310824 -3.032427 0
M  V30 29 H 2.170565 0.121959 -4.228536 0
M  V30 30 H 1.468306 1.874081 -2.650944 0
M  V30 31 H 2.963417 1.965750 -3.356867 0
M  V30 32 H 4.126370 1.788128 -1.555867 0
M  V30 33 H 2.574881 2.461391 -0.881745 0
M  V30 34 H 3.422842 0.518033 0.432496 0
M  V30 35 H 3.317812 -0.524548 -1.018633 0
M  V30 36 H -1.150981 0.764838 0.210707 0
M  V30 37 H -3.457224 0.861076 1.064765 0
M  V30 38 H -4.159683 -0.341492 3.025085 0
M  V30 39 H -4.032634 -1.405821 5.903909 0
M  V30 40 H -4.738665 -2.181174 4.496050 0
M  V30 END ATOM
M  V30 BEGIN BOND
M  V30 1 2 1 2
M  V30 2 1 2 3
M  V30 3 2 3 4
M  V30 4 1 4 5
M  V30 5 2 5 6
M  V30 6 2 5 7
M  V30 7 1 5 8
M  V30 8 1 8 9
M  V30 9 1 9 10
M  V30 10 1 10 11
M  V30 11 1 11 12
M  V30 12 1 12 13
M  V30 13 1 13 14
M  V30 14 1 4 15
M  V30 15 2 15 16
M  V30 16 1 16 17
M  V30 17 2 17 18
M  V30 18 1 18 19
M  V30 19 1 19 20
M  V30 20 2 19 21
M  V30 21 1 21 1
M  V30 22 1 18 3
M  V30 23 1 14 8
M  V30 24 1 1 22
M  V30 25 1 2 23
M  V30 26 1 9 24
M  V30 27 1 9 25
M  V30 28 1 10 26
M  V30 29 1 10 27
M  V30 30 1 11 28
M  V30 31 1 11 29
M  V30 32 1 12 30
M  V30 33 1 12 31
M  V30 34 1 13 32
M  V30 35 1 13 33
M  V30 36 1 14 34
M  V30 37 1 14 35
M  V30 38 1 15 36
M  V30 39 1 16 37
M  V30 40 1 17 38
M  V30 41 1 20 39
M  V30 42 1 20 40
M  V30 END BOND
M  V30 END CTAB
M  END
>  <Dataset>  (203) 
PDB

>  <Ligand_Instance>  (203) 
6SQ1_LRT_A_403

>  <PDB_ID>  (203) 
6SQ1

>  <Standardized_SMILES>  (203) 
[H]C1=C([H])C2=C(S(=O)(=O)N3C([H])([H])C([H])([H])C([H])([H])[N+]([H])([H])C([H])([H])C3([H])[H])C([H])=C([H])C([H])=C2C(N([H])[H])=N1

>  <Name>  (203) 
5-(1,4-diazepan-1-ylsulfonyl)isoquinolin-1-amine

>  <Pocket>  (203) 
A

>  <ATP_Site>  (203) 
1.0

>  <Peripheral>  (203) 
0.0

>  <Num_H_Atoms_ProtBoundConf>  (203) 
19.0

>  <Num_Resolved_Atoms>  (203) 
21.0

>  <Num_Not_Resolved_Atoms>  (203) 
0.0

$$$$
LRT
     RDKit          3D

  0  0  0  0  0  0  0  0  0  0999 V3000
M  V30 BEGIN CTAB
M  V30 COUNTS 40 42 0 0 0
M  V30 BEGIN ATOM
M  V30 1 C -0.315043 -2.726899 4.657255 0
M  V30 2 C 0.012250 -2.010546 3.530594 0
M  V30 3 C -0.868689 -1.222412 2.824830 0
M  V30 4 C -0.487177 -0.511242 1.680284 0
M  V30 5 S 1.186065 -0.690754 1.222560 0
M  V30 6 O 2.042382 -0.202558 2.355522 0
M  V30 7 O 1.542664 -2.119374 0.910064 0
M  V30 8 N 1.463939 0.216971 -0.214123 0
M  V30 9 C 0.674028 -0.246820 -1.319169 0
M  V30 10 C 1.474438 -0.873610 -2.413815 0
M  V30 11 C 2.405802 0.061343 -3.123125 0
M  V30 12 N 2.405331 1.408180 -2.644796 0 CHG=1 VAL=4
M  V30 13 C 3.055494 1.576516 -1.362862 0
M  V30 14 C 2.865675 0.333978 -0.525171 0
M  V30 15 C -1.485298 0.230400 1.086837 0
M  V30 16 C -2.760865 0.252696 1.604375 0
M  V30 17 C -3.127689 -0.449557 2.730423 0
M  V30 18 C -2.141825 -1.196992 3.337236 0
M  V30 19 C -2.516317 -1.898888 4.464284 0
M  V30 20 N -3.847179 -1.839753 4.955184 0
M  V30 21 N -1.599679 -2.648367 5.101626 0
M  V30 22 H 0.391515 -3.341335 5.199044 0
M  V30 23 H 1.032623 -2.109235 3.225327 0
M  V30 24 H 0.158126 0.626419 -1.763038 0
M  V30 25 H -0.041640 -1.010454 -0.957400 0
M  V30 26 H 1.990405 -1.811300 -2.094082 0
M  V30 27 H 0.726901 -1.236246 -3.170026 0
M  V30 28 H 3.462234 -0.310824 -3.032427 0
M  V30 29 H 2.170565 0.121959 -4.228536 0
M  V30 30 H 1.468306 1.874081 -2.650944 0
M  V30 31 H 2.963417 1.965750 -3.356867 0
M  V30 32 H 4.126370 1.788128 -1.555867 0
M  V30 33 H 2.574881 2.461391 -0.881745 0
M  V30 34 H 3.422842 0.518033 0.432496 0
M  V30 35 H 3.317812 -0.524548 -1.018633 0
M  V30 36 H -1.150981 0.764838 0.210707 0
M  V30 37 H -3.457224 0.861076 1.064765 0
M  V30 38 H -4.159683 -0.341492 3.025085 0
M  V30 39 H -4.032634 -1.405821 5.903909 0
M  V30 40 H -4.738665 -2.181174 4.496050 0
M  V30 END ATOM
M  V30 BEGIN BOND
M  V30 1 2 1 2
M  V30 2 1 2 3
M  V30 3 2 3 4
M  V30 4 1 4 5
M  V30 5 2 5 6
M  V30 6 2 5 7
M  V30 7 1 5 8
M  V30 8 1 8 9
M  V30 9 1 9 10
M  V30 10 1 10 11
M  V30 11 1 11 12
M  V30 12 1 12 13
M  V30 13 1 13 14
M  V30 14 1 4 15
M  V30 15 2 15 16
M  V30 16 1 16 17
M  V30 17 2 17 18
M  V30 18 1 18 19
M  V30 19 1 19 20
M  V30 20 2 19 21
M  V30 21 1 21 1
M  V30 22 1 18 3
M  V30 23 1 14 8
M  V30 24 1 1 22
M  V30 25 1 2 23
M  V30 26 1 9 24
M  V30 27 1 9 25
M  V30 28 1 10 26
M  V30 29 1 10 27
M  V30 30 1 11 28
M  V30 31 1 11 29
M  V30 32 1 12 30
M  V30 33 1 12 31
M  V30 34 1 13 32
M  V30 35 1 13 33
M  V30 36 1 14 34
M  V30 37 1 14 35
M  V30 38 1 15 36
M  V30 39 1 16 37
M  V30 40 1 17 38
M  V30 41 1 20 39
M  V30 42 1 20 40
M  V30 END BOND
M  V30 END CTAB
M  END
>  <Dataset>  (204) 
PDB

>  <Ligand_Instance>  (204) 
6Y2U_LRT_A_401

>  <PDB_ID>  (204) 
6Y2U

>  <Standardized_SMILES>  (204) 
[H]C1=C([H])C2=C(S(=O)(=O)N3C([H])([H])C([H])([H])C([H])([H])[N+]([H])([H])C([H])([H])C3([H])[H])C([H])=C([H])C([H])=C2C(N([H])[H])=N1

>  <Name>  (204) 
5-(1,4-diazepan-1-ylsulfonyl)isoquinolin-1-amine

>  <Pocket>  (204) 
A

>  <ATP_Site>  (204) 
1.0

>  <Peripheral>  (204) 
0.0

>  <Num_H_Atoms_ProtBoundConf>  (204) 
19.0

>  <Num_Resolved_Atoms>  (204) 
21.0

>  <Num_Not_Resolved_Atoms>  (204) 
0.0

$$$$
LRT
     RDKit          3D

  0  0  0  0  0  0  0  0  0  0999 V3000
M  V30 BEGIN CTAB
M  V30 COUNTS 40 42 0 0 0
M  V30 BEGIN ATOM
M  V30 1 C -0.315043 -2.726899 4.657255 0
M  V30 2 C 0.012250 -2.010546 3.530594 0
M  V30 3 C -0.868689 -1.222412 2.824830 0
M  V30 4 C -0.487177 -0.511242 1.680284 0
M  V30 5 S 1.186065 -0.690754 1.222560 0
M  V30 6 O 2.042382 -0.202558 2.355522 0
M  V30 7 O 1.542664 -2.119374 0.910064 0
M  V30 8 N 1.463939 0.216971 -0.214123 0
M  V30 9 C 0.674028 -0.246820 -1.319169 0
M  V30 10 C 1.474438 -0.873610 -2.413815 0
M  V30 11 C 2.405802 0.061343 -3.123125 0
M  V30 12 N 2.405331 1.408180 -2.644796 0 CHG=1 VAL=4
M  V30 13 C 3.055494 1.576516 -1.362862 0
M  V30 14 C 2.865675 0.333978 -0.525171 0
M  V30 15 C -1.485298 0.230400 1.086837 0
M  V30 16 C -2.760865 0.252696 1.604375 0
M  V30 17 C -3.127689 -0.449557 2.730423 0
M  V30 18 C -2.141825 -1.196992 3.337236 0
M  V30 19 C -2.516317 -1.898888 4.464284 0
M  V30 20 N -3.847179 -1.839753 4.955184 0
M  V30 21 N -1.599679 -2.648367 5.101626 0
M  V30 22 H 0.391515 -3.341335 5.199044 0
M  V30 23 H 1.032623 -2.109235 3.225327 0
M  V30 24 H 0.158126 0.626419 -1.763038 0
M  V30 25 H -0.041640 -1.010454 -0.957400 0
M  V30 26 H 1.990405 -1.811300 -2.094082 0
M  V30 27 H 0.726901 -1.236246 -3.170026 0
M  V30 28 H 3.462234 -0.310824 -3.032427 0
M  V30 29 H 2.170565 0.121959 -4.228536 0
M  V30 30 H 1.468306 1.874081 -2.650944 0
M  V30 31 H 2.963417 1.965750 -3.356867 0
M  V30 32 H 4.126370 1.788128 -1.555867 0
M  V30 33 H 2.574881 2.461391 -0.881745 0
M  V30 34 H 3.422842 0.518033 0.432496 0
M  V30 35 H 3.317812 -0.524548 -1.018633 0
M  V30 36 H -1.150981 0.764838 0.210707 0
M  V30 37 H -3.457224 0.861076 1.064765 0
M  V30 38 H -4.159683 -0.341492 3.025085 0
M  V30 39 H -4.032634 -1.405821 5.903909 0
M  V30 40 H -4.738665 -2.181174 4.496050 0
M  V30 END ATOM
M  V30 BEGIN BOND
M  V30 1 2 1 2
M  V30 2 1 2 3
M  V30 3 2 3 4
M  V30 4 1 4 5
M  V30 5 2 5 6
M  V30 6 2 5 7
M  V30 7 1 5 8
M  V30 8 1 8 9
M  V30 9 1 9 10
M  V30 10 1 10 11
M  V30 11 1 11 12
M  V30 12 1 12 13
M  V30 13 1 13 14
M  V30 14 1 4 15
M  V30 15 2 15 16
M  V30 16 1 16 17
M  V30 17 2 17 18
M  V30 18 1 18 19
M  V30 19 1 19 20
M  V30 20 2 19 21
M  V30 21 1 21 1
M  V30 22 1 18 3
M  V30 23 1 14 8
M  V30 24 1 1 22
M  V30 25 1 2 23
M  V30 26 1 9 24
M  V30 27 1 9 25
M  V30 28 1 10 26
M  V30 29 1 10 27
M  V30 30 1 11 28
M  V30 31 1 11 29
M  V30 32 1 12 30
M  V30 33 1 12 31
M  V30 34 1 13 32
M  V30 35 1 13 33
M  V30 36 1 14 34
M  V30 37 1 14 35
M  V30 38 1 15 36
M  V30 39 1 16 37
M  V30 40 1 17 38
M  V30 41 1 20 39
M  V30 42 1 20 40
M  V30 END BOND
M  V30 END CTAB
M  END
>  <Dataset>  (205) 
PDB

>  <Ligand_Instance>  (205) 
6YNT_LRT_A_405

>  <PDB_ID>  (205) 
6YNT

>  <Standardized_SMILES>  (205) 
[H]C1=C([H])C2=C(S(=O)(=O)N3C([H])([H])C([H])([H])C([H])([H])[N+]([H])([H])C([H])([H])C3([H])[H])C([H])=C([H])C([H])=C2C(N([H])[H])=N1

>  <Name>  (205) 
5-(1,4-diazepan-1-ylsulfonyl)isoquinolin-1-amine

>  <Pocket>  (205) 
A

>  <ATP_Site>  (205) 
1.0

>  <Peripheral>  (205) 
0.0

>  <Num_H_Atoms_ProtBoundConf>  (205) 
19.0

>  <Num_Resolved_Atoms>  (205) 
21.0

>  <Num_Not_Resolved_Atoms>  (205) 
0.0

$$$$
M01
     RDKit          3D

  0  0  0  0  0  0  0  0  0  0999 V3000
M  V30 BEGIN CTAB
M  V30 COUNTS 34 36 0 0 0
M  V30 BEGIN ATOM
M  V30 1 C 1.184872 -0.011865 4.575153 0
M  V30 2 N 1.824953 -1.215832 4.522004 0
M  V30 3 C 1.939997 -1.812078 3.326615 0
M  V30 4 C 1.424600 -1.228334 2.165342 0
M  V30 5 N 1.681060 -2.030947 1.144296 0
M  V30 6 C 2.349301 -3.134810 1.566665 0
M  V30 7 N 2.485472 -2.962351 2.893377 0
M  V30 8 C 0.781981 -0.010660 2.246587 0
M  V30 9 N 0.227987 0.661524 1.138149 0
M  V30 10 C 1.016963 1.070447 0.012724 0
M  V30 11 C 0.395253 0.647624 -1.282526 0
M  V30 12 C -0.797906 -0.270581 -0.998479 0
M  V30 13 C -1.396183 -0.797530 -2.259868 0
M  V30 14 N -2.530457 -1.670931 -2.000780 0 CHG=1 VAL=4
M  V30 15 C -1.797120 0.527441 -0.199686 0
M  V30 16 C -1.194984 0.961283 1.115058 0
M  V30 17 N 0.679543 0.563312 3.445413 0
M  V30 18 H 1.079405 0.493128 5.541116 0
M  V30 19 H 2.697001 -3.970042 0.972035 0
M  V30 20 H 2.960866 -3.627060 3.570331 0
M  V30 21 H 2.080498 0.844007 0.098009 0
M  V30 22 H 0.967439 2.199583 0.016364 0
M  V30 23 H -0.052395 1.500269 -1.869033 0
M  V30 24 H 1.100082 0.164588 -1.985610 0
M  V30 25 H -0.493402 -1.122941 -0.367776 0
M  V30 26 H -1.729582 0.004453 -2.940593 0
M  V30 27 H -0.625986 -1.460878 -2.730944 0
M  V30 28 H -2.800765 -2.156304 -2.883870 0
M  V30 29 H -3.337597 -1.106599 -1.632310 0
M  V30 30 H -2.238237 -2.305067 -1.238330 0
M  V30 31 H -2.216017 1.365978 -0.774017 0
M  V30 32 H -2.643077 -0.177147 0.046405 0
M  V30 33 H -1.697477 0.468018 1.989206 0
M  V30 34 H -1.327693 2.056818 1.237216 0
M  V30 END ATOM
M  V30 BEGIN BOND
M  V30 1 2 1 2
M  V30 2 1 2 3
M  V30 3 2 3 4
M  V30 4 1 4 5
M  V30 5 2 5 6
M  V30 6 1 6 7
M  V30 7 1 4 8
M  V30 8 1 8 9
M  V30 9 1 9 10
M  V30 10 1 10 11
M  V30 11 1 11 12
M  V30 12 1 12 13
M  V30 13 1 13 14
M  V30 14 1 12 15
M  V30 15 1 15 16
M  V30 16 2 8 17
M  V30 17 1 17 1
M  V30 18 1 7 3
M  V30 19 1 16 9
M  V30 20 1 1 18
M  V30 21 1 6 19
M  V30 22 1 7 20
M  V30 23 1 10 21
M  V30 24 1 10 22
M  V30 25 1 11 23
M  V30 26 1 11 24
M  V30 27 1 12 25
M  V30 28 1 13 26
M  V30 29 1 13 27
M  V30 30 1 14 28
M  V30 31 1 14 29
M  V30 32 1 14 30
M  V30 33 1 15 31
M  V30 34 1 15 32
M  V30 35 1 16 33
M  V30 36 1 16 34
M  V30 END BOND
M  V30 END CTAB
M  END
>  <Dataset>  (206) 
PDB

>  <Ligand_Instance>  (206) 
2VNW_M01_A_1351

>  <PDB_ID>  (206) 
2VNW

>  <Standardized_SMILES>  (206) 
[H]C1=NC2=C(N=C([H])N2[H])C(N2C([H])([H])C([H])([H])C([H])(C([H])([H])[N+]([H])([H])[H])C([H])([H])C2([H])[H])=N1

>  <Name>  (206) 
1-[1-(9H-purin-6-yl)piperidin-4-yl]methanamine

>  <Pocket>  (206) 
A

>  <ATP_Site>  (206) 
1.0

>  <Peripheral>  (206) 
0.0

>  <Num_H_Atoms_ProtBoundConf>  (206) 
17.0

>  <Num_Resolved_Atoms>  (206) 
17.0

>  <Num_Not_Resolved_Atoms>  (206) 
0.0

$$$$
M02
     RDKit          3D

  0  0  0  0  0  0  0  0  0  0999 V3000
M  V30 BEGIN CTAB
M  V30 COUNTS 31 33 0 0 0
M  V30 BEGIN ATOM
M  V30 1 C 2.245508 0.526064 3.721191 0
M  V30 2 N 3.074807 -0.541307 3.527658 0
M  V30 3 C 2.888842 -1.306514 2.416352 0
M  V30 4 C 1.882232 -0.991331 1.524324 0
M  V30 5 N 1.938989 -1.892517 0.559142 0
M  V30 6 C 2.945719 -2.752456 0.825131 0
M  V30 7 N 3.555355 -2.407289 1.981559 0
M  V30 8 C 1.049725 0.088686 1.728394 0
M  V30 9 N 0.010855 0.461212 0.862155 0
M  V30 10 C 0.194230 0.826415 -0.535499 0
M  V30 11 C -0.786648 -0.016973 -1.303208 0
M  V30 12 C -1.388162 -1.137993 -0.515024 0
M  V30 13 N -2.464720 -1.675233 -1.363454 0 CHG=1 VAL=4
M  V30 14 C -2.026042 -0.741789 0.774151 0
M  V30 15 C -1.369053 0.507449 1.325725 0
M  V30 16 N 1.249616 0.841863 2.843225 0
M  V30 17 H 2.411815 1.120638 4.611864 0
M  V30 18 H 3.256382 -3.602691 0.234896 0
M  V30 19 H 4.361425 -2.851060 2.475855 0
M  V30 20 H -0.123692 1.894351 -0.613028 0
M  V30 21 H 1.231434 0.775945 -0.878727 0
M  V30 22 H -1.633875 0.603430 -1.682964 0
M  V30 23 H -0.329237 -0.487248 -2.206832 0
M  V30 24 H -0.691291 -2.010730 -0.398014 0
M  V30 25 H -2.896329 -2.440419 -0.790996 0
M  V30 26 H -2.041389 -2.160486 -2.192755 0
M  V30 27 H -3.155024 -0.961697 -1.618457 0
M  V30 28 H -1.821519 -1.541933 1.532781 0
M  V30 29 H -3.136408 -0.585253 0.674857 0
M  V30 30 H -1.380078 0.522598 2.433348 0
M  V30 31 H -1.898830 1.411954 0.961816 0
M  V30 END ATOM
M  V30 BEGIN BOND
M  V30 1 2 1 2
M  V30 2 1 2 3
M  V30 3 2 3 4
M  V30 4 1 4 5
M  V30 5 2 5 6
M  V30 6 1 6 7
M  V30 7 1 4 8
M  V30 8 1 8 9
M  V30 9 1 9 10
M  V30 10 1 10 11
M  V30 11 1 11 12
M  V30 12 1 12 13
M  V30 13 1 12 14
M  V30 14 1 14 15
M  V30 15 2 8 16
M  V30 16 1 16 1
M  V30 17 1 7 3
M  V30 18 1 15 9
M  V30 19 1 1 17
M  V30 20 1 6 18
M  V30 21 1 7 19
M  V30 22 1 10 20
M  V30 23 1 10 21
M  V30 24 1 11 22
M  V30 25 1 11 23
M  V30 26 1 12 24
M  V30 27 1 13 25
M  V30 28 1 13 26
M  V30 29 1 13 27
M  V30 30 1 14 28
M  V30 31 1 14 29
M  V30 32 1 15 30
M  V30 33 1 15 31
M  V30 END BOND
M  V30 END CTAB
M  END
>  <Dataset>  (207) 
PDB

>  <Ligand_Instance>  (207) 
2VNY_M02_A_1351

>  <PDB_ID>  (207) 
2VNY

>  <Standardized_SMILES>  (207) 
[H]C1=NC2=C(N=C([H])N2[H])C(N2C([H])([H])C([H])([H])C([H])([N+]([H])([H])[H])C([H])([H])C2([H])[H])=N1

>  <Name>  (207) 
1-(9H-purin-6-yl)piperidin-4-amine

>  <Pocket>  (207) 
A

>  <ATP_Site>  (207) 
1.0

>  <Peripheral>  (207) 
0.0

>  <Num_H_Atoms_ProtBoundConf>  (207) 
15.0

>  <Num_Resolved_Atoms>  (207) 
16.0

>  <Num_Not_Resolved_Atoms>  (207) 
0.0

$$$$
M03
     RDKit          3D

  0  0  0  0  0  0  0  0  0  0999 V3000
M  V30 BEGIN CTAB
M  V30 COUNTS 45 48 0 0 0
M  V30 BEGIN ATOM
M  V30 1 C 0.195370 -3.173033 4.655541 0
M  V30 2 N -0.538963 -4.302182 4.449749 0
M  V30 3 C -1.041117 -4.561894 3.205903 0
M  V30 4 C -0.835437 -3.719949 2.131901 0
M  V30 5 C -0.086873 -2.589273 2.385508 0
M  V30 6 N 0.146307 -1.695845 1.299367 0
M  V30 7 C -0.714641 -0.919657 0.420503 0
M  V30 8 C -0.503762 0.523365 0.827736 0
M  V30 9 C 0.856806 0.926479 0.310495 0
M  V30 10 C 0.647365 1.827578 -0.843224 0
M  V30 11 C 0.624053 3.201970 -0.823081 0
M  V30 12 C 0.420038 4.022020 -1.903531 0
M  V30 13 C 0.216387 3.477984 -3.135770 0
M  V30 14 Cl -0.045485 4.505067 -4.525888 0
M  V30 15 C 0.222952 2.119614 -3.250941 0
M  V30 16 C 0.432547 1.343263 -2.132703 0
M  V30 17 C 1.543389 1.734679 1.395039 0
M  V30 18 N 1.774892 1.045738 2.618463 0 CHG=1 VAL=4
M  V30 19 C 1.665737 -0.300585 -0.037797 0
M  V30 20 C 1.515760 -1.434433 0.902347 0
M  V30 21 N 0.423957 -2.311590 3.621811 0
M  V30 22 C -1.479228 -4.302829 1.075222 0
M  V30 23 C -2.042431 -5.466434 1.558026 0
M  V30 24 N -1.779943 -5.630583 2.853829 0
M  V30 25 H 0.631187 -2.885996 5.602388 0
M  V30 26 H -0.464700 -1.083343 -0.645580 0
M  V30 27 H -1.792998 -1.152597 0.620732 0
M  V30 28 H -0.590521 0.618906 1.926584 0
M  V30 29 H -1.309452 1.173369 0.405206 0
M  V30 30 H 0.778316 3.734194 0.099525 0
M  V30 31 H 0.412764 5.102597 -1.823388 0
M  V30 32 H 0.058858 1.716141 -4.240308 0
M  V30 33 H 0.410453 0.288661 -2.361560 0
M  V30 34 H 0.829709 2.586975 1.632524 0
M  V30 35 H 2.464666 2.207282 1.027057 0
M  V30 36 H 2.777181 0.716090 2.639677 0
M  V30 37 H 1.111554 0.337942 2.917064 0
M  V30 38 H 1.760806 1.779717 3.393249 0
M  V30 39 H 1.567507 -0.643543 -1.069119 0
M  V30 40 H 2.742174 0.038940 0.056527 0
M  V30 41 H 2.228404 -1.439322 1.768670 0
M  V30 42 H 1.818781 -2.366645 0.335323 0
M  V30 43 H -1.496347 -3.868183 0.078099 0
M  V30 44 H -2.611027 -6.107772 0.897170 0
M  V30 45 H -2.116160 -6.445888 3.401799 0
M  V30 END ATOM
M  V30 BEGIN BOND
M  V30 1 2 1 2
M  V30 2 1 2 3
M  V30 3 2 3 4
M  V30 4 1 4 5
M  V30 5 1 5 6
M  V30 6 1 6 7
M  V30 7 1 7 8
M  V30 8 1 8 9
M  V30 9 1 9 10
M  V30 10 2 10 11
M  V30 11 1 11 12
M  V30 12 2 12 13
M  V30 13 1 13 14
M  V30 14 1 13 15
M  V30 15 2 15 16
M  V30 16 1 9 17
M  V30 17 1 17 18
M  V30 18 1 9 19
M  V30 19 1 19 20
M  V30 20 2 5 21
M  V30 21 1 4 22
M  V30 22 2 22 23
M  V30 23 1 23 24
M  V30 24 1 21 1
M  V30 25 1 24 3
M  V30 26 1 20 6
M  V30 27 1 16 10
M  V30 28 1 1 25
M  V30 29 1 7 26
M  V30 30 1 7 27
M  V30 31 1 8 28
M  V30 32 1 8 29
M  V30 33 1 11 30
M  V30 34 1 12 31
M  V30 35 1 15 32
M  V30 36 1 16 33
M  V30 37 1 17 34
M  V30 38 1 17 35
M  V30 39 1 18 36
M  V30 40 1 18 37
M  V30 41 1 18 38
M  V30 42 1 19 39
M  V30 43 1 19 40
M  V30 44 1 20 41
M  V30 45 1 20 42
M  V30 46 1 22 43
M  V30 47 1 23 44
M  V30 48 1 24 45
M  V30 END BOND
M  V30 END CTAB
M  END
>  <Dataset>  (208) 
PDB

>  <Ligand_Instance>  (208) 
2VO0_M03_A_1354

>  <PDB_ID>  (208) 
2VO0

>  <Standardized_SMILES>  (208) 
[H]C1=NC2=C(C(N3C([H])([H])C([H])([H])C(C4=C([H])C([H])=C(Cl)C([H])=C4[H])(C([H])([H])[N+]([H])([H])[H])C([H])([H])C3([H])[H])=N1)C([H])=C([H])N2[H]

>  <Name>  (208) 
1-[4-(4-chlorophenyl)-1-(7H-pyrrolo[2,3-d]pyrimidin-4-yl)piperidin-4-yl]methanamine

>  <Pocket>  (208) 
A

>  <ATP_Site>  (208) 
1.0

>  <Peripheral>  (208) 
1.0

>  <Num_H_Atoms_ProtBoundConf>  (208) 
21.0

>  <Num_Resolved_Atoms>  (208) 
24.0

>  <Num_Not_Resolved_Atoms>  (208) 
0.0

$$$$
M03
     RDKit          3D

  0  0  0  0  0  0  0  0  0  0999 V3000
M  V30 BEGIN CTAB
M  V30 COUNTS 45 48 0 0 0
M  V30 BEGIN ATOM
M  V30 1 C 0.195370 -3.173033 4.655541 0
M  V30 2 N -0.538963 -4.302182 4.449749 0
M  V30 3 C -1.041117 -4.561894 3.205903 0
M  V30 4 C -0.835437 -3.719949 2.131901 0
M  V30 5 C -0.086873 -2.589273 2.385508 0
M  V30 6 N 0.146307 -1.695845 1.299367 0
M  V30 7 C -0.714641 -0.919657 0.420503 0
M  V30 8 C -0.503762 0.523365 0.827736 0
M  V30 9 C 0.856806 0.926479 0.310495 0
M  V30 10 C 0.647365 1.827578 -0.843224 0
M  V30 11 C 0.624053 3.201970 -0.823081 0
M  V30 12 C 0.420038 4.022020 -1.903531 0
M  V30 13 C 0.216387 3.477984 -3.135770 0
M  V30 14 Cl -0.045485 4.505067 -4.525888 0
M  V30 15 C 0.222952 2.119614 -3.250941 0
M  V30 16 C 0.432547 1.343263 -2.132703 0
M  V30 17 C 1.543389 1.734679 1.395039 0
M  V30 18 N 1.774892 1.045738 2.618463 0 CHG=1 VAL=4
M  V30 19 C 1.665737 -0.300585 -0.037797 0
M  V30 20 C 1.515760 -1.434433 0.902347 0
M  V30 21 N 0.423957 -2.311590 3.621811 0
M  V30 22 C -1.479228 -4.302829 1.075222 0
M  V30 23 C -2.042431 -5.466434 1.558026 0
M  V30 24 N -1.779943 -5.630583 2.853829 0
M  V30 25 H 0.631187 -2.885996 5.602388 0
M  V30 26 H -0.464700 -1.083343 -0.645580 0
M  V30 27 H -1.792998 -1.152597 0.620732 0
M  V30 28 H -0.590521 0.618906 1.926584 0
M  V30 29 H -1.309452 1.173369 0.405206 0
M  V30 30 H 0.778316 3.734194 0.099525 0
M  V30 31 H 0.412764 5.102597 -1.823388 0
M  V30 32 H 0.058858 1.716141 -4.240308 0
M  V30 33 H 0.410453 0.288661 -2.361560 0
M  V30 34 H 0.829709 2.586975 1.632524 0
M  V30 35 H 2.464666 2.207282 1.027057 0
M  V30 36 H 2.777181 0.716090 2.639677 0
M  V30 37 H 1.111554 0.337942 2.917064 0
M  V30 38 H 1.760806 1.779717 3.393249 0
M  V30 39 H 1.567507 -0.643543 -1.069119 0
M  V30 40 H 2.742174 0.038940 0.056527 0
M  V30 41 H 2.228404 -1.439322 1.768670 0
M  V30 42 H 1.818781 -2.366645 0.335323 0
M  V30 43 H -1.496347 -3.868183 0.078099 0
M  V30 44 H -2.611027 -6.107772 0.897170 0
M  V30 45 H -2.116160 -6.445888 3.401799 0
M  V30 END ATOM
M  V30 BEGIN BOND
M  V30 1 2 1 2
M  V30 2 1 2 3
M  V30 3 2 3 4
M  V30 4 1 4 5
M  V30 5 1 5 6
M  V30 6 1 6 7
M  V30 7 1 7 8
M  V30 8 1 8 9
M  V30 9 1 9 10
M  V30 10 2 10 11
M  V30 11 1 11 12
M  V30 12 2 12 13
M  V30 13 1 13 14
M  V30 14 1 13 15
M  V30 15 2 15 16
M  V30 16 1 9 17
M  V30 17 1 17 18
M  V30 18 1 9 19
M  V30 19 1 19 20
M  V30 20 2 5 21
M  V30 21 1 4 22
M  V30 22 2 22 23
M  V30 23 1 23 24
M  V30 24 1 21 1
M  V30 25 1 24 3
M  V30 26 1 20 6
M  V30 27 1 16 10
M  V30 28 1 1 25
M  V30 29 1 7 26
M  V30 30 1 7 27
M  V30 31 1 8 28
M  V30 32 1 8 29
M  V30 33 1 11 30
M  V30 34 1 12 31
M  V30 35 1 15 32
M  V30 36 1 16 33
M  V30 37 1 17 34
M  V30 38 1 17 35
M  V30 39 1 18 36
M  V30 40 1 18 37
M  V30 41 1 18 38
M  V30 42 1 19 39
M  V30 43 1 19 40
M  V30 44 1 20 41
M  V30 45 1 20 42
M  V30 46 1 22 43
M  V30 47 1 23 44
M  V30 48 1 24 45
M  V30 END BOND
M  V30 END CTAB
M  END
>  <Dataset>  (209) 
PDB

>  <Ligand_Instance>  (209) 
2VO0_M03_A_1355

>  <PDB_ID>  (209) 
2VO0

>  <Standardized_SMILES>  (209) 
[H]C1=NC2=C(C(N3C([H])([H])C([H])([H])C(C4=C([H])C([H])=C(Cl)C([H])=C4[H])(C([H])([H])[N+]([H])([H])[H])C([H])([H])C3([H])[H])=N1)C([H])=C([H])N2[H]

>  <Name>  (209) 
1-[4-(4-chlorophenyl)-1-(7H-pyrrolo[2,3-d]pyrimidin-4-yl)piperidin-4-yl]methanamine

>  <Pocket>  (209) 
X

>  <ATP_Site>  (209) 
1.0

>  <Peripheral>  (209) 
1.0

>  <Num_H_Atoms_ProtBoundConf>  (209) 
21.0

>  <Num_Resolved_Atoms>  (209) 
24.0

>  <Num_Not_Resolved_Atoms>  (209) 
0.0

$$$$
M04
     RDKit          3D

  0  0  0  0  0  0  0  0  0  0999 V3000
M  V30 BEGIN CTAB
M  V30 COUNTS 48 51 0 0 0
M  V30 BEGIN ATOM
M  V30 1 C -2.656052 -4.279729 3.345561 0
M  V30 2 N -3.447667 -4.884832 2.413230 0
M  V30 3 C -3.254392 -4.633390 1.108871 0
M  V30 4 C -2.254934 -3.766008 0.757759 0
M  V30 5 C -1.463645 -3.161321 1.690899 0
M  V30 6 N -0.387686 -2.242052 1.477235 0
M  V30 7 C 0.792015 -2.544021 0.742431 0
M  V30 8 C 1.417657 -1.447502 -0.026082 0
M  V30 9 C 1.218652 -0.058165 0.443099 0
M  V30 10 C 1.254798 0.819781 -0.830869 0
M  V30 11 C 1.074889 2.244431 -0.550949 0
M  V30 12 C -0.140620 2.897877 -0.514432 0
M  V30 13 C -0.343864 4.237560 -0.255989 0
M  V30 14 C 0.770429 5.012384 -0.007814 0
M  V30 15 Cl 0.620337 6.721347 0.330638 0
M  V30 16 C 2.034439 4.460349 -0.019758 0
M  V30 17 C 2.144410 3.111183 -0.287587 0
M  V30 18 C 2.282849 0.488091 1.345834 0
M  V30 19 N 2.521578 -0.182788 2.566418 0 CHG=1 VAL=4
M  V30 20 C -0.141585 0.130393 1.018857 0
M  V30 21 C -0.505435 -0.918050 2.043558 0
M  V30 22 N -1.674510 -3.427928 3.001091 0
M  V30 23 C -2.197096 -3.624167 -0.600659 0
M  V30 24 C -3.194841 -4.431164 -1.112546 0
M  V30 25 N -3.816282 -5.027309 -0.064666 0
M  V30 26 H -2.860781 -4.523481 4.394196 0
M  V30 27 H 0.503995 -3.372724 0.024156 0
M  V30 28 H 1.511922 -3.075421 1.429029 0
M  V30 29 H 1.045407 -1.509256 -1.092396 0
M  V30 30 H 2.513346 -1.700721 -0.153396 0
M  V30 31 H 0.468670 0.429587 -1.511151 0
M  V30 32 H 2.238279 0.637716 -1.306659 0
M  V30 33 H -1.044835 2.338692 -0.703872 0
M  V30 34 H -1.322481 4.678143 -0.244051 0
M  V30 35 H 2.899910 5.064290 0.173402 0
M  V30 36 H 3.156023 2.725085 -0.286332 0
M  V30 37 H 3.250762 0.587019 0.790386 0
M  V30 38 H 2.012380 1.545834 1.595498 0
M  V30 39 H 3.562566 -0.085555 2.794447 0
M  V30 40 H 2.356531 -1.191962 2.610133 0
M  V30 41 H 2.082293 0.335884 3.386642 0
M  V30 42 H -0.198654 1.109111 1.576443 0
M  V30 43 H -0.924428 0.144588 0.216606 0
M  V30 44 H 0.032497 -0.800756 2.982507 0
M  V30 45 H -1.593158 -0.702911 2.290256 0
M  V30 46 H -1.531234 -3.021366 -1.185668 0
M  V30 47 H -3.453615 -4.577640 -2.163550 0
M  V30 48 H -4.614818 -5.696339 -0.136033 0
M  V30 END ATOM
M  V30 BEGIN BOND
M  V30 1 2 1 2
M  V30 2 1 2 3
M  V30 3 2 3 4
M  V30 4 1 4 5
M  V30 5 1 5 6
M  V30 6 1 6 7
M  V30 7 1 7 8
M  V30 8 1 8 9
M  V30 9 1 9 10
M  V30 10 1 10 11
M  V30 11 2 11 12
M  V30 12 1 12 13
M  V30 13 2 13 14
M  V30 14 1 14 15
M  V30 15 1 14 16
M  V30 16 2 16 17
M  V30 17 1 9 18
M  V30 18 1 18 19
M  V30 19 1 9 20
M  V30 20 1 20 21
M  V30 21 2 5 22
M  V30 22 1 4 23
M  V30 23 2 23 24
M  V30 24 1 24 25
M  V30 25 1 22 1
M  V30 26 1 25 3
M  V30 27 1 21 6
M  V30 28 1 17 11
M  V30 29 1 1 26
M  V30 30 1 7 27
M  V30 31 1 7 28
M  V30 32 1 8 29
M  V30 33 1 8 30
M  V30 34 1 10 31
M  V30 35 1 10 32
M  V30 36 1 12 33
M  V30 37 1 13 34
M  V30 38 1 16 35
M  V30 39 1 17 36
M  V30 40 1 18 37
M  V30 41 1 18 38
M  V30 42 1 19 39
M  V30 43 1 19 40
M  V30 44 1 19 41
M  V30 45 1 20 42
M  V30 46 1 20 43
M  V30 47 1 21 44
M  V30 48 1 21 45
M  V30 49 1 23 46
M  V30 50 1 24 47
M  V30 51 1 25 48
M  V30 END BOND
M  V30 END CTAB
M  END
>  <Dataset>  (210) 
PDB

>  <Ligand_Instance>  (210) 
2VO3_M04_A_1352

>  <PDB_ID>  (210) 
2VO3

>  <Standardized_SMILES>  (210) 
[H]C1=NC2=C(C(N3C([H])([H])C([H])([H])C(C([H])([H])C4=C([H])C([H])=C(Cl)C([H])=C4[H])(C([H])([H])[N+]([H])([H])[H])C([H])([H])C3([H])[H])=N1)C([H])=C([H])N2[H]

>  <Name>  (210) 
1-[4-(4-chlorobenzyl)-1-(7H-pyrrolo[2,3-d]pyrimidin-4-yl)piperidin-4-yl]methanamine

>  <Pocket>  (210) 
A

>  <ATP_Site>  (210) 
1.0

>  <Peripheral>  (210) 
0.0

>  <Num_H_Atoms_ProtBoundConf>  (210) 
23.0

>  <Num_Resolved_Atoms>  (210) 
25.0

>  <Num_Not_Resolved_Atoms>  (210) 
0.0

$$$$
M05
     RDKit          3D

  0  0  0  0  0  0  0  0  0  0999 V3000
M  V30 BEGIN CTAB
M  V30 COUNTS 45 48 0 0 0
M  V30 BEGIN ATOM
M  V30 1 C -0.441075 -2.122550 4.801459 0
M  V30 2 N -1.526228 -2.919744 4.877618 0
M  V30 3 C -1.991719 -3.484866 3.746061 0
M  V30 4 C -1.319379 -3.210160 2.555158 0
M  V30 5 C -0.208131 -2.386819 2.513528 0
M  V30 6 N 0.307227 -2.257268 1.181338 0
M  V30 7 C -0.623728 -1.700950 0.220985 0
M  V30 8 C -0.097883 -0.317008 -0.148532 0
M  V30 9 C 1.386694 -0.231461 -0.153026 0
M  V30 10 C 1.835681 0.714584 -1.239310 0
M  V30 11 C 1.338234 2.088287 -1.100339 0
M  V30 12 C 0.190353 2.640847 -1.624062 0
M  V30 13 C -0.191043 3.950709 -1.429946 0
M  V30 14 C 0.585899 4.805147 -0.674199 0
M  V30 15 Cl 0.019212 6.430624 -0.490552 0
M  V30 16 C 1.745392 4.290649 -0.131194 0
M  V30 17 C 2.102023 2.982536 -0.339828 0
M  V30 18 N 1.811667 0.382770 1.097950 0 CHG=1 VAL=4
M  V30 19 C 2.065601 -1.558971 -0.377913 0
M  V30 20 C 1.629980 -2.600774 0.626275 0
M  V30 21 N 0.222683 -1.843647 3.665934 0
M  V30 22 C -2.073391 -3.950246 1.637474 0
M  V30 23 C -3.101106 -4.604037 2.237880 0
M  V30 24 N -3.035981 -4.304129 3.547974 0
M  V30 25 H 0.010517 -1.618966 5.666199 0
M  V30 26 H -0.619040 -2.357129 -0.678885 0
M  V30 27 H -1.644629 -1.566644 0.590461 0
M  V30 28 H -0.538359 0.395720 0.578764 0
M  V30 29 H -0.564015 -0.104697 -1.132653 0
M  V30 30 H 1.565339 0.274239 -2.222563 0
M  V30 31 H 2.960139 0.731246 -1.165722 0
M  V30 32 H -0.424079 1.993340 -2.218186 0
M  V30 33 H -1.120838 4.268268 -1.896451 0
M  V30 34 H 2.319066 4.993246 0.450158 0
M  V30 35 H 3.045670 2.729023 0.155201 0
M  V30 36 H 2.845674 0.509975 1.032473 0
M  V30 37 H 1.268039 1.258834 1.207344 0
M  V30 38 H 1.644151 -0.181170 1.933538 0
M  V30 39 H 3.157921 -1.399137 -0.305762 0
M  V30 40 H 1.842365 -1.876932 -1.413592 0
M  V30 41 H 2.363499 -2.799554 1.410991 0
M  V30 42 H 1.458072 -3.542995 0.065944 0
M  V30 43 H -1.852395 -3.988865 0.574191 0
M  V30 44 H -3.850908 -5.249013 1.799780 0
M  V30 45 H -3.668338 -4.635320 4.288182 0
M  V30 END ATOM
M  V30 BEGIN BOND
M  V30 1 2 1 2
M  V30 2 1 2 3
M  V30 3 2 3 4
M  V30 4 1 4 5
M  V30 5 1 5 6
M  V30 6 1 6 7
M  V30 7 1 7 8
M  V30 8 1 8 9
M  V30 9 1 9 10
M  V30 10 1 10 11
M  V30 11 2 11 12
M  V30 12 1 12 13
M  V30 13 2 13 14
M  V30 14 1 14 15
M  V30 15 1 14 16
M  V30 16 2 16 17
M  V30 17 1 9 18
M  V30 18 1 9 19
M  V30 19 1 19 20
M  V30 20 2 5 21
M  V30 21 1 4 22
M  V30 22 2 22 23
M  V30 23 1 23 24
M  V30 24 1 21 1
M  V30 25 1 24 3
M  V30 26 1 20 6
M  V30 27 1 17 11
M  V30 28 1 1 25
M  V30 29 1 7 26
M  V30 30 1 7 27
M  V30 31 1 8 28
M  V30 32 1 8 29
M  V30 33 1 10 30
M  V30 34 1 10 31
M  V30 35 1 12 32
M  V30 36 1 13 33
M  V30 37 1 16 34
M  V30 38 1 17 35
M  V30 39 1 18 36
M  V30 40 1 18 37
M  V30 41 1 18 38
M  V30 42 1 19 39
M  V30 43 1 19 40
M  V30 44 1 20 41
M  V30 45 1 20 42
M  V30 46 1 22 43
M  V30 47 1 23 44
M  V30 48 1 24 45
M  V30 END BOND
M  V30 END CTAB
M  END
>  <Dataset>  (211) 
PDB

>  <Ligand_Instance>  (211) 
2VO6_M05_A_1352

>  <PDB_ID>  (211) 
2VO6

>  <Standardized_SMILES>  (211) 
[H]C1=NC2=C(C(N3C([H])([H])C([H])([H])C(C([H])([H])C4=C([H])C([H])=C(Cl)C([H])=C4[H])([N+]([H])([H])[H])C([H])([H])C3([H])[H])=N1)C([H])=C([H])N2[H]

>  <Name>  (211) 
4-(4-chlorobenzyl)-1-(7H-pyrrolo[2,3-d]pyrimidin-4-yl)piperidin-4-aminium

>  <Pocket>  (211) 
A

>  <ATP_Site>  (211) 
1.0

>  <Peripheral>  (211) 
0.0

>  <Num_H_Atoms_ProtBoundConf>  (211) 
21.0

>  <Num_Resolved_Atoms>  (211) 
24.0

>  <Num_Not_Resolved_Atoms>  (211) 
0.0

$$$$
M05
     RDKit          3D

  0  0  0  0  0  0  0  0  0  0999 V3000
M  V30 BEGIN CTAB
M  V30 COUNTS 45 48 0 0 0
M  V30 BEGIN ATOM
M  V30 1 C -0.441075 -2.122550 4.801459 0
M  V30 2 N -1.526228 -2.919744 4.877618 0
M  V30 3 C -1.991719 -3.484866 3.746061 0
M  V30 4 C -1.319379 -3.210160 2.555158 0
M  V30 5 C -0.208131 -2.386819 2.513528 0
M  V30 6 N 0.307227 -2.257268 1.181338 0
M  V30 7 C -0.623728 -1.700950 0.220985 0
M  V30 8 C -0.097883 -0.317008 -0.148532 0
M  V30 9 C 1.386694 -0.231461 -0.153026 0
M  V30 10 C 1.835681 0.714584 -1.239310 0
M  V30 11 C 1.338234 2.088287 -1.100339 0
M  V30 12 C 0.190353 2.640847 -1.624062 0
M  V30 13 C -0.191043 3.950709 -1.429946 0
M  V30 14 C 0.585899 4.805147 -0.674199 0
M  V30 15 Cl 0.019212 6.430624 -0.490552 0
M  V30 16 C 1.745392 4.290649 -0.131194 0
M  V30 17 C 2.102023 2.982536 -0.339828 0
M  V30 18 N 1.811667 0.382770 1.097950 0 CHG=1 VAL=4
M  V30 19 C 2.065601 -1.558971 -0.377913 0
M  V30 20 C 1.629980 -2.600774 0.626275 0
M  V30 21 N 0.222683 -1.843647 3.665934 0
M  V30 22 C -2.073391 -3.950246 1.637474 0
M  V30 23 C -3.101106 -4.604037 2.237880 0
M  V30 24 N -3.035981 -4.304129 3.547974 0
M  V30 25 H 0.010517 -1.618966 5.666199 0
M  V30 26 H -0.619040 -2.357129 -0.678885 0
M  V30 27 H -1.644629 -1.566644 0.590461 0
M  V30 28 H -0.538359 0.395720 0.578764 0
M  V30 29 H -0.564015 -0.104697 -1.132653 0
M  V30 30 H 1.565339 0.274239 -2.222563 0
M  V30 31 H 2.960139 0.731246 -1.165722 0
M  V30 32 H -0.424079 1.993340 -2.218186 0
M  V30 33 H -1.120838 4.268268 -1.896451 0
M  V30 34 H 2.319066 4.993246 0.450158 0
M  V30 35 H 3.045670 2.729023 0.155201 0
M  V30 36 H 2.845674 0.509975 1.032473 0
M  V30 37 H 1.268039 1.258834 1.207344 0
M  V30 38 H 1.644151 -0.181170 1.933538 0
M  V30 39 H 3.157921 -1.399137 -0.305762 0
M  V30 40 H 1.842365 -1.876932 -1.413592 0
M  V30 41 H 2.363499 -2.799554 1.410991 0
M  V30 42 H 1.458072 -3.542995 0.065944 0
M  V30 43 H -1.852395 -3.988865 0.574191 0
M  V30 44 H -3.850908 -5.249013 1.799780 0
M  V30 45 H -3.668338 -4.635320 4.288182 0
M  V30 END ATOM
M  V30 BEGIN BOND
M  V30 1 2 1 2
M  V30 2 1 2 3
M  V30 3 2 3 4
M  V30 4 1 4 5
M  V30 5 1 5 6
M  V30 6 1 6 7
M  V30 7 1 7 8
M  V30 8 1 8 9
M  V30 9 1 9 10
M  V30 10 1 10 11
M  V30 11 2 11 12
M  V30 12 1 12 13
M  V30 13 2 13 14
M  V30 14 1 14 15
M  V30 15 1 14 16
M  V30 16 2 16 17
M  V30 17 1 9 18
M  V30 18 1 9 19
M  V30 19 1 19 20
M  V30 20 2 5 21
M  V30 21 1 4 22
M  V30 22 2 22 23
M  V30 23 1 23 24
M  V30 24 1 21 1
M  V30 25 1 24 3
M  V30 26 1 20 6
M  V30 27 1 17 11
M  V30 28 1 1 25
M  V30 29 1 7 26
M  V30 30 1 7 27
M  V30 31 1 8 28
M  V30 32 1 8 29
M  V30 33 1 10 30
M  V30 34 1 10 31
M  V30 35 1 12 32
M  V30 36 1 13 33
M  V30 37 1 16 34
M  V30 38 1 17 35
M  V30 39 1 18 36
M  V30 40 1 18 37
M  V30 41 1 18 38
M  V30 42 1 19 39
M  V30 43 1 19 40
M  V30 44 1 20 41
M  V30 45 1 20 42
M  V30 46 1 22 43
M  V30 47 1 23 44
M  V30 48 1 24 45
M  V30 END BOND
M  V30 END CTAB
M  END
>  <Dataset>  (212) 
PDB

>  <Ligand_Instance>  (212) 
2VO7_M05_A_1351

>  <PDB_ID>  (212) 
2VO7

>  <Standardized_SMILES>  (212) 
[H]C1=NC2=C(C(N3C([H])([H])C([H])([H])C(C([H])([H])C4=C([H])C([H])=C(Cl)C([H])=C4[H])([N+]([H])([H])[H])C([H])([H])C3([H])[H])=N1)C([H])=C([H])N2[H]

>  <Name>  (212) 
4-(4-chlorobenzyl)-1-(7H-pyrrolo[2,3-d]pyrimidin-4-yl)piperidin-4-aminium

>  <Pocket>  (212) 
X

>  <ATP_Site>  (212) 
1.0

>  <Peripheral>  (212) 
1.0

>  <Num_H_Atoms_ProtBoundConf>  (212) 
21.0

>  <Num_Resolved_Atoms>  (212) 
24.0

>  <Num_Not_Resolved_Atoms>  (212) 
0.0

$$$$
M05
     RDKit          3D

  0  0  0  0  0  0  0  0  0  0999 V3000
M  V30 BEGIN CTAB
M  V30 COUNTS 45 48 0 0 0
M  V30 BEGIN ATOM
M  V30 1 C -0.441075 -2.122550 4.801459 0
M  V30 2 N -1.526228 -2.919744 4.877618 0
M  V30 3 C -1.991719 -3.484866 3.746061 0
M  V30 4 C -1.319379 -3.210160 2.555158 0
M  V30 5 C -0.208131 -2.386819 2.513528 0
M  V30 6 N 0.307227 -2.257268 1.181338 0
M  V30 7 C -0.623728 -1.700950 0.220985 0
M  V30 8 C -0.097883 -0.317008 -0.148532 0
M  V30 9 C 1.386694 -0.231461 -0.153026 0
M  V30 10 C 1.835681 0.714584 -1.239310 0
M  V30 11 C 1.338234 2.088287 -1.100339 0
M  V30 12 C 0.190353 2.640847 -1.624062 0
M  V30 13 C -0.191043 3.950709 -1.429946 0
M  V30 14 C 0.585899 4.805147 -0.674199 0
M  V30 15 Cl 0.019212 6.430624 -0.490552 0
M  V30 16 C 1.745392 4.290649 -0.131194 0
M  V30 17 C 2.102023 2.982536 -0.339828 0
M  V30 18 N 1.811667 0.382770 1.097950 0 CHG=1 VAL=4
M  V30 19 C 2.065601 -1.558971 -0.377913 0
M  V30 20 C 1.629980 -2.600774 0.626275 0
M  V30 21 N 0.222683 -1.843647 3.665934 0
M  V30 22 C -2.073391 -3.950246 1.637474 0
M  V30 23 C -3.101106 -4.604037 2.237880 0
M  V30 24 N -3.035981 -4.304129 3.547974 0
M  V30 25 H 0.010517 -1.618966 5.666199 0
M  V30 26 H -0.619040 -2.357129 -0.678885 0
M  V30 27 H -1.644629 -1.566644 0.590461 0
M  V30 28 H -0.538359 0.395720 0.578764 0
M  V30 29 H -0.564015 -0.104697 -1.132653 0
M  V30 30 H 1.565339 0.274239 -2.222563 0
M  V30 31 H 2.960139 0.731246 -1.165722 0
M  V30 32 H -0.424079 1.993340 -2.218186 0
M  V30 33 H -1.120838 4.268268 -1.896451 0
M  V30 34 H 2.319066 4.993246 0.450158 0
M  V30 35 H 3.045670 2.729023 0.155201 0
M  V30 36 H 2.845674 0.509975 1.032473 0
M  V30 37 H 1.268039 1.258834 1.207344 0
M  V30 38 H 1.644151 -0.181170 1.933538 0
M  V30 39 H 3.157921 -1.399137 -0.305762 0
M  V30 40 H 1.842365 -1.876932 -1.413592 0
M  V30 41 H 2.363499 -2.799554 1.410991 0
M  V30 42 H 1.458072 -3.542995 0.065944 0
M  V30 43 H -1.852395 -3.988865 0.574191 0
M  V30 44 H -3.850908 -5.249013 1.799780 0
M  V30 45 H -3.668338 -4.635320 4.288182 0
M  V30 END ATOM
M  V30 BEGIN BOND
M  V30 1 2 1 2
M  V30 2 1 2 3
M  V30 3 2 3 4
M  V30 4 1 4 5
M  V30 5 1 5 6
M  V30 6 1 6 7
M  V30 7 1 7 8
M  V30 8 1 8 9
M  V30 9 1 9 10
M  V30 10 1 10 11
M  V30 11 2 11 12
M  V30 12 1 12 13
M  V30 13 2 13 14
M  V30 14 1 14 15
M  V30 15 1 14 16
M  V30 16 2 16 17
M  V30 17 1 9 18
M  V30 18 1 9 19
M  V30 19 1 19 20
M  V30 20 2 5 21
M  V30 21 1 4 22
M  V30 22 2 22 23
M  V30 23 1 23 24
M  V30 24 1 21 1
M  V30 25 1 24 3
M  V30 26 1 20 6
M  V30 27 1 17 11
M  V30 28 1 1 25
M  V30 29 1 7 26
M  V30 30 1 7 27
M  V30 31 1 8 28
M  V30 32 1 8 29
M  V30 33 1 10 30
M  V30 34 1 10 31
M  V30 35 1 12 32
M  V30 36 1 13 33
M  V30 37 1 16 34
M  V30 38 1 17 35
M  V30 39 1 18 36
M  V30 40 1 18 37
M  V30 41 1 18 38
M  V30 42 1 19 39
M  V30 43 1 19 40
M  V30 44 1 20 41
M  V30 45 1 20 42
M  V30 46 1 22 43
M  V30 47 1 23 44
M  V30 48 1 24 45
M  V30 END BOND
M  V30 END CTAB
M  END
>  <Dataset>  (213) 
PDB

>  <Ligand_Instance>  (213) 
2VO7_M05_A_1352

>  <PDB_ID>  (213) 
2VO7

>  <Standardized_SMILES>  (213) 
[H]C1=NC2=C(C(N3C([H])([H])C([H])([H])C(C([H])([H])C4=C([H])C([H])=C(Cl)C([H])=C4[H])([N+]([H])([H])[H])C([H])([H])C3([H])[H])=N1)C([H])=C([H])N2[H]

>  <Name>  (213) 
4-(4-chlorobenzyl)-1-(7H-pyrrolo[2,3-d]pyrimidin-4-yl)piperidin-4-aminium

>  <Pocket>  (213) 
A

>  <ATP_Site>  (213) 
1.0

>  <Peripheral>  (213) 
1.0

>  <Num_H_Atoms_ProtBoundConf>  (213) 
21.0

>  <Num_Resolved_Atoms>  (213) 
24.0

>  <Num_Not_Resolved_Atoms>  (213) 
0.0

$$$$
M77
     RDKit          3D

  0  0  0  0  0  0  0  0  0  0999 V3000
M  V30 BEGIN CTAB
M  V30 COUNTS 38 40 0 0 0
M  V30 BEGIN ATOM
M  V30 1 C -2.091233 -1.594385 2.906302 0
M  V30 2 N -1.680960 -2.182747 4.052633 0
M  V30 3 C -0.515018 -2.873413 4.068147 0
M  V30 4 C 0.308292 -3.018951 2.949866 0
M  V30 5 C 1.477432 -3.728316 2.977587 0
M  V30 6 C 2.226080 -3.832341 1.825455 0
M  V30 7 C 1.734822 -3.202489 0.708487 0
M  V30 8 C 0.564073 -2.469575 0.608116 0
M  V30 9 S 0.153480 -1.711980 -0.909636 0
M  V30 10 O 1.120955 -2.188711 -1.956254 0
M  V30 11 O -1.213305 -2.211529 -1.356205 0
M  V30 12 N 0.221570 -0.043553 -0.754317 0
M  V30 13 C -0.956161 0.717369 -0.907329 0
M  V30 14 C -1.082648 1.570010 0.352111 0
M  V30 15 C -0.538303 2.937253 0.007692 0
M  V30 16 N 0.781616 2.910681 -0.541566 0 CHG=1 VAL=4
M  V30 17 C 1.606094 1.818971 -0.110650 0
M  V30 18 C 1.458747 0.591858 -1.016364 0
M  V30 19 C -0.119637 -2.417616 1.797989 0
M  V30 20 C -1.299136 -1.726569 1.804330 0
M  V30 21 H -3.021231 -1.072583 2.989308 0
M  V30 22 H -0.125285 -3.374636 4.965651 0
M  V30 23 H 1.804015 -4.198167 3.892934 0
M  V30 24 H 3.142572 -4.382001 1.823371 0
M  V30 25 H 2.368160 -3.315768 -0.181551 0
M  V30 26 H -0.940805 1.393619 -1.811666 0
M  V30 27 H -1.838858 0.072782 -1.071266 0
M  V30 28 H -2.128197 1.691131 0.673260 0
M  V30 29 H -0.525334 1.156236 1.201014 0
M  V30 30 H -0.670020 3.656138 0.820389 0
M  V30 31 H -1.207644 3.306794 -0.823964 0
M  V30 32 H 0.772037 2.858704 -1.603737 0
M  V30 33 H 1.252393 3.816104 -0.240274 0
M  V30 34 H 1.477504 1.565846 0.953541 0
M  V30 35 H 2.673483 2.139389 -0.233128 0
M  V30 36 H 1.670633 0.892209 -2.040332 0
M  V30 37 H 2.266702 -0.105228 -0.649383 0
M  V30 38 H -1.652164 -1.265669 0.911621 0
M  V30 END ATOM
M  V30 BEGIN BOND
M  V30 1 2 1 2
M  V30 2 1 2 3
M  V30 3 2 3 4
M  V30 4 1 4 5
M  V30 5 2 5 6
M  V30 6 1 6 7
M  V30 7 2 7 8
M  V30 8 1 8 9
M  V30 9 2 9 10
M  V30 10 2 9 11
M  V30 11 1 9 12
M  V30 12 1 12 13
M  V30 13 1 13 14
M  V30 14 1 14 15
M  V30 15 1 15 16
M  V30 16 1 16 17
M  V30 17 1 17 18
M  V30 18 1 8 19
M  V30 19 2 19 20
M  V30 20 1 20 1
M  V30 21 1 19 4
M  V30 22 1 18 12
M  V30 23 1 1 21
M  V30 24 1 3 22
M  V30 25 1 5 23
M  V30 26 1 6 24
M  V30 27 1 7 25
M  V30 28 1 13 26
M  V30 29 1 13 27
M  V30 30 1 14 28
M  V30 31 1 14 29
M  V30 32 1 15 30
M  V30 33 1 15 31
M  V30 34 1 16 32
M  V30 35 1 16 33
M  V30 36 1 17 34
M  V30 37 1 17 35
M  V30 38 1 18 36
M  V30 39 1 18 37
M  V30 40 1 20 38
M  V30 END BOND
M  V30 END CTAB
M  END
>  <Dataset>  (214) 
PDB

>  <Ligand_Instance>  (214) 
2GNI_M77_A_601

>  <PDB_ID>  (214) 
2GNI

>  <Standardized_SMILES>  (214) 
[H]C1=NC([H])=C2C([H])=C([H])C([H])=C(S(=O)(=O)N3C([H])([H])C([H])([H])C([H])([H])[N+]([H])([H])C([H])([H])C3([H])[H])C2=C1[H]

>  <Name>  (214) 
5-(1,4-DIAZEPAN-1-SULFONYL)ISOQUINOLINE

>  <Pocket>  (214) 
A

>  <ATP_Site>  (214) 
1.0

>  <Peripheral>  (214) 
0.0

>  <Num_H_Atoms_ProtBoundConf>  (214) 
18.0

>  <Num_Resolved_Atoms>  (214) 
20.0

>  <Num_Not_Resolved_Atoms>  (214) 
0.0

$$$$
M77
     RDKit          3D

  0  0  0  0  0  0  0  0  0  0999 V3000
M  V30 BEGIN CTAB
M  V30 COUNTS 38 40 0 0 0
M  V30 BEGIN ATOM
M  V30 1 C -2.091233 -1.594385 2.906302 0
M  V30 2 N -1.680960 -2.182747 4.052633 0
M  V30 3 C -0.515018 -2.873413 4.068147 0
M  V30 4 C 0.308292 -3.018951 2.949866 0
M  V30 5 C 1.477432 -3.728316 2.977587 0
M  V30 6 C 2.226080 -3.832341 1.825455 0
M  V30 7 C 1.734822 -3.202489 0.708487 0
M  V30 8 C 0.564073 -2.469575 0.608116 0
M  V30 9 S 0.153480 -1.711980 -0.909636 0
M  V30 10 O 1.120955 -2.188711 -1.956254 0
M  V30 11 O -1.213305 -2.211529 -1.356205 0
M  V30 12 N 0.221570 -0.043553 -0.754317 0
M  V30 13 C -0.956161 0.717369 -0.907329 0
M  V30 14 C -1.082648 1.570010 0.352111 0
M  V30 15 C -0.538303 2.937253 0.007692 0
M  V30 16 N 0.781616 2.910681 -0.541566 0 CHG=1 VAL=4
M  V30 17 C 1.606094 1.818971 -0.110650 0
M  V30 18 C 1.458747 0.591858 -1.016364 0
M  V30 19 C -0.119637 -2.417616 1.797989 0
M  V30 20 C -1.299136 -1.726569 1.804330 0
M  V30 21 H -3.021231 -1.072583 2.989308 0
M  V30 22 H -0.125285 -3.374636 4.965651 0
M  V30 23 H 1.804015 -4.198167 3.892934 0
M  V30 24 H 3.142572 -4.382001 1.823371 0
M  V30 25 H 2.368160 -3.315768 -0.181551 0
M  V30 26 H -0.940805 1.393619 -1.811666 0
M  V30 27 H -1.838858 0.072782 -1.071266 0
M  V30 28 H -2.128197 1.691131 0.673260 0
M  V30 29 H -0.525334 1.156236 1.201014 0
M  V30 30 H -0.670020 3.656138 0.820389 0
M  V30 31 H -1.207644 3.306794 -0.823964 0
M  V30 32 H 0.772037 2.858704 -1.603737 0
M  V30 33 H 1.252393 3.816104 -0.240274 0
M  V30 34 H 1.477504 1.565846 0.953541 0
M  V30 35 H 2.673483 2.139389 -0.233128 0
M  V30 36 H 1.670633 0.892209 -2.040332 0
M  V30 37 H 2.266702 -0.105228 -0.649383 0
M  V30 38 H -1.652164 -1.265669 0.911621 0
M  V30 END ATOM
M  V30 BEGIN BOND
M  V30 1 2 1 2
M  V30 2 1 2 3
M  V30 3 2 3 4
M  V30 4 1 4 5
M  V30 5 2 5 6
M  V30 6 1 6 7
M  V30 7 2 7 8
M  V30 8 1 8 9
M  V30 9 2 9 10
M  V30 10 2 9 11
M  V30 11 1 9 12
M  V30 12 1 12 13
M  V30 13 1 13 14
M  V30 14 1 14 15
M  V30 15 1 15 16
M  V30 16 1 16 17
M  V30 17 1 17 18
M  V30 18 1 8 19
M  V30 19 2 19 20
M  V30 20 1 20 1
M  V30 21 1 19 4
M  V30 22 1 18 12
M  V30 23 1 1 21
M  V30 24 1 3 22
M  V30 25 1 5 23
M  V30 26 1 6 24
M  V30 27 1 7 25
M  V30 28 1 13 26
M  V30 29 1 13 27
M  V30 30 1 14 28
M  V30 31 1 14 29
M  V30 32 1 15 30
M  V30 33 1 15 31
M  V30 34 1 16 32
M  V30 35 1 16 33
M  V30 36 1 17 34
M  V30 37 1 17 35
M  V30 38 1 18 36
M  V30 39 1 18 37
M  V30 40 1 20 38
M  V30 END BOND
M  V30 END CTAB
M  END
>  <Dataset>  (215) 
PDB

>  <Ligand_Instance>  (215) 
5LCP_M77_A_401

>  <PDB_ID>  (215) 
5LCP

>  <Standardized_SMILES>  (215) 
[H]C1=NC([H])=C2C([H])=C([H])C([H])=C(S(=O)(=O)N3C([H])([H])C([H])([H])C([H])([H])[N+]([H])([H])C([H])([H])C3([H])[H])C2=C1[H]

>  <Name>  (215) 
5-(1,4-DIAZEPAN-1-SULFONYL)ISOQUINOLINE

>  <Pocket>  (215) 
A

>  <ATP_Site>  (215) 
1.0

>  <Peripheral>  (215) 
0.0

>  <Num_H_Atoms_ProtBoundConf>  (215) 
18.0

>  <Num_Resolved_Atoms>  (215) 
20.0

>  <Num_Not_Resolved_Atoms>  (215) 
0.0

$$$$
M77
     RDKit          3D

  0  0  0  0  0  0  0  0  0  0999 V3000
M  V30 BEGIN CTAB
M  V30 COUNTS 38 40 0 0 0
M  V30 BEGIN ATOM
M  V30 1 C -2.091233 -1.594385 2.906302 0
M  V30 2 N -1.680960 -2.182747 4.052633 0
M  V30 3 C -0.515018 -2.873413 4.068147 0
M  V30 4 C 0.308292 -3.018951 2.949866 0
M  V30 5 C 1.477432 -3.728316 2.977587 0
M  V30 6 C 2.226080 -3.832341 1.825455 0
M  V30 7 C 1.734822 -3.202489 0.708487 0
M  V30 8 C 0.564073 -2.469575 0.608116 0
M  V30 9 S 0.153480 -1.711980 -0.909636 0
M  V30 10 O 1.120955 -2.188711 -1.956254 0
M  V30 11 O -1.213305 -2.211529 -1.356205 0
M  V30 12 N 0.221570 -0.043553 -0.754317 0
M  V30 13 C -0.956161 0.717369 -0.907329 0
M  V30 14 C -1.082648 1.570010 0.352111 0
M  V30 15 C -0.538303 2.937253 0.007692 0
M  V30 16 N 0.781616 2.910681 -0.541566 0 CHG=1 VAL=4
M  V30 17 C 1.606094 1.818971 -0.110650 0
M  V30 18 C 1.458747 0.591858 -1.016364 0
M  V30 19 C -0.119637 -2.417616 1.797989 0
M  V30 20 C -1.299136 -1.726569 1.804330 0
M  V30 21 H -3.021231 -1.072583 2.989308 0
M  V30 22 H -0.125285 -3.374636 4.965651 0
M  V30 23 H 1.804015 -4.198167 3.892934 0
M  V30 24 H 3.142572 -4.382001 1.823371 0
M  V30 25 H 2.368160 -3.315768 -0.181551 0
M  V30 26 H -0.940805 1.393619 -1.811666 0
M  V30 27 H -1.838858 0.072782 -1.071266 0
M  V30 28 H -2.128197 1.691131 0.673260 0
M  V30 29 H -0.525334 1.156236 1.201014 0
M  V30 30 H -0.670020 3.656138 0.820389 0
M  V30 31 H -1.207644 3.306794 -0.823964 0
M  V30 32 H 0.772037 2.858704 -1.603737 0
M  V30 33 H 1.252393 3.816104 -0.240274 0
M  V30 34 H 1.477504 1.565846 0.953541 0
M  V30 35 H 2.673483 2.139389 -0.233128 0
M  V30 36 H 1.670633 0.892209 -2.040332 0
M  V30 37 H 2.266702 -0.105228 -0.649383 0
M  V30 38 H -1.652164 -1.265669 0.911621 0
M  V30 END ATOM
M  V30 BEGIN BOND
M  V30 1 2 1 2
M  V30 2 1 2 3
M  V30 3 2 3 4
M  V30 4 1 4 5
M  V30 5 2 5 6
M  V30 6 1 6 7
M  V30 7 2 7 8
M  V30 8 1 8 9
M  V30 9 2 9 10
M  V30 10 2 9 11
M  V30 11 1 9 12
M  V30 12 1 12 13
M  V30 13 1 13 14
M  V30 14 1 14 15
M  V30 15 1 15 16
M  V30 16 1 16 17
M  V30 17 1 17 18
M  V30 18 1 8 19
M  V30 19 2 19 20
M  V30 20 1 20 1
M  V30 21 1 19 4
M  V30 22 1 18 12
M  V30 23 1 1 21
M  V30 24 1 3 22
M  V30 25 1 5 23
M  V30 26 1 6 24
M  V30 27 1 7 25
M  V30 28 1 13 26
M  V30 29 1 13 27
M  V30 30 1 14 28
M  V30 31 1 14 29
M  V30 32 1 15 30
M  V30 33 1 15 31
M  V30 34 1 16 32
M  V30 35 1 16 33
M  V30 36 1 17 34
M  V30 37 1 17 35
M  V30 38 1 18 36
M  V30 39 1 18 37
M  V30 40 1 20 38
M  V30 END BOND
M  V30 END CTAB
M  END
>  <Dataset>  (216) 
PDB

>  <Ligand_Instance>  (216) 
5NW8_M77_A_402

>  <PDB_ID>  (216) 
5NW8

>  <Standardized_SMILES>  (216) 
[H]C1=NC([H])=C2C([H])=C([H])C([H])=C(S(=O)(=O)N3C([H])([H])C([H])([H])C([H])([H])[N+]([H])([H])C([H])([H])C3([H])[H])C2=C1[H]

>  <Name>  (216) 
5-(1,4-DIAZEPAN-1-SULFONYL)ISOQUINOLINE

>  <Pocket>  (216) 
A

>  <ATP_Site>  (216) 
1.0

>  <Peripheral>  (216) 
0.0

>  <Num_H_Atoms_ProtBoundConf>  (216) 
18.0

>  <Num_Resolved_Atoms>  (216) 
20.0

>  <Num_Not_Resolved_Atoms>  (216) 
0.0

$$$$
M77
     RDKit          3D

  0  0  0  0  0  0  0  0  0  0999 V3000
M  V30 BEGIN CTAB
M  V30 COUNTS 38 40 0 0 0
M  V30 BEGIN ATOM
M  V30 1 C -2.091233 -1.594385 2.906302 0
M  V30 2 N -1.680960 -2.182747 4.052633 0
M  V30 3 C -0.515018 -2.873413 4.068147 0
M  V30 4 C 0.308292 -3.018951 2.949866 0
M  V30 5 C 1.477432 -3.728316 2.977587 0
M  V30 6 C 2.226080 -3.832341 1.825455 0
M  V30 7 C 1.734822 -3.202489 0.708487 0
M  V30 8 C 0.564073 -2.469575 0.608116 0
M  V30 9 S 0.153480 -1.711980 -0.909636 0
M  V30 10 O 1.120955 -2.188711 -1.956254 0
M  V30 11 O -1.213305 -2.211529 -1.356205 0
M  V30 12 N 0.221570 -0.043553 -0.754317 0
M  V30 13 C -0.956161 0.717369 -0.907329 0
M  V30 14 C -1.082648 1.570010 0.352111 0
M  V30 15 C -0.538303 2.937253 0.007692 0
M  V30 16 N 0.781616 2.910681 -0.541566 0 CHG=1 VAL=4
M  V30 17 C 1.606094 1.818971 -0.110650 0
M  V30 18 C 1.458747 0.591858 -1.016364 0
M  V30 19 C -0.119637 -2.417616 1.797989 0
M  V30 20 C -1.299136 -1.726569 1.804330 0
M  V30 21 H -3.021231 -1.072583 2.989308 0
M  V30 22 H -0.125285 -3.374636 4.965651 0
M  V30 23 H 1.804015 -4.198167 3.892934 0
M  V30 24 H 3.142572 -4.382001 1.823371 0
M  V30 25 H 2.368160 -3.315768 -0.181551 0
M  V30 26 H -0.940805 1.393619 -1.811666 0
M  V30 27 H -1.838858 0.072782 -1.071266 0
M  V30 28 H -2.128197 1.691131 0.673260 0
M  V30 29 H -0.525334 1.156236 1.201014 0
M  V30 30 H -0.670020 3.656138 0.820389 0
M  V30 31 H -1.207644 3.306794 -0.823964 0
M  V30 32 H 0.772037 2.858704 -1.603737 0
M  V30 33 H 1.252393 3.816104 -0.240274 0
M  V30 34 H 1.477504 1.565846 0.953541 0
M  V30 35 H 2.673483 2.139389 -0.233128 0
M  V30 36 H 1.670633 0.892209 -2.040332 0
M  V30 37 H 2.266702 -0.105228 -0.649383 0
M  V30 38 H -1.652164 -1.265669 0.911621 0
M  V30 END ATOM
M  V30 BEGIN BOND
M  V30 1 2 1 2
M  V30 2 1 2 3
M  V30 3 2 3 4
M  V30 4 1 4 5
M  V30 5 2 5 6
M  V30 6 1 6 7
M  V30 7 2 7 8
M  V30 8 1 8 9
M  V30 9 2 9 10
M  V30 10 2 9 11
M  V30 11 1 9 12
M  V30 12 1 12 13
M  V30 13 1 13 14
M  V30 14 1 14 15
M  V30 15 1 15 16
M  V30 16 1 16 17
M  V30 17 1 17 18
M  V30 18 1 8 19
M  V30 19 2 19 20
M  V30 20 1 20 1
M  V30 21 1 19 4
M  V30 22 1 18 12
M  V30 23 1 1 21
M  V30 24 1 3 22
M  V30 25 1 5 23
M  V30 26 1 6 24
M  V30 27 1 7 25
M  V30 28 1 13 26
M  V30 29 1 13 27
M  V30 30 1 14 28
M  V30 31 1 14 29
M  V30 32 1 15 30
M  V30 33 1 15 31
M  V30 34 1 16 32
M  V30 35 1 16 33
M  V30 36 1 17 34
M  V30 37 1 17 35
M  V30 38 1 18 36
M  V30 39 1 18 37
M  V30 40 1 20 38
M  V30 END BOND
M  V30 END CTAB
M  END
>  <Dataset>  (217) 
PDB

>  <Ligand_Instance>  (217) 
5O0E_M77_A_401

>  <PDB_ID>  (217) 
5O0E

>  <Standardized_SMILES>  (217) 
[H]C1=NC([H])=C2C([H])=C([H])C([H])=C(S(=O)(=O)N3C([H])([H])C([H])([H])C([H])([H])[N+]([H])([H])C([H])([H])C3([H])[H])C2=C1[H]

>  <Name>  (217) 
5-(1,4-DIAZEPAN-1-SULFONYL)ISOQUINOLINE

>  <Pocket>  (217) 
A

>  <ATP_Site>  (217) 
1.0

>  <Peripheral>  (217) 
0.0

>  <Num_H_Atoms_ProtBoundConf>  (217) 
18.0

>  <Num_Resolved_Atoms>  (217) 
20.0

>  <Num_Not_Resolved_Atoms>  (217) 
0.0

$$$$
M77
     RDKit          3D

  0  0  0  0  0  0  0  0  0  0999 V3000
M  V30 BEGIN CTAB
M  V30 COUNTS 38 40 0 0 0
M  V30 BEGIN ATOM
M  V30 1 C -2.091233 -1.594385 2.906302 0
M  V30 2 N -1.680960 -2.182747 4.052633 0
M  V30 3 C -0.515018 -2.873413 4.068147 0
M  V30 4 C 0.308292 -3.018951 2.949866 0
M  V30 5 C 1.477432 -3.728316 2.977587 0
M  V30 6 C 2.226080 -3.832341 1.825455 0
M  V30 7 C 1.734822 -3.202489 0.708487 0
M  V30 8 C 0.564073 -2.469575 0.608116 0
M  V30 9 S 0.153480 -1.711980 -0.909636 0
M  V30 10 O 1.120955 -2.188711 -1.956254 0
M  V30 11 O -1.213305 -2.211529 -1.356205 0
M  V30 12 N 0.221570 -0.043553 -0.754317 0
M  V30 13 C -0.956161 0.717369 -0.907329 0
M  V30 14 C -1.082648 1.570010 0.352111 0
M  V30 15 C -0.538303 2.937253 0.007692 0
M  V30 16 N 0.781616 2.910681 -0.541566 0 CHG=1 VAL=4
M  V30 17 C 1.606094 1.818971 -0.110650 0
M  V30 18 C 1.458747 0.591858 -1.016364 0
M  V30 19 C -0.119637 -2.417616 1.797989 0
M  V30 20 C -1.299136 -1.726569 1.804330 0
M  V30 21 H -3.021231 -1.072583 2.989308 0
M  V30 22 H -0.125285 -3.374636 4.965651 0
M  V30 23 H 1.804015 -4.198167 3.892934 0
M  V30 24 H 3.142572 -4.382001 1.823371 0
M  V30 25 H 2.368160 -3.315768 -0.181551 0
M  V30 26 H -0.940805 1.393619 -1.811666 0
M  V30 27 H -1.838858 0.072782 -1.071266 0
M  V30 28 H -2.128197 1.691131 0.673260 0
M  V30 29 H -0.525334 1.156236 1.201014 0
M  V30 30 H -0.670020 3.656138 0.820389 0
M  V30 31 H -1.207644 3.306794 -0.823964 0
M  V30 32 H 0.772037 2.858704 -1.603737 0
M  V30 33 H 1.252393 3.816104 -0.240274 0
M  V30 34 H 1.477504 1.565846 0.953541 0
M  V30 35 H 2.673483 2.139389 -0.233128 0
M  V30 36 H 1.670633 0.892209 -2.040332 0
M  V30 37 H 2.266702 -0.105228 -0.649383 0
M  V30 38 H -1.652164 -1.265669 0.911621 0
M  V30 END ATOM
M  V30 BEGIN BOND
M  V30 1 2 1 2
M  V30 2 1 2 3
M  V30 3 2 3 4
M  V30 4 1 4 5
M  V30 5 2 5 6
M  V30 6 1 6 7
M  V30 7 2 7 8
M  V30 8 1 8 9
M  V30 9 2 9 10
M  V30 10 2 9 11
M  V30 11 1 9 12
M  V30 12 1 12 13
M  V30 13 1 13 14
M  V30 14 1 14 15
M  V30 15 1 15 16
M  V30 16 1 16 17
M  V30 17 1 17 18
M  V30 18 1 8 19
M  V30 19 2 19 20
M  V30 20 1 20 1
M  V30 21 1 19 4
M  V30 22 1 18 12
M  V30 23 1 1 21
M  V30 24 1 3 22
M  V30 25 1 5 23
M  V30 26 1 6 24
M  V30 27 1 7 25
M  V30 28 1 13 26
M  V30 29 1 13 27
M  V30 30 1 14 28
M  V30 31 1 14 29
M  V30 32 1 15 30
M  V30 33 1 15 31
M  V30 34 1 16 32
M  V30 35 1 16 33
M  V30 36 1 17 34
M  V30 37 1 17 35
M  V30 38 1 18 36
M  V30 39 1 18 37
M  V30 40 1 20 38
M  V30 END BOND
M  V30 END CTAB
M  END
>  <Dataset>  (218) 
PDB

>  <Ligand_Instance>  (218) 
5OK3_M77_A_401

>  <PDB_ID>  (218) 
5OK3

>  <Standardized_SMILES>  (218) 
[H]C1=NC([H])=C2C([H])=C([H])C([H])=C(S(=O)(=O)N3C([H])([H])C([H])([H])C([H])([H])[N+]([H])([H])C([H])([H])C3([H])[H])C2=C1[H]

>  <Name>  (218) 
5-(1,4-DIAZEPAN-1-SULFONYL)ISOQUINOLINE

>  <Pocket>  (218) 
A

>  <ATP_Site>  (218) 
1.0

>  <Peripheral>  (218) 
0.0

>  <Num_H_Atoms_ProtBoundConf>  (218) 
18.0

>  <Num_Resolved_Atoms>  (218) 
20.0

>  <Num_Not_Resolved_Atoms>  (218) 
0.0

$$$$
M77
     RDKit          3D

  0  0  0  0  0  0  0  0  0  0999 V3000
M  V30 BEGIN CTAB
M  V30 COUNTS 38 40 0 0 0
M  V30 BEGIN ATOM
M  V30 1 C -2.091233 -1.594385 2.906302 0
M  V30 2 N -1.680960 -2.182747 4.052633 0
M  V30 3 C -0.515018 -2.873413 4.068147 0
M  V30 4 C 0.308292 -3.018951 2.949866 0
M  V30 5 C 1.477432 -3.728316 2.977587 0
M  V30 6 C 2.226080 -3.832341 1.825455 0
M  V30 7 C 1.734822 -3.202489 0.708487 0
M  V30 8 C 0.564073 -2.469575 0.608116 0
M  V30 9 S 0.153480 -1.711980 -0.909636 0
M  V30 10 O 1.120955 -2.188711 -1.956254 0
M  V30 11 O -1.213305 -2.211529 -1.356205 0
M  V30 12 N 0.221570 -0.043553 -0.754317 0
M  V30 13 C -0.956161 0.717369 -0.907329 0
M  V30 14 C -1.082648 1.570010 0.352111 0
M  V30 15 C -0.538303 2.937253 0.007692 0
M  V30 16 N 0.781616 2.910681 -0.541566 0 CHG=1 VAL=4
M  V30 17 C 1.606094 1.818971 -0.110650 0
M  V30 18 C 1.458747 0.591858 -1.016364 0
M  V30 19 C -0.119637 -2.417616 1.797989 0
M  V30 20 C -1.299136 -1.726569 1.804330 0
M  V30 21 H -3.021231 -1.072583 2.989308 0
M  V30 22 H -0.125285 -3.374636 4.965651 0
M  V30 23 H 1.804015 -4.198167 3.892934 0
M  V30 24 H 3.142572 -4.382001 1.823371 0
M  V30 25 H 2.368160 -3.315768 -0.181551 0
M  V30 26 H -0.940805 1.393619 -1.811666 0
M  V30 27 H -1.838858 0.072782 -1.071266 0
M  V30 28 H -2.128197 1.691131 0.673260 0
M  V30 29 H -0.525334 1.156236 1.201014 0
M  V30 30 H -0.670020 3.656138 0.820389 0
M  V30 31 H -1.207644 3.306794 -0.823964 0
M  V30 32 H 0.772037 2.858704 -1.603737 0
M  V30 33 H 1.252393 3.816104 -0.240274 0
M  V30 34 H 1.477504 1.565846 0.953541 0
M  V30 35 H 2.673483 2.139389 -0.233128 0
M  V30 36 H 1.670633 0.892209 -2.040332 0
M  V30 37 H 2.266702 -0.105228 -0.649383 0
M  V30 38 H -1.652164 -1.265669 0.911621 0
M  V30 END ATOM
M  V30 BEGIN BOND
M  V30 1 2 1 2
M  V30 2 1 2 3
M  V30 3 2 3 4
M  V30 4 1 4 5
M  V30 5 2 5 6
M  V30 6 1 6 7
M  V30 7 2 7 8
M  V30 8 1 8 9
M  V30 9 2 9 10
M  V30 10 2 9 11
M  V30 11 1 9 12
M  V30 12 1 12 13
M  V30 13 1 13 14
M  V30 14 1 14 15
M  V30 15 1 15 16
M  V30 16 1 16 17
M  V30 17 1 17 18
M  V30 18 1 8 19
M  V30 19 2 19 20
M  V30 20 1 20 1
M  V30 21 1 19 4
M  V30 22 1 18 12
M  V30 23 1 1 21
M  V30 24 1 3 22
M  V30 25 1 5 23
M  V30 26 1 6 24
M  V30 27 1 7 25
M  V30 28 1 13 26
M  V30 29 1 13 27
M  V30 30 1 14 28
M  V30 31 1 14 29
M  V30 32 1 15 30
M  V30 33 1 15 31
M  V30 34 1 16 32
M  V30 35 1 16 33
M  V30 36 1 17 34
M  V30 37 1 17 35
M  V30 38 1 18 36
M  V30 39 1 18 37
M  V30 40 1 20 38
M  V30 END BOND
M  V30 END CTAB
M  END
>  <Dataset>  (219) 
PDB

>  <Ligand_Instance>  (219) 
6EM2_M77_A_401

>  <PDB_ID>  (219) 
6EM2

>  <Standardized_SMILES>  (219) 
[H]C1=NC([H])=C2C([H])=C([H])C([H])=C(S(=O)(=O)N3C([H])([H])C([H])([H])C([H])([H])[N+]([H])([H])C([H])([H])C3([H])[H])C2=C1[H]

>  <Name>  (219) 
5-(1,4-DIAZEPAN-1-SULFONYL)ISOQUINOLINE

>  <Pocket>  (219) 
A

>  <ATP_Site>  (219) 
1.0

>  <Peripheral>  (219) 
0.0

>  <Num_H_Atoms_ProtBoundConf>  (219) 
18.0

>  <Num_Resolved_Atoms>  (219) 
20.0

>  <Num_Not_Resolved_Atoms>  (219) 
0.0

$$$$
M77
     RDKit          3D

  0  0  0  0  0  0  0  0  0  0999 V3000
M  V30 BEGIN CTAB
M  V30 COUNTS 38 40 0 0 0
M  V30 BEGIN ATOM
M  V30 1 C -2.091233 -1.594385 2.906302 0
M  V30 2 N -1.680960 -2.182747 4.052633 0
M  V30 3 C -0.515018 -2.873413 4.068147 0
M  V30 4 C 0.308292 -3.018951 2.949866 0
M  V30 5 C 1.477432 -3.728316 2.977587 0
M  V30 6 C 2.226080 -3.832341 1.825455 0
M  V30 7 C 1.734822 -3.202489 0.708487 0
M  V30 8 C 0.564073 -2.469575 0.608116 0
M  V30 9 S 0.153480 -1.711980 -0.909636 0
M  V30 10 O 1.120955 -2.188711 -1.956254 0
M  V30 11 O -1.213305 -2.211529 -1.356205 0
M  V30 12 N 0.221570 -0.043553 -0.754317 0
M  V30 13 C -0.956161 0.717369 -0.907329 0
M  V30 14 C -1.082648 1.570010 0.352111 0
M  V30 15 C -0.538303 2.937253 0.007692 0
M  V30 16 N 0.781616 2.910681 -0.541566 0 CHG=1 VAL=4
M  V30 17 C 1.606094 1.818971 -0.110650 0
M  V30 18 C 1.458747 0.591858 -1.016364 0
M  V30 19 C -0.119637 -2.417616 1.797989 0
M  V30 20 C -1.299136 -1.726569 1.804330 0
M  V30 21 H -3.021231 -1.072583 2.989308 0
M  V30 22 H -0.125285 -3.374636 4.965651 0
M  V30 23 H 1.804015 -4.198167 3.892934 0
M  V30 24 H 3.142572 -4.382001 1.823371 0
M  V30 25 H 2.368160 -3.315768 -0.181551 0
M  V30 26 H -0.940805 1.393619 -1.811666 0
M  V30 27 H -1.838858 0.072782 -1.071266 0
M  V30 28 H -2.128197 1.691131 0.673260 0
M  V30 29 H -0.525334 1.156236 1.201014 0
M  V30 30 H -0.670020 3.656138 0.820389 0
M  V30 31 H -1.207644 3.306794 -0.823964 0
M  V30 32 H 0.772037 2.858704 -1.603737 0
M  V30 33 H 1.252393 3.816104 -0.240274 0
M  V30 34 H 1.477504 1.565846 0.953541 0
M  V30 35 H 2.673483 2.139389 -0.233128 0
M  V30 36 H 1.670633 0.892209 -2.040332 0
M  V30 37 H 2.266702 -0.105228 -0.649383 0
M  V30 38 H -1.652164 -1.265669 0.911621 0
M  V30 END ATOM
M  V30 BEGIN BOND
M  V30 1 2 1 2
M  V30 2 1 2 3
M  V30 3 2 3 4
M  V30 4 1 4 5
M  V30 5 2 5 6
M  V30 6 1 6 7
M  V30 7 2 7 8
M  V30 8 1 8 9
M  V30 9 2 9 10
M  V30 10 2 9 11
M  V30 11 1 9 12
M  V30 12 1 12 13
M  V30 13 1 13 14
M  V30 14 1 14 15
M  V30 15 1 15 16
M  V30 16 1 16 17
M  V30 17 1 17 18
M  V30 18 1 8 19
M  V30 19 2 19 20
M  V30 20 1 20 1
M  V30 21 1 19 4
M  V30 22 1 18 12
M  V30 23 1 1 21
M  V30 24 1 3 22
M  V30 25 1 5 23
M  V30 26 1 6 24
M  V30 27 1 7 25
M  V30 28 1 13 26
M  V30 29 1 13 27
M  V30 30 1 14 28
M  V30 31 1 14 29
M  V30 32 1 15 30
M  V30 33 1 15 31
M  V30 34 1 16 32
M  V30 35 1 16 33
M  V30 36 1 17 34
M  V30 37 1 17 35
M  V30 38 1 18 36
M  V30 39 1 18 37
M  V30 40 1 20 38
M  V30 END BOND
M  V30 END CTAB
M  END
>  <Dataset>  (220) 
PDB

>  <Ligand_Instance>  (220) 
6ERW_M77_A_401

>  <PDB_ID>  (220) 
6ERW

>  <Standardized_SMILES>  (220) 
[H]C1=NC([H])=C2C([H])=C([H])C([H])=C(S(=O)(=O)N3C([H])([H])C([H])([H])C([H])([H])[N+]([H])([H])C([H])([H])C3([H])[H])C2=C1[H]

>  <Name>  (220) 
5-(1,4-DIAZEPAN-1-SULFONYL)ISOQUINOLINE

>  <Pocket>  (220) 
A

>  <ATP_Site>  (220) 
1.0

>  <Peripheral>  (220) 
0.0

>  <Num_H_Atoms_ProtBoundConf>  (220) 
18.0

>  <Num_Resolved_Atoms>  (220) 
20.0

>  <Num_Not_Resolved_Atoms>  (220) 
0.0

$$$$
M77
     RDKit          3D

  0  0  0  0  0  0  0  0  0  0999 V3000
M  V30 BEGIN CTAB
M  V30 COUNTS 38 40 0 0 0
M  V30 BEGIN ATOM
M  V30 1 C -2.091233 -1.594385 2.906302 0
M  V30 2 N -1.680960 -2.182747 4.052633 0
M  V30 3 C -0.515018 -2.873413 4.068147 0
M  V30 4 C 0.308292 -3.018951 2.949866 0
M  V30 5 C 1.477432 -3.728316 2.977587 0
M  V30 6 C 2.226080 -3.832341 1.825455 0
M  V30 7 C 1.734822 -3.202489 0.708487 0
M  V30 8 C 0.564073 -2.469575 0.608116 0
M  V30 9 S 0.153480 -1.711980 -0.909636 0
M  V30 10 O 1.120955 -2.188711 -1.956254 0
M  V30 11 O -1.213305 -2.211529 -1.356205 0
M  V30 12 N 0.221570 -0.043553 -0.754317 0
M  V30 13 C -0.956161 0.717369 -0.907329 0
M  V30 14 C -1.082648 1.570010 0.352111 0
M  V30 15 C -0.538303 2.937253 0.007692 0
M  V30 16 N 0.781616 2.910681 -0.541566 0 CHG=1 VAL=4
M  V30 17 C 1.606094 1.818971 -0.110650 0
M  V30 18 C 1.458747 0.591858 -1.016364 0
M  V30 19 C -0.119637 -2.417616 1.797989 0
M  V30 20 C -1.299136 -1.726569 1.804330 0
M  V30 21 H -3.021231 -1.072583 2.989308 0
M  V30 22 H -0.125285 -3.374636 4.965651 0
M  V30 23 H 1.804015 -4.198167 3.892934 0
M  V30 24 H 3.142572 -4.382001 1.823371 0
M  V30 25 H 2.368160 -3.315768 -0.181551 0
M  V30 26 H -0.940805 1.393619 -1.811666 0
M  V30 27 H -1.838858 0.072782 -1.071266 0
M  V30 28 H -2.128197 1.691131 0.673260 0
M  V30 29 H -0.525334 1.156236 1.201014 0
M  V30 30 H -0.670020 3.656138 0.820389 0
M  V30 31 H -1.207644 3.306794 -0.823964 0
M  V30 32 H 0.772037 2.858704 -1.603737 0
M  V30 33 H 1.252393 3.816104 -0.240274 0
M  V30 34 H 1.477504 1.565846 0.953541 0
M  V30 35 H 2.673483 2.139389 -0.233128 0
M  V30 36 H 1.670633 0.892209 -2.040332 0
M  V30 37 H 2.266702 -0.105228 -0.649383 0
M  V30 38 H -1.652164 -1.265669 0.911621 0
M  V30 END ATOM
M  V30 BEGIN BOND
M  V30 1 2 1 2
M  V30 2 1 2 3
M  V30 3 2 3 4
M  V30 4 1 4 5
M  V30 5 2 5 6
M  V30 6 1 6 7
M  V30 7 2 7 8
M  V30 8 1 8 9
M  V30 9 2 9 10
M  V30 10 2 9 11
M  V30 11 1 9 12
M  V30 12 1 12 13
M  V30 13 1 13 14
M  V30 14 1 14 15
M  V30 15 1 15 16
M  V30 16 1 16 17
M  V30 17 1 17 18
M  V30 18 1 8 19
M  V30 19 2 19 20
M  V30 20 1 20 1
M  V30 21 1 19 4
M  V30 22 1 18 12
M  V30 23 1 1 21
M  V30 24 1 3 22
M  V30 25 1 5 23
M  V30 26 1 6 24
M  V30 27 1 7 25
M  V30 28 1 13 26
M  V30 29 1 13 27
M  V30 30 1 14 28
M  V30 31 1 14 29
M  V30 32 1 15 30
M  V30 33 1 15 31
M  V30 34 1 16 32
M  V30 35 1 16 33
M  V30 36 1 17 34
M  V30 37 1 17 35
M  V30 38 1 18 36
M  V30 39 1 18 37
M  V30 40 1 20 38
M  V30 END BOND
M  V30 END CTAB
M  END
>  <Dataset>  (221) 
PDB

>  <Ligand_Instance>  (221) 
6I2A_M77_A_401

>  <PDB_ID>  (221) 
6I2A

>  <Standardized_SMILES>  (221) 
[H]C1=NC([H])=C2C([H])=C([H])C([H])=C(S(=O)(=O)N3C([H])([H])C([H])([H])C([H])([H])[N+]([H])([H])C([H])([H])C3([H])[H])C2=C1[H]

>  <Name>  (221) 
5-(1,4-DIAZEPAN-1-SULFONYL)ISOQUINOLINE

>  <Pocket>  (221) 
A

>  <ATP_Site>  (221) 
1.0

>  <Peripheral>  (221) 
0.0

>  <Num_H_Atoms_ProtBoundConf>  (221) 
18.0

>  <Num_Resolved_Atoms>  (221) 
20.0

>  <Num_Not_Resolved_Atoms>  (221) 
0.0

$$$$
M77
     RDKit          3D

  0  0  0  0  0  0  0  0  0  0999 V3000
M  V30 BEGIN CTAB
M  V30 COUNTS 38 40 0 0 0
M  V30 BEGIN ATOM
M  V30 1 C -2.091233 -1.594385 2.906302 0
M  V30 2 N -1.680960 -2.182747 4.052633 0
M  V30 3 C -0.515018 -2.873413 4.068147 0
M  V30 4 C 0.308292 -3.018951 2.949866 0
M  V30 5 C 1.477432 -3.728316 2.977587 0
M  V30 6 C 2.226080 -3.832341 1.825455 0
M  V30 7 C 1.734822 -3.202489 0.708487 0
M  V30 8 C 0.564073 -2.469575 0.608116 0
M  V30 9 S 0.153480 -1.711980 -0.909636 0
M  V30 10 O 1.120955 -2.188711 -1.956254 0
M  V30 11 O -1.213305 -2.211529 -1.356205 0
M  V30 12 N 0.221570 -0.043553 -0.754317 0
M  V30 13 C -0.956161 0.717369 -0.907329 0
M  V30 14 C -1.082648 1.570010 0.352111 0
M  V30 15 C -0.538303 2.937253 0.007692 0
M  V30 16 N 0.781616 2.910681 -0.541566 0 CHG=1 VAL=4
M  V30 17 C 1.606094 1.818971 -0.110650 0
M  V30 18 C 1.458747 0.591858 -1.016364 0
M  V30 19 C -0.119637 -2.417616 1.797989 0
M  V30 20 C -1.299136 -1.726569 1.804330 0
M  V30 21 H -3.021231 -1.072583 2.989308 0
M  V30 22 H -0.125285 -3.374636 4.965651 0
M  V30 23 H 1.804015 -4.198167 3.892934 0
M  V30 24 H 3.142572 -4.382001 1.823371 0
M  V30 25 H 2.368160 -3.315768 -0.181551 0
M  V30 26 H -0.940805 1.393619 -1.811666 0
M  V30 27 H -1.838858 0.072782 -1.071266 0
M  V30 28 H -2.128197 1.691131 0.673260 0
M  V30 29 H -0.525334 1.156236 1.201014 0
M  V30 30 H -0.670020 3.656138 0.820389 0
M  V30 31 H -1.207644 3.306794 -0.823964 0
M  V30 32 H 0.772037 2.858704 -1.603737 0
M  V30 33 H 1.252393 3.816104 -0.240274 0
M  V30 34 H 1.477504 1.565846 0.953541 0
M  V30 35 H 2.673483 2.139389 -0.233128 0
M  V30 36 H 1.670633 0.892209 -2.040332 0
M  V30 37 H 2.266702 -0.105228 -0.649383 0
M  V30 38 H -1.652164 -1.265669 0.911621 0
M  V30 END ATOM
M  V30 BEGIN BOND
M  V30 1 2 1 2
M  V30 2 1 2 3
M  V30 3 2 3 4
M  V30 4 1 4 5
M  V30 5 2 5 6
M  V30 6 1 6 7
M  V30 7 2 7 8
M  V30 8 1 8 9
M  V30 9 2 9 10
M  V30 10 2 9 11
M  V30 11 1 9 12
M  V30 12 1 12 13
M  V30 13 1 13 14
M  V30 14 1 14 15
M  V30 15 1 15 16
M  V30 16 1 16 17
M  V30 17 1 17 18
M  V30 18 1 8 19
M  V30 19 2 19 20
M  V30 20 1 20 1
M  V30 21 1 19 4
M  V30 22 1 18 12
M  V30 23 1 1 21
M  V30 24 1 3 22
M  V30 25 1 5 23
M  V30 26 1 6 24
M  V30 27 1 7 25
M  V30 28 1 13 26
M  V30 29 1 13 27
M  V30 30 1 14 28
M  V30 31 1 14 29
M  V30 32 1 15 30
M  V30 33 1 15 31
M  V30 34 1 16 32
M  V30 35 1 16 33
M  V30 36 1 17 34
M  V30 37 1 17 35
M  V30 38 1 18 36
M  V30 39 1 18 37
M  V30 40 1 20 38
M  V30 END BOND
M  V30 END CTAB
M  END
>  <Dataset>  (222) 
PDB

>  <Ligand_Instance>  (222) 
6I2C_M77_A_401

>  <PDB_ID>  (222) 
6I2C

>  <Standardized_SMILES>  (222) 
[H]C1=NC([H])=C2C([H])=C([H])C([H])=C(S(=O)(=O)N3C([H])([H])C([H])([H])C([H])([H])[N+]([H])([H])C([H])([H])C3([H])[H])C2=C1[H]

>  <Name>  (222) 
5-(1,4-DIAZEPAN-1-SULFONYL)ISOQUINOLINE

>  <Pocket>  (222) 
A

>  <ATP_Site>  (222) 
1.0

>  <Peripheral>  (222) 
0.0

>  <Num_H_Atoms_ProtBoundConf>  (222) 
18.0

>  <Num_Resolved_Atoms>  (222) 
20.0

>  <Num_Not_Resolved_Atoms>  (222) 
0.0

$$$$
M77
     RDKit          3D

  0  0  0  0  0  0  0  0  0  0999 V3000
M  V30 BEGIN CTAB
M  V30 COUNTS 38 40 0 0 0
M  V30 BEGIN ATOM
M  V30 1 C -2.091233 -1.594385 2.906302 0
M  V30 2 N -1.680960 -2.182747 4.052633 0
M  V30 3 C -0.515018 -2.873413 4.068147 0
M  V30 4 C 0.308292 -3.018951 2.949866 0
M  V30 5 C 1.477432 -3.728316 2.977587 0
M  V30 6 C 2.226080 -3.832341 1.825455 0
M  V30 7 C 1.734822 -3.202489 0.708487 0
M  V30 8 C 0.564073 -2.469575 0.608116 0
M  V30 9 S 0.153480 -1.711980 -0.909636 0
M  V30 10 O 1.120955 -2.188711 -1.956254 0
M  V30 11 O -1.213305 -2.211529 -1.356205 0
M  V30 12 N 0.221570 -0.043553 -0.754317 0
M  V30 13 C -0.956161 0.717369 -0.907329 0
M  V30 14 C -1.082648 1.570010 0.352111 0
M  V30 15 C -0.538303 2.937253 0.007692 0
M  V30 16 N 0.781616 2.910681 -0.541566 0 CHG=1 VAL=4
M  V30 17 C 1.606094 1.818971 -0.110650 0
M  V30 18 C 1.458747 0.591858 -1.016364 0
M  V30 19 C -0.119637 -2.417616 1.797989 0
M  V30 20 C -1.299136 -1.726569 1.804330 0
M  V30 21 H -3.021231 -1.072583 2.989308 0
M  V30 22 H -0.125285 -3.374636 4.965651 0
M  V30 23 H 1.804015 -4.198167 3.892934 0
M  V30 24 H 3.142572 -4.382001 1.823371 0
M  V30 25 H 2.368160 -3.315768 -0.181551 0
M  V30 26 H -0.940805 1.393619 -1.811666 0
M  V30 27 H -1.838858 0.072782 -1.071266 0
M  V30 28 H -2.128197 1.691131 0.673260 0
M  V30 29 H -0.525334 1.156236 1.201014 0
M  V30 30 H -0.670020 3.656138 0.820389 0
M  V30 31 H -1.207644 3.306794 -0.823964 0
M  V30 32 H 0.772037 2.858704 -1.603737 0
M  V30 33 H 1.252393 3.816104 -0.240274 0
M  V30 34 H 1.477504 1.565846 0.953541 0
M  V30 35 H 2.673483 2.139389 -0.233128 0
M  V30 36 H 1.670633 0.892209 -2.040332 0
M  V30 37 H 2.266702 -0.105228 -0.649383 0
M  V30 38 H -1.652164 -1.265669 0.911621 0
M  V30 END ATOM
M  V30 BEGIN BOND
M  V30 1 2 1 2
M  V30 2 1 2 3
M  V30 3 2 3 4
M  V30 4 1 4 5
M  V30 5 2 5 6
M  V30 6 1 6 7
M  V30 7 2 7 8
M  V30 8 1 8 9
M  V30 9 2 9 10
M  V30 10 2 9 11
M  V30 11 1 9 12
M  V30 12 1 12 13
M  V30 13 1 13 14
M  V30 14 1 14 15
M  V30 15 1 15 16
M  V30 16 1 16 17
M  V30 17 1 17 18
M  V30 18 1 8 19
M  V30 19 2 19 20
M  V30 20 1 20 1
M  V30 21 1 19 4
M  V30 22 1 18 12
M  V30 23 1 1 21
M  V30 24 1 3 22
M  V30 25 1 5 23
M  V30 26 1 6 24
M  V30 27 1 7 25
M  V30 28 1 13 26
M  V30 29 1 13 27
M  V30 30 1 14 28
M  V30 31 1 14 29
M  V30 32 1 15 30
M  V30 33 1 15 31
M  V30 34 1 16 32
M  V30 35 1 16 33
M  V30 36 1 17 34
M  V30 37 1 17 35
M  V30 38 1 18 36
M  V30 39 1 18 37
M  V30 40 1 20 38
M  V30 END BOND
M  V30 END CTAB
M  END
>  <Dataset>  (223) 
PDB

>  <Ligand_Instance>  (223) 
6YNA_M77_A_402

>  <PDB_ID>  (223) 
6YNA

>  <Standardized_SMILES>  (223) 
[H]C1=NC([H])=C2C([H])=C([H])C([H])=C(S(=O)(=O)N3C([H])([H])C([H])([H])C([H])([H])[N+]([H])([H])C([H])([H])C3([H])[H])C2=C1[H]

>  <Name>  (223) 
5-(1,4-DIAZEPAN-1-SULFONYL)ISOQUINOLINE

>  <Pocket>  (223) 
A

>  <ATP_Site>  (223) 
1.0

>  <Peripheral>  (223) 
0.0

>  <Num_H_Atoms_ProtBoundConf>  (223) 
18.0

>  <Num_Resolved_Atoms>  (223) 
20.0

>  <Num_Not_Resolved_Atoms>  (223) 
0.0

$$$$
NCA
     RDKit          3D

  0  0  0  0  0  0  0  0  0  0999 V3000
M  V30 BEGIN CTAB
M  V30 COUNTS 15 15 0 0 0
M  V30 BEGIN ATOM
M  V30 1 C -1.327100 -0.554178 1.331263 0
M  V30 2 N -0.510117 -1.629947 1.347181 0
M  V30 3 C 0.834099 -1.520230 1.234807 0
M  V30 4 C 1.368933 -0.256732 1.100174 0
M  V30 5 C 2.811944 -0.117485 0.977958 0
M  V30 6 O 3.549951 -1.146520 0.996544 0
M  V30 7 N 3.464813 1.121511 0.835986 0
M  V30 8 C 0.576325 0.872556 1.078421 0
M  V30 9 C -0.799178 0.730764 1.195586 0
M  V30 10 H -2.402619 -0.691949 1.424862 0
M  V30 11 H 1.511911 -2.364378 1.244450 0
M  V30 12 H 4.080309 1.317983 0.022357 0
M  V30 13 H 3.619275 2.072167 1.262427 0
M  V30 14 H 0.974802 1.873396 0.973732 0
M  V30 15 H -1.462589 1.591879 1.183573 0
M  V30 END ATOM
M  V30 BEGIN BOND
M  V30 1 2 1 2
M  V30 2 1 2 3
M  V30 3 2 3 4
M  V30 4 1 4 5
M  V30 5 2 5 6
M  V30 6 1 5 7
M  V30 7 1 4 8
M  V30 8 2 8 9
M  V30 9 1 9 1
M  V30 10 1 1 10
M  V30 11 1 3 11
M  V30 12 1 7 12
M  V30 13 1 7 13
M  V30 14 1 8 14
M  V30 15 1 9 15
M  V30 END BOND
M  V30 END CTAB
M  END
>  <Dataset>  (224) 
PDB

>  <Ligand_Instance>  (224) 
5N3H_NCA_A_401

>  <PDB_ID>  (224) 
5N3H

>  <Standardized_SMILES>  (224) 
[H]C1=NC([H])=C(C(=O)N([H])[H])C([H])=C1[H]

>  <Name>  (224) 
NICOTINAMIDE

>  <Pocket>  (224) 
A

>  <ATP_Site>  (224) 
1.0

>  <Peripheral>  (224) 
0.0

>  <Num_H_Atoms_ProtBoundConf>  (224) 
6.0

>  <Num_Resolved_Atoms>  (224) 
9.0

>  <Num_Not_Resolved_Atoms>  (224) 
0.0

$$$$
NPO
     RDKit          3D

  0  0  0  0  0  0  0  0  0  0999 V3000
M  V30 BEGIN CTAB
M  V30 COUNTS 15 15 0 0 0
M  V30 BEGIN ATOM
M  V30 1 O -1.519276 -1.024233 0.076164 0
M  V30 2 C -0.318872 -0.520363 0.534121 0
M  V30 3 C -0.365018 0.664197 1.274372 0
M  V30 4 C 0.820891 1.172837 1.733634 0
M  V30 5 C 2.029243 0.546002 1.480757 0
M  V30 6 N 3.228859 1.110572 1.976881 0 CHG=1 VAL=4
M  V30 7 O 4.325141 0.561822 1.760125 0
M  V30 8 O 3.201844 2.276114 2.707291 0 CHG=-1 VAL=1
M  V30 9 C 2.079086 -0.633429 0.744164 0
M  V30 10 C 0.893217 -1.127202 0.294272 0
M  V30 11 H -1.532905 -1.875456 -0.466344 0
M  V30 12 H -1.277180 1.185758 1.495697 0
M  V30 13 H 0.787170 2.105642 2.316878 0
M  V30 14 H 3.038849 -1.113665 0.554396 0
M  V30 15 H 0.899712 -2.029757 -0.273089 0
M  V30 END ATOM
M  V30 BEGIN BOND
M  V30 1 1 1 2
M  V30 2 2 2 3
M  V30 3 1 3 4
M  V30 4 2 4 5
M  V30 5 1 5 6
M  V30 6 2 6 7
M  V30 7 1 6 8
M  V30 8 1 5 9
M  V30 9 2 9 10
M  V30 10 1 10 2
M  V30 11 1 1 11
M  V30 12 1 3 12
M  V30 13 1 4 13
M  V30 14 1 9 14
M  V30 15 1 10 15
M  V30 END BOND
M  V30 END CTAB
M  END
>  <Dataset>  (225) 
PDB

>  <Ligand_Instance>  (225) 
6Z08_NPO_A_401

>  <PDB_ID>  (225) 
6Z08

>  <Standardized_SMILES>  (225) 
[H]OC1=C([H])C([H])=C([N+](=O)[O-])C([H])=C1[H]

>  <Name>  (225) 
P-NITROPHENOL

>  <Pocket>  (225) 
A

>  <ATP_Site>  (225) 
1.0

>  <Peripheral>  (225) 
0.0

>  <Num_H_Atoms_ProtBoundConf>  (225) 
5.0

>  <Num_Resolved_Atoms>  (225) 
10.0

>  <Num_Not_Resolved_Atoms>  (225) 
0.0

$$$$
NTN
     RDKit          3D

  0  0  0  0  0  0  0  0  0  0999 V3000
M  V30 BEGIN CTAB
M  V30 COUNTS 17 17 0 0 0
M  V30 BEGIN ATOM
M  V30 1 C -1.285363 -0.411966 1.572353 0
M  V30 2 N -1.241294 -1.389449 0.623749 0
M  V30 3 C -0.087136 -1.529837 -0.080920 0
M  V30 4 C 0.993615 -0.708639 0.162466 0
M  V30 5 C 0.936274 0.283711 1.131738 0
M  V30 6 C 2.106496 1.100942 1.327032 0
M  V30 7 N 3.008853 1.391490 0.287110 0
M  V30 8 N 2.352171 1.593005 2.491510 0 CHG=1 VAL=4
M  V30 9 C -0.241687 0.418811 1.843181 0
M  V30 10 H -2.210373 -0.298714 2.137833 0
M  V30 11 H -0.047204 -2.305144 -0.835787 0
M  V30 12 H 1.890356 -0.866796 -0.431587 0
M  V30 13 H 3.476942 2.195175 -0.182986 0
M  V30 14 H 3.378603 0.560593 -0.239908 0
M  V30 15 H 1.804191 1.485235 3.363779 0
M  V30 16 H 3.180300 2.190761 2.697846 0
M  V30 17 H -0.297795 1.197878 2.609615 0
M  V30 END ATOM
M  V30 BEGIN BOND
M  V30 1 2 1 2
M  V30 2 1 2 3
M  V30 3 2 3 4
M  V30 4 1 4 5
M  V30 5 1 5 6
M  V30 6 1 6 7
M  V30 7 2 6 8
M  V30 8 2 5 9
M  V30 9 1 9 1
M  V30 10 1 1 10
M  V30 11 1 3 11
M  V30 12 1 4 12
M  V30 13 1 7 13
M  V30 14 1 7 14
M  V30 15 1 8 15
M  V30 16 1 8 16
M  V30 17 1 9 17
M  V30 END BOND
M  V30 END CTAB
M  END
>  <Dataset>  (226) 
PDB

>  <Ligand_Instance>  (226) 
6ZN0_NTN_A_404

>  <PDB_ID>  (226) 
6ZN0

>  <Standardized_SMILES>  (226) 
[H]C1=NC([H])=C([H])C(C(N([H])[H])=[N+]([H])[H])=C1[H]

>  <Name>  (226) 
ISONICOTINAMIDINE

>  <Pocket>  (226) 
A

>  <ATP_Site>  (226) 
1.0

>  <Peripheral>  (226) 
1.0

>  <Num_H_Atoms_ProtBoundConf>  (226) 
8.0

>  <Num_Resolved_Atoms>  (226) 
9.0

>  <Num_Not_Resolved_Atoms>  (226) 
0.0

$$$$
NTN
     RDKit          3D

  0  0  0  0  0  0  0  0  0  0999 V3000
M  V30 BEGIN CTAB
M  V30 COUNTS 17 17 0 0 0
M  V30 BEGIN ATOM
M  V30 1 C -1.285363 -0.411966 1.572353 0
M  V30 2 N -1.241294 -1.389449 0.623749 0
M  V30 3 C -0.087136 -1.529837 -0.080920 0
M  V30 4 C 0.993615 -0.708639 0.162466 0
M  V30 5 C 0.936274 0.283711 1.131738 0
M  V30 6 C 2.106496 1.100942 1.327032 0
M  V30 7 N 3.008853 1.391490 0.287110 0
M  V30 8 N 2.352171 1.593005 2.491510 0 CHG=1 VAL=4
M  V30 9 C -0.241687 0.418811 1.843181 0
M  V30 10 H -2.210373 -0.298714 2.137833 0
M  V30 11 H -0.047204 -2.305144 -0.835787 0
M  V30 12 H 1.890356 -0.866796 -0.431587 0
M  V30 13 H 3.476942 2.195175 -0.182986 0
M  V30 14 H 3.378603 0.560593 -0.239908 0
M  V30 15 H 1.804191 1.485235 3.363779 0
M  V30 16 H 3.180300 2.190761 2.697846 0
M  V30 17 H -0.297795 1.197878 2.609615 0
M  V30 END ATOM
M  V30 BEGIN BOND
M  V30 1 2 1 2
M  V30 2 1 2 3
M  V30 3 2 3 4
M  V30 4 1 4 5
M  V30 5 1 5 6
M  V30 6 1 6 7
M  V30 7 2 6 8
M  V30 8 2 5 9
M  V30 9 1 9 1
M  V30 10 1 1 10
M  V30 11 1 3 11
M  V30 12 1 4 12
M  V30 13 1 7 13
M  V30 14 1 7 14
M  V30 15 1 8 15
M  V30 16 1 8 16
M  V30 17 1 9 17
M  V30 END BOND
M  V30 END CTAB
M  END
>  <Dataset>  (227) 
PDB

>  <Ligand_Instance>  (227) 
6ZN0_NTN_A_405

>  <PDB_ID>  (227) 
6ZN0

>  <Standardized_SMILES>  (227) 
[H]C1=NC([H])=C([H])C(C(N([H])[H])=[N+]([H])[H])=C1[H]

>  <Name>  (227) 
ISONICOTINAMIDINE

>  <Pocket>  (227) 
X

>  <ATP_Site>  (227) 
1.0

>  <Peripheral>  (227) 
1.0

>  <Num_H_Atoms_ProtBoundConf>  (227) 
8.0

>  <Num_Resolved_Atoms>  (227) 
9.0

>  <Num_Not_Resolved_Atoms>  (227) 
0.0

$$$$
NU3
     RDKit          3D

  0  0  0  0  0  0  0  0  0  0999 V3000
M  V30 BEGIN CTAB
M  V30 COUNTS 30 32 0 0 0
M  V30 BEGIN ATOM
M  V30 1 O -3.355318 -4.711730 3.131738 0
M  V30 2 C -2.500846 -3.714353 2.624127 0
M  V30 3 C -2.260324 -2.623492 3.435141 0
M  V30 4 C -1.413731 -1.616744 2.954080 0
M  V30 5 C -0.863312 -1.763887 1.697339 0
M  V30 6 C 0.018897 -0.713619 1.197469 0
M  V30 7 N 0.657840 -0.645292 0.020217 0
M  V30 8 C 1.377035 0.487099 -0.062052 0
M  V30 9 C 2.202322 1.058730 -1.013466 0
M  V30 10 C 2.432791 0.363940 -2.285232 0
M  V30 11 O 3.147134 0.756659 -3.228982 0
M  V30 12 N 1.818446 -0.876849 -2.536907 0
M  V30 13 C 2.840589 2.287079 -0.823451 0
M  V30 14 C 2.584159 2.881225 0.380926 0
M  V30 15 C 1.786914 2.409424 1.394694 0
M  V30 16 C 1.201517 1.189863 1.110955 0
M  V30 17 N 0.359470 0.411296 1.851687 0
M  V30 18 C -1.096666 -2.850081 0.877712 0
M  V30 19 C -1.942236 -3.850117 1.364662 0
M  V30 20 H -4.347435 -4.530472 3.039337 0
M  V30 21 H -2.706909 -2.536743 4.416362 0
M  V30 22 H -1.229987 -0.764780 3.595562 0
M  V30 23 H 2.203414 -1.848484 -2.523693 0
M  V30 24 H 0.903946 -1.285170 -2.792693 0
M  V30 25 H 3.478305 2.717033 -1.572480 0
M  V30 26 H 3.086093 3.848335 0.531676 0
M  V30 27 H 1.638865 2.940115 2.311009 0
M  V30 28 H 0.015391 0.647790 2.807461 0
M  V30 29 H -0.654996 -2.948999 -0.108192 0
M  V30 30 H -2.178493 -4.734914 0.787896 0
M  V30 END ATOM
M  V30 BEGIN BOND
M  V30 1 1 1 2
M  V30 2 2 2 3
M  V30 3 1 3 4
M  V30 4 2 4 5
M  V30 5 1 5 6
M  V30 6 2 6 7
M  V30 7 1 7 8
M  V30 8 2 8 9
M  V30 9 1 9 10
M  V30 10 2 10 11
M  V30 11 1 10 12
M  V30 12 1 9 13
M  V30 13 2 13 14
M  V30 14 1 14 15
M  V30 15 2 15 16
M  V30 16 1 16 17
M  V30 17 1 5 18
M  V30 18 2 18 19
M  V30 19 1 19 2
M  V30 20 1 17 6
M  V30 21 1 16 8
M  V30 22 1 1 20
M  V30 23 1 3 21
M  V30 24 1 4 22
M  V30 25 1 12 23
M  V30 26 1 12 24
M  V30 27 1 13 25
M  V30 28 1 14 26
M  V30 29 1 15 27
M  V30 30 1 17 28
M  V30 31 1 18 29
M  V30 32 1 19 30
M  V30 END BOND
M  V30 END CTAB
M  END
>  <Dataset>  (228) 
PDB

>  <Ligand_Instance>  (228) 
4C35_NU3_A_1351

>  <PDB_ID>  (228) 
4C35

>  <Standardized_SMILES>  (228) 
[H]OC1=C([H])C([H])=C(C2=NC3=C(C(=O)N([H])[H])C([H])=C([H])C([H])=C3N2[H])C([H])=C1[H]

>  <Name>  (228) 
2-(4-hydroxyphenyl)-1H-benzimidazole-4-carboxamide

>  <Pocket>  (228) 
A, B

>  <ATP_Site>  (228) 
1.0

>  <Peripheral>  (228) 
0.0

>  <Num_H_Atoms_ProtBoundConf>  (228) 
11.0

>  <Num_Resolved_Atoms>  (228) 
19.0

>  <Num_Not_Resolved_Atoms>  (228) 
0.0

$$$$
NVV
     RDKit          3D

  0  0  0  0  0  0  0  0  0  0999 V3000
M  V30 BEGIN CTAB
M  V30 COUNTS 42 45 0 0 0
M  V30 BEGIN ATOM
M  V30 1 C -5.046879 -1.743108 0.712734 0
M  V30 2 N -3.754263 -1.756864 1.102184 0
M  V30 3 C -2.970296 -0.672903 0.957452 0
M  V30 4 C -1.652270 -0.700507 1.360607 0
M  V30 5 C -0.833663 0.399712 1.221876 0
M  V30 6 C 0.612184 0.458001 1.639566 0 CFG=1
M  V30 7 C 0.749972 0.393419 3.137462 0
M  V30 8 N 1.060038 -0.966353 3.424556 0 CHG=1 VAL=4
M  V30 9 C 1.799961 -1.471539 2.309060 0
M  V30 10 C 1.405755 -0.679572 1.103994 0 CFG=2
M  V30 11 C 2.561707 -0.111655 0.357725 0
M  V30 12 O 2.633910 1.164338 0.343916 0
M  V30 13 C 3.563613 -0.919276 -0.323701 0
M  V30 14 C 3.602477 -2.294175 -0.386824 0
M  V30 15 C 4.568143 -3.012640 -1.041918 0
M  V30 16 C 5.575909 -2.299245 -1.685677 0
M  V30 17 C 5.594273 -0.912826 -1.659982 0
M  V30 18 I 7.113407 0.176778 -2.629795 0
M  V30 19 C 4.590554 -0.275531 -0.982040 0
M  V30 20 C -1.447318 1.519317 0.648559 0
M  V30 21 C -2.759290 1.590519 0.232097 0
M  V30 22 C -3.528757 0.457969 0.396916 0
M  V30 23 C -4.853531 0.452003 0.004798 0
M  V30 24 O -5.379544 1.483995 -0.511500 0
M  V30 25 N -5.634708 -0.647413 0.155818 0
M  V30 26 H -5.711266 -2.587681 0.809384 0
M  V30 27 H -1.238836 -1.580313 1.788350 0
M  V30 28 H 0.995320 1.449086 1.298197 0
M  V30 29 H 1.620011 1.025060 3.421328 0
M  V30 30 H -0.186903 0.744759 3.640217 0
M  V30 31 H 0.210209 -1.541648 3.680829 0
M  V30 32 H 1.634409 -1.007910 4.325961 0
M  V30 33 H 2.898293 -1.332790 2.530399 0
M  V30 34 H 1.597467 -2.565940 2.163758 0
M  V30 35 H 0.797592 -1.336017 0.419779 0
M  V30 36 H 2.809124 -2.825722 0.119733 0
M  V30 37 H 4.522112 -4.110445 -1.041588 0
M  V30 38 H 6.350534 -2.852069 -2.210692 0
M  V30 39 H 4.623253 0.824546 -0.974346 0
M  V30 40 H -0.849802 2.398126 0.520553 0
M  V30 41 H -3.144340 2.503605 -0.200869 0
M  V30 42 H -6.633671 -0.629640 -0.147164 0
M  V30 END ATOM
M  V30 BEGIN BOND
M  V30 1 2 1 2
M  V30 2 1 2 3
M  V30 3 2 3 4
M  V30 4 1 4 5
M  V30 5 1 5 6
M  V30 6 1 6 7
M  V30 7 1 7 8
M  V30 8 1 8 9
M  V30 9 1 9 10
M  V30 10 1 10 11
M  V30 11 2 11 12
M  V30 12 1 11 13
M  V30 13 2 13 14
M  V30 14 1 14 15
M  V30 15 2 15 16
M  V30 16 1 16 17
M  V30 17 1 17 18
M  V30 18 2 17 19
M  V30 19 2 5 20
M  V30 20 1 20 21
M  V30 21 2 21 22
M  V30 22 1 22 23
M  V30 23 2 23 24
M  V30 24 1 23 25
M  V30 25 1 25 1
M  V30 26 1 22 3
M  V30 27 1 10 6
M  V30 28 1 19 13
M  V30 29 1 1 26
M  V30 30 1 4 27
M  V30 31 1 6 28 CFG=3
M  V30 32 1 7 29
M  V30 33 1 7 30
M  V30 34 1 8 31
M  V30 35 1 8 32
M  V30 36 1 9 33
M  V30 37 1 9 34
M  V30 38 1 10 35 CFG=3
M  V30 39 1 14 36
M  V30 40 1 15 37
M  V30 41 1 16 38
M  V30 42 1 19 39
M  V30 43 1 20 40
M  V30 44 1 21 41
M  V30 45 1 25 42
M  V30 END BOND
M  V30 END CTAB
M  END
>  <Dataset>  (229) 
PDB

>  <Ligand_Instance>  (229) 
4UJ2_NVV_A_1351

>  <PDB_ID>  (229) 
4UJ2

>  <Standardized_SMILES>  (229) 
[H]C1=NC2=C([H])C([C@@]3([H])C([H])([H])[N+]([H])([H])C([H])([H])[C@]3([H])C(=O)C3=C([H])C([H])=C([H])C(I)=C3[H])=C([H])C([H])=C2C(=O)N1[H]

>  <Name>  (229) 
7-[(3S,4R)-4-(3-iodanylphenyl)carbonylpyrrolidin-3-yl]-3H-quinazolin-4-one

>  <Pocket>  (229) 
A

>  <ATP_Site>  (229) 
1.0

>  <Peripheral>  (229) 
0.0

>  <Num_H_Atoms_ProtBoundConf>  (229) 
17.0

>  <Num_Resolved_Atoms>  (229) 
25.0

>  <Num_Not_Resolved_Atoms>  (229) 
0.0

$$$$
NVX
     RDKit          3D

  0  0  0  0  0  0  0  0  0  0999 V3000
M  V30 BEGIN CTAB
M  V30 COUNTS 42 45 0 0 0
M  V30 BEGIN ATOM
M  V30 1 C -4.975832 -3.064031 0.326970 0
M  V30 2 N -3.654206 -3.033288 0.003027 0
M  V30 3 C -2.982853 -1.892902 0.050920 0
M  V30 4 C -1.623568 -1.772629 -0.265471 0
M  V30 5 C -0.932305 -0.552353 -0.207443 0
M  V30 6 C 0.503740 -0.664290 -0.591566 0 CFG=1
M  V30 7 C 0.953764 0.355793 -1.589806 0
M  V30 8 N 1.334517 1.512294 -0.853169 0 CHG=1 VAL=4
M  V30 9 C 1.629297 1.097113 0.491777 0
M  V30 10 C 1.353270 -0.373410 0.608512 0 CFG=2
M  V30 11 C 2.683735 -1.061175 0.506880 0
M  V30 12 O 3.020972 -1.756334 -0.485751 0
M  V30 13 C 3.662509 -0.949441 1.579342 0
M  V30 14 C 4.875422 -1.590247 1.433408 0
M  V30 15 C 5.869343 -1.535443 2.417899 0
M  V30 16 C 5.659810 -0.826476 3.582141 0
M  V30 17 C 4.453707 -0.184771 3.735936 0
M  V30 18 Cl 4.199621 0.705421 5.205769 0
M  V30 19 C 3.487579 -0.250917 2.754562 0
M  V30 20 C -1.687133 0.515134 0.182346 0
M  V30 21 C -3.006893 0.424435 0.494539 0
M  V30 22 C -3.685297 -0.774628 0.437406 0
M  V30 23 C -5.022206 -0.801911 0.765820 0
M  V30 24 O -5.660007 0.218458 1.117689 0
M  V30 25 N -5.680449 -1.979443 0.707636 0
M  V30 26 H -5.513246 -4.013960 0.281618 0
M  V30 27 H -1.198962 -2.723953 -0.551001 0
M  V30 28 H 0.702555 -1.713485 -0.970412 0
M  V30 29 H 1.820661 -0.104232 -2.136359 0
M  V30 30 H 0.196768 0.555614 -2.378017 0
M  V30 31 H 0.708010 2.337444 -0.930920 0
M  V30 32 H 2.255767 1.857361 -1.277534 0
M  V30 33 H 2.679311 1.350455 0.784254 0
M  V30 34 H 0.965977 1.617962 1.240672 0
M  V30 35 H 0.849116 -0.637847 1.564156 0
M  V30 36 H 5.130872 -2.164262 0.566823 0
M  V30 37 H 6.821194 -2.056934 2.267921 0
M  V30 38 H 6.463737 -0.821158 4.304087 0
M  V30 39 H 2.557273 0.257171 2.903012 0
M  V30 40 H -1.154584 1.435987 0.220328 0
M  V30 41 H -3.489630 1.348980 0.789578 0
M  V30 42 H -6.706465 -2.082648 0.944136 0
M  V30 END ATOM
M  V30 BEGIN BOND
M  V30 1 2 1 2
M  V30 2 1 2 3
M  V30 3 2 3 4
M  V30 4 1 4 5
M  V30 5 1 5 6
M  V30 6 1 6 7
M  V30 7 1 7 8
M  V30 8 1 8 9
M  V30 9 1 9 10
M  V30 10 1 10 11
M  V30 11 2 11 12
M  V30 12 1 11 13
M  V30 13 2 13 14
M  V30 14 1 14 15
M  V30 15 2 15 16
M  V30 16 1 16 17
M  V30 17 1 17 18
M  V30 18 2 17 19
M  V30 19 2 5 20
M  V30 20 1 20 21
M  V30 21 2 21 22
M  V30 22 1 22 23
M  V30 23 2 23 24
M  V30 24 1 23 25
M  V30 25 1 25 1
M  V30 26 1 22 3
M  V30 27 1 10 6
M  V30 28 1 19 13
M  V30 29 1 1 26
M  V30 30 1 4 27
M  V30 31 1 6 28 CFG=3
M  V30 32 1 7 29
M  V30 33 1 7 30
M  V30 34 1 8 31
M  V30 35 1 8 32
M  V30 36 1 9 33
M  V30 37 1 9 34
M  V30 38 1 10 35 CFG=1
M  V30 39 1 14 36
M  V30 40 1 15 37
M  V30 41 1 16 38
M  V30 42 1 19 39
M  V30 43 1 20 40
M  V30 44 1 21 41
M  V30 45 1 25 42
M  V30 END BOND
M  V30 END CTAB
M  END
>  <Dataset>  (230) 
PDB

>  <Ligand_Instance>  (230) 
4UJ1_NVX_A_1351

>  <PDB_ID>  (230) 
4UJ1

>  <Standardized_SMILES>  (230) 
[H]C1=NC2=C([H])C([C@@]3([H])C([H])([H])[N+]([H])([H])C([H])([H])[C@]3([H])C(=O)C3=C([H])C([H])=C([H])C(Cl)=C3[H])=C([H])C([H])=C2C(=O)N1[H]

>  <Name>  (230) 
7-[(3S,4R)-4-(3-chlorophenyl)carbonylpyrrolidin-3-yl]-3H-quinazolin-4-one

>  <Pocket>  (230) 
A

>  <ATP_Site>  (230) 
1.0

>  <Peripheral>  (230) 
0.0

>  <Num_H_Atoms_ProtBoundConf>  (230) 
17.0

>  <Num_Resolved_Atoms>  (230) 
25.0

>  <Num_Not_Resolved_Atoms>  (230) 
0.0

$$$$
NVX
     RDKit          3D

  0  0  0  0  0  0  0  0  0  0999 V3000
M  V30 BEGIN CTAB
M  V30 COUNTS 42 45 0 0 0
M  V30 BEGIN ATOM
M  V30 1 C -4.975832 -3.064031 0.326970 0
M  V30 2 N -3.654206 -3.033288 0.003027 0
M  V30 3 C -2.982853 -1.892902 0.050920 0
M  V30 4 C -1.623568 -1.772629 -0.265471 0
M  V30 5 C -0.932305 -0.552353 -0.207443 0
M  V30 6 C 0.503740 -0.664290 -0.591566 0 CFG=1
M  V30 7 C 0.953764 0.355793 -1.589806 0
M  V30 8 N 1.334517 1.512294 -0.853169 0 CHG=1 VAL=4
M  V30 9 C 1.629297 1.097113 0.491777 0
M  V30 10 C 1.353270 -0.373410 0.608512 0 CFG=2
M  V30 11 C 2.683735 -1.061175 0.506880 0
M  V30 12 O 3.020972 -1.756334 -0.485751 0
M  V30 13 C 3.662509 -0.949441 1.579342 0
M  V30 14 C 4.875422 -1.590247 1.433408 0
M  V30 15 C 5.869343 -1.535443 2.417899 0
M  V30 16 C 5.659810 -0.826476 3.582141 0
M  V30 17 C 4.453707 -0.184771 3.735936 0
M  V30 18 Cl 4.199621 0.705421 5.205769 0
M  V30 19 C 3.487579 -0.250917 2.754562 0
M  V30 20 C -1.687133 0.515134 0.182346 0
M  V30 21 C -3.006893 0.424435 0.494539 0
M  V30 22 C -3.685297 -0.774628 0.437406 0
M  V30 23 C -5.022206 -0.801911 0.765820 0
M  V30 24 O -5.660007 0.218458 1.117689 0
M  V30 25 N -5.680449 -1.979443 0.707636 0
M  V30 26 H -5.513246 -4.013960 0.281618 0
M  V30 27 H -1.198962 -2.723953 -0.551001 0
M  V30 28 H 0.702555 -1.713485 -0.970412 0
M  V30 29 H 1.820661 -0.104232 -2.136359 0
M  V30 30 H 0.196768 0.555614 -2.378017 0
M  V30 31 H 0.708010 2.337444 -0.930920 0
M  V30 32 H 2.255767 1.857361 -1.277534 0
M  V30 33 H 2.679311 1.350455 0.784254 0
M  V30 34 H 0.965977 1.617962 1.240672 0
M  V30 35 H 0.849116 -0.637847 1.564156 0
M  V30 36 H 5.130872 -2.164262 0.566823 0
M  V30 37 H 6.821194 -2.056934 2.267921 0
M  V30 38 H 6.463737 -0.821158 4.304087 0
M  V30 39 H 2.557273 0.257171 2.903012 0
M  V30 40 H -1.154584 1.435987 0.220328 0
M  V30 41 H -3.489630 1.348980 0.789578 0
M  V30 42 H -6.706465 -2.082648 0.944136 0
M  V30 END ATOM
M  V30 BEGIN BOND
M  V30 1 2 1 2
M  V30 2 1 2 3
M  V30 3 2 3 4
M  V30 4 1 4 5
M  V30 5 1 5 6
M  V30 6 1 6 7
M  V30 7 1 7 8
M  V30 8 1 8 9
M  V30 9 1 9 10
M  V30 10 1 10 11
M  V30 11 2 11 12
M  V30 12 1 11 13
M  V30 13 2 13 14
M  V30 14 1 14 15
M  V30 15 2 15 16
M  V30 16 1 16 17
M  V30 17 1 17 18
M  V30 18 2 17 19
M  V30 19 2 5 20
M  V30 20 1 20 21
M  V30 21 2 21 22
M  V30 22 1 22 23
M  V30 23 2 23 24
M  V30 24 1 23 25
M  V30 25 1 25 1
M  V30 26 1 22 3
M  V30 27 1 10 6
M  V30 28 1 19 13
M  V30 29 1 1 26
M  V30 30 1 4 27
M  V30 31 1 6 28 CFG=3
M  V30 32 1 7 29
M  V30 33 1 7 30
M  V30 34 1 8 31
M  V30 35 1 8 32
M  V30 36 1 9 33
M  V30 37 1 9 34
M  V30 38 1 10 35 CFG=1
M  V30 39 1 14 36
M  V30 40 1 15 37
M  V30 41 1 16 38
M  V30 42 1 19 39
M  V30 43 1 20 40
M  V30 44 1 21 41
M  V30 45 1 25 42
M  V30 END BOND
M  V30 END CTAB
M  END
>  <Dataset>  (231) 
PDB

>  <Ligand_Instance>  (231) 
4Z84_NVX_A_401

>  <PDB_ID>  (231) 
4Z84

>  <Standardized_SMILES>  (231) 
[H]C1=NC2=C([H])C([C@@]3([H])C([H])([H])[N+]([H])([H])C([H])([H])[C@]3([H])C(=O)C3=C([H])C([H])=C([H])C(Cl)=C3[H])=C([H])C([H])=C2C(=O)N1[H]

>  <Name>  (231) 
7-[(3S,4R)-4-(3-chlorophenyl)carbonylpyrrolidin-3-yl]-3H-quinazolin-4-one

>  <Pocket>  (231) 
A

>  <ATP_Site>  (231) 
1.0

>  <Peripheral>  (231) 
0.0

>  <Num_H_Atoms_ProtBoundConf>  (231) 
17.0

>  <Num_Resolved_Atoms>  (231) 
25.0

>  <Num_Not_Resolved_Atoms>  (231) 
0.0

$$$$
O72
     RDKit          3D

  0  0  0  0  0  0  0  0  0  0999 V3000
M  V30 BEGIN CTAB
M  V30 COUNTS 18 19 0 0 0
M  V30 BEGIN ATOM
M  V30 1 C 0.026719 -0.586707 2.963988 0
M  V30 2 C 0.158885 -1.848415 2.405481 0
M  V30 3 C 0.728437 -1.883192 1.142142 0
M  V30 4 C 1.116499 -0.710070 0.534698 0
M  V30 5 C 0.959173 0.520369 1.142075 0
M  V30 6 N 0.401374 0.549768 2.378354 0
M  V30 7 C 1.315022 1.735512 0.614556 0
M  V30 8 N 1.115261 2.948427 1.311756 0
M  V30 9 N 1.873706 1.739049 -0.616708 0
M  V30 10 C 2.046325 0.552578 -1.248498 0
M  V30 11 C 1.690385 -0.671311 -0.722630 0
M  V30 12 H -0.420721 -0.527370 3.963229 0
M  V30 13 H -0.159204 -2.752286 2.915611 0
M  V30 14 H 0.873504 -2.820844 0.623777 0
M  V30 15 H 1.450854 2.896896 2.309122 0
M  V30 16 H 0.667688 3.718550 0.747466 0
M  V30 17 H 2.493377 0.552679 -2.234316 0
M  V30 18 H 1.850694 -1.590239 -1.270646 0
M  V30 END ATOM
M  V30 BEGIN BOND
M  V30 1 2 1 2
M  V30 2 1 2 3
M  V30 3 2 3 4
M  V30 4 1 4 5
M  V30 5 2 5 6
M  V30 6 1 5 7
M  V30 7 1 7 8
M  V30 8 2 7 9
M  V30 9 1 9 10
M  V30 10 2 10 11
M  V30 11 1 6 1
M  V30 12 1 11 4
M  V30 13 1 1 12
M  V30 14 1 2 13
M  V30 15 1 3 14
M  V30 16 1 8 15
M  V30 17 1 8 16
M  V30 18 1 10 17
M  V30 19 1 11 18
M  V30 END BOND
M  V30 END CTAB
M  END
>  <Dataset>  (232) 
PDB

>  <Ligand_Instance>  (232) 
6Y2O_O72_A_406

>  <PDB_ID>  (232) 
6Y2O

>  <Standardized_SMILES>  (232) 
[H]C1=C([H])C([H])=C2C(=N1)C(N([H])[H])=NC([H])=C2[H]

>  <Name>  (232) 
1,7-naphthyridin-8-amine

>  <Pocket>  (232) 
A

>  <ATP_Site>  (232) 
1.0

>  <Peripheral>  (232) 
0.0

>  <Num_H_Atoms_ProtBoundConf>  (232) 
7.0

>  <Num_Resolved_Atoms>  (232) 
11.0

>  <Num_Not_Resolved_Atoms>  (232) 
0.0

$$$$
O72
     RDKit          3D

  0  0  0  0  0  0  0  0  0  0999 V3000
M  V30 BEGIN CTAB
M  V30 COUNTS 18 19 0 0 0
M  V30 BEGIN ATOM
M  V30 1 C 0.026719 -0.586707 2.963988 0
M  V30 2 C 0.158885 -1.848415 2.405481 0
M  V30 3 C 0.728437 -1.883192 1.142142 0
M  V30 4 C 1.116499 -0.710070 0.534698 0
M  V30 5 C 0.959173 0.520369 1.142075 0
M  V30 6 N 0.401374 0.549768 2.378354 0
M  V30 7 C 1.315022 1.735512 0.614556 0
M  V30 8 N 1.115261 2.948427 1.311756 0
M  V30 9 N 1.873706 1.739049 -0.616708 0
M  V30 10 C 2.046325 0.552578 -1.248498 0
M  V30 11 C 1.690385 -0.671311 -0.722630 0
M  V30 12 H -0.420721 -0.527370 3.963229 0
M  V30 13 H -0.159204 -2.752286 2.915611 0
M  V30 14 H 0.873504 -2.820844 0.623777 0
M  V30 15 H 1.450854 2.896896 2.309122 0
M  V30 16 H 0.667688 3.718550 0.747466 0
M  V30 17 H 2.493377 0.552679 -2.234316 0
M  V30 18 H 1.850694 -1.590239 -1.270646 0
M  V30 END ATOM
M  V30 BEGIN BOND
M  V30 1 2 1 2
M  V30 2 1 2 3
M  V30 3 2 3 4
M  V30 4 1 4 5
M  V30 5 2 5 6
M  V30 6 1 5 7
M  V30 7 1 7 8
M  V30 8 2 7 9
M  V30 9 1 9 10
M  V30 10 2 10 11
M  V30 11 1 6 1
M  V30 12 1 11 4
M  V30 13 1 1 12
M  V30 14 1 2 13
M  V30 15 1 3 14
M  V30 16 1 8 15
M  V30 17 1 8 16
M  V30 18 1 10 17
M  V30 19 1 11 18
M  V30 END BOND
M  V30 END CTAB
M  END
>  <Dataset>  (233) 
PDB

>  <Ligand_Instance>  (233) 
6YNR_O72_A_403

>  <PDB_ID>  (233) 
6YNR

>  <Standardized_SMILES>  (233) 
[H]C1=C([H])C([H])=C2C(=N1)C(N([H])[H])=NC([H])=C2[H]

>  <Name>  (233) 
1,7-naphthyridin-8-amine

>  <Pocket>  (233) 
A

>  <ATP_Site>  (233) 
1.0

>  <Peripheral>  (233) 
0.0

>  <Num_H_Atoms_ProtBoundConf>  (233) 
7.0

>  <Num_Resolved_Atoms>  (233) 
11.0

>  <Num_Not_Resolved_Atoms>  (233) 
0.0

$$$$
OGB
     RDKit          3D

  0  0  0  0  0  0  0  0  0  0999 V3000
M  V30 BEGIN CTAB
M  V30 COUNTS 23 24 0 0 0
M  V30 BEGIN ATOM
M  V30 1 C 0.871006 0.705204 3.583623 0
M  V30 2 N 1.959173 -0.030165 3.862860 0
M  V30 3 C 2.562041 -0.835565 2.966449 0
M  V30 4 C 2.062304 -0.934454 1.685113 0
M  V30 5 C 2.566972 -1.710619 0.665489 0
M  V30 6 C 2.021817 -1.765645 -0.592681 0
M  V30 7 C 0.917685 -1.008123 -0.846017 0
M  V30 8 C 0.368052 -0.205549 0.151556 0
M  V30 9 C -0.796726 0.514693 -0.324034 0
M  V30 10 O -1.327673 0.502701 -1.439553 0
M  V30 11 O -1.732979 1.405208 0.116691 0
M  V30 12 C -2.761168 1.894168 -0.689871 0
M  V30 13 C 0.945421 -0.177980 1.402996 0
M  V30 14 C 0.326469 0.646651 2.317359 0
M  V30 15 H 0.393813 1.353293 4.321135 0
M  V30 16 H 3.441621 -1.432469 3.185517 0
M  V30 17 H 3.441617 -2.295889 0.905248 0
M  V30 18 H 2.510438 -2.415271 -1.310888 0
M  V30 19 H 0.537007 -1.103420 -1.874775 0
M  V30 20 H -3.375787 1.045695 -1.082785 0
M  V30 21 H -2.451084 2.598947 -1.478890 0
M  V30 22 H -3.421868 2.495106 0.001695 0
M  V30 23 H -0.543505 1.230324 2.082874 0
M  V30 END ATOM
M  V30 BEGIN BOND
M  V30 1 2 1 2
M  V30 2 1 2 3
M  V30 3 2 3 4
M  V30 4 1 4 5
M  V30 5 2 5 6
M  V30 6 1 6 7
M  V30 7 2 7 8
M  V30 8 1 8 9
M  V30 9 2 9 10
M  V30 10 1 9 11
M  V30 11 1 11 12
M  V30 12 1 8 13
M  V30 13 2 13 14
M  V30 14 1 14 1
M  V30 15 1 13 4
M  V30 16 1 1 15
M  V30 17 1 3 16
M  V30 18 1 5 17
M  V30 19 1 6 18
M  V30 20 1 7 19
M  V30 21 1 12 20
M  V30 22 1 12 21
M  V30 23 1 12 22
M  V30 24 1 14 23
M  V30 END BOND
M  V30 END CTAB
M  END
>  <Dataset>  (234) 
PDB

>  <Ligand_Instance>  (234) 
6Y89_OGB_A_401

>  <PDB_ID>  (234) 
6Y89

>  <Standardized_SMILES>  (234) 
[H]C1=NC([H])=C2C([H])=C([H])C([H])=C(C(=O)OC([H])([H])[H])C2=C1[H]

>  <Name>  (234) 
methyl isoquinoline-5-carboxylate

>  <Pocket>  (234) 
A

>  <ATP_Site>  (234) 
1.0

>  <Peripheral>  (234) 
0.0

>  <Num_H_Atoms_ProtBoundConf>  (234) 
9.0

>  <Num_Resolved_Atoms>  (234) 
14.0

>  <Num_Not_Resolved_Atoms>  (234) 
0.0

$$$$
P4Q
     RDKit          3D

  0  0  0  0  0  0  0  0  0  0999 V3000
M  V30 BEGIN CTAB
M  V30 COUNTS 17 18 0 0 0
M  V30 BEGIN ATOM
M  V30 1 C -1.366302 -0.623400 0.607545 0
M  V30 2 N -0.682742 -0.658835 1.767547 0
M  V30 3 C 0.552880 -0.154117 1.916904 0
M  V30 4 C 1.242716 -0.201061 3.125849 0
M  V30 5 C 2.520123 0.367765 3.119199 0
M  V30 6 C 3.093941 0.946455 2.009662 0
M  V30 7 N 2.418428 0.987972 0.841058 0
M  V30 8 C 1.179283 0.444001 0.820751 0
M  V30 9 C 0.479636 0.480803 -0.368381 0
M  V30 10 N 0.991110 1.056929 -1.564022 0
M  V30 11 N -0.752534 -0.041562 -0.452063 0
M  V30 12 H -2.362104 -1.053508 0.567113 0
M  V30 13 H 0.781493 -0.652080 3.969271 0
M  V30 14 H 3.016745 0.306323 4.084235 0
M  V30 15 H 4.098329 1.361389 2.115174 0
M  V30 16 H 1.623188 0.369331 -2.004650 0
M  V30 17 H 0.882759 1.970650 -2.078166 0
M  V30 END ATOM
M  V30 BEGIN BOND
M  V30 1 2 1 2
M  V30 2 1 2 3
M  V30 3 2 3 4
M  V30 4 1 4 5
M  V30 5 2 5 6
M  V30 6 1 6 7
M  V30 7 2 7 8
M  V30 8 1 8 9
M  V30 9 1 9 10
M  V30 10 2 9 11
M  V30 11 1 11 1
M  V30 12 1 8 3
M  V30 13 1 1 12
M  V30 14 1 4 13
M  V30 15 1 5 14
M  V30 16 1 6 15
M  V30 17 1 10 16
M  V30 18 1 10 17
M  V30 END BOND
M  V30 END CTAB
M  END
>  <Dataset>  (235) 
PDB

>  <Ligand_Instance>  (235) 
6YOU_P4Q_A_401

>  <PDB_ID>  (235) 
6YOU

>  <Standardized_SMILES>  (235) 
[H]C1=NC2=C([H])C([H])=C([H])N=C2C(N([H])[H])=N1

>  <Name>  (235) 
pyrido[3,2-d]pyrimidin-4-amine

>  <Pocket>  (235) 
A

>  <ATP_Site>  (235) 
1.0

>  <Peripheral>  (235) 
0.0

>  <Num_H_Atoms_ProtBoundConf>  (235) 
6.0

>  <Num_Resolved_Atoms>  (235) 
11.0

>  <Num_Not_Resolved_Atoms>  (235) 
0.0

$$$$
P4W
     RDKit          3D

  0  0  0  0  0  0  0  0  0  0999 V3000
M  V30 BEGIN CTAB
M  V30 COUNTS 28 29 0 0 0
M  V30 BEGIN ATOM
M  V30 1 C 0.162423 -2.260350 3.360073 0
M  V30 2 N 0.920052 -3.374228 3.187798 0
M  V30 3 C 1.754222 -3.512579 2.141067 0
M  V30 4 C 1.898321 -2.537741 1.173563 0
M  V30 5 C 2.763998 -2.690752 0.094745 0
M  V30 6 C 2.826031 -1.654204 -0.807661 0
M  V30 7 C 2.095444 -0.494162 -0.709218 0
M  V30 8 C 1.223981 -0.335872 0.373458 0
M  V30 9 S 0.247732 1.060586 0.626057 0
M  V30 10 O 0.417359 1.929207 -0.608534 0
M  V30 11 O 0.690834 1.945918 1.753395 0
M  V30 12 N -1.435028 0.716934 0.657695 0
M  V30 13 C -1.796371 0.166800 -0.635497 0
M  V30 14 C -2.266280 1.818486 0.967491 0
M  V30 15 C 1.142568 -1.367392 1.298758 0
M  V30 16 C 0.301679 -1.272524 2.389044 0
M  V30 17 H -0.521668 -2.120114 4.197403 0
M  V30 18 H 2.344729 -4.414618 2.033472 0
M  V30 19 H 3.348039 -3.597300 -0.000334 0
M  V30 20 H 3.494393 -1.750150 -1.658048 0
M  V30 21 H 2.158123 0.316335 -1.434456 0
M  V30 22 H -1.254900 0.759452 -1.402843 0
M  V30 23 H -1.508537 -0.911724 -0.714431 0
M  V30 24 H -2.882513 0.280575 -0.760975 0
M  V30 25 H -1.772947 2.804164 0.756751 0
M  V30 26 H -2.677006 1.811455 1.998263 0
M  V30 27 H -3.165256 1.791856 0.315580 0
M  V30 28 H -0.303817 -0.361045 2.509992 0
M  V30 END ATOM
M  V30 BEGIN BOND
M  V30 1 2 1 2
M  V30 2 1 2 3
M  V30 3 2 3 4
M  V30 4 1 4 5
M  V30 5 2 5 6
M  V30 6 1 6 7
M  V30 7 2 7 8
M  V30 8 1 8 9
M  V30 9 2 9 10
M  V30 10 2 9 11
M  V30 11 1 9 12
M  V30 12 1 12 13
M  V30 13 1 12 14
M  V30 14 1 8 15
M  V30 15 2 15 16
M  V30 16 1 16 1
M  V30 17 1 15 4
M  V30 18 1 1 17
M  V30 19 1 3 18
M  V30 20 1 5 19
M  V30 21 1 6 20
M  V30 22 1 7 21
M  V30 23 1 13 22
M  V30 24 1 13 23
M  V30 25 1 13 24
M  V30 26 1 14 25
M  V30 27 1 14 26
M  V30 28 1 14 27
M  V30 29 1 16 28
M  V30 END BOND
M  V30 END CTAB
M  END
>  <Dataset>  (236) 
PDB

>  <Ligand_Instance>  (236) 
6YOT_P4W_A_401

>  <PDB_ID>  (236) 
6YOT

>  <Standardized_SMILES>  (236) 
[H]C1=NC([H])=C2C([H])=C([H])C([H])=C(S(=O)(=O)N(C([H])([H])[H])C([H])([H])[H])C2=C1[H]

>  <Name>  (236) 
~{N},~{N}-dimethylisoquinoline-5-sulfonamide

>  <Pocket>  (236) 
A

>  <ATP_Site>  (236) 
1.0

>  <Peripheral>  (236) 
1.0

>  <Num_H_Atoms_ProtBoundConf>  (236) 
12.0

>  <Num_Resolved_Atoms>  (236) 
16.0

>  <Num_Not_Resolved_Atoms>  (236) 
0.0

$$$$
P4W
     RDKit          3D

  0  0  0  0  0  0  0  0  0  0999 V3000
M  V30 BEGIN CTAB
M  V30 COUNTS 28 29 0 0 0
M  V30 BEGIN ATOM
M  V30 1 C 0.162423 -2.260350 3.360073 0
M  V30 2 N 0.920052 -3.374228 3.187798 0
M  V30 3 C 1.754222 -3.512579 2.141067 0
M  V30 4 C 1.898321 -2.537741 1.173563 0
M  V30 5 C 2.763998 -2.690752 0.094745 0
M  V30 6 C 2.826031 -1.654204 -0.807661 0
M  V30 7 C 2.095444 -0.494162 -0.709218 0
M  V30 8 C 1.223981 -0.335872 0.373458 0
M  V30 9 S 0.247732 1.060586 0.626057 0
M  V30 10 O 0.417359 1.929207 -0.608534 0
M  V30 11 O 0.690834 1.945918 1.753395 0
M  V30 12 N -1.435028 0.716934 0.657695 0
M  V30 13 C -1.796371 0.166800 -0.635497 0
M  V30 14 C -2.266280 1.818486 0.967491 0
M  V30 15 C 1.142568 -1.367392 1.298758 0
M  V30 16 C 0.301679 -1.272524 2.389044 0
M  V30 17 H -0.521668 -2.120114 4.197403 0
M  V30 18 H 2.344729 -4.414618 2.033472 0
M  V30 19 H 3.348039 -3.597300 -0.000334 0
M  V30 20 H 3.494393 -1.750150 -1.658048 0
M  V30 21 H 2.158123 0.316335 -1.434456 0
M  V30 22 H -1.254900 0.759452 -1.402843 0
M  V30 23 H -1.508537 -0.911724 -0.714431 0
M  V30 24 H -2.882513 0.280575 -0.760975 0
M  V30 25 H -1.772947 2.804164 0.756751 0
M  V30 26 H -2.677006 1.811455 1.998263 0
M  V30 27 H -3.165256 1.791856 0.315580 0
M  V30 28 H -0.303817 -0.361045 2.509992 0
M  V30 END ATOM
M  V30 BEGIN BOND
M  V30 1 2 1 2
M  V30 2 1 2 3
M  V30 3 2 3 4
M  V30 4 1 4 5
M  V30 5 2 5 6
M  V30 6 1 6 7
M  V30 7 2 7 8
M  V30 8 1 8 9
M  V30 9 2 9 10
M  V30 10 2 9 11
M  V30 11 1 9 12
M  V30 12 1 12 13
M  V30 13 1 12 14
M  V30 14 1 8 15
M  V30 15 2 15 16
M  V30 16 1 16 1
M  V30 17 1 15 4
M  V30 18 1 1 17
M  V30 19 1 3 18
M  V30 20 1 5 19
M  V30 21 1 6 20
M  V30 22 1 7 21
M  V30 23 1 13 22
M  V30 24 1 13 23
M  V30 25 1 13 24
M  V30 26 1 14 25
M  V30 27 1 14 26
M  V30 28 1 14 27
M  V30 29 1 16 28
M  V30 END BOND
M  V30 END CTAB
M  END
>  <Dataset>  (237) 
PDB

>  <Ligand_Instance>  (237) 
6YOT_P4W_A_402

>  <PDB_ID>  (237) 
6YOT

>  <Standardized_SMILES>  (237) 
[H]C1=NC([H])=C2C([H])=C([H])C([H])=C(S(=O)(=O)N(C([H])([H])[H])C([H])([H])[H])C2=C1[H]

>  <Name>  (237) 
~{N},~{N}-dimethylisoquinoline-5-sulfonamide

>  <Pocket>  (237) 
X

>  <ATP_Site>  (237) 
1.0

>  <Peripheral>  (237) 
1.0

>  <Num_H_Atoms_ProtBoundConf>  (237) 
12.0

>  <Num_Resolved_Atoms>  (237) 
16.0

>  <Num_Not_Resolved_Atoms>  (237) 
0.0

$$$$
P72
     RDKit          3D

  0  0  0  0  0  0  0  0  0  0999 V3000
M  V30 BEGIN CTAB
M  V30 COUNTS 19 19 0 0 0
M  V30 BEGIN ATOM
M  V30 1 O -0.767867 -3.353339 -0.218941 0
M  V30 2 C -0.191479 -2.125994 0.162550 0
M  V30 3 C -0.883667 -1.237591 0.982254 0
M  V30 4 C -0.316505 -0.021738 1.362106 0
M  V30 5 C 0.963873 0.290206 0.903545 0
M  V30 6 C 1.521718 1.564069 1.318751 0
M  V30 7 N 2.934041 1.650550 1.465257 0
M  V30 8 N 0.711891 2.542039 1.531005 0 CHG=1 VAL=4
M  V30 9 C 1.620046 -0.609261 0.095468 0
M  V30 10 C 1.074832 -1.819239 -0.291938 0
M  V30 11 H -1.176567 -3.962545 0.493696 0
M  V30 12 H -1.885731 -1.474783 1.344857 0
M  V30 13 H -0.854022 0.669626 1.999448 0
M  V30 14 H 3.911235 1.839174 1.780428 0
M  V30 15 H 3.604650 1.231536 0.771089 0
M  V30 16 H 1.149166 3.456171 1.832149 0
M  V30 17 H 0.129191 3.384287 1.723667 0
M  V30 18 H 2.597817 -0.259080 -0.194512 0
M  V30 19 H 1.655878 -2.472459 -0.929949 0
M  V30 END ATOM
M  V30 BEGIN BOND
M  V30 1 1 1 2
M  V30 2 2 2 3
M  V30 3 1 3 4
M  V30 4 2 4 5
M  V30 5 1 5 6
M  V30 6 1 6 7
M  V30 7 2 6 8
M  V30 8 1 5 9
M  V30 9 2 9 10
M  V30 10 1 10 2
M  V30 11 1 1 11
M  V30 12 1 3 12
M  V30 13 1 4 13
M  V30 14 1 7 14
M  V30 15 1 7 15
M  V30 16 1 8 16
M  V30 17 1 8 17
M  V30 18 1 9 18
M  V30 19 1 10 19
M  V30 END BOND
M  V30 END CTAB
M  END
>  <Dataset>  (238) 
PDB

>  <Ligand_Instance>  (238) 
6YPS_P72_A_402

>  <PDB_ID>  (238) 
6YPS

>  <Standardized_SMILES>  (238) 
[H]OC1=C([H])C([H])=C(C(N([H])[H])=[N+]([H])[H])C([H])=C1[H]

>  <Name>  (238) 
4-oxidanylbenzenecarboximidamide

>  <Pocket>  (238) 
A

>  <ATP_Site>  (238) 
1.0

>  <Peripheral>  (238) 
0.0

>  <Num_H_Atoms_ProtBoundConf>  (238) 
9.0

>  <Num_Resolved_Atoms>  (238) 
10.0

>  <Num_Not_Resolved_Atoms>  (238) 
0.0

$$$$
PTV
     RDKit          3D

  0  0  0  0  0  0  0  0  0  0999 V3000
M  V30 BEGIN CTAB
M  V30 COUNTS 31 33 0 0 0
M  V30 BEGIN ATOM
M  V30 1 C -2.733449 -3.180792 -0.243078 0
M  V30 2 C -1.892171 -2.397658 0.411229 0
M  V30 3 C -0.642476 -2.936816 0.949408 0
M  V30 4 C 0.250188 -2.221348 1.613128 0
M  V30 5 N 1.498521 -2.521664 2.211371 0
M  V30 6 N 2.020157 -1.365845 2.785252 0
M  V30 7 C 1.232713 -0.367757 2.612364 0
M  V30 8 S 1.444393 1.344153 3.159254 0
M  V30 9 C 0.008929 2.315115 2.626341 0
M  V30 10 C -0.030305 2.473260 1.184665 0
M  V30 11 O -1.107960 3.067178 0.910612 0
M  V30 12 C 0.802524 2.148275 0.004094 0
M  V30 13 C 2.061420 1.534536 -0.185541 0
M  V30 14 C 2.482364 1.439251 -1.462315 0
M  V30 15 C 1.675765 1.939542 -2.517043 0
M  V30 16 S 0.203276 2.595631 -1.611298 0
M  V30 17 N 0.088121 -0.819849 1.879922 0
M  V30 18 C -0.394558 -4.366413 0.719114 0
M  V30 19 C -1.274259 -5.114338 0.052887 0
M  V30 20 N -2.481262 -4.568594 -0.460466 0 CHG=-1 VAL=2
M  V30 21 H -3.636584 -2.700586 -0.608779 0
M  V30 22 H -2.112154 -1.349376 0.559429 0
M  V30 23 H 1.902281 -3.494463 2.183069 0
M  V30 24 H 0.076062 3.308816 3.161756 0
M  V30 25 H -0.925462 1.794421 2.976804 0
M  V30 26 H 2.602551 1.193110 0.676878 0
M  V30 27 H 3.430052 0.987672 -1.724462 0
M  V30 28 H 1.876031 1.932257 -3.541053 0
M  V30 29 H -0.733491 -0.243840 1.581806 0
M  V30 30 H 0.513925 -4.767646 1.108107 0
M  V30 31 H -1.050505 -6.180544 -0.097990 0
M  V30 END ATOM
M  V30 BEGIN BOND
M  V30 1 2 1 2
M  V30 2 1 2 3
M  V30 3 2 3 4 CFG=2
M  V30 4 1 4 5
M  V30 5 1 5 6
M  V30 6 2 6 7
M  V30 7 1 7 8
M  V30 8 1 8 9
M  V30 9 1 9 10
M  V30 10 2 10 11
M  V30 11 1 10 12
M  V30 12 2 12 13
M  V30 13 1 13 14
M  V30 14 2 14 15
M  V30 15 1 15 16
M  V30 16 1 7 17
M  V30 17 1 3 18
M  V30 18 2 18 19
M  V30 19 1 19 20
M  V30 20 1 20 1
M  V30 21 1 17 4
M  V30 22 1 16 12
M  V30 23 1 1 21
M  V30 24 1 2 22
M  V30 25 1 5 23
M  V30 26 1 9 24
M  V30 27 1 9 25
M  V30 28 1 13 26
M  V30 29 1 14 27
M  V30 30 1 15 28
M  V30 31 1 17 29
M  V30 32 1 18 30
M  V30 33 1 19 31
M  V30 END BOND
M  V30 END CTAB
M  END
>  <Dataset>  (239) 
PDB

>  <Ligand_Instance>  (239) 
4IJ9_PTV_A_401

>  <PDB_ID>  (239) 
4IJ9

>  <Standardized_SMILES>  (239) 
[H]C1=C([H])C(=C2N([H])N=C(SC([H])([H])C(=O)C3=C([H])C([H])=C([H])S3)N2[H])C([H])=C([H])[N-]1

>  <Name>  (239) 
2-[[5-(4-pyridyl)-1H-1,2,4-triazol-3-yl]sulfanyl]-1-(2-thiophenyl)ethanone

>  <Pocket>  (239) 
A

>  <ATP_Site>  (239) 
1.0

>  <Peripheral>  (239) 
0.0

>  <Num_H_Atoms_ProtBoundConf>  (239) 
11.0

>  <Num_Resolved_Atoms>  (239) 
20.0

>  <Num_Not_Resolved_Atoms>  (239) 
0.0

$$$$
PZX
     RDKit          3D

  0  0  0  0  0  0  0  0  0  0999 V3000
M  V30 BEGIN CTAB
M  V30 COUNTS 27 28 0 0 0
M  V30 BEGIN ATOM
M  V30 1 C -1.057430 -3.692634 4.000913 0
M  V30 2 N 0.132976 -3.077226 4.087870 0
M  V30 3 C 0.884526 -2.770365 3.020516 0
M  V30 4 C 0.502042 -3.060127 1.725384 0
M  V30 5 C 1.226360 -2.773871 0.484464 0
M  V30 6 O 0.929929 -1.566551 -0.134134 0
M  V30 7 C 1.064793 -0.296949 0.348390 0
M  V30 8 O 1.513693 -0.114068 1.506525 0
M  V30 9 C 0.685929 0.850683 -0.484795 0
M  V30 10 N 0.189970 0.785696 -1.749147 0
M  V30 11 N -0.046172 2.016431 -2.211340 0
M  V30 12 C 0.291426 2.904178 -1.257232 0
M  V30 13 C 0.203638 4.396296 -1.314414 0
M  V30 14 C 0.754078 2.190837 -0.163552 0
M  V30 15 C -0.738478 -3.700768 1.645493 0
M  V30 16 C -1.546896 -4.035110 2.736360 0
M  V30 17 H -1.698489 -3.960332 4.829480 0
M  V30 18 H 1.836901 -2.278974 3.134508 0
M  V30 19 H 0.962613 -3.578688 -0.242277 0
M  V30 20 H 2.341043 -2.882285 0.649183 0
M  V30 21 H -0.428520 2.239185 -3.155823 0
M  V30 22 H -0.740874 4.624427 -1.874454 0
M  V30 23 H 1.062818 4.850405 -1.810303 0
M  V30 24 H 0.001632 4.763706 -0.283560 0
M  V30 25 H 1.112781 2.512964 0.781372 0
M  V30 26 H -1.108761 -3.961730 0.663093 0
M  V30 27 H -2.485868 -4.529492 2.545711 0
M  V30 END ATOM
M  V30 BEGIN BOND
M  V30 1 2 1 2
M  V30 2 1 2 3
M  V30 3 2 3 4
M  V30 4 1 4 5
M  V30 5 1 5 6
M  V30 6 1 6 7
M  V30 7 2 7 8
M  V30 8 1 7 9
M  V30 9 2 9 10
M  V30 10 1 10 11
M  V30 11 1 11 12
M  V30 12 1 12 13
M  V30 13 2 12 14
M  V30 14 1 4 15
M  V30 15 2 15 16
M  V30 16 1 16 1
M  V30 17 1 14 9
M  V30 18 1 1 17
M  V30 19 1 3 18
M  V30 20 1 5 19
M  V30 21 1 5 20
M  V30 22 1 11 21
M  V30 23 1 13 22
M  V30 24 1 13 23
M  V30 25 1 13 24
M  V30 26 1 14 25
M  V30 27 1 15 26
M  V30 28 1 16 27
M  V30 END BOND
M  V30 END CTAB
M  END
>  <Dataset>  (240) 
PDB

>  <Ligand_Instance>  (240) 
4IE9_PZX_A_401

>  <PDB_ID>  (240) 
4IE9

>  <Standardized_SMILES>  (240) 
[H]C1=NC([H])=C(C([H])([H])OC(=O)C2=NN([H])C(C([H])([H])[H])=C2[H])C([H])=C1[H]

>  <Name>  (240) 
pyridin-3-ylmethyl 5-methyl-1H-pyrazole-3-carboxylate

>  <Pocket>  (240) 
A

>  <ATP_Site>  (240) 
1.0

>  <Peripheral>  (240) 
0.0

>  <Num_H_Atoms_ProtBoundConf>  (240) 
11.0

>  <Num_Resolved_Atoms>  (240) 
16.0

>  <Num_Not_Resolved_Atoms>  (240) 
0.0

$$$$
QNI
     RDKit          3D

  0  0  0  0  0  0  0  0  0  0999 V3000
M  V30 BEGIN CTAB
M  V30 COUNTS 41 44 0 0 0
M  V30 BEGIN ATOM
M  V30 1 C 0.106336 -2.975014 3.800591 0
M  V30 2 N 0.983588 -3.978297 3.764609 0
M  V30 3 C 1.727249 -4.176293 2.660585 0
M  V30 4 C 1.603458 -3.356273 1.549470 0
M  V30 5 N 2.450214 -3.757309 0.581279 0
M  V30 6 C 3.125888 -4.837942 1.060104 0
M  V30 7 N 2.664539 -5.067000 2.323952 0
M  V30 8 C 0.693121 -2.328895 1.609421 0
M  V30 9 N 0.540832 -1.458090 0.469640 0
M  V30 10 C 0.130925 -1.978960 -0.843194 0
M  V30 11 C -1.094613 -1.278469 -1.291653 0
M  V30 12 C -1.511315 -0.086399 -0.508366 0
M  V30 13 C -0.480944 0.687616 0.197564 0
M  V30 14 C 0.781512 -0.012666 0.542235 0
M  V30 15 C -0.159399 1.902408 -0.682251 0
M  V30 16 C 0.904292 2.777945 -0.119931 0
M  V30 17 N 0.752095 3.032711 1.288973 0 CHG=1 VAL=4
M  V30 18 C -0.625046 2.746237 1.639451 0
M  V30 19 C -1.007589 1.311043 1.490430 0
M  V30 20 N -0.028280 -2.171843 2.738007 0
M  V30 21 H -0.536368 -2.715470 4.609212 0
M  V30 22 H 3.884683 -5.412928 0.547236 0
M  V30 23 H 2.984786 -5.833284 2.968968 0
M  V30 24 H 0.998109 -1.904062 -1.562700 0
M  V30 25 H -0.008556 -3.077039 -0.715929 0
M  V30 26 H -0.912214 -1.005464 -2.359154 0
M  V30 27 H -1.907915 -2.035447 -1.343667 0
M  V30 28 H -2.242922 -0.453439 0.270785 0
M  V30 29 H -2.142206 0.552952 -1.168646 0
M  V30 30 H 1.125951 0.171762 1.566293 0
M  V30 31 H 1.593737 0.197854 -0.184686 0
M  V30 32 H 0.065923 1.635433 -1.712892 0
M  V30 33 H -1.129391 2.472302 -0.708381 0
M  V30 34 H 0.771818 3.780274 -0.627268 0
M  V30 35 H 1.928258 2.462300 -0.416841 0
M  V30 36 H 0.877280 4.060071 1.525381 0
M  V30 37 H 1.424203 2.535268 1.883870 0
M  V30 38 H -1.299326 3.464149 1.146566 0
M  V30 39 H -0.707785 2.993537 2.737527 0
M  V30 40 H -0.656573 0.765037 2.382048 0
M  V30 41 H -2.115519 1.255636 1.446443 0
M  V30 END ATOM
M  V30 BEGIN BOND
M  V30 1 2 1 2
M  V30 2 1 2 3
M  V30 3 2 3 4
M  V30 4 1 4 5
M  V30 5 2 5 6
M  V30 6 1 6 7
M  V30 7 1 4 8
M  V30 8 1 8 9
M  V30 9 1 9 10
M  V30 10 1 10 11
M  V30 11 1 11 12
M  V30 12 1 12 13
M  V30 13 1 13 14
M  V30 14 1 13 15
M  V30 15 1 15 16
M  V30 16 1 16 17
M  V30 17 1 17 18
M  V30 18 1 18 19
M  V30 19 2 8 20
M  V30 20 1 20 1
M  V30 21 1 7 3
M  V30 22 1 14 9
M  V30 23 1 19 13
M  V30 24 1 1 21
M  V30 25 1 6 22
M  V30 26 1 7 23
M  V30 27 1 10 24
M  V30 28 1 10 25
M  V30 29 1 11 26
M  V30 30 1 11 27
M  V30 31 1 12 28
M  V30 32 1 12 29
M  V30 33 1 14 30
M  V30 34 1 14 31
M  V30 35 1 15 32
M  V30 36 1 15 33
M  V30 37 1 16 34
M  V30 38 1 16 35
M  V30 39 1 17 36
M  V30 40 1 17 37
M  V30 41 1 18 38
M  V30 42 1 18 39
M  V30 43 1 19 40
M  V30 44 1 19 41
M  V30 END BOND
M  V30 END CTAB
M  END
>  <Dataset>  (241) 
PDB

>  <Ligand_Instance>  (241) 
3ZO3_QNI_A_1351

>  <PDB_ID>  (241) 
3ZO3

>  <Standardized_SMILES>  (241) 
[H]C1=NC2=C(N=C([H])N2[H])C(N2C([H])([H])C([H])([H])C([H])([H])C3(C2([H])[H])C([H])([H])C([H])([H])[N+]([H])([H])C([H])([H])C3([H])[H])=N1

>  <Name>  (241) 
6-(2,9-DIAZASPIRO[5.5]UNDECAN-2-YL)-9H-PURINE

>  <Pocket>  (241) 
A

>  <ATP_Site>  (241) 
1.0

>  <Peripheral>  (241) 
0.0

>  <Num_H_Atoms_ProtBoundConf>  (241) 
21.0

>  <Num_Resolved_Atoms>  (241) 
20.0

>  <Num_Not_Resolved_Atoms>  (241) 
0.0

$$$$
QWI
     RDKit          3D

  0  0  0  0  0  0  0  0  0  0999 V3000
M  V30 BEGIN CTAB
M  V30 COUNTS 51 55 0 0 0
M  V30 BEGIN ATOM
M  V30 1 C 3.643552 -4.603515 -0.489388 0
M  V30 2 N 4.341025 -5.007741 0.587791 0
M  V30 3 C 4.444419 -4.128276 1.595181 0
M  V30 4 C 3.859892 -2.881786 1.511539 0
M  V30 5 N 4.122550 -2.231533 2.642078 0
M  V30 6 C 4.854707 -3.041729 3.425041 0
M  V30 7 N 5.057465 -4.210425 2.789150 0
M  V30 8 C 3.146196 -2.473768 0.404204 0
M  V30 9 N 2.515107 -1.215515 0.233561 0
M  V30 10 C 1.780477 -0.936919 -1.012942 0
M  V30 11 C 0.662600 0.020562 -0.711824 0
M  V30 12 C 0.086648 -0.193896 0.679095 0
M  V30 13 C 1.109387 -0.049590 1.754669 0
M  V30 14 C 2.507641 -0.138328 1.170494 0
M  V30 15 C -0.967597 0.880592 0.868994 0
M  V30 16 C -2.250101 0.282312 0.311908 0 CFG=2
M  V30 17 C -3.258784 1.291623 -0.047820 0
M  V30 18 C -3.718718 1.323369 -1.361894 0
M  V30 19 C -4.673550 2.270975 -1.723352 0
M  V30 20 C -5.110339 3.131038 -0.743717 0
M  V30 21 C -4.688781 3.144116 0.573910 0
M  V30 22 C -3.740977 2.184814 0.882595 0
M  V30 23 C -2.743186 -0.658994 1.396564 0
M  V30 24 C -1.601356 -1.571617 1.727705 0
M  V30 25 N -0.505553 -1.516566 0.784766 0 CHG=1 VAL=4
M  V30 26 N 3.068743 -3.391128 -0.583712 0
M  V30 27 H 3.487917 -5.227518 -1.374236 0
M  V30 28 H 5.202018 -2.752923 4.404300 0
M  V30 29 H 5.591294 -5.047905 3.137206 0
M  V30 30 H 2.517456 -0.427139 -1.677547 0
M  V30 31 H 1.398166 -1.839202 -1.493128 0
M  V30 32 H 1.050323 1.057656 -0.735010 0
M  V30 33 H -0.164052 -0.080251 -1.425445 0
M  V30 34 H 1.045604 -0.836751 2.537943 0
M  V30 35 H 1.075214 0.968602 2.239726 0
M  V30 36 H 2.667875 0.818546 0.590647 0
M  V30 37 H 3.280583 -0.136168 1.932130 0
M  V30 38 H -0.682582 1.829932 0.401801 0
M  V30 39 H -1.105496 1.117494 1.963990 0
M  V30 40 H -2.004617 -0.326239 -0.574578 0
M  V30 41 H -3.363616 0.638660 -2.119396 0
M  V30 42 H -5.018373 2.287289 -2.728621 0
M  V30 43 H -5.854064 3.852483 -1.069920 0
M  V30 44 H -5.121162 3.874896 1.219945 0
M  V30 45 H -3.396164 2.183040 1.926863 0
M  V30 46 H -3.667267 -1.195142 1.106316 0
M  V30 47 H -2.934083 -0.021024 2.293887 0
M  V30 48 H -1.974645 -2.617807 1.688100 0
M  V30 49 H -1.220436 -1.424826 2.751864 0
M  V30 50 H -0.734993 -1.947668 -0.131141 0
M  V30 51 H 0.231334 -2.152815 1.194368 0
M  V30 END ATOM
M  V30 BEGIN BOND
M  V30 1 2 1 2
M  V30 2 1 2 3
M  V30 3 2 3 4
M  V30 4 1 4 5
M  V30 5 2 5 6
M  V30 6 1 6 7
M  V30 7 1 4 8
M  V30 8 1 8 9
M  V30 9 1 9 10
M  V30 10 1 10 11
M  V30 11 1 11 12
M  V30 12 1 12 13
M  V30 13 1 13 14
M  V30 14 1 12 15
M  V30 15 1 15 16
M  V30 16 1 16 17
M  V30 17 2 17 18
M  V30 18 1 18 19
M  V30 19 2 19 20
M  V30 20 1 20 21
M  V30 21 2 21 22
M  V30 22 1 16 23
M  V30 23 1 23 24
M  V30 24 1 24 25
M  V30 25 2 8 26
M  V30 26 1 26 1
M  V30 27 1 7 3
M  V30 28 1 14 9
M  V30 29 1 22 17
M  V30 30 1 25 12
M  V30 31 1 1 27
M  V30 32 1 6 28
M  V30 33 1 7 29
M  V30 34 1 10 30
M  V30 35 1 10 31
M  V30 36 1 11 32
M  V30 37 1 11 33
M  V30 38 1 13 34
M  V30 39 1 13 35
M  V30 40 1 14 36
M  V30 41 1 14 37
M  V30 42 1 15 38
M  V30 43 1 15 39
M  V30 44 1 16 40 CFG=3
M  V30 45 1 18 41
M  V30 46 1 19 42
M  V30 47 1 20 43
M  V30 48 1 21 44
M  V30 49 1 22 45
M  V30 50 1 23 46
M  V30 51 1 23 47
M  V30 52 1 24 48
M  V30 53 1 24 49
M  V30 54 1 25 50
M  V30 55 1 25 51
M  V30 END BOND
M  V30 END CTAB
M  END
>  <Dataset>  (242) 
PDB

>  <Ligand_Instance>  (242) 
3ZO4_QWI_A_1352

>  <PDB_ID>  (242) 
3ZO4

>  <Standardized_SMILES>  (242) 
[H]C1=NC2=C(N=C([H])N2[H])C(N2C([H])([H])C([H])([H])C3(C([H])([H])C2([H])[H])C([H])([H])[C@]([H])(C2=C([H])C([H])=C([H])C([H])=C2[H])C([H])([H])C([H])([H])[N+]3([H])[H])=N1

>  <Name>  (242) 
6-(4-PHENYL-1,9-DIAZASPIRO[5.5]UNDECAN-9-YL)-9H-PURINE

>  <Pocket>  (242) 
A

>  <ATP_Site>  (242) 
1.0

>  <Peripheral>  (242) 
0.0

>  <Num_H_Atoms_ProtBoundConf>  (242) 
25.0

>  <Num_Resolved_Atoms>  (242) 
26.0

>  <Num_Not_Resolved_Atoms>  (242) 
0.0

$$$$
RKD
     RDKit          3D

  0  0  0  0  0  0  0  0  0  0999 V3000
M  V30 BEGIN CTAB
M  V30 COUNTS 39 41 0 0 0
M  V30 BEGIN ATOM
M  V30 1 O 2.691198 -1.480372 -0.561158 0
M  V30 2 C 1.919735 -1.474535 0.620458 0 CFG=2
M  V30 3 C 1.187418 -2.763217 0.676726 0
M  V30 4 C 1.193630 -3.814714 1.557269 0
M  V30 5 C 0.373340 -4.887778 1.318537 0
M  V30 6 C -0.480034 -5.009148 0.244033 0
M  V30 7 Cl -1.466746 -6.423753 0.058359 0
M  V30 8 C -0.489323 -3.939628 -0.656128 0
M  V30 9 C 0.334586 -2.853712 -0.422575 0
M  V30 10 C 1.005814 -0.304038 0.577436 0
M  V30 11 C 1.511661 0.891106 0.078304 0
M  V30 12 C 0.685018 1.998937 0.021798 0
M  V30 13 C -0.629165 1.902068 0.461446 0
M  V30 14 C -1.568856 3.044716 0.435559 0
M  V30 15 C -2.951707 3.011978 0.259781 0
M  V30 16 N -3.420552 4.280020 0.307060 0
M  V30 17 N -2.396500 5.092276 0.502925 0
M  V30 18 C -1.239109 4.397586 0.589545 0
M  V30 19 C -1.150631 0.707641 0.964961 0
M  V30 20 C -0.301519 -0.376852 1.007429 0
M  V30 21 C 2.850960 -1.277535 1.758675 0
M  V30 22 N 2.144153 -1.242880 2.996795 0 CHG=1 VAL=4
M  V30 23 H 2.102798 -1.372572 -1.364080 0
M  V30 24 H 1.876866 -3.652974 2.356917 0
M  V30 25 H 0.439609 -5.686409 2.074012 0
M  V30 26 H -1.171154 -4.074947 -1.485051 0
M  V30 27 H 0.188050 -2.121336 -1.230501 0
M  V30 28 H 2.545778 0.937328 -0.257985 0
M  V30 29 H 1.041471 2.966103 -0.365271 0
M  V30 30 H -3.470605 2.055033 0.113856 0
M  V30 31 H -4.443893 4.475919 0.196075 0
M  V30 32 H -0.245708 4.801140 0.747179 0
M  V30 33 H -2.188288 0.635920 1.311514 0
M  V30 34 H -0.713754 -1.307651 1.394577 0
M  V30 35 H 3.309245 -0.251952 1.610201 0
M  V30 36 H 3.729409 -1.953696 1.763332 0
M  V30 37 H 2.527564 -1.837297 3.757560 0
M  V30 38 H 1.112690 -1.466450 2.898499 0
M  V30 39 H 2.143516 -0.265132 3.428046 0
M  V30 END ATOM
M  V30 BEGIN BOND
M  V30 1 1 2 1 CFG=3
M  V30 2 1 2 3
M  V30 3 2 3 4
M  V30 4 1 4 5
M  V30 5 2 5 6
M  V30 6 1 6 7
M  V30 7 1 6 8
M  V30 8 2 8 9
M  V30 9 1 2 10
M  V30 10 2 10 11
M  V30 11 1 11 12
M  V30 12 2 12 13
M  V30 13 1 13 14
M  V30 14 2 14 15
M  V30 15 1 15 16
M  V30 16 1 16 17
M  V30 17 2 17 18
M  V30 18 1 13 19
M  V30 19 2 19 20
M  V30 20 1 2 21
M  V30 21 1 21 22
M  V30 22 1 9 3
M  V30 23 1 20 10
M  V30 24 1 18 14
M  V30 25 1 1 23
M  V30 26 1 4 24
M  V30 27 1 5 25
M  V30 28 1 8 26
M  V30 29 1 9 27
M  V30 30 1 11 28
M  V30 31 1 12 29
M  V30 32 1 15 30
M  V30 33 1 16 31
M  V30 34 1 18 32
M  V30 35 1 19 33
M  V30 36 1 20 34
M  V30 37 1 21 35
M  V30 38 1 21 36
M  V30 39 1 22 37
M  V30 40 1 22 38
M  V30 41 1 22 39
M  V30 END BOND
M  V30 END CTAB
M  END
>  <Dataset>  (243) 
PDB

>  <Ligand_Instance>  (243) 
4AXA_RKD_A_1351

>  <PDB_ID>  (243) 
4AXA

>  <Standardized_SMILES>  (243) 
[H]O[C@](C1=C([H])C([H])=C(Cl)C([H])=C1[H])(C1=C([H])C([H])=C(C2=C([H])N([H])N=C2[H])C([H])=C1[H])C([H])([H])[N+]([H])([H])[H]

>  <Name>  (243) 
(2S)-2-(4-chlorophenyl)-2-hydroxy-2-[4-(1H-pyrazol-4-yl)phenyl]ethanaminium

>  <Pocket>  (243) 
A

>  <ATP_Site>  (243) 
1.0

>  <Peripheral>  (243) 
0.0

>  <Num_H_Atoms_ProtBoundConf>  (243) 
17.0

>  <Num_Resolved_Atoms>  (243) 
22.0

>  <Num_Not_Resolved_Atoms>  (243) 
0.0

$$$$
S3N
     RDKit          3D

  0  0  0  0  0  0  0  0  0  0999 V3000
M  V30 BEGIN CTAB
M  V30 COUNTS 45 48 0 0 0
M  V30 BEGIN ATOM
M  V30 1 C 2.417041 -6.654805 -0.358037 0
M  V30 2 N 2.551368 -5.300824 -0.415742 0
M  V30 3 C 1.478820 -4.494369 -0.319046 0
M  V30 4 C 1.586521 -3.098411 -0.375152 0
M  V30 5 C 0.457332 -2.271466 -0.272699 0
M  V30 6 C 0.792131 -0.830775 -0.347566 0 CFG=1
M  V30 7 C 0.399551 -0.251059 -1.679994 0
M  V30 8 N -0.978959 0.102077 -1.513032 0 CHG=1 VAL=4
M  V30 9 C -1.150955 0.492097 -0.133583 0
M  V30 10 C 0.050243 0.038522 0.618349 0 CFG=2
M  V30 11 C 0.907407 1.210326 0.951977 0
M  V30 12 O 2.009154 1.220501 0.383551 0
M  V30 13 C 0.533864 2.285072 1.863380 0
M  V30 14 C 1.482258 3.275043 2.027512 0
M  V30 15 C 1.145459 4.315853 2.897070 0
M  V30 16 C -0.063455 4.352565 3.553230 0
M  V30 17 C -0.291093 5.528935 4.455903 0
M  V30 18 F -1.627672 5.576617 4.848086 0
M  V30 19 F 0.467987 5.408542 5.605941 0
M  V30 20 F -0.045007 6.717938 3.802931 0
M  V30 21 C -1.007683 3.339031 3.371234 0
M  V30 22 C -0.685414 2.297190 2.508572 0
M  V30 23 C -0.740694 -2.918492 -0.115845 0
M  V30 24 C -0.855312 -4.290317 -0.059870 0
M  V30 25 C 0.252383 -5.104945 -0.160448 0
M  V30 26 C 0.093840 -6.473597 -0.099537 0
M  V30 27 O -1.077052 -6.923884 0.047719 0
M  V30 28 N 1.213980 -7.244584 -0.202752 0
M  V30 29 H 3.281695 -7.286670 -0.436523 0
M  V30 30 H 2.604505 -2.763045 -0.501579 0
M  V30 31 H 1.911674 -0.695386 -0.229837 0
M  V30 32 H 1.039582 0.611086 -1.960178 0
M  V30 33 H 0.474457 -0.990431 -2.504123 0
M  V30 34 H -1.275506 0.887182 -2.148618 0
M  V30 35 H -1.561194 -0.717394 -1.808498 0
M  V30 36 H -2.102686 0.024350 0.230772 0
M  V30 37 H -1.284455 1.602780 -0.107238 0
M  V30 38 H -0.190391 -0.473393 1.573356 0
M  V30 39 H 2.445603 3.295719 1.537937 0
M  V30 40 H 1.887438 5.097196 3.029920 0
M  V30 41 H -1.933776 3.433435 3.918060 0
M  V30 42 H -1.406503 1.518072 2.366270 0
M  V30 43 H -1.584934 -2.271139 -0.034351 0
M  V30 44 H -1.862654 -4.670535 0.066645 0
M  V30 45 H 1.069935 -8.277611 -0.154021 0
M  V30 END ATOM
M  V30 BEGIN BOND
M  V30 1 2 1 2
M  V30 2 1 2 3
M  V30 3 2 3 4
M  V30 4 1 4 5
M  V30 5 1 5 6
M  V30 6 1 6 7
M  V30 7 1 7 8
M  V30 8 1 8 9
M  V30 9 1 9 10
M  V30 10 1 10 11
M  V30 11 2 11 12
M  V30 12 1 11 13
M  V30 13 2 13 14
M  V30 14 1 14 15
M  V30 15 2 15 16
M  V30 16 1 16 17
M  V30 17 1 17 18
M  V30 18 1 17 19
M  V30 19 1 17 20
M  V30 20 1 16 21
M  V30 21 2 21 22
M  V30 22 2 5 23
M  V30 23 1 23 24
M  V30 24 2 24 25
M  V30 25 1 25 26
M  V30 26 2 26 27
M  V30 27 1 26 28
M  V30 28 1 28 1
M  V30 29 1 25 3
M  V30 30 1 10 6
M  V30 31 1 22 13
M  V30 32 1 1 29
M  V30 33 1 4 30
M  V30 34 1 6 31 CFG=1
M  V30 35 1 7 32
M  V30 36 1 7 33
M  V30 37 1 8 34
M  V30 38 1 8 35
M  V30 39 1 9 36
M  V30 40 1 9 37
M  V30 41 1 10 38 CFG=1
M  V30 42 1 14 39
M  V30 43 1 15 40
M  V30 44 1 21 41
M  V30 45 1 22 42
M  V30 46 1 23 43
M  V30 47 1 24 44
M  V30 48 1 28 45
M  V30 END BOND
M  V30 END CTAB
M  END
>  <Dataset>  (244) 
PDB

>  <Ligand_Instance>  (244) 
4UJ9_S3N_A_1351

>  <PDB_ID>  (244) 
4UJ9

>  <Standardized_SMILES>  (244) 
[H]C1=NC2=C([H])C([C@@]3([H])C([H])([H])[N+]([H])([H])C([H])([H])[C@]3([H])C(=O)C3=C([H])C([H])=C(C(F)(F)F)C([H])=C3[H])=C([H])C([H])=C2C(=O)N1[H]

>  <Name>  (244) 
7-[(3S,4R)-4-[4-(trifluoromethyl)phenyl]carbonylpyrrolidin-3-yl]-3H-quinazolin-4-one

>  <Pocket>  (244) 
A

>  <ATP_Site>  (244) 
1.0

>  <Peripheral>  (244) 
0.0

>  <Num_H_Atoms_ProtBoundConf>  (244) 
17.0

>  <Num_Resolved_Atoms>  (244) 
28.0

>  <Num_Not_Resolved_Atoms>  (244) 
0.0

$$$$
S69
     RDKit          3D

  0  0  0  0  0  0  0  0  0  0999 V3000
M  V30 BEGIN CTAB
M  V30 COUNTS 43 44 0 0 0
M  V30 BEGIN ATOM
M  V30 1 O -0.127520 -3.409146 4.229978 0
M  V30 2 C 0.550880 -3.206116 3.036758 0
M  V30 3 C -0.120652 -3.558235 1.880009 0
M  V30 4 C 0.524373 -3.367726 0.689100 0
M  V30 5 O -0.145608 -3.727200 -0.463434 0
M  V30 6 C 1.781507 -2.854267 0.547222 0
M  V30 7 C 2.533683 -2.518170 -0.679350 0
M  V30 8 N 2.200645 -1.181907 -1.072566 0
M  V30 9 N 0.873516 -0.919024 -1.324801 0
M  V30 10 C 0.692558 0.488166 -1.560323 0
M  V30 11 O 1.534700 1.435963 -1.572445 0
M  V30 12 C -0.642181 1.132704 -1.848613 0
M  V30 13 C -0.843334 2.106545 -0.706713 0
M  V30 14 C -0.641731 3.470716 -0.702763 0
M  V30 15 C -0.871834 4.147688 0.480110 0
M  V30 16 C -1.288110 3.524462 1.639423 0
M  V30 17 C -1.492838 2.152814 1.642486 0
M  V30 18 O -1.911035 1.555376 2.822978 0
M  V30 19 C -2.112442 0.140695 2.809479 0
M  V30 20 C -1.266806 1.475307 0.472619 0
M  V30 21 C 2.477835 -2.494650 1.701249 0
M  V30 22 C 3.815712 -1.928050 1.915795 0
M  V30 23 C 1.821002 -2.688156 2.924931 0
M  V30 24 H 0.083456 -4.135150 4.868921 0
M  V30 25 H -1.115377 -3.966376 1.918120 0
M  V30 26 H -1.141556 -3.587132 -0.515348 0
M  V30 27 H 2.231707 -3.271425 -1.454671 0
M  V30 28 H 3.614492 -2.675377 -0.548963 0
M  V30 29 H 2.611762 -0.460004 -0.441393 0
M  V30 30 H -0.081823 -1.306112 -1.426875 0
M  V30 31 H -1.470606 0.411663 -1.795303 0
M  V30 32 H -0.590543 1.656003 -2.817853 0
M  V30 33 H -0.322023 3.858904 -1.643398 0
M  V30 34 H -0.702399 5.223439 0.450502 0
M  V30 35 H -1.442685 4.148039 2.536445 0
M  V30 36 H -1.124008 -0.273876 2.464568 0
M  V30 37 H -2.861004 -0.081154 2.026320 0
M  V30 38 H -2.347604 -0.273814 3.798546 0
M  V30 39 H -1.444341 0.420128 0.543404 0
M  V30 40 H 4.390504 -1.699316 1.022080 0
M  V30 41 H 4.407429 -2.660318 2.536739 0
M  V30 42 H 3.710255 -1.032103 2.591405 0
M  V30 43 H 2.227009 -2.453191 3.914416 0
M  V30 END ATOM
M  V30 BEGIN BOND
M  V30 1 1 1 2
M  V30 2 2 2 3
M  V30 3 1 3 4
M  V30 4 1 4 5
M  V30 5 2 4 6
M  V30 6 1 6 7
M  V30 7 1 7 8
M  V30 8 1 8 9
M  V30 9 1 9 10
M  V30 10 2 10 11
M  V30 11 1 10 12
M  V30 12 1 12 13
M  V30 13 2 13 14
M  V30 14 1 14 15
M  V30 15 2 15 16
M  V30 16 1 16 17
M  V30 17 1 17 18
M  V30 18 1 18 19
M  V30 19 2 17 20
M  V30 20 1 6 21
M  V30 21 1 21 22
M  V30 22 2 21 23
M  V30 23 1 23 2
M  V30 24 1 20 13
M  V30 25 1 1 24
M  V30 26 1 3 25
M  V30 27 1 5 26
M  V30 28 1 7 27
M  V30 29 1 7 28
M  V30 30 1 8 29
M  V30 31 1 9 30
M  V30 32 1 12 31
M  V30 33 1 12 32
M  V30 34 1 14 33
M  V30 35 1 15 34
M  V30 36 1 16 35
M  V30 37 1 19 36
M  V30 38 1 19 37
M  V30 39 1 19 38
M  V30 40 1 20 39
M  V30 41 1 22 40
M  V30 42 1 22 41
M  V30 43 1 22 42
M  V30 44 1 23 43
M  V30 END BOND
M  V30 END CTAB
M  END
>  <Dataset>  (245) 
PDB

>  <Ligand_Instance>  (245) 
3POO_S69_A_2001

>  <PDB_ID>  (245) 
3POO

>  <Standardized_SMILES>  (245) 
[H]OC1=C([H])C(O[H])=C(C([H])([H])N([H])N([H])C(=O)C([H])([H])C2=C([H])C([H])=C([H])C(OC([H])([H])[H])=C2[H])C(C([H])([H])[H])=C1[H]

>  <Name>  (245) 
N'-[(E)-(2,4-dihydroxy-6-methylphenyl)methylidene]-2-(3-methoxyphenyl)acetohydrazide

>  <Pocket>  (245) 
A

>  <ATP_Site>  (245) 
1.0

>  <Peripheral>  (245) 
0.0

>  <Num_H_Atoms_ProtBoundConf>  (245) 
20.0

>  <Num_Resolved_Atoms>  (245) 
23.0

>  <Num_Not_Resolved_Atoms>  (245) 
0.0

$$$$
S95
     RDKit          3D

  0  0  0  0  0  0  0  0  0  0999 V3000
M  V30 BEGIN CTAB
M  V30 COUNTS 20 21 0 0 0
M  V30 BEGIN ATOM
M  V30 1 C -0.959751 0.980591 2.591795 0
M  V30 2 N -0.268939 0.251291 3.513522 0
M  V30 3 C 0.733095 -0.595154 3.133168 0
M  V30 4 C 1.032719 -0.698254 1.800985 0
M  V30 5 C 2.050130 -1.558941 1.424962 0
M  V30 6 C 2.376983 -1.684000 0.073989 0
M  V30 7 C 1.690451 -0.953853 -0.885609 0
M  V30 8 C 0.659903 -0.077833 -0.539024 0
M  V30 9 S -0.232463 0.860761 -1.701404 0
M  V30 10 O -1.642732 0.407682 -1.879378 0
M  V30 11 O 0.448132 0.624193 -3.044234 0
M  V30 12 O -0.100824 2.517139 -1.442331 0 CHG=-1 VAL=1
M  V30 13 C 0.387281 -0.000041 0.803198 0
M  V30 14 C -0.616852 0.840649 1.245490 0
M  V30 15 H -1.746348 1.641036 2.922991 0
M  V30 16 H 1.286825 -1.176509 3.845887 0
M  V30 17 H 2.585290 -2.127683 2.169620 0
M  V30 18 H 3.152208 -2.332230 -0.274191 0
M  V30 19 H 1.939680 -1.046837 -1.934999 0
M  V30 20 H -1.214693 1.456875 0.568998 0
M  V30 END ATOM
M  V30 BEGIN BOND
M  V30 1 2 1 2
M  V30 2 1 2 3
M  V30 3 2 3 4
M  V30 4 1 4 5
M  V30 5 2 5 6
M  V30 6 1 6 7
M  V30 7 2 7 8
M  V30 8 1 8 9
M  V30 9 2 9 10
M  V30 10 2 9 11
M  V30 11 1 9 12
M  V30 12 1 8 13
M  V30 13 2 13 14
M  V30 14 1 14 1
M  V30 15 1 13 4
M  V30 16 1 1 15
M  V30 17 1 3 16
M  V30 18 1 5 17
M  V30 19 1 6 18
M  V30 20 1 7 19
M  V30 21 1 14 20
M  V30 END BOND
M  V30 END CTAB
M  END
>  <Dataset>  (246) 
PDB

>  <Ligand_Instance>  (246) 
7AXV_S95_A_401

>  <PDB_ID>  (246) 
7AXV

>  <Standardized_SMILES>  (246) 
[H]C1=NC([H])=C2C([H])=C([H])C([H])=C(S(=O)(=O)[O-])C2=C1[H]

>  <Name>  (246) 
isoquinoline-5-sulfonic acid

>  <Pocket>  (246) 
X

>  <ATP_Site>  (246) 
1.0

>  <Peripheral>  (246) 
1.0

>  <Num_H_Atoms_ProtBoundConf>  (246) 
6.0

>  <Num_Resolved_Atoms>  (246) 
14.0

>  <Num_Not_Resolved_Atoms>  (246) 
0.0

$$$$
S95
     RDKit          3D

  0  0  0  0  0  0  0  0  0  0999 V3000
M  V30 BEGIN CTAB
M  V30 COUNTS 20 21 0 0 0
M  V30 BEGIN ATOM
M  V30 1 C -0.959751 0.980591 2.591795 0
M  V30 2 N -0.268939 0.251291 3.513522 0
M  V30 3 C 0.733095 -0.595154 3.133168 0
M  V30 4 C 1.032719 -0.698254 1.800985 0
M  V30 5 C 2.050130 -1.558941 1.424962 0
M  V30 6 C 2.376983 -1.684000 0.073989 0
M  V30 7 C 1.690451 -0.953853 -0.885609 0
M  V30 8 C 0.659903 -0.077833 -0.539024 0
M  V30 9 S -0.232463 0.860761 -1.701404 0
M  V30 10 O -1.642732 0.407682 -1.879378 0
M  V30 11 O 0.448132 0.624193 -3.044234 0
M  V30 12 O -0.100824 2.517139 -1.442331 0 CHG=-1 VAL=1
M  V30 13 C 0.387281 -0.000041 0.803198 0
M  V30 14 C -0.616852 0.840649 1.245490 0
M  V30 15 H -1.746348 1.641036 2.922991 0
M  V30 16 H 1.286825 -1.176509 3.845887 0
M  V30 17 H 2.585290 -2.127683 2.169620 0
M  V30 18 H 3.152208 -2.332230 -0.274191 0
M  V30 19 H 1.939680 -1.046837 -1.934999 0
M  V30 20 H -1.214693 1.456875 0.568998 0
M  V30 END ATOM
M  V30 BEGIN BOND
M  V30 1 2 1 2
M  V30 2 1 2 3
M  V30 3 2 3 4
M  V30 4 1 4 5
M  V30 5 2 5 6
M  V30 6 1 6 7
M  V30 7 2 7 8
M  V30 8 1 8 9
M  V30 9 2 9 10
M  V30 10 2 9 11
M  V30 11 1 9 12
M  V30 12 1 8 13
M  V30 13 2 13 14
M  V30 14 1 14 1
M  V30 15 1 13 4
M  V30 16 1 1 15
M  V30 17 1 3 16
M  V30 18 1 5 17
M  V30 19 1 6 18
M  V30 20 1 7 19
M  V30 21 1 14 20
M  V30 END BOND
M  V30 END CTAB
M  END
>  <Dataset>  (247) 
PDB

>  <Ligand_Instance>  (247) 
7AXV_S95_A_402

>  <PDB_ID>  (247) 
7AXV

>  <Standardized_SMILES>  (247) 
[H]C1=NC([H])=C2C([H])=C([H])C([H])=C(S(=O)(=O)[O-])C2=C1[H]

>  <Name>  (247) 
isoquinoline-5-sulfonic acid

>  <Pocket>  (247) 
A

>  <ATP_Site>  (247) 
1.0

>  <Peripheral>  (247) 
1.0

>  <Num_H_Atoms_ProtBoundConf>  (247) 
6.0

>  <Num_Resolved_Atoms>  (247) 
14.0

>  <Num_Not_Resolved_Atoms>  (247) 
0.0

$$$$
S9B
     RDKit          3D

  0  0  0  0  0  0  0  0  0  0999 V3000
M  V30 BEGIN CTAB
M  V30 COUNTS 19 20 0 0 0
M  V30 BEGIN ATOM
M  V30 1 C -1.387748 1.261278 1.645108 0
M  V30 2 N -0.820433 1.392919 2.860350 0
M  V30 3 C 0.421142 0.871960 3.043943 0
M  V30 4 C 1.079285 0.231732 2.027072 0
M  V30 5 C 2.339274 -0.323137 2.133277 0
M  V30 6 C 2.983137 -0.962881 1.097456 0
M  V30 7 C 2.351418 -1.066529 -0.124344 0
M  V30 8 C 1.093509 -0.516632 -0.242785 0
M  V30 9 C 0.538276 -0.690620 -1.570309 0
M  V30 10 O 1.028924 -1.244717 -2.563394 0
M  V30 11 O -0.569663 -0.421149 -2.332190 0 CHG=-1 VAL=1
M  V30 12 C 0.483022 0.108079 0.794815 0
M  V30 13 C -0.763545 0.630433 0.608347 0
M  V30 14 H -2.372165 1.699887 1.577740 0
M  V30 15 H 0.928335 0.945644 3.995721 0
M  V30 16 H 2.828293 -0.234723 3.104135 0
M  V30 17 H 3.975075 -1.360736 1.300335 0
M  V30 18 H 2.912984 -1.580984 -0.894582 0
M  V30 19 H -1.250621 0.551803 -0.329766 0
M  V30 END ATOM
M  V30 BEGIN BOND
M  V30 1 2 1 2
M  V30 2 1 2 3
M  V30 3 2 3 4
M  V30 4 1 4 5
M  V30 5 2 5 6
M  V30 6 1 6 7
M  V30 7 2 7 8
M  V30 8 1 8 9
M  V30 9 2 9 10
M  V30 10 1 9 11
M  V30 11 1 8 12
M  V30 12 2 12 13
M  V30 13 1 13 1
M  V30 14 1 12 4
M  V30 15 1 1 14
M  V30 16 1 3 15
M  V30 17 1 5 16
M  V30 18 1 6 17
M  V30 19 1 7 18
M  V30 20 1 13 19
M  V30 END BOND
M  V30 END CTAB
M  END
>  <Dataset>  (248) 
PDB

>  <Ligand_Instance>  (248) 
7AXT_S9B_A_401

>  <PDB_ID>  (248) 
7AXT

>  <Standardized_SMILES>  (248) 
[H]C1=NC([H])=C2C([H])=C([H])C([H])=C(C(=O)[O-])C2=C1[H]

>  <Name>  (248) 
isoquinoline-5-carboxylic acid

>  <Pocket>  (248) 
A

>  <ATP_Site>  (248) 
1.0

>  <Peripheral>  (248) 
0.0

>  <Num_H_Atoms_ProtBoundConf>  (248) 
6.0

>  <Num_Resolved_Atoms>  (248) 
13.0

>  <Num_Not_Resolved_Atoms>  (248) 
0.0

$$$$
SIJ
     RDKit          3D

  0  0  0  0  0  0  0  0  0  0999 V3000
M  V30 BEGIN CTAB
M  V30 COUNTS 41 44 0 0 0
M  V30 BEGIN ATOM
M  V30 1 C -1.626465 -4.937313 2.115892 0
M  V30 2 N -0.421112 -5.282370 2.628462 0
M  V30 3 C 0.648337 -4.503851 2.410434 0
M  V30 4 C 0.538725 -3.332720 1.656849 0
M  V30 5 N 1.756228 -2.778311 1.614508 0
M  V30 6 C 2.603117 -3.569159 2.314817 0
M  V30 7 N 1.932014 -4.629877 2.806545 0
M  V30 8 C -0.710708 -2.990311 1.135006 0
M  V30 9 N -0.751450 -1.802250 0.387976 0
M  V30 10 C 0.016756 -1.555456 -0.810854 0
M  V30 11 C 0.015288 -0.096452 -1.162462 0
M  V30 12 C 0.146945 0.834465 0.014230 0
M  V30 13 C -0.602786 0.384381 1.239944 0
M  V30 14 C -1.605637 -0.680634 0.778846 0
M  V30 15 C -0.408470 2.178728 -0.363163 0
M  V30 16 C 0.507789 3.329112 -0.154698 0
M  V30 17 C 1.426223 3.210000 1.020890 0
M  V30 18 C 1.716854 1.811497 1.439090 0
M  V30 19 N 1.550917 0.902007 0.348148 0 CHG=1 VAL=4
M  V30 20 N -1.767037 -3.811658 1.382848 0
M  V30 21 H -2.534031 -5.537571 2.263441 0
M  V30 22 H 3.652548 -3.324149 2.422764 0
M  V30 23 H 2.380727 -5.365852 3.374203 0
M  V30 24 H 1.038880 -1.919852 -0.801933 0
M  V30 25 H -0.525135 -2.096935 -1.636756 0
M  V30 26 H -0.870653 0.136525 -1.760405 0
M  V30 27 H 0.912334 0.093320 -1.812149 0
M  V30 28 H -1.209067 1.190570 1.700860 0
M  V30 29 H 0.053862 -0.138943 1.966787 0
M  V30 30 H -2.122935 -0.333056 -0.139022 0
M  V30 31 H -2.300133 -0.960461 1.585666 0
M  V30 32 H -1.379564 2.406383 0.160965 0
M  V30 33 H -0.701260 2.199129 -1.448575 0
M  V30 34 H -0.107893 4.261928 0.003408 0
M  V30 35 H 1.068920 3.563406 -1.103569 0
M  V30 36 H 2.380119 3.703648 0.739421 0
M  V30 37 H 1.039710 3.786186 1.887747 0
M  V30 38 H 2.777733 1.762996 1.821045 0
M  V30 39 H 1.104569 1.570608 2.334635 0
M  V30 40 H 2.081722 1.274453 -0.455714 0
M  V30 41 H 1.846860 -0.048214 0.648958 0
M  V30 END ATOM
M  V30 BEGIN BOND
M  V30 1 2 1 2
M  V30 2 1 2 3
M  V30 3 2 3 4
M  V30 4 1 4 5
M  V30 5 2 5 6
M  V30 6 1 6 7
M  V30 7 1 4 8
M  V30 8 1 8 9
M  V30 9 1 9 10
M  V30 10 1 10 11
M  V30 11 1 11 12
M  V30 12 1 12 13
M  V30 13 1 13 14
M  V30 14 1 12 15
M  V30 15 1 15 16
M  V30 16 1 16 17
M  V30 17 1 17 18
M  V30 18 1 18 19
M  V30 19 2 8 20
M  V30 20 1 20 1
M  V30 21 1 7 3
M  V30 22 1 14 9
M  V30 23 1 19 12
M  V30 24 1 1 21
M  V30 25 1 6 22
M  V30 26 1 7 23
M  V30 27 1 10 24
M  V30 28 1 10 25
M  V30 29 1 11 26
M  V30 30 1 11 27
M  V30 31 1 13 28
M  V30 32 1 13 29
M  V30 33 1 14 30
M  V30 34 1 14 31
M  V30 35 1 15 32
M  V30 36 1 15 33
M  V30 37 1 16 34
M  V30 38 1 16 35
M  V30 39 1 17 36
M  V30 40 1 17 37
M  V30 41 1 18 38
M  V30 42 1 18 39
M  V30 43 1 19 40
M  V30 44 1 19 41
M  V30 END BOND
M  V30 END CTAB
M  END
>  <Dataset>  (249) 
PDB

>  <Ligand_Instance>  (249) 
3ZO1_SIJ_A_1351

>  <PDB_ID>  (249) 
3ZO1

>  <Standardized_SMILES>  (249) 
[H]C1=NC2=C(N=C([H])N2[H])C(N2C([H])([H])C([H])([H])C3(C([H])([H])C2([H])[H])C([H])([H])C([H])([H])C([H])([H])C([H])([H])[N+]3([H])[H])=N1

>  <Name>  (249) 
6-(1,9-DIAZASPIRO[5.5]UNDECAN-9-YL)-9H-PURINE

>  <Pocket>  (249) 
A

>  <ATP_Site>  (249) 
1.0

>  <Peripheral>  (249) 
0.0

>  <Num_H_Atoms_ProtBoundConf>  (249) 
21.0

>  <Num_Resolved_Atoms>  (249) 
20.0

>  <Num_Not_Resolved_Atoms>  (249) 
0.0

$$$$
SKE
     RDKit          3D

  0  0  0  0  0  0  0  0  0  0999 V3000
M  V30 BEGIN CTAB
M  V30 COUNTS 39 41 0 0 0
M  V30 BEGIN ATOM
M  V30 1 C 3.003021 -6.652258 1.051244 0
M  V30 2 C 3.649066 -5.936541 0.073042 0
M  V30 3 C 3.332615 -4.572699 0.019438 0
M  V30 4 F 4.010625 -3.908074 -0.977170 0
M  V30 5 C 2.417315 -4.001415 0.913431 0
M  V30 6 C 2.182235 -2.605779 0.721816 0
M  V30 7 O 2.357962 -2.309835 -0.509378 0
M  V30 8 N 1.837027 -1.395402 1.315216 0
M  V30 9 N 1.649850 -0.265578 0.668186 0
M  V30 10 C 1.373516 0.725348 1.569917 0
M  V30 11 N 1.142442 2.025073 1.039557 0
M  V30 12 C -0.159427 2.453059 0.657940 0
M  V30 13 C -1.240580 1.607848 0.784022 0
M  V30 14 C -2.475286 2.071190 0.400969 0
M  V30 15 C -2.656082 3.359889 -0.105484 0
M  V30 16 S -4.268213 3.858453 -0.567067 0
M  V30 17 O -4.513093 5.312271 -0.327246 0
M  V30 18 O -5.307448 3.120172 0.265757 0
M  V30 19 N -4.585409 3.502528 -2.216129 0
M  V30 20 C -1.569947 4.218087 -0.235463 0
M  V30 21 C -0.330217 3.728092 0.158237 0
M  V30 22 N 1.405229 0.131301 2.788916 0
M  V30 23 C 1.692708 -1.178082 2.623030 0
M  V30 24 N 1.767321 -1.855141 3.853652 0
M  V30 25 C 1.845244 -4.838316 1.839778 0
M  V30 26 F 0.919491 -4.376654 2.704848 0
M  V30 27 C 2.092047 -6.185444 1.970545 0
M  V30 28 H 3.260197 -7.710095 1.082338 0
M  V30 29 H 4.351271 -6.400946 -0.604058 0
M  V30 30 H 1.962491 2.659960 0.937948 0
M  V30 31 H -1.067903 0.622375 1.177019 0
M  V30 32 H -3.300010 1.394038 0.509101 0
M  V30 33 H -4.491699 2.504876 -2.457856 0
M  V30 34 H -5.588392 3.762133 -2.397098 0
M  V30 35 H -1.712310 5.208417 -0.625270 0
M  V30 36 H 0.489502 4.441857 0.035791 0
M  V30 37 H 2.529610 -2.329124 4.412900 0
M  V30 38 H 0.951429 -2.009012 4.487482 0
M  V30 39 H 1.630764 -6.817377 2.706212 0
M  V30 END ATOM
M  V30 BEGIN BOND
M  V30 1 2 1 2
M  V30 2 1 2 3
M  V30 3 1 3 4
M  V30 4 2 3 5
M  V30 5 1 5 6
M  V30 6 2 6 7
M  V30 7 1 6 8
M  V30 8 1 8 9
M  V30 9 2 9 10
M  V30 10 1 10 11
M  V30 11 1 11 12
M  V30 12 2 12 13
M  V30 13 1 13 14
M  V30 14 2 14 15
M  V30 15 1 15 16
M  V30 16 2 16 17
M  V30 17 2 16 18
M  V30 18 1 16 19
M  V30 19 1 15 20
M  V30 20 2 20 21
M  V30 21 1 10 22
M  V30 22 2 22 23
M  V30 23 1 23 24
M  V30 24 1 5 25
M  V30 25 1 25 26
M  V30 26 2 25 27
M  V30 27 1 27 1
M  V30 28 1 23 8
M  V30 29 1 21 12
M  V30 30 1 1 28
M  V30 31 1 2 29
M  V30 32 1 11 30
M  V30 33 1 13 31
M  V30 34 1 14 32
M  V30 35 1 19 33
M  V30 36 1 19 34
M  V30 37 1 20 35
M  V30 38 1 21 36
M  V30 39 1 24 37
M  V30 40 1 24 38
M  V30 41 1 27 39
M  V30 END BOND
M  V30 END CTAB
M  END
>  <Dataset>  (250) 
PDB

>  <Ligand_Instance>  (250) 
3AMA_SKE_A_351

>  <PDB_ID>  (250) 
3AMA

>  <Standardized_SMILES>  (250) 
[H]C1=C([H])C(F)=C(C(=O)N2N=C(N([H])C3=C([H])C([H])=C(S(=O)(=O)N([H])[H])C([H])=C3[H])N=C2N([H])[H])C(F)=C1[H]

>  <Name>  (250) 
4-({5-amino-1-[(2,6-difluorophenyl)carbonyl]-1H-1,2,4-triazol-3-yl}amino)benzenesulfonamide

>  <Pocket>  (250) 
A

>  <ATP_Site>  (250) 
1.0

>  <Peripheral>  (250) 
0.0

>  <Num_H_Atoms_ProtBoundConf>  (250) 
12.0

>  <Num_Resolved_Atoms>  (250) 
27.0

>  <Num_Not_Resolved_Atoms>  (250) 
0.0

$$$$
SMY
     RDKit          3D

  0  0  0  0  0  0  0  0  0  0999 V3000
M  V30 BEGIN CTAB
M  V30 COUNTS 57 61 0 0 0
M  V30 BEGIN ATOM
M  V30 1 C 0.643483 -4.571929 1.356043 0
M  V30 2 N 0.990885 -3.592288 0.548301 0
M  V30 3 C 0.559869 -3.355479 -0.699844 0
M  V30 4 N 1.159597 -2.173156 -1.271667 0
M  V30 5 C 2.164447 -1.406394 -0.499181 0
M  V30 6 C 1.628519 -0.023588 -0.335310 0
M  V30 7 N 0.268680 0.099996 -0.856238 0
M  V30 8 C -0.907275 0.469385 -0.172998 0
M  V30 9 O -1.975002 0.487464 -0.836616 0
M  V30 10 C -1.848140 0.889460 0.878663 0 CFG=1
M  V30 11 C -1.539470 2.316828 1.274822 0
M  V30 12 C -0.159809 2.406346 1.781542 0
M  V30 13 C 0.849003 2.976406 1.023160 0
M  V30 14 N 1.954252 2.890729 1.811109 0
M  V30 15 C 1.643121 2.304609 2.979963 0
M  V30 16 C 2.404495 1.994538 4.094899 0
M  V30 17 C 1.830794 1.374065 5.201741 0
M  V30 18 C 0.480585 1.065760 5.180649 0
M  V30 19 C -0.291987 1.361893 4.091206 0
M  V30 20 C 0.294980 1.977770 3.002196 0
M  V30 21 N -3.230660 0.804265 0.430787 0 CHG=1 VAL=4
M  V30 22 C 0.228264 -0.212639 -2.263594 0
M  V30 23 C 1.042062 -1.445228 -2.514704 0
M  V30 24 C -0.380189 -4.244762 -1.243905 0
M  V30 25 C -0.740083 -5.247775 -0.424028 0
M  V30 26 N -0.256190 -5.408370 0.813861 0
M  V30 27 C -1.716783 -6.178907 -0.958074 0
M  V30 28 S -1.911369 -5.683137 -2.680400 0
M  V30 29 C -0.949630 -4.128815 -2.600748 0 CFG=1
M  V30 30 C -1.954917 -3.018269 -2.749028 0
M  V30 31 H 1.055800 -4.667024 2.345320 0
M  V30 32 H 2.369651 -1.918660 0.462588 0
M  V30 33 H 3.096954 -1.448193 -1.086710 0
M  V30 34 H 1.544682 0.196480 0.759510 0
M  V30 35 H 2.271823 0.739150 -0.813572 0
M  V30 36 H -1.663953 0.274865 1.771980 0
M  V30 37 H -2.261860 2.621204 2.084959 0
M  V30 38 H -1.752433 3.026026 0.448305 0
M  V30 39 H 0.864166 3.410045 0.042735 0
M  V30 40 H 2.910502 3.213460 1.588062 0
M  V30 41 H 3.456491 2.212438 4.161870 0
M  V30 42 H 2.440046 1.139136 6.064037 0
M  V30 43 H 0.022729 0.589881 6.020408 0
M  V30 44 H -1.343322 1.148370 4.014058 0
M  V30 45 H -3.829728 1.088295 1.266629 0
M  V30 46 H -3.516444 -0.108258 0.072636 0
M  V30 47 H -3.424583 1.551255 -0.266938 0
M  V30 48 H 0.671350 0.670900 -2.784921 0
M  V30 49 H -0.834651 -0.362058 -2.564801 0
M  V30 50 H 2.053735 -1.086951 -2.897051 0
M  V30 51 H 0.657799 -2.043501 -3.365655 0
M  V30 52 H -1.454744 -7.248010 -0.846337 0
M  V30 53 H -2.705206 -5.949997 -0.467399 0
M  V30 54 H -0.180548 -4.170775 -3.395045 0
M  V30 55 H -1.956516 -2.402812 -1.811176 0
M  V30 56 H -2.991486 -3.377318 -2.885747 0
M  V30 57 H -1.719775 -2.340483 -3.589261 0
M  V30 END ATOM
M  V30 BEGIN BOND
M  V30 1 2 1 2
M  V30 2 1 2 3
M  V30 3 1 3 4
M  V30 4 1 4 5
M  V30 5 1 5 6
M  V30 6 1 6 7
M  V30 7 1 7 8
M  V30 8 2 8 9
M  V30 9 1 8 10
M  V30 10 1 10 11
M  V30 11 1 11 12
M  V30 12 2 12 13
M  V30 13 1 13 14
M  V30 14 1 14 15
M  V30 15 2 15 16
M  V30 16 1 16 17
M  V30 17 2 17 18
M  V30 18 1 18 19
M  V30 19 2 19 20
M  V30 20 1 10 21
M  V30 21 1 7 22
M  V30 22 1 22 23
M  V30 23 2 3 24
M  V30 24 1 24 25
M  V30 25 2 25 26
M  V30 26 1 25 27
M  V30 27 1 27 28
M  V30 28 1 28 29
M  V30 29 1 29 30
M  V30 30 1 26 1
M  V30 31 1 23 4
M  V30 32 1 29 24
M  V30 33 1 20 12
M  V30 34 1 20 15
M  V30 35 1 1 31
M  V30 36 1 5 32
M  V30 37 1 5 33
M  V30 38 1 6 34
M  V30 39 1 6 35
M  V30 40 1 10 36 CFG=1
M  V30 41 1 11 37
M  V30 42 1 11 38
M  V30 43 1 13 39
M  V30 44 1 14 40
M  V30 45 1 16 41
M  V30 46 1 17 42
M  V30 47 1 18 43
M  V30 48 1 19 44
M  V30 49 1 21 45
M  V30 50 1 21 46
M  V30 51 1 21 47
M  V30 52 1 22 48
M  V30 53 1 22 49
M  V30 54 1 23 50
M  V30 55 1 23 51
M  V30 56 1 27 52
M  V30 57 1 27 53
M  V30 58 1 29 54 CFG=3
M  V30 59 1 30 55
M  V30 60 1 30 56
M  V30 61 1 30 57
M  V30 END BOND
M  V30 END CTAB
M  END
>  <Dataset>  (251) 
PDB

>  <Ligand_Instance>  (251) 
3OW3_SMY_A_401

>  <PDB_ID>  (251) 
3OW3

>  <Standardized_SMILES>  (251) 
[H]C1=NC(N2C([H])([H])C([H])([H])N(C(=O)[C@@]([H])(C([H])([H])C3=C([H])N([H])C4=C([H])C([H])=C([H])C([H])=C43)[N+]([H])([H])[H])C([H])([H])C2([H])[H])=C2C(=N1)C([H])([H])S[C@@]2([H])C([H])([H])[H]

>  <Name>  (251) 
(2R)-3-(1H-indol-3-yl)-1-{4-[(5S)-5-methyl-5,7-dihydrothieno[3,4-d]pyrimidin-4-yl]piperazin-1-yl}-1-oxopropan-2-amine

>  <Pocket>  (251) 
A

>  <ATP_Site>  (251) 
1.0

>  <Peripheral>  (251) 
0.0

>  <Num_H_Atoms_ProtBoundConf>  (251) 
27.0

>  <Num_Resolved_Atoms>  (251) 
30.0

>  <Num_Not_Resolved_Atoms>  (251) 
0.0

$$$$
SS3
     RDKit          3D

  0  0  0  0  0  0  0  0  0  0999 V3000
M  V30 BEGIN CTAB
M  V30 COUNTS 50 53 0 0 0
M  V30 BEGIN ATOM
M  V30 1 C -0.009126 -1.040020 3.009082 0
M  V30 2 N 1.258072 -0.952985 3.540353 0
M  V30 3 C 2.233830 -0.351390 2.793751 0
M  V30 4 C 1.926652 0.144612 1.547276 0
M  V30 5 C 2.832613 0.813491 0.617241 0
M  V30 6 C 2.667164 0.712219 -0.759342 0
M  V30 7 C 3.496904 1.326823 -1.673419 0
M  V30 8 C 4.554911 2.088501 -1.221449 0
M  V30 9 C 4.753106 2.213487 0.157643 0
M  V30 10 C 3.906460 1.586987 1.041550 0
M  V30 11 C 5.864483 3.018421 0.307510 0
M  V30 12 C 6.497109 3.461003 1.571845 0
M  V30 13 N 6.322953 3.367886 -0.899898 0
M  V30 14 N 5.534242 2.807996 -1.831224 0
M  V30 15 C 0.638700 0.019962 1.086049 0
M  V30 16 C -0.402189 -0.552935 1.732501 0
M  V30 17 O -1.685372 -0.882412 1.719225 0
M  V30 18 C -2.702937 -0.753980 0.826437 0
M  V30 19 C -2.589625 -1.481643 -0.478163 0 CFG=2
M  V30 20 C -2.529079 -2.967241 -0.143912 0
M  V30 21 C -3.725109 -3.437564 0.573803 0
M  V30 22 C -4.799542 -3.904917 -0.177919 0
M  V30 23 C -5.951319 -4.362221 0.421013 0
M  V30 24 C -6.097908 -4.379730 1.802519 0
M  V30 25 C -5.037175 -3.917716 2.563007 0
M  V30 26 C -3.888933 -3.462599 1.942830 0
M  V30 27 N -1.480309 -1.110893 -1.302622 0 CHG=1 VAL=4
M  V30 28 H -0.526474 -1.561334 3.842483 0
M  V30 29 H 3.265743 -0.201968 3.055632 0
M  V30 30 H 1.836719 0.115336 -1.169193 0
M  V30 31 H 3.360047 1.242033 -2.741141 0
M  V30 32 H 4.087482 1.703798 2.104593 0
M  V30 33 H 5.829991 3.307130 2.462855 0
M  V30 34 H 7.438940 2.922758 1.805259 0
M  V30 35 H 6.692763 4.559854 1.527391 0
M  V30 36 H 5.656089 2.910709 -2.876163 0
M  V30 37 H 0.303163 0.379788 0.152027 0
M  V30 38 H -2.884179 0.335320 0.518187 0
M  V30 39 H -3.720647 -1.014374 1.293358 0
M  V30 40 H -3.508420 -1.269030 -1.096636 0
M  V30 41 H -1.594774 -3.201877 0.403621 0
M  V30 42 H -2.460099 -3.512860 -1.101844 0
M  V30 43 H -4.773455 -3.927866 -1.258914 0
M  V30 44 H -6.779079 -4.724136 -0.207415 0
M  V30 45 H -7.029523 -4.752333 2.202627 0
M  V30 46 H -5.135875 -3.925413 3.635111 0
M  V30 47 H -3.068538 -3.105622 2.549561 0
M  V30 48 H -1.434537 -0.057999 -1.353947 0
M  V30 49 H -1.673409 -1.361866 -2.332091 0
M  V30 50 H -0.568982 -1.504627 -1.011785 0
M  V30 END ATOM
M  V30 BEGIN BOND
M  V30 1 2 1 2
M  V30 2 1 2 3
M  V30 3 2 3 4
M  V30 4 1 4 5
M  V30 5 2 5 6
M  V30 6 1 6 7
M  V30 7 2 7 8
M  V30 8 1 8 9
M  V30 9 2 9 10
M  V30 10 1 9 11
M  V30 11 1 11 12
M  V30 12 2 11 13
M  V30 13 1 13 14
M  V30 14 1 4 15
M  V30 15 2 15 16
M  V30 16 1 16 17
M  V30 17 1 17 18
M  V30 18 1 18 19
M  V30 19 1 19 20
M  V30 20 1 20 21
M  V30 21 2 21 22
M  V30 22 1 22 23
M  V30 23 2 23 24
M  V30 24 1 24 25
M  V30 25 2 25 26
M  V30 26 1 19 27
M  V30 27 1 16 1
M  V30 28 1 26 21
M  V30 29 1 10 5
M  V30 30 1 14 8
M  V30 31 1 1 28
M  V30 32 1 3 29
M  V30 33 1 6 30
M  V30 34 1 7 31
M  V30 35 1 10 32
M  V30 36 1 12 33
M  V30 37 1 12 34
M  V30 38 1 12 35
M  V30 39 1 14 36
M  V30 40 1 15 37
M  V30 41 1 18 38
M  V30 42 1 18 39
M  V30 43 1 19 40 CFG=3
M  V30 44 1 20 41
M  V30 45 1 20 42
M  V30 46 1 22 43
M  V30 47 1 23 44
M  V30 48 1 24 45
M  V30 49 1 25 46
M  V30 50 1 26 47
M  V30 51 1 27 48
M  V30 52 1 27 49
M  V30 53 1 27 50
M  V30 END BOND
M  V30 END CTAB
M  END
>  <Dataset>  (252) 
PDB

>  <Ligand_Instance>  (252) 
2UZT_SS3_A_1351

>  <PDB_ID>  (252) 
2UZT

>  <Standardized_SMILES>  (252) 
[H]C1=NC([H])=C(C2=C([H])C([H])=C3C(=C2[H])C(C([H])([H])[H])=NN3[H])C([H])=C1OC([H])([H])[C@]([H])(C([H])([H])C1=C([H])C([H])=C([H])C([H])=C1[H])[N+]([H])([H])[H]

>  <Name>  (252) 
(2S)-1-{[5-(3-METHYL-1H-INDAZOL-5-YL)PYRIDIN-3-YL]OXY}-3-PHENYLPROPAN-2-AMINE

>  <Pocket>  (252) 
A

>  <ATP_Site>  (252) 
1.0

>  <Peripheral>  (252) 
0.0

>  <Num_H_Atoms_ProtBoundConf>  (252) 
23.0

>  <Num_Resolved_Atoms>  (252) 
27.0

>  <Num_Not_Resolved_Atoms>  (252) 
0.0

$$$$
SS4
     RDKit          3D

  0  0  0  0  0  0  0  0  0  0999 V3000
M  V30 BEGIN CTAB
M  V30 COUNTS 50 53 0 0 0
M  V30 BEGIN ATOM
M  V30 1 C 0.228281 -1.809224 2.694735 0
M  V30 2 N 0.976346 -1.322478 3.700803 0
M  V30 3 C 1.952217 -0.415284 3.500607 0
M  V30 4 C 2.244912 0.071665 2.247305 0
M  V30 5 C 3.311500 1.058608 2.054710 0
M  V30 6 C 4.450969 1.149953 2.796830 0
M  V30 7 C 5.409154 2.128714 2.534193 0
M  V30 8 C 5.240585 3.049671 1.506067 0
M  V30 9 C 4.090138 2.970208 0.744352 0
M  V30 10 C 3.156727 1.993939 1.022417 0
M  V30 11 C 4.154775 3.979160 -0.199451 0
M  V30 12 C 3.141537 4.292063 -1.246320 0
M  V30 13 N 5.323057 4.625432 0.018380 0
M  V30 14 N 5.968273 4.065505 1.039399 0
M  V30 15 C 1.491592 -0.410809 1.190578 0
M  V30 16 C 0.480675 -1.352873 1.410471 0
M  V30 17 O -0.154126 -1.706150 0.225762 0
M  V30 18 C -1.197222 -2.642027 0.267244 0
M  V30 19 C -1.785232 -2.925081 -1.090292 0 CFG=2
M  V30 20 C -2.936529 -3.868800 -1.053280 0
M  V30 21 C -4.069079 -3.381990 -0.233983 0
M  V30 22 C -4.993411 -2.623437 -0.963230 0
M  V30 23 C -6.122674 -2.079849 -0.370252 0
M  V30 24 C -6.307009 -2.318757 0.995624 0
M  V30 25 Br -7.865760 -1.565416 1.804074 0
M  V30 26 C -5.396702 -3.068869 1.725340 0
M  V30 27 C -4.280821 -3.599052 1.112137 0
M  V30 28 N -0.762253 -3.452020 -1.956836 0 CHG=1 VAL=4
M  V30 29 H -0.565300 -2.523238 2.725838 0
M  V30 30 H 2.509894 -0.071091 4.356496 0
M  V30 31 H 4.582883 0.439666 3.592373 0
M  V30 32 H 6.300637 2.180663 3.133094 0
M  V30 33 H 2.274549 2.007158 0.366286 0
M  V30 34 H 2.796803 5.350199 -1.149660 0
M  V30 35 H 2.225888 3.687880 -1.024904 0
M  V30 36 H 3.452466 4.023328 -2.265021 0
M  V30 37 H 6.900316 4.394549 1.396947 0
M  V30 38 H 1.760130 0.003083 0.222050 0
M  V30 39 H -1.949760 -2.251627 0.975601 0
M  V30 40 H -0.875375 -3.621017 0.693720 0
M  V30 41 H -2.110771 -1.938719 -1.500855 0
M  V30 42 H -2.653647 -4.859241 -0.596822 0
M  V30 43 H -3.252885 -4.114595 -2.081842 0
M  V30 44 H -4.893745 -2.410491 -2.025527 0
M  V30 45 H -6.835844 -1.488140 -0.955795 0
M  V30 46 H -5.555778 -3.244061 2.785440 0
M  V30 47 H -3.535324 -4.186618 1.606511 0
M  V30 48 H -0.236011 -4.240047 -1.492121 0
M  V30 49 H -1.150279 -3.858928 -2.838444 0
M  V30 50 H -0.037244 -2.762952 -2.231483 0
M  V30 END ATOM
M  V30 BEGIN BOND
M  V30 1 2 1 2
M  V30 2 1 2 3
M  V30 3 2 3 4
M  V30 4 1 4 5
M  V30 5 2 5 6
M  V30 6 1 6 7
M  V30 7 2 7 8
M  V30 8 1 8 9
M  V30 9 2 9 10
M  V30 10 1 9 11
M  V30 11 1 11 12
M  V30 12 2 11 13
M  V30 13 1 13 14
M  V30 14 1 4 15
M  V30 15 2 15 16
M  V30 16 1 16 17
M  V30 17 1 17 18
M  V30 18 1 18 19
M  V30 19 1 19 20
M  V30 20 1 20 21
M  V30 21 2 21 22
M  V30 22 1 22 23
M  V30 23 2 23 24
M  V30 24 1 24 25
M  V30 25 1 24 26
M  V30 26 2 26 27
M  V30 27 1 19 28
M  V30 28 1 16 1
M  V30 29 1 27 21
M  V30 30 1 10 5
M  V30 31 1 14 8
M  V30 32 1 1 29
M  V30 33 1 3 30
M  V30 34 1 6 31
M  V30 35 1 7 32
M  V30 36 1 10 33
M  V30 37 1 12 34
M  V30 38 1 12 35
M  V30 39 1 12 36
M  V30 40 1 14 37
M  V30 41 1 15 38
M  V30 42 1 18 39
M  V30 43 1 18 40
M  V30 44 1 19 41 CFG=3
M  V30 45 1 20 42
M  V30 46 1 20 43
M  V30 47 1 22 44
M  V30 48 1 23 45
M  V30 49 1 26 46
M  V30 50 1 27 47
M  V30 51 1 28 48
M  V30 52 1 28 49
M  V30 53 1 28 50
M  V30 END BOND
M  V30 END CTAB
M  END
>  <Dataset>  (253) 
PDB

>  <Ligand_Instance>  (253) 
2UZW_SS4_E_1351

>  <PDB_ID>  (253) 
2UZW

>  <Standardized_SMILES>  (253) 
[H]C1=NC([H])=C(C2=C([H])C([H])=C3C(=C2[H])C(C([H])([H])[H])=NN3[H])C([H])=C1OC([H])([H])[C@]([H])(C([H])([H])C1=C([H])C([H])=C(Br)C([H])=C1[H])[N+]([H])([H])[H]

>  <Name>  (253) 
3-PYRIDIN-4-YL-2,4-DIHYDRO-INDENO[1,2-.C.] PYRAZOLE

>  <Pocket>  (253) 
A

>  <ATP_Site>  (253) 
1.0

>  <Peripheral>  (253) 
0.0

>  <Num_H_Atoms_ProtBoundConf>  (253) 
22.0

>  <Num_Resolved_Atoms>  (253) 
28.0

>  <Num_Not_Resolved_Atoms>  (253) 
0.0

$$$$
SS5
     RDKit          3D

  0  0  0  0  0  0  0  0  0  0999 V3000
M  V30 BEGIN CTAB
M  V30 COUNTS 70 74 0 0 0
M  V30 BEGIN ATOM
M  V30 1 C -2.436007 -0.931308 4.623844 0
M  V30 2 N -1.636758 -0.546612 5.622914 0
M  V30 3 C -0.364540 -0.207093 5.347202 0
M  V30 4 C 0.193385 -0.226313 4.076014 0
M  V30 5 C 1.581406 0.154256 3.830750 0
M  V30 6 C 2.221886 1.114379 4.596088 0
M  V30 7 C 3.531203 1.425772 4.312294 0
M  V30 8 C 4.222017 0.809178 3.288612 0
M  V30 9 C 3.565570 -0.150573 2.531375 0
M  V30 10 C 2.240952 -0.484285 2.797433 0
M  V30 11 C 4.471358 -0.598590 1.592416 0
M  V30 12 C 4.207991 -1.621421 0.574858 0
M  V30 13 N 5.611105 0.072127 1.792833 0
M  V30 14 N 5.481030 0.918251 2.802841 0
M  V30 15 C -0.665692 -0.632755 3.050979 0
M  V30 16 C -1.990597 -0.989902 3.314473 0
M  V30 17 O -2.636550 -1.350645 2.165760 0
M  V30 18 C -3.955219 -1.763049 2.032760 0
M  V30 19 C -4.354139 -2.087437 0.622100 0 CFG=2
M  V30 20 C -3.656357 -3.299633 0.050112 0
M  V30 21 C -2.184275 -3.143090 0.023635 0
M  V30 22 C -1.423364 -3.567733 1.091383 0
M  V30 23 C -0.048220 -3.406360 1.038969 0
M  V30 24 C 0.511763 -2.816678 -0.099999 0
M  V30 25 C -0.271897 -2.386440 -1.183895 0
M  V30 26 O 0.590814 -1.868059 -2.107581 0
M  V30 27 C 0.396235 -1.298601 -3.338881 0
M  V30 28 C -0.434825 -0.039627 -3.297063 0
M  V30 29 C 0.294454 0.951604 -2.412538 0
M  V30 30 C -0.387537 2.280560 -2.342265 0
M  V30 31 C -0.908495 2.754868 -3.661522 0
M  V30 32 C -0.106485 2.005747 -4.731112 0
M  V30 33 C -0.549932 0.560733 -4.682442 0
M  V30 34 C -1.630480 -2.573650 -1.074132 0
M  V30 35 N -4.216974 -0.980823 -0.297438 0 CHG=1 VAL=4
M  V30 36 H -3.458852 -1.222479 4.721965 0
M  V30 37 H 0.246453 0.097454 6.180458 0
M  V30 38 H 1.671644 1.596748 5.401388 0
M  V30 39 H 4.067303 2.164011 4.879764 0
M  V30 40 H 1.776340 -1.237854 2.177967 0
M  V30 41 H 3.800419 -2.531987 1.058468 0
M  V30 42 H 5.126638 -1.890342 0.016233 0
M  V30 43 H 3.504065 -1.191376 -0.176147 0
M  V30 44 H 6.188436 1.592592 3.216282 0
M  V30 45 H -0.179326 -0.630006 2.075474 0
M  V30 46 H -4.134818 -2.668098 2.634540 0
M  V30 47 H -4.708172 -1.003585 2.384840 0
M  V30 48 H -5.454997 -2.354531 0.572964 0
M  V30 49 H -3.895600 -4.144680 0.736247 0
M  V30 50 H -4.071857 -3.513102 -0.949987 0
M  V30 51 H -1.942844 -4.011002 1.927405 0
M  V30 52 H 0.457397 -3.762864 1.906425 0
M  V30 53 H 1.603862 -2.779399 0.051151 0
M  V30 54 H 0.001278 -2.021099 -4.098398 0
M  V30 55 H 1.412170 -0.954103 -3.705424 0
M  V30 56 H -1.444904 -0.251828 -2.960624 0
M  V30 57 H 1.324929 1.037852 -2.784759 0
M  V30 58 H 0.349022 0.565351 -1.373051 0
M  V30 59 H 0.375748 3.029032 -2.002402 0
M  V30 60 H -1.167709 2.317098 -1.533709 0
M  V30 61 H -1.999719 2.501007 -3.755694 0
M  V30 62 H -0.746595 3.836809 -3.782198 0
M  V30 63 H -0.374969 2.454598 -5.691990 0
M  V30 64 H 0.966964 2.119760 -4.473036 0
M  V30 65 H -1.593450 0.545795 -5.059880 0
M  V30 66 H 0.127750 -0.000005 -5.353581 0
M  V30 67 H -2.134827 -2.227528 -1.938391 0
M  V30 68 H -4.506930 -1.366499 -1.236861 0
M  V30 69 H -4.905113 -0.208499 -0.095862 0
M  V30 70 H -3.260797 -0.598360 -0.301852 0
M  V30 END ATOM
M  V30 BEGIN BOND
M  V30 1 2 1 2
M  V30 2 1 2 3
M  V30 3 2 3 4
M  V30 4 1 4 5
M  V30 5 2 5 6
M  V30 6 1 6 7
M  V30 7 2 7 8
M  V30 8 1 8 9
M  V30 9 2 9 10
M  V30 10 1 9 11
M  V30 11 1 11 12
M  V30 12 2 11 13
M  V30 13 1 13 14
M  V30 14 1 4 15
M  V30 15 2 15 16
M  V30 16 1 16 17
M  V30 17 1 17 18
M  V30 18 1 18 19
M  V30 19 1 19 20
M  V30 20 1 20 21
M  V30 21 2 21 22
M  V30 22 1 22 23
M  V30 23 2 23 24
M  V30 24 1 24 25
M  V30 25 1 25 26
M  V30 26 1 26 27
M  V30 27 1 27 28
M  V30 28 1 28 29
M  V30 29 1 29 30
M  V30 30 1 30 31
M  V30 31 1 31 32
M  V30 32 1 32 33
M  V30 33 2 25 34
M  V30 34 1 19 35
M  V30 35 1 16 1
M  V30 36 1 34 21
M  V30 37 1 10 5
M  V30 38 1 33 28
M  V30 39 1 14 8
M  V30 40 1 1 36
M  V30 41 1 3 37
M  V30 42 1 6 38
M  V30 43 1 7 39
M  V30 44 1 10 40
M  V30 45 1 12 41
M  V30 46 1 12 42
M  V30 47 1 12 43
M  V30 48 1 14 44
M  V30 49 1 15 45
M  V30 50 1 18 46
M  V30 51 1 18 47
M  V30 52 1 19 48 CFG=1
M  V30 53 1 20 49
M  V30 54 1 20 50
M  V30 55 1 22 51
M  V30 56 1 23 52
M  V30 57 1 24 53
M  V30 58 1 27 54
M  V30 59 1 27 55
M  V30 60 1 28 56
M  V30 61 1 29 57
M  V30 62 1 29 58
M  V30 63 1 30 59
M  V30 64 1 30 60
M  V30 65 1 31 61
M  V30 66 1 31 62
M  V30 67 1 32 63
M  V30 68 1 32 64
M  V30 69 1 33 65
M  V30 70 1 33 66
M  V30 71 1 34 67
M  V30 72 1 35 68
M  V30 73 1 35 69
M  V30 74 1 35 70
M  V30 END BOND
M  V30 END CTAB
M  END
>  <Dataset>  (254) 
PDB

>  <Ligand_Instance>  (254) 
2UZV_SS5_A_1351

>  <PDB_ID>  (254) 
2UZV

>  <Standardized_SMILES>  (254) 
[H]C1=NC([H])=C(C2=C([H])C([H])=C3C(=C2[H])C(C([H])([H])[H])=NN3[H])C([H])=C1OC([H])([H])[C@]([H])(C([H])([H])C1=C([H])C([H])=C([H])C(OC([H])([H])C2([H])C([H])([H])C([H])([H])C([H])([H])C([H])([H])C2([H])[H])=C1[H])[N+]([H])([H])[H]

>  <Name>  (254) 
(2S)-1-[3-(CYCLOHEXYLMETHOXY)PHENYL]-3-{[5-(3-METHYL-1H-INDAZOL-5-YL)PYRIDIN-3-YL]OXY}PROPAN-2-AMINE

>  <Pocket>  (254) 
A

>  <ATP_Site>  (254) 
1.0

>  <Peripheral>  (254) 
0.0

>  <Num_H_Atoms_ProtBoundConf>  (254) 
35.0

>  <Num_Resolved_Atoms>  (254) 
35.0

>  <Num_Not_Resolved_Atoms>  (254) 
0.0

$$$$
STU
     RDKit          3D

  0  0  0  0  0  0  0  0  0  0999 V3000
M  V30 BEGIN CTAB
M  V30 COUNTS 62 69 0 0 0
M  V30 BEGIN ATOM
M  V30 1 C -5.720375 -1.672273 1.082646 0
M  V30 2 C -5.070978 -2.895293 1.250274 0
M  V30 3 C -3.692109 -2.901294 1.295857 0
M  V30 4 C -2.984295 -1.726161 1.178122 0
M  V30 5 C -3.581858 -0.498072 1.011582 0
M  V30 6 C -4.942247 -0.542438 0.972637 0
M  V30 7 C -2.561883 0.401199 0.936976 0
M  V30 8 C -1.370542 -0.272285 1.057396 0
M  V30 9 C -0.156709 0.384696 1.005815 0
M  V30 10 C -0.192070 1.729295 0.825945 0
M  V30 11 C 1.113995 2.123103 0.804347 0
M  V30 12 C 1.715055 3.350292 0.646510 0
M  V30 13 C 3.086288 3.460854 0.654634 0
M  V30 14 C 3.849473 2.304004 0.825671 0
M  V30 15 C 3.223155 1.101313 0.979644 0
M  V30 16 C 1.862236 0.981043 0.973832 0
M  V30 17 N 1.116915 -0.113151 1.104719 0
M  V30 18 C 1.445974 -1.508002 1.335046 0 CFG=1
M  V30 19 C 2.615116 -1.553500 2.337787 0
M  V30 20 O 0.429780 -2.163614 2.021505 0
M  V30 21 C -0.621388 -2.641955 1.340301 0 CFG=1
M  V30 22 N -1.626531 -1.584667 1.205108 0
M  V30 23 C -0.313185 -3.231837 -0.008746 0
M  V30 24 C 1.164386 -3.557507 -0.034911 0 CFG=1
M  V30 25 N 1.479989 -4.236054 -1.251285 0 CHG=1 VAL=4
M  V30 26 C 0.687240 -5.466514 -1.260163 0
M  V30 27 C 1.871014 -2.209500 0.065416 0 CFG=1
M  V30 28 O 1.445612 -1.507025 -1.081226 0
M  V30 29 C 2.469668 -1.209151 -1.951252 0
M  V30 30 C -1.376954 2.415224 0.703866 0
M  V30 31 C -2.576959 1.748096 0.759909 0
M  V30 32 C -3.611406 2.720513 0.605387 0
M  V30 33 O -4.843708 2.694959 0.576569 0
M  V30 34 N -3.041270 4.007160 0.451604 0
M  V30 35 C -1.579990 3.881741 0.504890 0
M  V30 36 H -6.798406 -1.666416 1.046881 0
M  V30 37 H -5.652842 -3.801958 1.339935 0
M  V30 38 H -3.186904 -3.847318 1.425610 0
M  V30 39 H -5.502291 0.350680 0.847507 0
M  V30 40 H 1.098651 4.246704 0.513331 0
M  V30 41 H 3.580227 4.418463 0.532132 0
M  V30 42 H 4.943300 2.377044 0.834063 0
M  V30 43 H 3.830961 0.247424 1.093809 0
M  V30 44 H 2.691306 -0.629898 2.933607 0
M  V30 45 H 2.423212 -2.341134 3.141117 0
M  V30 46 H 3.545119 -1.918695 1.879180 0
M  V30 47 H -1.077015 -3.469901 1.960675 0
M  V30 48 H -0.958918 -4.095585 -0.247506 0
M  V30 49 H -0.561472 -2.442174 -0.776130 0
M  V30 50 H 1.380043 -4.229198 0.803243 0
M  V30 51 H 2.474169 -4.535972 -1.205022 0
M  V30 52 H 1.232626 -3.732925 -2.114192 0
M  V30 53 H 1.215351 -6.299234 -1.789406 0
M  V30 54 H -0.279211 -5.344576 -1.800514 0
M  V30 55 H 0.512486 -5.837783 -0.218015 0
M  V30 56 H 2.968036 -2.394663 0.053898 0
M  V30 57 H 2.087195 -0.648386 -2.853015 0
M  V30 58 H 3.262505 -0.553158 -1.524978 0
M  V30 59 H 3.034607 -2.123667 -2.290766 0
M  V30 60 H -3.418933 4.968207 0.316448 0
M  V30 61 H -1.207264 4.205988 -0.484162 0
M  V30 62 H -1.149159 4.462692 1.339568 0
M  V30 END ATOM
M  V30 BEGIN BOND
M  V30 1 2 1 2
M  V30 2 1 2 3
M  V30 3 2 3 4
M  V30 4 1 4 5
M  V30 5 2 5 6
M  V30 6 1 5 7
M  V30 7 2 7 8
M  V30 8 1 8 9
M  V30 9 2 9 10
M  V30 10 1 10 11
M  V30 11 2 11 12
M  V30 12 1 12 13
M  V30 13 2 13 14
M  V30 14 1 14 15
M  V30 15 2 15 16
M  V30 16 1 16 17
M  V30 17 1 17 18
M  V30 18 1 18 19 CFG=1
M  V30 19 1 18 20
M  V30 20 1 20 21
M  V30 21 1 21 22
M  V30 22 1 21 23
M  V30 23 1 23 24
M  V30 24 1 24 25
M  V30 25 1 25 26
M  V30 26 1 24 27
M  V30 27 1 27 28
M  V30 28 1 28 29
M  V30 29 1 10 30
M  V30 30 2 30 31
M  V30 31 1 31 32
M  V30 32 2 32 33
M  V30 33 1 32 34
M  V30 34 1 34 35
M  V30 35 1 6 1
M  V30 36 1 31 7
M  V30 37 1 22 4
M  V30 38 1 35 30
M  V30 39 1 22 8
M  V30 40 1 17 9
M  V30 41 1 27 18
M  V30 42 1 16 11
M  V30 43 1 1 36
M  V30 44 1 2 37
M  V30 45 1 3 38
M  V30 46 1 6 39
M  V30 47 1 12 40
M  V30 48 1 13 41
M  V30 49 1 14 42
M  V30 50 1 15 43
M  V30 51 1 19 44
M  V30 52 1 19 45
M  V30 53 1 19 46
M  V30 54 1 21 47 CFG=1
M  V30 55 1 23 48
M  V30 56 1 23 49
M  V30 57 1 24 50 CFG=1
M  V30 58 1 25 51
M  V30 59 1 25 52
M  V30 60 1 26 53
M  V30 61 1 26 54
M  V30 62 1 26 55
M  V30 63 1 27 56 CFG=1
M  V30 64 1 29 57
M  V30 65 1 29 58
M  V30 66 1 29 59
M  V30 67 1 34 60
M  V30 68 1 35 61
M  V30 69 1 35 62
M  V30 END BOND
M  V30 END CTAB
M  END
>  <Dataset>  (255) 
PDB

>  <Ligand_Instance>  (255) 
4C34_STU_A_1351

>  <PDB_ID>  (255) 
4C34

>  <Standardized_SMILES>  (255) 
[H]C1=C([H])C([H])=C2C(=C1[H])C1=C3C4=C(C5=C([H])C([H])=C([H])C([H])=C5N4[C@@]4(C([H])([H])[H])O[C@@]([H])(N23)C([H])([H])[C@@]([H])([N+]([H])([H])C([H])([H])[H])[C@@]4([H])OC([H])([H])[H])C2=C1C(=O)N([H])C2([H])[H]

>  <Name>  (255) 
STAUROSPORINE

>  <Pocket>  (255) 
A

>  <ATP_Site>  (255) 
1.0

>  <Peripheral>  (255) 
0.0

>  <Num_H_Atoms_ProtBoundConf>  (255) 
27.0

>  <Num_Resolved_Atoms>  (255) 
35.0

>  <Num_Not_Resolved_Atoms>  (255) 
0.0

$$$$
T7W
     RDKit          3D

  0  0  0  0  0  0  0  0  0  0999 V3000
M  V30 BEGIN CTAB
M  V30 COUNTS 52 55 0 0 0
M  V30 BEGIN ATOM
M  V30 1 C -4.821303 -2.959647 1.833188 0
M  V30 2 N -4.419419 -4.228143 1.863352 0
M  V30 3 C -3.152129 -4.607615 2.011634 0
M  V30 4 C -2.166565 -3.672837 2.144879 0
M  V30 5 C -2.497003 -2.326392 2.124485 0
M  V30 6 C -1.655706 -1.141328 2.243791 0
M  V30 7 N -1.038306 -0.402747 3.183577 0
M  V30 8 O -0.406718 0.587367 2.623514 0
M  V30 9 C -0.572328 0.554246 1.302983 0
M  V30 10 C 0.006668 1.531665 0.339742 0 CFG=2
M  V30 11 N 0.583205 0.878677 -0.808653 0
M  V30 12 C -0.198092 0.310543 -1.833962 0
M  V30 13 O -1.313747 0.603277 -1.338851 0
M  V30 14 C 0.481396 -0.347392 -2.986614 0
M  V30 15 C -0.525992 -0.890158 -3.968517 0
M  V30 16 C 0.169459 -1.557344 -5.138171 0
M  V30 17 C -1.376577 0.278901 -4.455128 0
M  V30 18 C -1.400014 -1.895739 -3.275412 0
M  V30 19 C -0.579405 -3.007414 -2.754542 0
M  V30 20 O 0.107980 -3.064165 -1.719316 0
M  V30 21 O -0.498630 -4.217452 -3.456658 0 CHG=-1 VAL=1
M  V30 22 C 2.042046 0.837307 -0.853318 0
M  V30 23 C 2.490206 2.254399 -0.941847 0
M  V30 24 C 1.920340 3.012724 0.057978 0
M  V30 25 N 2.358162 4.284560 -0.067448 0
M  V30 26 C 3.190821 4.326361 -1.129823 0
M  V30 27 N 3.264009 3.078729 -1.656815 0 CHG=1 VAL=4
M  V30 28 C 0.990642 2.412114 1.051787 0
M  V30 29 N -1.348334 -0.522979 1.088299 0
M  V30 30 C -3.841138 -1.974552 1.966568 0
M  V30 31 H -5.875406 -2.750412 1.708129 0
M  V30 32 H -2.778587 -5.626842 2.042257 0
M  V30 33 H -1.083020 -3.777658 2.274835 0
M  V30 34 H -0.856964 2.184974 0.045534 0
M  V30 35 H 1.151056 0.385847 -3.494426 0
M  V30 36 H 1.122490 -1.170309 -2.632927 0
M  V30 37 H -0.521066 -2.291335 -5.608689 0
M  V30 38 H 0.474598 -0.777714 -5.862269 0
M  V30 39 H 1.092488 -2.070964 -4.781907 0
M  V30 40 H -0.806868 1.207744 -4.309458 0
M  V30 41 H -2.332285 0.297388 -3.884385 0
M  V30 42 H -1.578389 0.181550 -5.553180 0
M  V30 43 H -1.922059 -1.367439 -2.432572 0
M  V30 44 H -2.197469 -2.282412 -3.939877 0
M  V30 45 H 2.401767 0.228099 -1.710898 0
M  V30 46 H 2.386655 0.385765 0.089959 0
M  V30 47 H 2.119583 5.118368 0.530385 0
M  V30 48 H 3.746214 5.158253 -1.559698 0
M  V30 49 H 3.786043 2.669630 -2.473793 0
M  V30 50 H 0.436909 3.201854 1.587599 0
M  V30 51 H 1.558114 1.785355 1.787903 0
M  V30 52 H -4.239641 -0.957014 1.932668 0
M  V30 END ATOM
M  V30 BEGIN BOND
M  V30 1 2 1 2
M  V30 2 1 2 3
M  V30 3 2 3 4
M  V30 4 1 4 5
M  V30 5 1 5 6
M  V30 6 2 6 7
M  V30 7 1 7 8
M  V30 8 1 8 9
M  V30 9 1 9 10
M  V30 10 1 10 11
M  V30 11 1 11 12
M  V30 12 2 12 13
M  V30 13 1 12 14
M  V30 14 1 14 15
M  V30 15 1 15 16
M  V30 16 1 15 17
M  V30 17 1 15 18
M  V30 18 1 18 19
M  V30 19 2 19 20
M  V30 20 1 19 21
M  V30 21 1 11 22
M  V30 22 1 22 23
M  V30 23 2 23 24
M  V30 24 1 24 25
M  V30 25 1 25 26
M  V30 26 2 26 27
M  V30 27 1 24 28
M  V30 28 2 9 29
M  V30 29 2 5 30
M  V30 30 1 30 1
M  V30 31 1 29 6
M  V30 32 1 28 10
M  V30 33 1 27 23
M  V30 34 1 1 31
M  V30 35 1 3 32
M  V30 36 1 4 33
M  V30 37 1 10 34 CFG=3
M  V30 38 1 14 35
M  V30 39 1 14 36
M  V30 40 1 16 37
M  V30 41 1 16 38
M  V30 42 1 16 39
M  V30 43 1 17 40
M  V30 44 1 17 41
M  V30 45 1 17 42
M  V30 46 1 18 43
M  V30 47 1 18 44
M  V30 48 1 22 45
M  V30 49 1 22 46
M  V30 50 1 25 47
M  V30 51 1 26 48
M  V30 52 1 27 49
M  V30 53 1 28 50
M  V30 54 1 28 51
M  V30 55 1 30 52
M  V30 END BOND
M  V30 END CTAB
M  END
>  <Dataset>  (256) 
PDB

>  <Ligand_Instance>  (256) 
7BB0_T7W_A_401

>  <PDB_ID>  (256) 
7BB0

>  <Standardized_SMILES>  (256) 
[H]C1=NC([H])=C([H])C(C2=NOC([C@]3([H])N(C(=O)C([H])([H])C(C([H])([H])[H])(C([H])([H])[H])C([H])([H])C(=O)[O-])C([H])([H])C4=C(N([H])C([H])=[N+]4[H])C3([H])[H])=N2)=C1[H]

>  <Name>  (256) 
(R)-3,3-dimethyl-5-oxo-5-(6-(3-(pyridin-4-yl)-1,2,4-oxadiazol-5-yl)-1,4,6,7-tetrahydro-5H-imidazo[4,5-c]pyridin-5-yl)pentanoic acid

>  <Pocket>  (256) 
A

>  <ATP_Site>  (256) 
1.0

>  <Peripheral>  (256) 
0.0

>  <Num_H_Atoms_ProtBoundConf>  (256) 
22.0

>  <Num_Resolved_Atoms>  (256) 
30.0

>  <Num_Not_Resolved_Atoms>  (256) 
0.0

$$$$
T82
     RDKit          3D

  0  0  0  0  0  0  0  0  0  0999 V3000
M  V30 BEGIN CTAB
M  V30 COUNTS 39 40 0 0 0
M  V30 BEGIN ATOM
M  V30 1 O 3.942834 -6.996671 2.147797 0
M  V30 2 C 3.232763 -5.787237 2.106635 0
M  V30 3 C 3.661470 -4.670584 2.796689 0
M  V30 4 C 2.952737 -3.483623 2.748343 0
M  V30 5 C 1.785305 -3.383025 2.000709 0
M  V30 6 C 1.030250 -2.131877 1.944283 0
M  V30 7 N -0.042556 -1.948179 1.290064 0
M  V30 8 N -0.779739 -0.763367 1.221770 0
M  V30 9 C -1.112958 -0.265690 -0.070515 0
M  V30 10 O -0.641656 -1.051026 -0.954247 0
M  V30 11 C -1.886293 0.977300 -0.140108 0 CFG=1
M  V30 12 C -1.221386 2.146637 0.487270 0
M  V30 13 C -1.849759 2.820205 1.538226 0
M  V30 14 C -1.331068 3.918861 2.201403 0
M  V30 15 C -0.093779 4.363664 1.770423 0
M  V30 16 C 0.576882 3.754078 0.749929 0
M  V30 17 Cl 2.144015 4.335720 0.221002 0
M  V30 18 C 0.005011 2.663562 0.130534 0
M  V30 19 C -2.335035 1.306797 -1.546800 0
M  V30 20 N -1.246975 1.475048 -2.473873 0 CHG=1 VAL=4
M  V30 21 C 1.363252 -4.502788 1.314011 0
M  V30 22 C 2.061999 -5.694655 1.353898 0
M  V30 23 Br 1.496496 -7.244038 0.416121 0
M  V30 24 H 3.897026 -7.607277 1.319617 0
M  V30 25 H 4.568616 -4.741064 3.380403 0
M  V30 26 H 3.329746 -2.643753 3.303988 0
M  V30 27 H 1.405129 -1.284367 2.501139 0
M  V30 28 H -1.062083 -0.281931 2.118233 0
M  V30 29 H -2.845536 0.850334 0.443043 0
M  V30 30 H -2.834774 2.492925 1.906253 0
M  V30 31 H -1.859003 4.393591 3.000027 0
M  V30 32 H 0.329787 5.234410 2.287463 0
M  V30 33 H 0.530601 2.175021 -0.677853 0
M  V30 34 H -3.033181 0.537213 -1.925044 0
M  V30 35 H -2.912906 2.252873 -1.540073 0
M  V30 36 H -0.469236 0.804361 -2.370775 0
M  V30 37 H -0.946344 2.485125 -2.539589 0
M  V30 38 H -1.666355 1.288121 -3.435156 0
M  V30 39 H 0.443671 -4.435497 0.720873 0
M  V30 END ATOM
M  V30 BEGIN BOND
M  V30 1 1 1 2
M  V30 2 2 2 3
M  V30 3 1 3 4
M  V30 4 2 4 5
M  V30 5 1 5 6
M  V30 6 2 6 7
M  V30 7 1 7 8
M  V30 8 1 8 9
M  V30 9 2 9 10
M  V30 10 1 9 11
M  V30 11 1 11 12
M  V30 12 2 12 13
M  V30 13 1 13 14
M  V30 14 2 14 15
M  V30 15 1 15 16
M  V30 16 1 16 17
M  V30 17 2 16 18
M  V30 18 1 11 19
M  V30 19 1 19 20
M  V30 20 1 5 21
M  V30 21 2 21 22
M  V30 22 1 22 23
M  V30 23 1 22 2
M  V30 24 1 18 12
M  V30 25 1 1 24
M  V30 26 1 3 25
M  V30 27 1 4 26
M  V30 28 1 6 27
M  V30 29 1 8 28
M  V30 30 1 11 29 CFG=1
M  V30 31 1 13 30
M  V30 32 1 14 31
M  V30 33 1 15 32
M  V30 34 1 18 33
M  V30 35 1 19 34
M  V30 36 1 19 35
M  V30 37 1 20 36
M  V30 38 1 20 37
M  V30 39 1 20 38
M  V30 40 1 21 39
M  V30 END BOND
M  V30 END CTAB
M  END
>  <Dataset>  (257) 
PDB

>  <Ligand_Instance>  (257) 
7BAQ_T82_A_401

>  <PDB_ID>  (257) 
7BAQ

>  <Standardized_SMILES>  (257) 
[H]OC1=C([H])C([H])=C(/C([H])=N/N([H])C(=O)[C@@]([H])(C2=C([H])C([H])=C([H])C(Cl)=C2[H])C([H])([H])[N+]([H])([H])[H])C([H])=C1Br

>  <Name>  (257) 
(S,E)-3-(2-(3-bromo-4-hydroxybenzylidene)hydrazineyl)-2-(3-chlorophenyl)-3-oxopropan-1-aminium

>  <Pocket>  (257) 
A

>  <ATP_Site>  (257) 
1.0

>  <Peripheral>  (257) 
0.0

>  <Num_H_Atoms_ProtBoundConf>  (257) 
16.0

>  <Num_Resolved_Atoms>  (257) 
23.0

>  <Num_Not_Resolved_Atoms>  (257) 
0.0

$$$$
T82
     RDKit          3D

  0  0  0  0  0  0  0  0  0  0999 V3000
M  V30 BEGIN CTAB
M  V30 COUNTS 39 40 0 0 0
M  V30 BEGIN ATOM
M  V30 1 C 1.509392 -4.199476 1.433162 0
M  V30 2 C 0.361818 -4.725081 1.967474 0
M  V30 3 C -0.533159 -3.909177 2.623287 0
M  V30 4 Cl -1.996241 -4.562846 3.307851 0
M  V30 5 C -0.237475 -2.543988 2.725366 0
M  V30 6 C 0.920731 -1.955511 2.197296 0
M  V30 7 C 1.116342 -0.519130 2.375746 0 CFG=2
M  V30 8 C 0.927309 0.308151 1.165093 0
M  V30 9 O 0.033085 1.220788 1.081205 0
M  V30 10 N 1.660811 0.232660 -0.030658 0
M  V30 11 N 1.405039 1.062928 -1.126776 0
M  V30 12 C 0.378027 2.047803 -1.106943 0
M  V30 13 C -0.874037 1.869297 -1.529937 0
M  V30 14 C -1.846982 2.938444 -1.467021 0
M  V30 15 C -3.092143 2.699913 -1.907479 0
M  V30 16 C -3.421769 1.378433 -2.432069 0
M  V30 17 O -4.596587 1.131792 -2.854650 0
M  V30 18 C -2.415898 0.303107 -2.487379 0
M  V30 19 Br -2.874803 -1.427574 -3.182315 0
M  V30 20 C -1.167017 0.520163 -2.052797 0
M  V30 21 C 2.415837 -0.153868 3.017748 0
M  V30 22 N 2.491652 -0.768355 4.346500 0 CHG=1 VAL=4
M  V30 23 C 1.740461 -2.865918 1.565043 0
M  V30 24 H 2.206906 -4.848059 0.919566 0
M  V30 25 H 0.110734 -5.770994 1.902783 0
M  V30 26 H -0.998982 -1.954967 3.262797 0
M  V30 27 H 0.297258 -0.188837 3.086301 0
M  V30 28 H 2.428743 -0.468053 -0.107421 0
M  V30 29 H 1.955655 0.993320 -2.000106 0
M  V30 30 H 0.616718 3.038003 -0.716294 0
M  V30 31 H -1.571385 3.913722 -1.070452 0
M  V30 32 H -3.850138 3.482732 -1.874664 0
M  V30 33 H -0.406808 -0.254624 -2.082297 0
M  V30 34 H 2.443109 0.938397 3.208056 0
M  V30 35 H 3.288888 -0.387235 2.399269 0
M  V30 36 H 1.873677 -1.607379 4.405578 0
M  V30 37 H 2.152789 -0.117926 5.081863 0
M  V30 38 H 3.483843 -1.021894 4.561454 0
M  V30 39 H 2.651564 -2.469567 1.141936 0
M  V30 END ATOM
M  V30 BEGIN BOND
M  V30 1 2 1 2
M  V30 2 1 2 3
M  V30 3 1 3 4
M  V30 4 2 3 5
M  V30 5 1 5 6
M  V30 6 1 6 7
M  V30 7 1 7 8
M  V30 8 2 8 9
M  V30 9 1 8 10
M  V30 10 1 10 11
M  V30 11 1 11 12
M  V30 12 2 12 13
M  V30 13 1 13 14
M  V30 14 2 14 15
M  V30 15 1 15 16
M  V30 16 2 16 17
M  V30 17 1 16 18
M  V30 18 1 18 19
M  V30 19 2 18 20
M  V30 20 1 7 21
M  V30 21 1 21 22
M  V30 22 2 6 23
M  V30 23 1 23 1
M  V30 24 1 20 13
M  V30 25 1 1 24
M  V30 26 1 2 25
M  V30 27 1 5 26
M  V30 28 1 7 27 CFG=1
M  V30 29 1 10 28
M  V30 30 1 11 29
M  V30 31 1 12 30
M  V30 32 1 14 31
M  V30 33 1 15 32
M  V30 34 1 20 33
M  V30 35 1 21 34
M  V30 36 1 21 35
M  V30 37 1 22 36
M  V30 38 1 22 37
M  V30 39 1 22 38
M  V30 40 1 23 39
M  V30 END BOND
M  V30 END CTAB
M  END
>  <Dataset>  (258) 
PDB

>  <Ligand_Instance>  (258) 
7BAR_T82_A_401

>  <PDB_ID>  (258) 
7BAR

>  <Standardized_SMILES>  (258) 
[H]C1=C([H])C(Cl)=C([H])C([C@]([H])(C(=O)N([H])N([H])/C([H])=C2/C([H])=C([H])C(=O)C(Br)=C2[H])C([H])([H])[N+]([H])([H])[H])=C1[H]

>  <Name>  (258) 
(S,E)-3-(2-(3-bromo-4-hydroxybenzylidene)hydrazineyl)-2-(3-chlorophenyl)-3-oxopropan-1-aminium

>  <Pocket>  (258) 
A

>  <ATP_Site>  (258) 
1.0

>  <Peripheral>  (258) 
0.0

>  <Num_H_Atoms_ProtBoundConf>  (258) 
16.0

>  <Num_Resolved_Atoms>  (258) 
23.0

>  <Num_Not_Resolved_Atoms>  (258) 
0.0

$$$$
UNU
     RDKit          3D

  0  0  0  0  0  0  0  0  0  0999 V3000
M  V30 BEGIN CTAB
M  V30 COUNTS 16 16 0 0 0
M  V30 BEGIN ATOM
M  V30 1 C -0.532898 -0.866664 -0.321976 0
M  V30 2 C -0.126521 -1.572858 0.799265 0
M  V30 3 C 0.930746 -1.112701 1.579238 0
M  V30 4 C 1.587665 0.055298 1.243326 0
M  V30 5 C 2.693847 0.527008 2.068446 0
M  V30 6 O 3.030774 -0.143871 3.077359 0
M  V30 7 N 3.370772 1.729803 1.723154 0
M  V30 8 C 1.198705 0.779712 0.125033 0
M  V30 9 C 0.139420 0.296645 -0.635936 0
M  V30 10 H -1.353049 -1.256211 -0.896697 0
M  V30 11 H -0.591502 -2.496943 1.127593 0
M  V30 12 H 1.275248 -1.639287 2.462697 0
M  V30 13 H 3.390905 2.764544 1.950940 0
M  V30 14 H 4.152780 1.904395 1.034742 0
M  V30 15 H 1.693239 1.701238 -0.167154 0
M  V30 16 H -0.152221 0.865673 -1.498481 0
M  V30 END ATOM
M  V30 BEGIN BOND
M  V30 1 2 1 2
M  V30 2 1 2 3
M  V30 3 2 3 4
M  V30 4 1 4 5
M  V30 5 2 5 6
M  V30 6 1 5 7
M  V30 7 1 4 8
M  V30 8 2 8 9
M  V30 9 1 9 1
M  V30 10 1 1 10
M  V30 11 1 2 11
M  V30 12 1 3 12
M  V30 13 1 7 13
M  V30 14 1 7 14
M  V30 15 1 8 15
M  V30 16 1 9 16
M  V30 END BOND
M  V30 END CTAB
M  END
>  <Dataset>  (259) 
PDB

>  <Ligand_Instance>  (259) 
6SNX_UNU_A_401

>  <PDB_ID>  (259) 
6SNX

>  <Standardized_SMILES>  (259) 
[H]C1=C([H])C([H])=C(C(=O)N([H])[H])C([H])=C1[H]

>  <Name>  (259) 
BENZAMIDE

>  <Pocket>  (259) 
A

>  <ATP_Site>  (259) 
1.0

>  <Peripheral>  (259) 
1.0

>  <Num_H_Atoms_ProtBoundConf>  (259) 
7.0

>  <Num_Resolved_Atoms>  (259) 
9.0

>  <Num_Not_Resolved_Atoms>  (259) 
0.0

$$$$
UNU
     RDKit          3D

  0  0  0  0  0  0  0  0  0  0999 V3000
M  V30 BEGIN CTAB
M  V30 COUNTS 16 16 0 0 0
M  V30 BEGIN ATOM
M  V30 1 C -0.532898 -0.866664 -0.321976 0
M  V30 2 C -0.126521 -1.572858 0.799265 0
M  V30 3 C 0.930746 -1.112701 1.579238 0
M  V30 4 C 1.587665 0.055298 1.243326 0
M  V30 5 C 2.693847 0.527008 2.068446 0
M  V30 6 O 3.030774 -0.143871 3.077359 0
M  V30 7 N 3.370772 1.729803 1.723154 0
M  V30 8 C 1.198705 0.779712 0.125033 0
M  V30 9 C 0.139420 0.296645 -0.635936 0
M  V30 10 H -1.353049 -1.256211 -0.896697 0
M  V30 11 H -0.591502 -2.496943 1.127593 0
M  V30 12 H 1.275248 -1.639287 2.462697 0
M  V30 13 H 3.390905 2.764544 1.950940 0
M  V30 14 H 4.152780 1.904395 1.034742 0
M  V30 15 H 1.693239 1.701238 -0.167154 0
M  V30 16 H -0.152221 0.865673 -1.498481 0
M  V30 END ATOM
M  V30 BEGIN BOND
M  V30 1 2 1 2
M  V30 2 1 2 3
M  V30 3 2 3 4
M  V30 4 1 4 5
M  V30 5 2 5 6
M  V30 6 1 5 7
M  V30 7 1 4 8
M  V30 8 2 8 9
M  V30 9 1 9 1
M  V30 10 1 1 10
M  V30 11 1 2 11
M  V30 12 1 3 12
M  V30 13 1 7 13
M  V30 14 1 7 14
M  V30 15 1 8 15
M  V30 16 1 9 16
M  V30 END BOND
M  V30 END CTAB
M  END
>  <Dataset>  (260) 
PDB

>  <Ligand_Instance>  (260) 
6SNX_UNU_A_402

>  <PDB_ID>  (260) 
6SNX

>  <Standardized_SMILES>  (260) 
[H]C1=C([H])C([H])=C(C(=O)N([H])[H])C([H])=C1[H]

>  <Name>  (260) 
BENZAMIDE

>  <Pocket>  (260) 
F

>  <ATP_Site>  (260) 
1.0

>  <Peripheral>  (260) 
1.0

>  <Num_H_Atoms_ProtBoundConf>  (260) 
7.0

>  <Num_Resolved_Atoms>  (260) 
9.0

>  <Num_Not_Resolved_Atoms>  (260) 
0.0

$$$$
VUP
     RDKit          3D

  0  0  0  0  0  0  0  0  0  0999 V3000
M  V30 BEGIN CTAB
M  V30 COUNTS 30 32 0 0 0
M  V30 BEGIN ATOM
M  V30 1 C 1.456144 -2.371155 3.287759 0
M  V30 2 C 1.288537 -1.589522 2.171671 0
M  V30 3 N 2.198267 -1.168013 1.299402 0
M  V30 4 C 1.685016 -0.413059 0.313715 0
M  V30 5 C 2.521209 0.136954 -0.733745 0
M  V30 6 N 3.850328 -0.023918 -0.751907 0
M  V30 7 O 4.387029 0.563308 -1.744047 0
M  V30 8 N 3.484380 1.150815 -2.454609 0
M  V30 9 C 2.327315 0.886855 -1.829909 0
M  V30 10 N 1.144936 1.370294 -2.374966 0
M  V30 11 N 0.385288 -0.378649 0.616331 0
M  V30 12 C -0.663539 0.318865 -0.039777 0
M  V30 13 C -1.279545 -0.441074 -1.187486 0
M  V30 14 C 0.095457 -1.078797 1.733590 0
M  V30 15 C -1.026923 -1.376364 2.477186 0
M  V30 16 C -0.877761 -2.161311 3.603144 0
M  V30 17 C -2.088098 -2.484023 4.407704 0
M  V30 18 N 0.327401 -2.642493 3.994127 0
M  V30 19 H 2.445551 -2.721892 3.542850 0
M  V30 20 H 0.509470 0.901263 -3.034477 0
M  V30 21 H 0.382737 2.058377 -2.537015 0
M  V30 22 H -1.538740 0.509033 0.675774 0
M  V30 23 H -0.356739 1.315245 -0.378285 0
M  V30 24 H -0.551556 -1.018064 -1.775185 0
M  V30 25 H -2.083124 -1.128867 -0.856557 0
M  V30 26 H -1.768260 0.313388 -1.862540 0
M  V30 27 H -1.964697 -0.968940 2.123887 0
M  V30 28 H -1.761259 -2.516259 5.486780 0
M  V30 29 H -2.775171 -1.619168 4.317981 0
M  V30 30 H -2.550777 -3.439967 4.091508 0
M  V30 END ATOM
M  V30 BEGIN BOND
M  V30 1 2 1 2
M  V30 2 1 2 3
M  V30 3 2 3 4
M  V30 4 1 4 5
M  V30 5 2 5 6
M  V30 6 1 6 7
M  V30 7 1 7 8
M  V30 8 2 8 9
M  V30 9 1 9 10
M  V30 10 1 4 11
M  V30 11 1 11 12
M  V30 12 1 12 13
M  V30 13 1 11 14
M  V30 14 2 14 15
M  V30 15 1 15 16
M  V30 16 1 16 17
M  V30 17 2 16 18
M  V30 18 1 18 1
M  V30 19 1 14 2
M  V30 20 1 9 5
M  V30 21 1 1 19
M  V30 22 1 10 20
M  V30 23 1 10 21
M  V30 24 1 12 22
M  V30 25 1 12 23
M  V30 26 1 13 24
M  V30 27 1 13 25
M  V30 28 1 13 26
M  V30 29 1 15 27
M  V30 30 1 17 28
M  V30 31 1 17 29
M  V30 32 1 17 30
M  V30 END BOND
M  V30 END CTAB
M  END
>  <Dataset>  (261) 
PDB

>  <Ligand_Instance>  (261) 
4C38_VUP_A_1351

>  <PDB_ID>  (261) 
4C38

>  <Standardized_SMILES>  (261) 
[H]C1=C2N=C(C3=NON=C3N([H])[H])N(C([H])([H])C([H])([H])[H])C2=C([H])C(C([H])([H])[H])=N1

>  <Name>  (261) 
4-(1-ethyl-6-methyl-imidazo[4,5-c]pyridin-2-yl)-1,2,5-oxadiazol-3-amine

>  <Pocket>  (261) 
A

>  <ATP_Site>  (261) 
1.0

>  <Peripheral>  (261) 
0.0

>  <Num_H_Atoms_ProtBoundConf>  (261) 
12.0

>  <Num_Resolved_Atoms>  (261) 
18.0

>  <Num_Not_Resolved_Atoms>  (261) 
0.0

$$$$
VX6
     RDKit          3D

  0  0  0  0  0  0  0  0  0  0999 V3000
M  V30 BEGIN CTAB
M  V30 COUNTS 62 66 0 0 0
M  V30 BEGIN ATOM
M  V30 1 C 3.227500 -1.103378 -0.515471 0
M  V30 2 C 3.929111 -0.637298 -1.634564 0
M  V30 3 C 3.633785 -1.224834 -2.857197 0
M  V30 4 N 4.278414 -0.819204 -4.055729 0
M  V30 5 C 5.489710 -1.251726 -4.630709 0
M  V30 6 O 6.151491 -2.143156 -4.032485 0
M  V30 7 C 5.962783 -0.654034 -5.921137 0
M  V30 8 C 6.677871 -1.517449 -6.896464 0
M  V30 9 C 7.442556 -0.469250 -6.119251 0
M  V30 10 C 2.685415 -2.241167 -3.017551 0
M  V30 11 C 2.006085 -2.679178 -1.877297 0
M  V30 12 C 2.276945 -2.115330 -0.646902 0
M  V30 13 S 1.446301 -2.650863 0.840963 0
M  V30 14 C -0.009089 -1.646390 1.100512 0
M  V30 15 N 0.158441 -0.539631 1.821768 0
M  V30 16 C -0.817298 0.341436 2.139812 0
M  V30 17 N -0.501109 1.478815 2.914359 0
M  V30 18 C -1.177309 2.638744 3.335875 0
M  V30 19 N -0.673993 3.579083 4.150587 0
M  V30 20 N -1.524061 4.545450 4.351898 0
M  V30 21 C -2.665020 4.349750 3.699976 0
M  V30 22 C -3.828823 5.237623 3.703833 0
M  V30 23 C -2.428475 3.149879 3.069134 0
M  V30 24 C -2.039939 -0.009803 1.642275 0
M  V30 25 C -2.295597 -1.135657 0.888335 0
M  V30 26 N -3.571697 -1.486339 0.406783 0
M  V30 27 C -3.631081 -2.282752 -0.803006 0
M  V30 28 C -4.584542 -1.585676 -1.752191 0
M  V30 29 N -4.970985 -0.267811 -1.322085 0 CHG=1 VAL=4
M  V30 30 C -5.830232 0.315653 -2.312219 0
M  V30 31 C -5.596815 -0.254464 -0.016778 0
M  V30 32 C -4.891333 -1.203203 0.928800 0
M  V30 33 N -1.241490 -1.931073 0.639845 0
M  V30 34 H 3.487006 -0.617308 0.434487 0
M  V30 35 H 4.670330 0.142729 -1.560777 0
M  V30 36 H 3.667462 -0.083954 -4.490138 0
M  V30 37 H 5.339031 0.131207 -6.393713 0
M  V30 38 H 6.540926 -1.327501 -7.995943 0
M  V30 39 H 6.967534 -2.558278 -6.688613 0
M  V30 40 H 8.145846 -0.815214 -5.329921 0
M  V30 41 H 7.821439 0.417399 -6.668425 0
M  V30 42 H 2.473834 -2.682617 -3.980819 0
M  V30 43 H 1.264210 -3.459364 -1.944890 0
M  V30 44 H 0.505884 1.452869 3.271354 0
M  V30 45 H -1.200733 5.321047 4.981116 0
M  V30 46 H -4.125624 5.420318 2.656918 0
M  V30 47 H -4.675540 4.721412 4.232455 0
M  V30 48 H -3.574174 6.191691 4.217988 0
M  V30 49 H -3.201188 2.730321 2.446598 0
M  V30 50 H -2.887596 0.584145 1.822960 0
M  V30 51 H -4.050746 -3.272101 -0.549845 0
M  V30 52 H -2.642002 -2.373593 -1.306072 0
M  V30 53 H -5.494266 -2.196847 -1.968960 0
M  V30 54 H -4.081463 -1.428846 -2.755060 0
M  V30 55 H -4.100524 0.310529 -1.222752 0
M  V30 56 H -5.234143 1.048052 -2.912855 0
M  V30 57 H -6.188807 -0.458275 -2.988670 0
M  V30 58 H -6.660030 0.905473 -1.862373 0
M  V30 59 H -5.563314 0.767306 0.411300 0
M  V30 60 H -6.653553 -0.571165 -0.151281 0
M  V30 61 H -4.893394 -0.799677 1.947617 0
M  V30 62 H -5.455216 -2.184711 0.993123 0
M  V30 END ATOM
M  V30 BEGIN BOND
M  V30 1 2 1 2
M  V30 2 1 2 3
M  V30 3 1 3 4
M  V30 4 1 4 5
M  V30 5 2 5 6
M  V30 6 1 5 7
M  V30 7 1 7 8
M  V30 8 1 8 9
M  V30 9 2 3 10
M  V30 10 1 10 11
M  V30 11 2 11 12
M  V30 12 1 12 13
M  V30 13 1 13 14
M  V30 14 2 14 15
M  V30 15 1 15 16
M  V30 16 1 16 17
M  V30 17 1 17 18
M  V30 18 2 18 19
M  V30 19 1 19 20
M  V30 20 1 20 21
M  V30 21 1 21 22
M  V30 22 2 21 23
M  V30 23 2 16 24
M  V30 24 1 24 25
M  V30 25 1 25 26
M  V30 26 1 26 27
M  V30 27 1 27 28
M  V30 28 1 28 29
M  V30 29 1 29 30
M  V30 30 1 29 31
M  V30 31 1 31 32
M  V30 32 2 25 33
M  V30 33 1 12 1
M  V30 34 1 33 14
M  V30 35 1 9 7
M  V30 36 1 23 18
M  V30 37 1 32 26
M  V30 38 1 1 34
M  V30 39 1 2 35
M  V30 40 1 4 36
M  V30 41 1 7 37
M  V30 42 1 8 38
M  V30 43 1 8 39
M  V30 44 1 9 40
M  V30 45 1 9 41
M  V30 46 1 10 42
M  V30 47 1 11 43
M  V30 48 1 17 44
M  V30 49 1 20 45
M  V30 50 1 22 46
M  V30 51 1 22 47
M  V30 52 1 22 48
M  V30 53 1 23 49
M  V30 54 1 24 50
M  V30 55 1 27 51
M  V30 56 1 27 52
M  V30 57 1 28 53
M  V30 58 1 28 54
M  V30 59 1 29 55
M  V30 60 1 30 56
M  V30 61 1 30 57
M  V30 62 1 30 58
M  V30 63 1 31 59
M  V30 64 1 31 60
M  V30 65 1 32 61
M  V30 66 1 32 62
M  V30 END BOND
M  V30 END CTAB
M  END
>  <Dataset>  (262) 
PDB

>  <Ligand_Instance>  (262) 
3AMB_VX6_A_351

>  <PDB_ID>  (262) 
3AMB

>  <Standardized_SMILES>  (262) 
[H]C1=C([H])C(N([H])C(=O)C2([H])C([H])([H])C2([H])[H])=C([H])C([H])=C1SC1=NC(N([H])C2=NN([H])C(C([H])([H])[H])=C2[H])=C([H])C(N2C([H])([H])C([H])([H])[N+]([H])(C([H])([H])[H])C([H])([H])C2([H])[H])=N1

>  <Name>  (262) 
CYCLOPROPANECARBOXYLIC ACID {4-[4-(4-METHYL-PIPERAZIN-1-YL)-6-(5-METHYL-2H-PYRAZOL-3-YLAMINO)-PYRIMIDIN-2-YLSULFANYL]-PHENYL}-AMIDE

>  <Pocket>  (262) 
A

>  <ATP_Site>  (262) 
1.0

>  <Peripheral>  (262) 
0.0

>  <Num_H_Atoms_ProtBoundConf>  (262) 
29.0

>  <Num_Resolved_Atoms>  (262) 
33.0

>  <Num_Not_Resolved_Atoms>  (262) 
0.0

$$$$
XFE
     RDKit          3D

  0  0  0  0  0  0  0  0  0  0999 V3000
M  V30 BEGIN CTAB
M  V30 COUNTS 32 34 0 0 0
M  V30 BEGIN ATOM
M  V30 1 C 0.498406 -1.169403 4.288807 0
M  V30 2 N 0.223681 0.135254 4.577175 0
M  V30 3 C 0.047811 1.024766 3.584617 0
M  V30 4 C 0.148753 0.601658 2.283174 0
M  V30 5 C 0.425237 -0.706651 1.959842 0
M  V30 6 N 0.600441 -1.377925 0.717956 0
M  V30 7 C 1.602117 -1.275973 -0.324402 0
M  V30 8 C 0.811920 -1.550611 -1.580134 0
M  V30 9 C -0.508117 -2.139515 -1.141095 0 CFG=1
M  V30 10 N -0.762734 -3.383117 -1.872938 0 CHG=1 VAL=4
M  V30 11 C -0.365543 -2.395251 0.327809 0
M  V30 12 N 0.597752 -1.584350 2.992007 0
M  V30 13 C -0.055203 1.596278 1.360436 0
M  V30 14 C -0.046056 1.560754 -0.111007 0
M  V30 15 C -0.298808 2.715474 2.161726 0
M  V30 16 N -0.229581 2.338841 3.467413 0
M  V30 17 H 0.638582 -1.881261 5.110148 0
M  V30 18 H 2.145209 -0.315574 -0.336063 0
M  V30 19 H 2.348335 -2.103715 -0.202682 0
M  V30 20 H 1.351494 -2.282508 -2.231046 0
M  V30 21 H 0.658778 -0.577494 -2.126830 0
M  V30 22 H -1.365838 -1.440605 -1.313408 0
M  V30 23 H -1.708680 -3.716567 -1.647336 0
M  V30 24 H 0.008845 -4.034200 -1.623300 0
M  V30 25 H -0.695620 -3.174118 -2.875214 0
M  V30 26 H 0.166207 -3.371584 0.525773 0
M  V30 27 H -1.307385 -2.362315 0.880097 0
M  V30 28 H 0.926179 1.705693 -0.578498 0
M  V30 29 H -0.665516 2.443298 -0.463265 0
M  V30 30 H -0.614024 0.685880 -0.496889 0
M  V30 31 H -0.507745 3.716081 1.786172 0
M  V30 32 H -0.371009 2.974462 4.308329 0
M  V30 END ATOM
M  V30 BEGIN BOND
M  V30 1 2 1 2
M  V30 2 1 2 3
M  V30 3 2 3 4
M  V30 4 1 4 5
M  V30 5 1 5 6
M  V30 6 1 6 7
M  V30 7 1 7 8
M  V30 8 1 8 9
M  V30 9 1 9 10
M  V30 10 1 9 11
M  V30 11 2 5 12
M  V30 12 1 4 13
M  V30 13 1 13 14
M  V30 14 2 13 15
M  V30 15 1 15 16
M  V30 16 1 12 1
M  V30 17 1 16 3
M  V30 18 1 11 6
M  V30 19 1 1 17
M  V30 20 1 7 18
M  V30 21 1 7 19
M  V30 22 1 8 20
M  V30 23 1 8 21
M  V30 24 1 9 22 CFG=1
M  V30 25 1 10 23
M  V30 26 1 10 24
M  V30 27 1 10 25
M  V30 28 1 11 26
M  V30 29 1 11 27
M  V30 30 1 14 28
M  V30 31 1 14 29
M  V30 32 1 14 30
M  V30 33 1 15 31
M  V30 34 1 16 32
M  V30 END BOND
M  V30 END CTAB
M  END
>  <Dataset>  (263) 
PDB

>  <Ligand_Instance>  (263) 
3MVJ_XFE_A_351

>  <PDB_ID>  (263) 
3MVJ

>  <Standardized_SMILES>  (263) 
[H]C1=NC2=C(C(N3C([H])([H])C([H])([H])[C@@]([H])([N+]([H])([H])[H])C3([H])[H])=N1)C(C([H])([H])[H])=C([H])N2[H]

>  <Name>  (263) 
(3R)-1-(5-methyl-7H-pyrrolo[2,3-d]pyrimidin-4-yl)pyrrolidin-3-amine

>  <Pocket>  (263) 
A

>  <ATP_Site>  (263) 
1.0

>  <Peripheral>  (263) 
0.0

>  <Num_H_Atoms_ProtBoundConf>  (263) 
16.0

>  <Num_Resolved_Atoms>  (263) 
16.0

>  <Num_Not_Resolved_Atoms>  (263) 
0.0

$$$$
XFE
     RDKit          3D

  0  0  0  0  0  0  0  0  0  0999 V3000
M  V30 BEGIN CTAB
M  V30 COUNTS 32 34 0 0 0
M  V30 BEGIN ATOM
M  V30 1 C 0.498406 -1.169403 4.288807 0
M  V30 2 N 0.223681 0.135254 4.577175 0
M  V30 3 C 0.047811 1.024766 3.584617 0
M  V30 4 C 0.148753 0.601658 2.283174 0
M  V30 5 C 0.425237 -0.706651 1.959842 0
M  V30 6 N 0.600441 -1.377925 0.717956 0
M  V30 7 C 1.602117 -1.275973 -0.324402 0
M  V30 8 C 0.811920 -1.550611 -1.580134 0
M  V30 9 C -0.508117 -2.139515 -1.141095 0 CFG=1
M  V30 10 N -0.762734 -3.383117 -1.872938 0 CHG=1 VAL=4
M  V30 11 C -0.365543 -2.395251 0.327809 0
M  V30 12 N 0.597752 -1.584350 2.992007 0
M  V30 13 C -0.055203 1.596278 1.360436 0
M  V30 14 C -0.046056 1.560754 -0.111007 0
M  V30 15 C -0.298808 2.715474 2.161726 0
M  V30 16 N -0.229581 2.338841 3.467413 0
M  V30 17 H 0.638582 -1.881261 5.110148 0
M  V30 18 H 2.145209 -0.315574 -0.336063 0
M  V30 19 H 2.348335 -2.103715 -0.202682 0
M  V30 20 H 1.351494 -2.282508 -2.231046 0
M  V30 21 H 0.658778 -0.577494 -2.126830 0
M  V30 22 H -1.365838 -1.440605 -1.313408 0
M  V30 23 H -1.708680 -3.716567 -1.647336 0
M  V30 24 H 0.008845 -4.034200 -1.623300 0
M  V30 25 H -0.695620 -3.174118 -2.875214 0
M  V30 26 H 0.166207 -3.371584 0.525773 0
M  V30 27 H -1.307385 -2.362315 0.880097 0
M  V30 28 H 0.926179 1.705693 -0.578498 0
M  V30 29 H -0.665516 2.443298 -0.463265 0
M  V30 30 H -0.614024 0.685880 -0.496889 0
M  V30 31 H -0.507745 3.716081 1.786172 0
M  V30 32 H -0.371009 2.974462 4.308329 0
M  V30 END ATOM
M  V30 BEGIN BOND
M  V30 1 2 1 2
M  V30 2 1 2 3
M  V30 3 2 3 4
M  V30 4 1 4 5
M  V30 5 1 5 6
M  V30 6 1 6 7
M  V30 7 1 7 8
M  V30 8 1 8 9
M  V30 9 1 9 10
M  V30 10 1 9 11
M  V30 11 2 5 12
M  V30 12 1 4 13
M  V30 13 1 13 14
M  V30 14 2 13 15
M  V30 15 1 15 16
M  V30 16 1 12 1
M  V30 17 1 16 3
M  V30 18 1 11 6
M  V30 19 1 1 17
M  V30 20 1 7 18
M  V30 21 1 7 19
M  V30 22 1 8 20
M  V30 23 1 8 21
M  V30 24 1 9 22 CFG=1
M  V30 25 1 10 23
M  V30 26 1 10 24
M  V30 27 1 10 25
M  V30 28 1 11 26
M  V30 29 1 11 27
M  V30 30 1 14 28
M  V30 31 1 14 29
M  V30 32 1 14 30
M  V30 33 1 15 31
M  V30 34 1 16 32
M  V30 END BOND
M  V30 END CTAB
M  END
>  <Dataset>  (264) 
PDB

>  <Ligand_Instance>  (264) 
3MVJ_XFE_E_351

>  <PDB_ID>  (264) 
3MVJ

>  <Standardized_SMILES>  (264) 
[H]C1=NC2=C(C(N3C([H])([H])C([H])([H])[C@@]([H])([N+]([H])([H])[H])C3([H])[H])=N1)C(C([H])([H])[H])=C([H])N2[H]

>  <Name>  (264) 
(3R)-1-(5-methyl-7H-pyrrolo[2,3-d]pyrimidin-4-yl)pyrrolidin-3-amine

>  <Pocket>  (264) 
A

>  <ATP_Site>  (264) 
1.0

>  <Peripheral>  (264) 
0.0

>  <Num_H_Atoms_ProtBoundConf>  (264) 
16.0

>  <Num_Resolved_Atoms>  (264) 
16.0

>  <Num_Not_Resolved_Atoms>  (264) 
0.0

$$$$
Y27
     RDKit          3D

  0  0  0  0  0  0  0  0  0  0999 V3000
M  V30 BEGIN CTAB
M  V30 COUNTS 40 41 0 0 0
M  V30 BEGIN ATOM
M  V30 1 C -0.034709 -5.807143 3.542106 0
M  V30 2 N -1.326924 -6.128903 3.440990 0
M  V30 3 C -2.263652 -5.239884 3.095278 0
M  V30 4 C -1.866461 -3.959143 2.839486 0
M  V30 5 C -0.526609 -3.575969 2.932303 0
M  V30 6 N -0.336717 -2.185136 2.621039 0
M  V30 7 C -0.086324 -1.887790 1.267237 0
M  V30 8 O -0.006681 -2.697319 0.281645 0
M  V30 9 C 0.148401 -0.534296 0.657912 0 CFG=2
M  V30 10 C 0.362347 -0.783157 -0.807449 0
M  V30 11 C 0.734886 0.424511 -1.592427 0
M  V30 12 C 1.323792 1.534351 -0.794553 0 CFG=1
M  V30 13 C 0.296641 2.637520 -0.639910 0 CFG=1
M  V30 14 C 0.837277 3.803867 0.167739 0
M  V30 15 N -0.059845 3.189351 -1.934531 0 CHG=1 VAL=4
M  V30 16 C 2.000804 1.166803 0.467236 0
M  V30 17 C 1.409374 0.041331 1.228953 0
M  V30 18 C 0.408296 -4.524168 3.292125 0
M  V30 19 H 0.748427 -6.498346 3.818501 0
M  V30 20 H -3.291842 -5.560534 3.030512 0
M  V30 21 H -2.681831 -3.277109 2.560845 0
M  V30 22 H -0.352586 -1.337875 3.238565 0
M  V30 23 H -0.674210 0.157541 0.888859 0
M  V30 24 H 1.156355 -1.560797 -0.885638 0
M  V30 25 H -0.546674 -1.241304 -1.287545 0
M  V30 26 H -0.166933 0.806022 -2.152104 0
M  V30 27 H 1.414476 0.075223 -2.415354 0
M  V30 28 H 2.109352 1.997797 -1.464201 0
M  V30 29 H -0.640206 2.314389 -0.163055 0
M  V30 30 H 0.144275 4.668824 -0.056913 0
M  V30 31 H 1.835970 4.132295 -0.194836 0
M  V30 32 H 0.765273 3.664850 1.251287 0
M  V30 33 H -0.947294 2.739649 -2.307364 0
M  V30 34 H 0.684755 2.942340 -2.638489 0
M  V30 35 H -0.250651 4.205364 -1.907847 0
M  V30 36 H 2.068243 2.102326 1.090152 0
M  V30 37 H 3.064151 0.910631 0.264539 0
M  V30 38 H 1.213986 0.383915 2.280133 0
M  V30 39 H 2.123009 -0.824554 1.356206 0
M  V30 40 H 1.413540 -4.123918 3.334395 0
M  V30 END ATOM
M  V30 BEGIN BOND
M  V30 1 2 1 2
M  V30 2 1 2 3
M  V30 3 2 3 4
M  V30 4 1 4 5
M  V30 5 1 5 6
M  V30 6 1 6 7
M  V30 7 2 7 8
M  V30 8 1 7 9
M  V30 9 1 9 10
M  V30 10 1 10 11
M  V30 11 1 11 12
M  V30 12 1 12 13
M  V30 13 1 13 14
M  V30 14 1 13 15
M  V30 15 1 12 16
M  V30 16 1 16 17
M  V30 17 2 5 18
M  V30 18 1 18 1
M  V30 19 1 17 9
M  V30 20 1 1 19
M  V30 21 1 3 20
M  V30 22 1 4 21
M  V30 23 1 6 22
M  V30 24 1 9 23 CFG=3
M  V30 25 1 10 24
M  V30 26 1 10 25
M  V30 27 1 11 26
M  V30 28 1 11 27
M  V30 29 1 12 28 CFG=3
M  V30 30 1 13 29 CFG=1
M  V30 31 1 14 30
M  V30 32 1 14 31
M  V30 33 1 14 32
M  V30 34 1 15 33
M  V30 35 1 15 34
M  V30 36 1 15 35
M  V30 37 1 16 36
M  V30 38 1 16 37
M  V30 39 1 17 38
M  V30 40 1 17 39
M  V30 41 1 18 40
M  V30 END BOND
M  V30 END CTAB
M  END
>  <Dataset>  (265) 
PDB

>  <Ligand_Instance>  (265) 
2GNF_Y27_A_501

>  <PDB_ID>  (265) 
2GNF

>  <Standardized_SMILES>  (265) 
[H]C1=NC([H])=C([H])C(N([H])C(=O)[C@]2([H])C([H])([H])C([H])([H])[C@@]([H])([C@@]([H])(C([H])([H])[H])[N+]([H])([H])[H])C([H])([H])C2([H])[H])=C1[H]

>  <Name>  (265) 
(R)-TRANS-4-(1-AMINOETHYL)-N-(4-PYRIDYL) CYCLOHEXANECARBOXAMIDE

>  <Pocket>  (265) 
A

>  <ATP_Site>  (265) 
1.0

>  <Peripheral>  (265) 
0.0

>  <Num_H_Atoms_ProtBoundConf>  (265) 
22.0

>  <Num_Resolved_Atoms>  (265) 
18.0

>  <Num_Not_Resolved_Atoms>  (265) 
0.0

$$$$
Y27
     RDKit          3D

  0  0  0  0  0  0  0  0  0  0999 V3000
M  V30 BEGIN CTAB
M  V30 COUNTS 40 41 0 0 0
M  V30 BEGIN ATOM
M  V30 1 C -0.034709 -5.807143 3.542106 0
M  V30 2 N -1.326924 -6.128903 3.440990 0
M  V30 3 C -2.263652 -5.239884 3.095278 0
M  V30 4 C -1.866461 -3.959143 2.839486 0
M  V30 5 C -0.526609 -3.575969 2.932303 0
M  V30 6 N -0.336717 -2.185136 2.621039 0
M  V30 7 C -0.086324 -1.887790 1.267237 0
M  V30 8 O -0.006681 -2.697319 0.281645 0
M  V30 9 C 0.148401 -0.534296 0.657912 0 CFG=2
M  V30 10 C 0.362347 -0.783157 -0.807449 0
M  V30 11 C 0.734886 0.424511 -1.592427 0
M  V30 12 C 1.323792 1.534351 -0.794553 0 CFG=1
M  V30 13 C 0.296641 2.637520 -0.639910 0 CFG=1
M  V30 14 C 0.837277 3.803867 0.167739 0
M  V30 15 N -0.059845 3.189351 -1.934531 0 CHG=1 VAL=4
M  V30 16 C 2.000804 1.166803 0.467236 0
M  V30 17 C 1.409374 0.041331 1.228953 0
M  V30 18 C 0.408296 -4.524168 3.292125 0
M  V30 19 H 0.748427 -6.498346 3.818501 0
M  V30 20 H -3.291842 -5.560534 3.030512 0
M  V30 21 H -2.681831 -3.277109 2.560845 0
M  V30 22 H -0.352586 -1.337875 3.238565 0
M  V30 23 H -0.674210 0.157541 0.888859 0
M  V30 24 H 1.156355 -1.560797 -0.885638 0
M  V30 25 H -0.546674 -1.241304 -1.287545 0
M  V30 26 H -0.166933 0.806022 -2.152104 0
M  V30 27 H 1.414476 0.075223 -2.415354 0
M  V30 28 H 2.109352 1.997797 -1.464201 0
M  V30 29 H -0.640206 2.314389 -0.163055 0
M  V30 30 H 0.144275 4.668824 -0.056913 0
M  V30 31 H 1.835970 4.132295 -0.194836 0
M  V30 32 H 0.765273 3.664850 1.251287 0
M  V30 33 H -0.947294 2.739649 -2.307364 0
M  V30 34 H 0.684755 2.942340 -2.638489 0
M  V30 35 H -0.250651 4.205364 -1.907847 0
M  V30 36 H 2.068243 2.102326 1.090152 0
M  V30 37 H 3.064151 0.910631 0.264539 0
M  V30 38 H 1.213986 0.383915 2.280133 0
M  V30 39 H 2.123009 -0.824554 1.356206 0
M  V30 40 H 1.413540 -4.123918 3.334395 0
M  V30 END ATOM
M  V30 BEGIN BOND
M  V30 1 2 1 2
M  V30 2 1 2 3
M  V30 3 2 3 4
M  V30 4 1 4 5
M  V30 5 1 5 6
M  V30 6 1 6 7
M  V30 7 2 7 8
M  V30 8 1 7 9
M  V30 9 1 9 10
M  V30 10 1 10 11
M  V30 11 1 11 12
M  V30 12 1 12 13
M  V30 13 1 13 14
M  V30 14 1 13 15
M  V30 15 1 12 16
M  V30 16 1 16 17
M  V30 17 2 5 18
M  V30 18 1 18 1
M  V30 19 1 17 9
M  V30 20 1 1 19
M  V30 21 1 3 20
M  V30 22 1 4 21
M  V30 23 1 6 22
M  V30 24 1 9 23 CFG=3
M  V30 25 1 10 24
M  V30 26 1 10 25
M  V30 27 1 11 26
M  V30 28 1 11 27
M  V30 29 1 12 28 CFG=3
M  V30 30 1 13 29 CFG=1
M  V30 31 1 14 30
M  V30 32 1 14 31
M  V30 33 1 14 32
M  V30 34 1 15 33
M  V30 35 1 15 34
M  V30 36 1 15 35
M  V30 37 1 16 36
M  V30 38 1 16 37
M  V30 39 1 17 38
M  V30 40 1 17 39
M  V30 41 1 18 40
M  V30 END BOND
M  V30 END CTAB
M  END
>  <Dataset>  (266) 
PDB

>  <Ligand_Instance>  (266) 
2GNJ_Y27_A_501

>  <PDB_ID>  (266) 
2GNJ

>  <Standardized_SMILES>  (266) 
[H]C1=NC([H])=C([H])C(N([H])C(=O)[C@]2([H])C([H])([H])C([H])([H])[C@@]([H])([C@@]([H])(C([H])([H])[H])[N+]([H])([H])[H])C([H])([H])C2([H])[H])=C1[H]

>  <Name>  (266) 
(R)-TRANS-4-(1-AMINOETHYL)-N-(4-PYRIDYL) CYCLOHEXANECARBOXAMIDE

>  <Pocket>  (266) 
A

>  <ATP_Site>  (266) 
1.0

>  <Peripheral>  (266) 
0.0

>  <Num_H_Atoms_ProtBoundConf>  (266) 
22.0

>  <Num_Resolved_Atoms>  (266) 
18.0

>  <Num_Not_Resolved_Atoms>  (266) 
0.0

$$$$
YTP
     RDKit          3D

  0  0  0  0  0  0  0  0  0  0999 V3000
M  V30 BEGIN CTAB
M  V30 COUNTS 21 21 0 0 0
M  V30 BEGIN ATOM
M  V30 1 O -1.686205 -2.283259 0.176777 0
M  V30 2 C -0.733997 -1.321558 0.430149 0
M  V30 3 C -0.267959 -1.230531 1.739878 0
M  V30 4 C 0.685011 -0.309871 2.124059 0
M  V30 5 C 1.219313 0.568087 1.209601 0
M  V30 6 C 2.227035 1.597272 1.441999 0
M  V30 7 O 2.690377 2.382760 0.573781 0
M  V30 8 C 2.795661 1.777589 2.823366 0
M  V30 9 C 0.767874 0.494673 -0.105208 0
M  V30 10 C -0.187066 -0.433255 -0.473423 0
M  V30 11 C -0.693994 -0.541179 -1.870545 0
M  V30 12 H -2.642924 -2.196621 0.502347 0
M  V30 13 H -0.615004 -1.868511 2.545330 0
M  V30 14 H 1.068593 -0.210708 3.126312 0
M  V30 15 H 2.830033 0.795933 3.339425 0
M  V30 16 H 2.062631 2.423785 3.349743 0
M  V30 17 H 3.785830 2.268007 2.802007 0
M  V30 18 H 1.120512 1.140971 -0.917492 0
M  V30 19 H -0.276162 -1.479221 -2.288727 0
M  V30 20 H -1.791335 -0.586605 -1.889115 0
M  V30 21 H -0.310382 0.297407 -2.471707 0
M  V30 END ATOM
M  V30 BEGIN BOND
M  V30 1 1 1 2
M  V30 2 2 2 3
M  V30 3 1 3 4
M  V30 4 2 4 5
M  V30 5 1 5 6
M  V30 6 2 6 7
M  V30 7 1 6 8
M  V30 8 1 5 9
M  V30 9 2 9 10
M  V30 10 1 10 11
M  V30 11 1 10 2
M  V30 12 1 1 12
M  V30 13 1 3 13
M  V30 14 1 4 14
M  V30 15 1 8 15
M  V30 16 1 8 16
M  V30 17 1 8 17
M  V30 18 1 9 18
M  V30 19 1 11 19
M  V30 20 1 11 20
M  V30 21 1 11 21
M  V30 END BOND
M  V30 END CTAB
M  END
>  <Dataset>  (267) 
PDB

>  <Ligand_Instance>  (267) 
3OOG_YTP_A_2001

>  <PDB_ID>  (267) 
3OOG

>  <Standardized_SMILES>  (267) 
[H]OC1=C([H])C([H])=C(C(=O)C([H])([H])[H])C([H])=C1C([H])([H])[H]

>  <Name>  (267) 
1-(4-hydroxy-3-methylphenyl)ethanone

>  <Pocket>  (267) 
A

>  <ATP_Site>  (267) 
1.0

>  <Peripheral>  (267) 
0.0

>  <Num_H_Atoms_ProtBoundConf>  (267) 
10.0

>  <Num_Resolved_Atoms>  (267) 
11.0

>  <Num_Not_Resolved_Atoms>  (267) 
0.0

$$$$
Z21
     RDKit          3D

  0  0  0  0  0  0  0  0  0  0999 V3000
M  V30 BEGIN CTAB
M  V30 COUNTS 27 29 0 0 0
M  V30 BEGIN ATOM
M  V30 1 C 0.418797 -2.149410 3.896340 0
M  V30 2 C 0.545921 -1.543416 2.670991 0
M  V30 3 N 1.555954 -1.539062 1.811289 0
M  V30 4 C 1.306242 -0.823973 0.699147 0
M  V30 5 C 2.310612 -0.725493 -0.333086 0
M  V30 6 N 3.541767 -1.265274 -0.243963 0
M  V30 7 O 4.272222 -1.021274 -1.276830 0
M  V30 8 N 3.610109 -0.304220 -2.146964 0
M  V30 9 C 2.413314 -0.130908 -1.558897 0
M  V30 10 N 1.439088 0.584420 -2.244359 0
M  V30 11 N 0.087411 -0.371927 0.895475 0
M  V30 12 C -0.671525 0.488919 0.059751 0
M  V30 13 C -1.432878 -0.287500 -0.989630 0
M  V30 14 C -0.430854 -0.781809 2.087144 0
M  V30 15 C -1.617371 -0.609530 2.767321 0
M  V30 16 C -1.752323 -1.212821 3.994246 0
M  V30 17 Br -3.392920 -0.978152 4.941219 0
M  V30 18 N -0.759315 -1.956620 4.531615 0
M  V30 19 H 1.238354 -2.723878 4.267022 0
M  V30 20 H 1.480428 1.619967 -2.194097 0
M  V30 21 H 0.592077 0.639317 -2.851576 0
M  V30 22 H -1.520236 0.973176 0.674414 0
M  V30 23 H -0.125919 1.302369 -0.430245 0
M  V30 24 H -0.769774 -1.008566 -1.521808 0
M  V30 25 H -2.320142 -0.801420 -0.576576 0
M  V30 26 H -1.798050 0.479241 -1.723310 0
M  V30 27 H -2.375328 0.003484 2.273600 0
M  V30 END ATOM
M  V30 BEGIN BOND
M  V30 1 2 1 2
M  V30 2 1 2 3
M  V30 3 2 3 4
M  V30 4 1 4 5
M  V30 5 2 5 6
M  V30 6 1 6 7
M  V30 7 1 7 8
M  V30 8 2 8 9
M  V30 9 1 9 10
M  V30 10 1 4 11
M  V30 11 1 11 12
M  V30 12 1 12 13
M  V30 13 1 11 14
M  V30 14 2 14 15
M  V30 15 1 15 16
M  V30 16 1 16 17
M  V30 17 2 16 18
M  V30 18 1 18 1
M  V30 19 1 14 2
M  V30 20 1 9 5
M  V30 21 1 1 19
M  V30 22 1 10 20
M  V30 23 1 10 21
M  V30 24 1 12 22
M  V30 25 1 12 23
M  V30 26 1 13 24
M  V30 27 1 13 25
M  V30 28 1 13 26
M  V30 29 1 15 27
M  V30 END BOND
M  V30 END CTAB
M  END
>  <Dataset>  (268) 
PDB

>  <Ligand_Instance>  (268) 
4C37_Z21_A_1351

>  <PDB_ID>  (268) 
4C37

>  <Standardized_SMILES>  (268) 
[H]C1=C2N=C(C3=NON=C3N([H])[H])N(C([H])([H])C([H])([H])[H])C2=C([H])C(Br)=N1

>  <Name>  (268) 
4-(6-bromo-1-ethyl-1H-imidazo[4,5-c]pyridin-2-yl)-1,2,5-oxadiazol-3-amine

>  <Pocket>  (268) 
A

>  <ATP_Site>  (268) 
1.0

>  <Peripheral>  (268) 
0.0

>  <Num_H_Atoms_ProtBoundConf>  (268) 
9.0

>  <Num_Resolved_Atoms>  (268) 
18.0

>  <Num_Not_Resolved_Atoms>  (268) 
0.0

$$$$
ZO9
     RDKit          3D

  0  0  0  0  0  0  0  0  0  0999 V3000
M  V30 BEGIN CTAB
M  V30 COUNTS 32 35 0 0 0
M  V30 BEGIN ATOM
M  V30 1 C 1.588106 -1.436025 4.739216 0
M  V30 2 C 0.207346 -1.420333 4.516074 0
M  V30 3 C -0.314717 -1.054164 3.297598 0
M  V30 4 C 0.526007 -0.693256 2.267176 0
M  V30 5 C 1.872591 -0.717930 2.514190 0
M  V30 6 C 2.457558 -1.073258 3.706505 0
M  V30 7 N 2.473980 -0.338825 1.393251 0
M  V30 8 C 1.595026 -0.065549 0.418393 0
M  V30 9 C 2.063847 0.362670 -0.885575 0
M  V30 10 N 3.345632 0.562752 -1.186990 0
M  V30 11 O 3.516865 0.963382 -2.389891 0
M  V30 12 N 2.356271 1.067732 -3.006095 0
M  V30 13 C 1.466704 0.694312 -2.069594 0
M  V30 14 N 0.116573 0.670709 -2.419639 0
M  V30 15 N 0.412571 -0.292128 0.991057 0
M  V30 16 C -0.889414 -0.115418 0.439955 0
M  V30 17 C -1.433297 -1.270906 -0.332534 0
M  V30 18 C -2.825375 -1.142391 -0.948563 0
M  V30 19 C -2.626371 -1.970388 0.269233 0
M  V30 20 H 2.011466 -1.725615 5.704131 0
M  V30 21 H -0.472338 -1.698437 5.306129 0
M  V30 22 H -1.372860 -1.026240 3.076450 0
M  V30 23 H 3.532981 -1.063601 3.811163 0
M  V30 24 H -0.262687 0.307225 -3.313397 0
M  V30 25 H -0.259728 0.309953 -3.306665 0
M  V30 26 H -1.637773 0.149015 1.292485 0
M  V30 27 H -0.933578 0.805307 -0.149556 0
M  V30 28 H -0.740128 -1.869866 -0.955271 0
M  V30 29 H -3.022255 -1.564727 -1.940163 0
M  V30 30 H -3.266605 -0.110943 -0.845734 0
M  V30 31 H -3.067256 -1.528992 1.187188 0
M  V30 32 H -2.721253 -3.058362 0.226847 0
M  V30 END ATOM
M  V30 BEGIN BOND
M  V30 1 2 1 2
M  V30 2 1 2 3
M  V30 3 2 3 4
M  V30 4 1 4 5
M  V30 5 2 5 6
M  V30 6 1 5 7
M  V30 7 2 7 8
M  V30 8 1 8 9
M  V30 9 2 9 10
M  V30 10 1 10 11
M  V30 11 1 11 12
M  V30 12 2 12 13
M  V30 13 1 13 14
M  V30 14 1 8 15
M  V30 15 1 15 16
M  V30 16 1 16 17
M  V30 17 1 17 18
M  V30 18 1 18 19
M  V30 19 1 6 1
M  V30 20 1 13 9
M  V30 21 1 19 17
M  V30 22 1 15 4
M  V30 23 1 1 20
M  V30 24 1 2 21
M  V30 25 1 3 22
M  V30 26 1 6 23
M  V30 27 1 14 24
M  V30 28 1 14 25
M  V30 29 1 16 26
M  V30 30 1 16 27
M  V30 31 1 17 28
M  V30 32 1 18 29
M  V30 33 1 18 30
M  V30 34 1 19 31
M  V30 35 1 19 32
M  V30 END BOND
M  V30 END CTAB
M  END
>  <Dataset>  (269) 
PDB

>  <Ligand_Instance>  (269) 
4C36_ZO9_A_1351

>  <PDB_ID>  (269) 
4C36

>  <Standardized_SMILES>  (269) 
[H]C1=C([H])C([H])=C2C(=C1[H])N=C(C1=NON=C1N([H])[H])N2C([H])([H])C1([H])C([H])([H])C1([H])[H]

>  <Name>  (269) 
4-[1-(cyclopropylmethyl)-1H-benzimidazol-2-yl]-1,2,5-oxadiazol-3-amine

>  <Pocket>  (269) 
A

>  <ATP_Site>  (269) 
1.0

>  <Peripheral>  (269) 
0.0

>  <Num_H_Atoms_ProtBoundConf>  (269) 
13.0

>  <Num_Resolved_Atoms>  (269) 
19.0

>  <Num_Not_Resolved_Atoms>  (269) 
0.0

$$$$
ZWG
     RDKit          3D

  0  0  0  0  0  0  0  0  0  0999 V3000
M  V30 BEGIN CTAB
M  V30 COUNTS 47 49 0 0 0
M  V30 BEGIN ATOM
M  V30 1 C -4.721671 -4.735234 2.974710 0
M  V30 2 N -3.973373 -5.823440 3.263250 0
M  V30 3 C -2.662071 -5.850332 2.952948 0
M  V30 4 C -2.094676 -4.753265 2.337508 0
M  V30 5 C -0.762989 -5.069323 2.147783 0
M  V30 6 C -0.508049 -6.335599 2.634785 0
M  V30 7 N -1.696211 -6.781862 3.120145 0
M  V30 8 C -2.785164 -3.602261 2.007515 0
M  V30 9 C -2.216603 -2.444702 1.365339 0
M  V30 10 C -1.364260 -2.370556 0.281497 0
M  V30 11 C -0.924801 -1.147648 -0.190641 0
M  V30 12 C -1.354169 0.005544 0.442442 0
M  V30 13 N -0.829704 1.194586 -0.140820 0
M  V30 14 C 0.390145 1.561235 0.458100 0
M  V30 15 O 0.863971 0.833978 1.398930 0
M  V30 16 C 1.337215 2.710892 0.218494 0 CFG=1
M  V30 17 C 2.720790 2.206918 0.125952 0
M  V30 18 C 3.824528 3.165300 -0.108365 0
M  V30 19 C 5.096232 2.290710 -0.138362 0
M  V30 20 C 3.805766 3.876429 -1.433844 0
M  V30 21 N 0.884109 3.595455 -0.795476 0 CHG=1 VAL=4
M  V30 22 C -2.206529 -0.012696 1.530394 0
M  V30 23 C -2.637710 -1.262534 1.989989 0
M  V30 24 C -4.139324 -3.641895 2.357217 0
M  V30 25 H -5.770486 -4.754154 3.240445 0
M  V30 26 H -0.002563 -4.448648 1.691789 0
M  V30 27 H 0.412770 -6.906245 2.656413 0
M  V30 28 H -1.822665 -7.738968 3.566587 0
M  V30 29 H -1.102227 -3.329587 -0.123683 0
M  V30 30 H -0.266308 -1.194752 -1.035618 0
M  V30 31 H -1.087814 1.876611 -0.887647 0
M  V30 32 H 1.281576 3.292123 1.188253 0
M  V30 33 H 2.750144 1.462562 -0.715394 0
M  V30 34 H 2.997990 1.598046 1.021092 0
M  V30 35 H 4.008188 3.855701 0.741434 0
M  V30 36 H 4.832135 1.482649 -0.879134 0
M  V30 37 H 5.954882 2.820257 -0.553128 0
M  V30 38 H 5.267604 1.780983 0.819907 0
M  V30 39 H 3.352314 3.234308 -2.199728 0
M  V30 40 H 3.410109 4.911622 -1.396187 0
M  V30 41 H 4.876886 4.026210 -1.766195 0
M  V30 42 H 0.998470 3.298685 -1.769967 0
M  V30 43 H -0.173680 3.671542 -0.669607 0
M  V30 44 H 1.206248 4.562016 -0.565697 0
M  V30 45 H -2.499274 0.918443 1.972645 0
M  V30 46 H -3.298984 -1.184007 2.840823 0
M  V30 47 H -4.780681 -2.789369 2.144704 0
M  V30 END ATOM
M  V30 BEGIN BOND
M  V30 1 2 1 2
M  V30 2 1 2 3
M  V30 3 2 3 4
M  V30 4 1 4 5
M  V30 5 2 5 6
M  V30 6 1 6 7
M  V30 7 1 4 8
M  V30 8 1 8 9
M  V30 9 2 9 10
M  V30 10 1 10 11
M  V30 11 2 11 12
M  V30 12 1 12 13
M  V30 13 1 13 14
M  V30 14 2 14 15
M  V30 15 1 14 16
M  V30 16 1 16 17
M  V30 17 1 17 18
M  V30 18 1 18 19
M  V30 19 1 18 20
M  V30 20 1 16 21
M  V30 21 1 12 22
M  V30 22 2 22 23
M  V30 23 2 8 24
M  V30 24 1 24 1
M  V30 25 1 7 3
M  V30 26 1 23 9
M  V30 27 1 1 25
M  V30 28 1 5 26
M  V30 29 1 6 27
M  V30 30 1 7 28
M  V30 31 1 10 29
M  V30 32 1 11 30
M  V30 33 1 13 31
M  V30 34 1 16 32 CFG=1
M  V30 35 1 17 33
M  V30 36 1 17 34
M  V30 37 1 18 35
M  V30 38 1 19 36
M  V30 39 1 19 37
M  V30 40 1 19 38
M  V30 41 1 20 39
M  V30 42 1 20 40
M  V30 43 1 20 41
M  V30 44 1 21 42
M  V30 45 1 21 43
M  V30 46 1 21 44
M  V30 47 1 22 45
M  V30 48 1 23 46
M  V30 49 1 24 47
M  V30 END BOND
M  V30 END CTAB
M  END
>  <Dataset>  (270) 
PDB

>  <Ligand_Instance>  (270) 
8SF8_ZWG_A_401

>  <PDB_ID>  (270) 
8SF8

>  <Standardized_SMILES>  (270) 
[H]C1=NC2=C(C([H])=C([H])N2[H])C(C2=C([H])C([H])=C(N([H])C(=O)[C@@]([H])(C([H])([H])C([H])(C([H])([H])[H])C([H])([H])[H])[N+]([H])([H])[H])C([H])=C2[H])=C1[H]

>  <Name>  (270) 
N-[4-(1H-pyrrolo[2,3-b]pyridin-4-yl)phenyl]-D-leucinamide

>  <Pocket>  (270) 
A

>  <ATP_Site>  (270) 
1.0

>  <Peripheral>  (270) 
0.0

>  <Num_H_Atoms_ProtBoundConf>  (270) 
23.0

>  <Num_Resolved_Atoms>  (270) 
24.0

>  <Num_Not_Resolved_Atoms>  (270) 
0.0

$$$$
